MODEL 1
REMARK VINA RESULT:    -4.713      0.000      0.000
REMARK INTER + INTRA:          -5.557
REMARK INTER:                  -5.816
REMARK INTRA:                   0.258
REMARK UNBOUND:                 0.258
REMARK SMILES C=C1[C@@H]2CC[C@H]3[C@H]2C(C)(C)CCC[C@@]13C
REMARK SMILES IDX 14 1 6 2 7 3 3 4 2 5 1 6 4 7 5 8 15 9 8 10 9 11 10 12 11 13
REMARK SMILES IDX 13 15 12 16
REMARK H PARENT
REMARK Flexibility Score: 80.00
ROOT
ATOM      1  C   UNL     1     102.253 105.111 128.358  1.00  0.00    -0.008 C 
ATOM      2  C   UNL     1     102.056 104.730 126.893  1.00  0.00     0.003 C 
ATOM      3  C   UNL     1     103.189 105.585 126.301  1.00  0.00     0.006 C 
ATOM      4  C   UNL     1     102.516 106.905 126.643  1.00  0.00     0.019 C 
ATOM      5  C   UNL     1     102.320 106.637 128.154  1.00  0.00    -0.068 C 
ATOM      6  C   UNL     1     102.293 107.570 129.110  1.00  0.00     0.009 C 
ATOM      7  C   UNL     1     101.149 106.790 125.987  1.00  0.00     0.008 C 
ATOM      8  C   UNL     1     100.795 105.320 126.211  1.00  0.00     0.005 C 
ATOM      9  C   UNL     1     101.081 104.681 129.260  1.00  0.00     0.016 C 
ENDROOT
BRANCH   3  10
ATOM     10  C   UNL     1     104.168 104.738 125.460  1.00  0.00    -0.032 C 
ATOM     11  C   UNL     1     103.449 103.868 124.400  1.00  0.00     0.011 C 
ATOM     12  C   UNL     1     105.139 105.675 124.700  1.00  0.00     0.011 C 
BRANCH  10  13
ATOM     13  C   UNL     1     104.983 103.821 126.493  1.00  0.00     0.007 CG0
ATOM     14  G   UNL     1     104.303 103.383 127.866  1.00  0.00     0.000 G0
ENDBRANCH  10  13
ENDBRANCH   3  10
BRANCH   1  15
ATOM     15  C   UNL     1     103.637 104.456 128.833  1.00  0.00     0.011 C 
BRANCH  15  16
ATOM     16  C   UNL     1     104.316 103.376 127.872  1.00  0.00     0.001 CG0
ATOM     17  G   UNL     1     104.998 103.817 126.500  1.00  0.00     0.000 G0
ENDBRANCH  15  16
ENDBRANCH   1  15
TORSDOF 0
ENDMDL
MODEL 2
REMARK VINA RESULT:    -4.680      5.660      7.620
REMARK INTER + INTRA:          -5.516
REMARK INTER:                  -5.776
REMARK INTRA:                   0.261
REMARK UNBOUND:                 0.258
REMARK SMILES C=C1[C@@H]2CC[C@H]3[C@H]2C(C)(C)CCC[C@@]13C
REMARK SMILES IDX 14 1 6 2 7 3 3 4 2 5 1 6 4 7 5 8 15 9 8 10 9 11 10 12 11 13
REMARK SMILES IDX 13 15 12 16
REMARK H PARENT
REMARK Flexibility Score: 80.00
ROOT
ATOM      1  C   UNL     1     110.188 107.325 128.272  1.00  0.00    -0.008 C 
ATOM      2  C   UNL     1     110.380 107.710 126.807  1.00  0.00     0.003 C 
ATOM      3  C   UNL     1     109.226 106.880 126.222  1.00  0.00     0.006 C 
ATOM      4  C   UNL     1     109.876 105.545 126.550  1.00  0.00     0.019 C 
ATOM      5  C   UNL     1     110.090 105.801 128.061  1.00  0.00    -0.068 C 
ATOM      6  C   UNL     1     110.107 104.863 129.013  1.00  0.00     0.009 C 
ATOM      7  C   UNL     1     111.239 105.637 125.884  1.00  0.00     0.008 C 
ATOM      8  C   UNL     1     111.623 107.099 126.111  1.00  0.00     0.005 C 
ATOM      9  C   UNL     1     111.377 107.727 129.166  1.00  0.00     0.016 C 
ENDROOT
BRANCH   3  10
ATOM     10  C   UNL     1     108.256 107.751 125.394  1.00  0.00    -0.032 C 
ATOM     11  C   UNL     1     108.983 108.621 124.339  1.00  0.00     0.011 C 
ATOM     12  C   UNL     1     107.268 106.836 124.628  1.00  0.00     0.011 C 
BRANCH  10  13
ATOM     13  C   UNL     1     107.459 108.668 126.439  1.00  0.00     0.007 CG0
ATOM     14  G   UNL     1     108.155 109.089 127.811  1.00  0.00     0.000 G0
ENDBRANCH  10  13
ENDBRANCH   3  10
BRANCH   1  15
ATOM     15  C   UNL     1     108.822 108.005 128.763  1.00  0.00     0.011 C 
BRANCH  15  16
ATOM     16  C   UNL     1     108.154 109.100 127.812  1.00  0.00     0.001 CG0
ATOM     17  G   UNL     1     107.462 108.679 126.439  1.00  0.00     0.000 G0
ENDBRANCH  15  16
ENDBRANCH   1  15
TORSDOF 0
ENDMDL
MODEL 3
REMARK VINA RESULT:    -4.677      4.133      5.396
REMARK INTER + INTRA:          -5.512
REMARK INTER:                  -5.771
REMARK INTRA:                   0.259
REMARK UNBOUND:                 0.258
REMARK SMILES C=C1[C@@H]2CC[C@H]3[C@H]2C(C)(C)CCC[C@@]13C
REMARK SMILES IDX 14 1 6 2 7 3 3 4 2 5 1 6 4 7 5 8 15 9 8 10 9 11 10 12 11 13
REMARK SMILES IDX 13 15 12 16
REMARK H PARENT
REMARK Flexibility Score: 80.00
ROOT
ATOM      1  C   UNL     1     105.230 110.134 128.292  1.00  0.00    -0.008 C 
ATOM      2  C   UNL     1     104.820 110.345 126.837  1.00  0.00     0.003 C 
ATOM      3  C   UNL     1     105.618 109.182 126.226  1.00  0.00     0.006 C 
ATOM      4  C   UNL     1     106.970 109.806 126.534  1.00  0.00     0.019 C 
ATOM      5  C   UNL     1     106.747 110.012 128.051  1.00  0.00    -0.068 C 
ATOM      6  C   UNL     1     107.703 110.005 128.984  1.00  0.00     0.009 C 
ATOM      7  C   UNL     1     106.889 111.176 125.880  1.00  0.00     0.008 C 
ATOM      8  C   UNL     1     105.439 111.584 126.139  1.00  0.00     0.005 C 
ATOM      9  C   UNL     1     104.866 111.322 129.203  1.00  0.00     0.016 C 
ENDROOT
BRANCH   3  10
ATOM     10  C   UNL     1     104.715 108.234 125.407  1.00  0.00    -0.032 C 
ATOM     11  C   UNL     1     103.845 108.985 124.368  1.00  0.00     0.011 C 
ATOM     12  C   UNL     1     105.598 107.231 124.623  1.00  0.00     0.011 C 
BRANCH  10  13
ATOM     13  C   UNL     1     103.797 107.452 126.462  1.00  0.00     0.007 CG0
ATOM     14  G   UNL     1     103.424 108.143 127.849  1.00  0.00     0.000 G0
ENDBRANCH  10  13
ENDBRANCH   3  10
BRANCH   1  15
ATOM     15  C   UNL     1     104.536 108.776 128.785  1.00  0.00     0.011 C 
BRANCH  15  16
ATOM     16  C   UNL     1     103.413 108.134 127.849  1.00  0.00     0.001 CG0
ATOM     17  G   UNL     1     103.797 107.446 126.463  1.00  0.00     0.000 G0
ENDBRANCH  15  16
ENDBRANCH   1  15
TORSDOF 0
ENDMDL
MODEL 4
REMARK VINA RESULT:    -4.668      4.152      5.410
REMARK INTER + INTRA:          -5.501
REMARK INTER:                  -5.762
REMARK INTRA:                   0.262
REMARK UNBOUND:                 0.258
REMARK SMILES C=C1[C@@H]2CC[C@H]3[C@H]2C(C)(C)CCC[C@@]13C
REMARK SMILES IDX 14 1 6 2 7 3 3 4 2 5 1 6 4 7 5 8 15 9 8 10 9 11 10 12 11 13
REMARK SMILES IDX 13 15 12 16
REMARK H PARENT
REMARK Flexibility Score: 80.00
ROOT
ATOM      1  C   UNL     1     107.378 102.247 128.353  1.00  0.00    -0.008 C 
ATOM      2  C   UNL     1     107.727 102.041 126.880  1.00  0.00     0.003 C 
ATOM      3  C   UNL     1     106.852 103.164 126.301  1.00  0.00     0.006 C 
ATOM      4  C   UNL     1     105.544 102.487 126.678  1.00  0.00     0.019 C 
ATOM      5  C   UNL     1     105.848 102.303 128.184  1.00  0.00    -0.068 C 
ATOM      6  C   UNL     1     104.938 102.278 129.162  1.00  0.00     0.009 C 
ATOM      7  C   UNL     1     105.652 101.115 126.030  1.00  0.00     0.008 C 
ATOM      8  C   UNL     1     107.129 100.771 126.222  1.00  0.00     0.005 C 
ATOM      9  C   UNL     1     107.836 101.084 129.253  1.00  0.00     0.016 C 
ENDROOT
BRANCH   3  10
ATOM     10  C   UNL     1     107.674 104.142 125.433  1.00  0.00    -0.032 C 
ATOM     11  C   UNL     1     108.539 103.418 124.371  1.00  0.00     0.011 C 
ATOM     12  C   UNL     1     106.712 105.087 124.670  1.00  0.00     0.011 C 
BRANCH  10  13
ATOM     13  C   UNL     1     108.592 104.986 126.440  1.00  0.00     0.007 CG0
ATOM     14  G   UNL     1     109.082 104.324 127.805  1.00  0.00     0.000 G0
ENDBRANCH  10  13
ENDBRANCH   3  10
BRANCH   1  15
ATOM     15  C   UNL     1     108.037 103.638 128.802  1.00  0.00     0.011 C 
BRANCH  15  16
ATOM     16  C   UNL     1     109.086 104.318 127.809  1.00  0.00     0.001 CG0
ATOM     17  G   UNL     1     108.606 104.982 126.441  1.00  0.00     0.000 G0
ENDBRANCH  15  16
ENDBRANCH   1  15
TORSDOF 0
ENDMDL
MODEL 5
REMARK VINA RESULT:    -4.495      5.204      7.204
REMARK INTER + INTRA:          -5.288
REMARK INTER:                  -5.543
REMARK INTRA:                   0.255
REMARK UNBOUND:                 0.258
REMARK SMILES C=C1[C@@H]2CC[C@H]3[C@H]2C(C)(C)CCC[C@@]13C
REMARK SMILES IDX 14 1 6 2 7 3 3 4 2 5 1 6 4 7 5 8 15 9 8 10 9 11 10 12 11 13
REMARK SMILES IDX 13 15 12 16
REMARK H PARENT
REMARK Flexibility Score: 80.00
ROOT
ATOM      1  C   UNL     1     109.962 106.473 127.762  1.00  0.00    -0.008 C 
ATOM      2  C   UNL     1     108.523 106.028 127.512  1.00  0.00     0.003 C 
ATOM      3  C   UNL     1     108.091 105.886 128.980  1.00  0.00     0.006 C 
ATOM      4  C   UNL     1     109.014 104.707 129.249  1.00  0.00     0.019 C 
ATOM      5  C   UNL     1     110.328 105.381 128.785  1.00  0.00    -0.068 C 
ATOM      6  C   UNL     1     111.548 105.106 129.254  1.00  0.00     0.009 C 
ATOM      7  C   UNL     1     108.627 103.699 128.180  1.00  0.00     0.008 C 
ATOM      8  C   UNL     1     108.353 104.587 126.967  1.00  0.00     0.005 C 
ATOM      9  C   UNL     1     110.841 106.424 126.498  1.00  0.00     0.016 C 
ENDROOT
BRANCH   3  10
ATOM     10  C   UNL     1     106.831 106.722 129.291  1.00  0.00    -0.032 C 
ATOM     11  C   UNL     1     105.673 106.454 128.299  1.00  0.00     0.011 C 
ATOM     12  C   UNL     1     106.312 106.365 130.706  1.00  0.00     0.011 C 
BRANCH  10  13
ATOM     13  C   UNL     1     107.280 108.261 129.242  1.00  0.00     0.007 CG0
ATOM     14  G   UNL     1     108.506 108.696 128.321  1.00  0.00     0.000 G0
ENDBRANCH  10  13
ENDBRANCH   3  10
BRANCH   1  15
ATOM     15  C   UNL     1     109.897 107.951 128.381  1.00  0.00     0.011 C 
BRANCH  15  16
ATOM     16  C   UNL     1     108.498 108.719 128.325  1.00  0.00     0.001 CG0
ATOM     17  G   UNL     1     107.278 108.263 129.243  1.00  0.00     0.000 G0
ENDBRANCH  15  16
ENDBRANCH   1  15
TORSDOF 0
ENDMDL
MODEL 6
REMARK VINA RESULT:    -4.473      4.419      5.985
REMARK INTER + INTRA:          -5.260
REMARK INTER:                  -5.521
REMARK INTRA:                   0.261
REMARK UNBOUND:                 0.258
REMARK SMILES C=C1[C@@H]2CC[C@H]3[C@H]2C(C)(C)CCC[C@@]13C
REMARK SMILES IDX 14 1 6 2 7 3 3 4 2 5 1 6 4 7 5 8 15 9 8 10 9 11 10 12 11 13
REMARK SMILES IDX 13 15 12 16
REMARK H PARENT
REMARK Flexibility Score: 80.00
ROOT
ATOM      1  C   UNL     1     106.015 109.942 127.709  1.00  0.00    -0.008 C 
ATOM      2  C   UNL     1     106.490 108.517 127.436  1.00  0.00     0.003 C 
ATOM      3  C   UNL     1     106.582 108.045 128.897  1.00  0.00     0.006 C 
ATOM      4  C   UNL     1     107.735 108.976 129.238  1.00  0.00     0.019 C 
ATOM      5  C   UNL     1     107.062 110.293 128.784  1.00  0.00    -0.068 C 
ATOM      6  C   UNL     1     107.300 111.503 129.297  1.00  0.00     0.009 C 
ATOM      7  C   UNL     1     108.790 108.633 128.198  1.00  0.00     0.008 C 
ATOM      8  C   UNL     1     107.954 108.381 126.944  1.00  0.00     0.005 C 
ATOM      9  C   UNL     1     106.101 110.857 126.473  1.00  0.00     0.016 C 
ENDROOT
BRANCH   3  10
ATOM     10  C   UNL     1     105.752 106.766 129.140  1.00  0.00    -0.032 C 
ATOM     11  C   UNL     1     106.063 105.646 128.116  1.00  0.00     0.011 C 
ATOM     12  C   UNL     1     106.077 106.201 130.545  1.00  0.00     0.011 C 
BRANCH  10  13
ATOM     13  C   UNL     1     104.211 107.199 129.063  1.00  0.00     0.007 CG0
ATOM     14  G   UNL     1     103.783 108.437 128.154  1.00  0.00     0.000 G0
ENDBRANCH  10  13
ENDBRANCH   3  10
BRANCH   1  15
ATOM     15  C   UNL     1     104.516 109.839 128.267  1.00  0.00     0.011 C 
BRANCH  15  16
ATOM     16  C   UNL     1     103.773 108.430 128.147  1.00  0.00     0.001 CG0
ATOM     17  G   UNL     1     104.206 107.198 129.061  1.00  0.00     0.000 G0
ENDBRANCH  15  16
ENDBRANCH   1  15
TORSDOF 0
ENDMDL
MODEL 7
REMARK VINA RESULT:    -4.392      1.908      3.191
REMARK INTER + INTRA:          -5.161
REMARK INTER:                  -5.413
REMARK INTRA:                   0.252
REMARK UNBOUND:                 0.258
REMARK SMILES C=C1[C@@H]2CC[C@H]3[C@H]2C(C)(C)CCC[C@@]13C
REMARK SMILES IDX 14 1 6 2 7 3 3 4 2 5 1 6 4 7 5 8 15 9 8 10 9 11 10 12 11 13
REMARK SMILES IDX 13 15 12 16
REMARK H PARENT
REMARK Flexibility Score: 80.00
ROOT
ATOM      1  C   UNL     1     102.676 106.035 127.572  1.00  0.00    -0.008 C 
ATOM      2  C   UNL     1     104.074 106.612 127.363  1.00  0.00     0.003 C 
ATOM      3  C   UNL     1     104.528 106.596 128.832  1.00  0.00     0.006 C 
ATOM      4  C   UNL     1     103.531 107.660 129.264  1.00  0.00     0.019 C 
ATOM      5  C   UNL     1     102.257 106.958 128.733  1.00  0.00    -0.068 C 
ATOM      6  C   UNL     1     101.032 107.080 129.250  1.00  0.00     0.009 C 
ATOM      7  C   UNL     1     103.821 108.823 128.329  1.00  0.00     0.008 C 
ATOM      8  C   UNL     1     104.130 108.120 127.007  1.00  0.00     0.005 C 
ATOM      9  C   UNL     1     101.767 106.183 126.337  1.00  0.00     0.016 C 
ENDROOT
BRANCH   3  10
ATOM     10  C   UNL     1     105.850 105.820 129.015  1.00  0.00    -0.032 C 
ATOM     11  C   UNL     1     106.962 106.294 128.047  1.00  0.00     0.011 C 
ATOM     12  C   UNL     1     106.377 106.034 130.455  1.00  0.00     0.011 C 
BRANCH  10  13
ATOM     13  C   UNL     1     105.508 104.272 128.778  1.00  0.00     0.007 CG0
ATOM     14  G   UNL     1     104.309 103.867 127.809  1.00  0.00     0.000 G0
ENDBRANCH  10  13
ENDBRANCH   3  10
BRANCH   1  15
ATOM     15  C   UNL     1     102.859 104.499 127.993  1.00  0.00     0.011 C 
BRANCH  15  16
ATOM     16  C   UNL     1     104.306 103.848 127.816  1.00  0.00     0.001 CG0
ATOM     17  G   UNL     1     105.509 104.253 128.781  1.00  0.00     0.000 G0
ENDBRANCH  15  16
ENDBRANCH   1  15
TORSDOF 0
ENDMDL
MODEL 8
REMARK VINA RESULT:    -4.351      2.890      4.878
REMARK INTER + INTRA:          -5.111
REMARK INTER:                  -5.371
REMARK INTRA:                   0.261
REMARK UNBOUND:                 0.258
REMARK SMILES C=C1[C@@H]2CC[C@H]3[C@H]2C(C)(C)CCC[C@@]13C
REMARK SMILES IDX 14 1 6 2 7 3 3 4 2 5 1 6 4 7 5 8 15 9 8 10 9 11 10 12 11 13
REMARK SMILES IDX 13 15 12 16
REMARK H PARENT
REMARK Flexibility Score: 80.00
ROOT
ATOM      1  C   UNL     1     106.189 102.465 127.450  1.00  0.00    -0.008 C 
ATOM      2  C   UNL     1     105.680 103.893 127.263  1.00  0.00     0.003 C 
ATOM      3  C   UNL     1     105.888 104.378 128.706  1.00  0.00     0.006 C 
ATOM      4  C   UNL     1     104.819 103.463 129.282  1.00  0.00     0.019 C 
ATOM      5  C   UNL     1     105.377 102.134 128.717  1.00  0.00    -0.068 C 
ATOM      6  C   UNL     1     105.237 100.932 129.281  1.00  0.00     0.009 C 
ATOM      7  C   UNL     1     103.579 103.807 128.472  1.00  0.00     0.008 C 
ATOM      8  C   UNL     1     104.148 104.039 127.073  1.00  0.00     0.005 C 
ATOM      9  C   UNL     1     105.849 101.540 126.266  1.00  0.00     0.016 C 
ENDROOT
BRANCH   3  10
ATOM     10  C   UNL     1     106.760 105.651 128.764  1.00  0.00    -0.032 C 
ATOM     11  C   UNL     1     106.262 106.763 127.808  1.00  0.00     0.011 C 
ATOM     12  C   UNL     1     106.727 106.234 130.198  1.00  0.00     0.011 C 
BRANCH  10  13
ATOM     13  C   UNL     1     108.252 105.200 128.388  1.00  0.00     0.007 CG0
ATOM     14  G   UNL     1     108.480 103.956 127.417  1.00  0.00     0.000 G0
ENDBRANCH  10  13
ENDBRANCH   3  10
BRANCH   1  15
ATOM     15  C   UNL     1     107.770 102.557 127.693  1.00  0.00     0.011 C 
BRANCH  15  16
ATOM     16  C   UNL     1     108.486 103.956 127.410  1.00  0.00     0.001 CG0
ATOM     17  G   UNL     1     108.265 105.200 128.382  1.00  0.00     0.000 G0
ENDBRANCH  15  16
ENDBRANCH   1  15
TORSDOF 0
ENDMDL
MODEL 9
REMARK VINA RESULT:    -4.224      5.231      7.464
REMARK INTER + INTRA:          -4.954
REMARK INTER:                  -5.222
REMARK INTRA:                   0.268
REMARK UNBOUND:                 0.258
REMARK SMILES C=C1[C@@H]2CC[C@H]3[C@H]2C(C)(C)CCC[C@@]13C
REMARK SMILES IDX 14 1 6 2 7 3 3 4 2 5 1 6 4 7 5 8 15 9 8 10 9 11 10 12 11 13
REMARK SMILES IDX 13 15 12 16
REMARK H PARENT
REMARK Flexibility Score: 80.00
ROOT
ATOM      1  C   UNL     1     109.436 107.034 125.878  1.00  0.00    -0.008 C 
ATOM      2  C   UNL     1     108.375 106.716 126.930  1.00  0.00     0.003 C 
ATOM      3  C   UNL     1     108.599 107.944 127.828  1.00  0.00     0.006 C 
ATOM      4  C   UNL     1     109.987 107.505 128.266  1.00  0.00     0.019 C 
ATOM      5  C   UNL     1     110.591 107.333 126.852  1.00  0.00    -0.068 C 
ATOM      6  C   UNL     1     111.878 107.496 126.534  1.00  0.00     0.009 C 
ATOM      7  C   UNL     1     109.760 106.110 128.827  1.00  0.00     0.008 C 
ATOM      8  C   UNL     1     108.706 105.537 127.880  1.00  0.00     0.005 C 
ATOM      9  C   UNL     1     109.737 105.848 124.943  1.00  0.00     0.016 C 
ENDROOT
BRANCH   3  10
ATOM     10  C   UNL     1     107.293 108.739 128.047  1.00  0.00    -0.032 C 
ATOM     11  C   UNL     1     106.118 107.844 128.513  1.00  0.00     0.011 C 
ATOM     12  C   UNL     1     107.519 109.805 129.148  1.00  0.00     0.011 C 
BRANCH  10  13
ATOM     13  C   UNL     1     106.951 109.451 126.653  1.00  0.00     0.007 CG0
ATOM     14  G   UNL     1     107.404 108.768 125.285  1.00  0.00     0.000 G0
ENDBRANCH  10  13
ENDBRANCH   3  10
BRANCH   1  15
ATOM     15  C   UNL     1     108.921 108.315 125.063  1.00  0.00     0.011 C 
BRANCH  15  16
ATOM     16  C   UNL     1     107.408 108.777 125.282  1.00  0.00     0.001 CG0
ATOM     17  G   UNL     1     106.951 109.458 126.649  1.00  0.00     0.000 G0
ENDBRANCH  15  16
ENDBRANCH   1  15
TORSDOF 0
ENDMDL
