MODEL 1
REMARK VINA RESULT:    -5.993      0.000      0.000
REMARK INTER + INTRA:          -7.305
REMARK INTER:                  -7.044
REMARK INTRA:                  -0.262
REMARK UNBOUND:                -0.262
REMARK SMILES O=c1c(O)c(-c2ccc(O)cc2)oc2cc(O)cc(O)c12
REMARK SMILES IDX 5 1 3 2 2 3 1 4 21 5 19 6 18 7 16 8 15 9 14 10 13 11 6 12
REMARK SMILES IDX 7 13 8 14 9 15 12 16 11 17 10 18 4 20 20 22 17 24
REMARK H PARENT 10 19 4 21 20 23 17 25
REMARK Flexibility Score: inf
ROOT
ATOM      1  C   UNL     1      29.669  59.390   1.597  1.00  0.00     0.180 A 
ATOM      2  C   UNL     1      28.831  60.520   1.652  1.00  0.00     0.208 A 
ATOM      3  C   UNL     1      28.235  60.982   0.468  1.00  0.00     0.238 A 
ATOM      4  O   UNL     1      27.491  61.999   0.503  1.00  0.00    -0.285 OA
ATOM      5  C   UNL     1      28.471  60.299  -0.743  1.00  0.00     0.111 A 
ATOM      6  C   UNL     1      27.906  60.697  -1.979  1.00  0.00     0.134 A 
ATOM      7  C   UNL     1      28.182  59.958  -3.140  1.00  0.00     0.093 A 
ATOM      8  C   UNL     1      29.007  58.833  -3.089  1.00  0.00     0.123 A 
ATOM      9  C   UNL     1      29.567  58.434  -1.871  1.00  0.00     0.094 A 
ATOM     10  C   UNL     1      29.307  59.158  -0.703  1.00  0.00     0.146 A 
ATOM     11  O   UNL     1      29.856  58.763   0.439  1.00  0.00    -0.452 OA
ENDROOT
BRANCH   1  12
ATOM     12  C   UNL     1      30.347  58.855   2.799  1.00  0.00     0.021 A 
ATOM     13  C   UNL     1      29.636  58.025   3.682  1.00  0.00     0.016 A 
ATOM     14  C   UNL     1      30.263  57.490   4.812  1.00  0.00     0.047 A 
ATOM     15  C   UNL     1      31.613  57.764   5.064  1.00  0.00     0.115 A 
ATOM     16  C   UNL     1      31.709  59.109   3.048  1.00  0.00     0.016 A 
ATOM     17  C   UNL     1      32.334  58.572   4.177  1.00  0.00     0.047 A 
BRANCH  15  18
ATOM     18  O   UNL     1      32.248  57.237   6.186  1.00  0.00    -0.508 OA
ATOM     19  H   UNL     1      32.948  57.765   6.694  1.00  0.00     0.293 HD
ENDBRANCH  15  18
ENDBRANCH   1  12
BRANCH   2  20
ATOM     20  O   UNL     1      28.574  61.150   2.873  1.00  0.00    -0.502 OA
ATOM     21  H   UNL     1      29.266  61.717   3.347  1.00  0.00     0.293 HD
ENDBRANCH   2  20
BRANCH   6  22
ATOM     22  O   UNL     1      27.077  61.816  -2.063  1.00  0.00    -0.507 OA
ATOM     23  H   UNL     1      27.449  62.745  -2.217  1.00  0.00     0.293 HD
ENDBRANCH   6  22
BRANCH   8  24
ATOM     24  O   UNL     1      29.263  58.116  -4.255  1.00  0.00    -0.508 OA
ATOM     25  H   UNL     1      28.649  58.174  -5.059  1.00  0.00     0.293 HD
ENDBRANCH   8  24
TORSDOF 5
ENDMDL
MODEL 2
REMARK VINA RESULT:    -5.949      3.756      6.708
REMARK INTER + INTRA:          -7.253
REMARK INTER:                  -7.018
REMARK INTRA:                  -0.235
REMARK UNBOUND:                -0.262
REMARK SMILES O=c1c(O)c(-c2ccc(O)cc2)oc2cc(O)cc(O)c12
REMARK SMILES IDX 5 1 3 2 2 3 1 4 21 5 19 6 18 7 16 8 15 9 14 10 13 11 6 12
REMARK SMILES IDX 7 13 8 14 9 15 12 16 11 17 10 18 4 20 20 22 17 24
REMARK H PARENT 10 19 4 21 20 23 17 25
REMARK Flexibility Score: inf
ROOT
ATOM      1  C   UNL     1      28.875  57.335   6.720  1.00  0.00     0.180 A 
ATOM      2  C   UNL     1      30.244  57.424   7.037  1.00  0.00     0.208 A 
ATOM      3  C   UNL     1      31.145  57.836   6.042  1.00  0.00     0.238 A 
ATOM      4  O   UNL     1      32.374  57.909   6.311  1.00  0.00    -0.285 OA
ATOM      5  C   UNL     1      30.663  58.169   4.760  1.00  0.00     0.111 A 
ATOM      6  C   UNL     1      31.503  58.596   3.703  1.00  0.00     0.134 A 
ATOM      7  C   UNL     1      30.945  58.918   2.457  1.00  0.00     0.093 A 
ATOM      8  C   UNL     1      29.568  58.823   2.247  1.00  0.00     0.123 A 
ATOM      9  C   UNL     1      28.732  58.403   3.287  1.00  0.00     0.094 A 
ATOM     10  C   UNL     1      29.269  58.074   4.536  1.00  0.00     0.146 A 
ATOM     11  O   UNL     1      28.455  57.672   5.504  1.00  0.00    -0.452 OA
ENDROOT
BRANCH   1  12
ATOM     12  C   UNL     1      27.866  56.891   7.709  1.00  0.00     0.021 A 
ATOM     13  C   UNL     1      26.953  57.823   8.231  1.00  0.00     0.016 A 
ATOM     14  C   UNL     1      25.977  57.421   9.149  1.00  0.00     0.047 A 
ATOM     15  C   UNL     1      25.892  56.081   9.545  1.00  0.00     0.115 A 
ATOM     16  C   UNL     1      27.761  55.543   8.096  1.00  0.00     0.016 A 
ATOM     17  C   UNL     1      26.784  55.143   9.013  1.00  0.00     0.047 A 
BRANCH  15  18
ATOM     18  O   UNL     1      24.925  55.669  10.458  1.00  0.00    -0.508 OA
ATOM     19  H   UNL     1      25.148  55.528  11.437  1.00  0.00     0.293 HD
ENDBRANCH  15  18
ENDBRANCH   1  12
BRANCH   2  20
ATOM     20  O   UNL     1      30.690  57.136   8.330  1.00  0.00    -0.502 OA
ATOM     21  H   UNL     1      31.606  56.746   8.513  1.00  0.00     0.293 HD
ENDBRANCH   2  20
BRANCH   6  22
ATOM     22  O   UNL     1      32.883  58.702   3.881  1.00  0.00    -0.507 OA
ATOM     23  H   UNL     1      33.335  59.596   4.028  1.00  0.00     0.293 HD
ENDBRANCH   6  22
BRANCH   8  24
ATOM     24  O   UNL     1      29.039  59.151   1.001  1.00  0.00    -0.508 OA
ATOM     25  H   UNL     1      29.627  59.231   0.180  1.00  0.00     0.293 HD
ENDBRANCH   8  24
TORSDOF 5
ENDMDL
MODEL 3
REMARK VINA RESULT:    -5.796     13.437     16.302
REMARK INTER + INTRA:          -7.074
REMARK INTER:                  -6.932
REMARK INTRA:                  -0.142
REMARK UNBOUND:                -0.262
REMARK SMILES O=c1c(O)c(-c2ccc(O)cc2)oc2cc(O)cc(O)c12
REMARK SMILES IDX 5 1 3 2 2 3 1 4 21 5 19 6 18 7 16 8 15 9 14 10 13 11 6 12
REMARK SMILES IDX 7 13 8 14 9 15 12 16 11 17 10 18 4 20 20 22 17 24
REMARK H PARENT 10 19 4 21 20 23 17 25
REMARK Flexibility Score: inf
ROOT
ATOM      1  C   UNL     1      34.981  69.854   9.448  1.00  0.00     0.180 A 
ATOM      2  C   UNL     1      35.524  71.124   9.179  1.00  0.00     0.208 A 
ATOM      3  C   UNL     1      36.584  71.591   9.973  1.00  0.00     0.238 A 
ATOM      4  O   UNL     1      37.072  72.731   9.748  1.00  0.00    -0.285 OA
ATOM      5  C   UNL     1      37.093  70.776  11.005  1.00  0.00     0.111 A 
ATOM      6  C   UNL     1      38.160  71.169  11.847  1.00  0.00     0.134 A 
ATOM      7  C   UNL     1      38.616  70.296  12.847  1.00  0.00     0.093 A 
ATOM      8  C   UNL     1      38.028  69.042  13.019  1.00  0.00     0.123 A 
ATOM      9  C   UNL     1      36.973  68.647  12.190  1.00  0.00     0.094 A 
ATOM     10  C   UNL     1      36.502  69.503  11.190  1.00  0.00     0.146 A 
ATOM     11  O   UNL     1      35.496  69.107  10.420  1.00  0.00    -0.452 OA
ENDROOT
BRANCH   1  12
ATOM     12  C   UNL     1      33.850  69.301   8.667  1.00  0.00     0.021 A 
ATOM     13  C   UNL     1      34.043  68.961   7.318  1.00  0.00     0.016 A 
ATOM     14  C   UNL     1      32.996  68.416   6.567  1.00  0.00     0.047 A 
ATOM     15  C   UNL     1      31.748  68.190   7.161  1.00  0.00     0.115 A 
ATOM     16  C   UNL     1      32.600  69.052   9.262  1.00  0.00     0.016 A 
ATOM     17  C   UNL     1      31.555  68.505   8.510  1.00  0.00     0.047 A 
BRANCH  15  18
ATOM     18  O   UNL     1      30.698  67.648   6.424  1.00  0.00    -0.508 OA
ATOM     19  H   UNL     1      30.866  67.104   5.586  1.00  0.00     0.293 HD
ENDBRANCH  15  18
ENDBRANCH   1  12
BRANCH   2  20
ATOM     20  O   UNL     1      35.035  71.892   8.119  1.00  0.00    -0.502 OA
ATOM     21  H   UNL     1      35.538  71.996   7.246  1.00  0.00     0.293 HD
ENDBRANCH   2  20
BRANCH   6  22
ATOM     22  O   UNL     1      38.770  72.416  11.700  1.00  0.00    -0.507 OA
ATOM     23  H   UNL     1      38.875  72.855  10.794  1.00  0.00     0.293 HD
ENDBRANCH   6  22
BRANCH   8  24
ATOM     24  O   UNL     1      38.500  68.194  14.018  1.00  0.00    -0.508 OA
ATOM     25  H   UNL     1      37.885  67.821  14.732  1.00  0.00     0.293 HD
ENDBRANCH   8  24
TORSDOF 5
ENDMDL
MODEL 4
REMARK VINA RESULT:    -5.755      5.663      9.733
REMARK INTER + INTRA:          -7.025
REMARK INTER:                  -6.821
REMARK INTRA:                  -0.205
REMARK UNBOUND:                -0.262
REMARK SMILES O=c1c(O)c(-c2ccc(O)cc2)oc2cc(O)cc(O)c12
REMARK SMILES IDX 5 1 3 2 2 3 1 4 21 5 19 6 18 7 16 8 15 9 14 10 13 11 6 12
REMARK SMILES IDX 7 13 8 14 9 15 12 16 11 17 10 18 4 20 20 22 17 24
REMARK H PARENT 10 19 4 21 20 23 17 25
REMARK Flexibility Score: inf
ROOT
ATOM      1  C   UNL     1      28.464  57.553   8.005  1.00  0.00     0.180 A 
ATOM      2  C   UNL     1      28.208  58.704   8.775  1.00  0.00     0.208 A 
ATOM      3  C   UNL     1      27.293  58.622   9.836  1.00  0.00     0.238 A 
ATOM      4  O   UNL     1      27.049  59.648  10.526  1.00  0.00    -0.285 OA
ATOM      5  C   UNL     1      26.665  57.391  10.120  1.00  0.00     0.111 A 
ATOM      6  C   UNL     1      25.734  57.222  11.173  1.00  0.00     0.134 A 
ATOM      7  C   UNL     1      25.159  55.962  11.399  1.00  0.00     0.093 A 
ATOM      8  C   UNL     1      25.497  54.872  10.595  1.00  0.00     0.123 A 
ATOM      9  C   UNL     1      26.417  55.032   9.553  1.00  0.00     0.094 A 
ATOM     10  C   UNL     1      26.999  56.280   9.311  1.00  0.00     0.146 A 
ATOM     11  O   UNL     1      27.864  56.407   8.312  1.00  0.00    -0.452 OA
ENDROOT
BRANCH   1  12
ATOM     12  C   UNL     1      29.402  57.565   6.859  1.00  0.00     0.021 A 
ATOM     13  C   UNL     1      30.785  57.613   7.099  1.00  0.00     0.016 A 
ATOM     14  C   UNL     1      31.690  57.603   6.032  1.00  0.00     0.047 A 
ATOM     15  C   UNL     1      31.223  57.529   4.714  1.00  0.00     0.115 A 
ATOM     16  C   UNL     1      28.941  57.471   5.533  1.00  0.00     0.016 A 
ATOM     17  C   UNL     1      29.848  57.460   4.468  1.00  0.00     0.047 A 
BRANCH  15  18
ATOM     18  O   UNL     1      32.114  57.519   3.643  1.00  0.00    -0.508 OA
ATOM     19  H   UNL     1      32.416  56.652   3.215  1.00  0.00     0.293 HD
ENDBRANCH  15  18
ENDBRANCH   1  12
BRANCH   2  20
ATOM     20  O   UNL     1      28.881  59.899   8.503  1.00  0.00    -0.502 OA
ATOM     21  H   UNL     1      28.436  60.676   8.030  1.00  0.00     0.293 HD
ENDBRANCH   2  20
BRANCH   6  22
ATOM     22  O   UNL     1      25.376  58.292  11.995  1.00  0.00    -0.507 OA
ATOM     23  H   UNL     1      25.740  58.388  12.935  1.00  0.00     0.293 HD
ENDBRANCH   6  22
BRANCH   8  24
ATOM     24  O   UNL     1      24.913  53.631  10.840  1.00  0.00    -0.508 OA
ATOM     25  H   UNL     1      25.475  52.810  11.035  1.00  0.00     0.293 HD
ENDBRANCH   8  24
TORSDOF 5
ENDMDL
MODEL 5
REMARK VINA RESULT:    -5.691      1.884      6.949
REMARK INTER + INTRA:          -6.950
REMARK INTER:                  -6.691
REMARK INTRA:                  -0.260
REMARK UNBOUND:                -0.262
REMARK SMILES O=c1c(O)c(-c2ccc(O)cc2)oc2cc(O)cc(O)c12
REMARK SMILES IDX 5 1 3 2 2 3 1 4 21 5 19 6 18 7 16 8 15 9 14 10 13 11 6 12
REMARK SMILES IDX 7 13 8 14 9 15 12 16 11 17 10 18 4 20 20 22 17 24
REMARK H PARENT 10 19 4 21 20 23 17 25
REMARK Flexibility Score: inf
ROOT
ATOM      1  C   UNL     1      30.092  59.257   1.821  1.00  0.00     0.180 A 
ATOM      2  C   UNL     1      31.236  59.960   2.244  1.00  0.00     0.208 A 
ATOM      3  C   UNL     1      31.624  59.879   3.590  1.00  0.00     0.238 A 
ATOM      4  O   UNL     1      32.641  60.513   3.982  1.00  0.00    -0.285 OA
ATOM      5  C   UNL     1      30.876  59.084   4.484  1.00  0.00     0.111 A 
ATOM      6  C   UNL     1      31.202  58.946   5.855  1.00  0.00     0.134 A 
ATOM      7  C   UNL     1      30.413  58.128   6.678  1.00  0.00     0.093 A 
ATOM      8  C   UNL     1      29.310  57.448   6.159  1.00  0.00     0.123 A 
ATOM      9  C   UNL     1      28.983  57.580   4.805  1.00  0.00     0.094 A 
ATOM     10  C   UNL     1      29.755  58.392   3.968  1.00  0.00     0.146 A 
ATOM     11  O   UNL     1      29.420  58.506   2.689  1.00  0.00    -0.452 OA
ENDROOT
BRANCH   1  12
ATOM     12  C   UNL     1      29.609  59.308   0.422  1.00  0.00     0.021 A 
ATOM     13  C   UNL     1      30.218  58.496  -0.549  1.00  0.00     0.016 A 
ATOM     14  C   UNL     1      29.764  58.512  -1.872  1.00  0.00     0.047 A 
ATOM     15  C   UNL     1      28.685  59.327  -2.236  1.00  0.00     0.115 A 
ATOM     16  C   UNL     1      28.513  60.109   0.053  1.00  0.00     0.016 A 
ATOM     17  C   UNL     1      28.060  60.121  -1.270  1.00  0.00     0.047 A 
BRANCH  15  18
ATOM     18  O   UNL     1      28.224  59.350  -3.551  1.00  0.00    -0.508 OA
ATOM     19  H   UNL     1      28.639  58.767  -4.267  1.00  0.00     0.293 HD
ENDBRANCH  15  18
ENDBRANCH   1  12
BRANCH   2  20
ATOM     20  O   UNL     1      31.988  60.702   1.328  1.00  0.00    -0.502 OA
ATOM     21  H   UNL     1      32.068  61.710   1.381  1.00  0.00     0.293 HD
ENDBRANCH   2  20
BRANCH   6  22
ATOM     22  O   UNL     1      32.298  59.612   6.404  1.00  0.00    -0.507 OA
ATOM     23  H   UNL     1      32.541  60.556   6.129  1.00  0.00     0.293 HD
ENDBRANCH   6  22
BRANCH   8  24
ATOM     24  O   UNL     1      28.544  56.641   6.997  1.00  0.00    -0.508 OA
ATOM     25  H   UNL     1      28.439  56.850   7.983  1.00  0.00     0.293 HD
ENDBRANCH   8  24
TORSDOF 5
ENDMDL
MODEL 6
REMARK VINA RESULT:    -5.652      6.110      7.612
REMARK INTER + INTRA:          -6.905
REMARK INTER:                  -6.738
REMARK INTRA:                  -0.167
REMARK UNBOUND:                -0.262
REMARK SMILES O=c1c(O)c(-c2ccc(O)cc2)oc2cc(O)cc(O)c12
REMARK SMILES IDX 5 1 3 2 2 3 1 4 21 5 19 6 18 7 16 8 15 9 14 10 13 11 6 12
REMARK SMILES IDX 7 13 8 14 9 15 12 16 11 17 10 18 4 20 20 22 17 24
REMARK H PARENT 10 19 4 21 20 23 17 25
REMARK Flexibility Score: inf
ROOT
ATOM      1  C   UNL     1      30.790  65.150   4.804  1.00  0.00     0.180 A 
ATOM      2  C   UNL     1      29.852  65.260   3.760  1.00  0.00     0.208 A 
ATOM      3  C   UNL     1      29.674  64.173   2.890  1.00  0.00     0.238 A 
ATOM      4  O   UNL     1      28.844  64.264   1.946  1.00  0.00    -0.285 OA
ATOM      5  C   UNL     1      30.420  62.993   3.088  1.00  0.00     0.111 A 
ATOM      6  C   UNL     1      30.298  61.852   2.259  1.00  0.00     0.134 A 
ATOM      7  C   UNL     1      31.070  60.711   2.528  1.00  0.00     0.093 A 
ATOM      8  C   UNL     1      31.957  60.689   3.606  1.00  0.00     0.123 A 
ATOM      9  C   UNL     1      32.081  61.813   4.429  1.00  0.00     0.094 A 
ATOM     10  C   UNL     1      31.323  62.961   4.177  1.00  0.00     0.146 A 
ATOM     11  O   UNL     1      31.465  64.016   4.969  1.00  0.00    -0.452 OA
ENDROOT
BRANCH   1  12
ATOM     12  C   UNL     1      31.048  66.260   5.751  1.00  0.00     0.021 A 
ATOM     13  C   UNL     1      30.773  66.080   7.117  1.00  0.00     0.016 A 
ATOM     14  C   UNL     1      31.029  67.106   8.032  1.00  0.00     0.047 A 
ATOM     15  C   UNL     1      31.577  68.318   7.595  1.00  0.00     0.115 A 
ATOM     16  C   UNL     1      31.617  67.473   5.323  1.00  0.00     0.016 A 
ATOM     17  C   UNL     1      31.874  68.497   6.240  1.00  0.00     0.047 A 
BRANCH  15  18
ATOM     18  O   UNL     1      31.837  69.347   8.498  1.00  0.00    -0.508 OA
ATOM     19  H   UNL     1      32.781  69.566   8.793  1.00  0.00     0.293 HD
ENDBRANCH  15  18
ENDBRANCH   1  12
BRANCH   2  20
ATOM     20  O   UNL     1      29.090  66.423   3.616  1.00  0.00    -0.502 OA
ATOM     21  H   UNL     1      29.106  67.171   4.298  1.00  0.00     0.293 HD
ENDBRANCH   2  20
BRANCH   6  22
ATOM     22  O   UNL     1      29.420  61.842   1.174  1.00  0.00    -0.507 OA
ATOM     23  H   UNL     1      29.479  61.141   0.447  1.00  0.00     0.293 HD
ENDBRANCH   6  22
BRANCH   8  24
ATOM     24  O   UNL     1      32.709  59.544   3.852  1.00  0.00    -0.508 OA
ATOM     25  H   UNL     1      32.272  58.666   4.107  1.00  0.00     0.293 HD
ENDBRANCH   8  24
TORSDOF 5
ENDMDL
MODEL 7
REMARK VINA RESULT:    -5.644      2.357      7.386
REMARK INTER + INTRA:          -6.896
REMARK INTER:                  -6.618
REMARK INTRA:                  -0.278
REMARK UNBOUND:                -0.262
REMARK SMILES O=c1c(O)c(-c2ccc(O)cc2)oc2cc(O)cc(O)c12
REMARK SMILES IDX 5 1 3 2 2 3 1 4 21 5 19 6 18 7 16 8 15 9 14 10 13 11 6 12
REMARK SMILES IDX 7 13 8 14 9 15 12 16 11 17 10 18 4 20 20 22 17 24
REMARK H PARENT 10 19 4 21 20 23 17 25
REMARK Flexibility Score: inf
ROOT
ATOM      1  C   UNL     1      31.119  59.517   3.249  1.00  0.00     0.180 A 
ATOM      2  C   UNL     1      31.581  60.776   3.679  1.00  0.00     0.208 A 
ATOM      3  C   UNL     1      32.154  60.889   4.955  1.00  0.00     0.238 A 
ATOM      4  O   UNL     1      32.562  62.013   5.354  1.00  0.00    -0.285 OA
ATOM      5  C   UNL     1      32.273  59.744   5.769  1.00  0.00     0.111 A 
ATOM      6  C   UNL     1      32.842  59.772   7.066  1.00  0.00     0.134 A 
ATOM      7  C   UNL     1      32.934  58.586   7.811  1.00  0.00     0.093 A 
ATOM      8  C   UNL     1      32.470  57.378   7.287  1.00  0.00     0.123 A 
ATOM      9  C   UNL     1      31.908  57.344   6.007  1.00  0.00     0.094 A 
ATOM     10  C   UNL     1      31.805  58.514   5.249  1.00  0.00     0.146 A 
ATOM     11  O   UNL     1      31.262  58.456   4.039  1.00  0.00    -0.452 OA
ENDROOT
BRANCH   1  12
ATOM     12  C   UNL     1      30.486  59.321   1.925  1.00  0.00     0.021 A 
ATOM     13  C   UNL     1      29.087  59.380   1.813  1.00  0.00     0.016 A 
ATOM     14  C   UNL     1      28.469  59.220   0.568  1.00  0.00     0.047 A 
ATOM     15  C   UNL     1      29.242  59.015  -0.581  1.00  0.00     0.115 A 
ATOM     16  C   UNL     1      31.257  59.135   0.763  1.00  0.00     0.016 A 
ATOM     17  C   UNL     1      30.637  58.976  -0.480  1.00  0.00     0.047 A 
BRANCH  15  18
ATOM     18  O   UNL     1      28.638  58.854  -1.826  1.00  0.00    -0.508 OA
ATOM     19  H   UNL     1      27.809  59.377  -2.082  1.00  0.00     0.293 HD
ENDBRANCH  15  18
ENDBRANCH   1  12
BRANCH   2  20
ATOM     20  O   UNL     1      31.496  61.885   2.833  1.00  0.00    -0.502 OA
ATOM     21  H   UNL     1      30.704  62.043   2.222  1.00  0.00     0.293 HD
ENDBRANCH   2  20
BRANCH   6  22
ATOM     22  O   UNL     1      33.315  60.963   7.618  1.00  0.00    -0.507 OA
ATOM     23  H   UNL     1      34.228  61.025   8.052  1.00  0.00     0.293 HD
ENDBRANCH   6  22
BRANCH   8  24
ATOM     24  O   UNL     1      32.574  56.215   8.046  1.00  0.00    -0.508 OA
ATOM     25  H   UNL     1      31.899  55.464   7.961  1.00  0.00     0.293 HD
ENDBRANCH   8  24
TORSDOF 5
ENDMDL
MODEL 8
REMARK VINA RESULT:    -5.643      2.216      3.348
REMARK INTER + INTRA:          -6.894
REMARK INTER:                  -6.663
REMARK INTRA:                  -0.231
REMARK UNBOUND:                -0.262
REMARK SMILES O=c1c(O)c(-c2ccc(O)cc2)oc2cc(O)cc(O)c12
REMARK SMILES IDX 5 1 3 2 2 3 1 4 21 5 19 6 18 7 16 8 15 9 14 10 13 11 6 12
REMARK SMILES IDX 7 13 8 14 9 15 12 16 11 17 10 18 4 20 20 22 17 24
REMARK H PARENT 10 19 4 21 20 23 17 25
REMARK Flexibility Score: inf
ROOT
ATOM      1  C   UNL     1      30.272  58.819   4.312  1.00  0.00     0.180 A 
ATOM      2  C   UNL     1      28.885  58.776   4.551  1.00  0.00     0.208 A 
ATOM      3  C   UNL     1      28.004  58.914   3.467  1.00  0.00     0.238 A 
ATOM      4  O   UNL     1      26.760  58.887   3.671  1.00  0.00    -0.285 OA
ATOM      5  C   UNL     1      28.522  59.072   2.165  1.00  0.00     0.111 A 
ATOM      6  C   UNL     1      27.703  59.213   1.018  1.00  0.00     0.134 A 
ATOM      7  C   UNL     1      28.295  59.357  -0.246  1.00  0.00     0.093 A 
ATOM      8  C   UNL     1      29.685  59.361  -0.385  1.00  0.00     0.123 A 
ATOM      9  C   UNL     1      30.498  59.222   0.744  1.00  0.00     0.094 A 
ATOM     10  C   UNL     1      29.929  59.080   2.013  1.00  0.00     0.146 A 
ATOM     11  O   UNL     1      30.723  58.955   3.068  1.00  0.00    -0.452 OA
ENDROOT
BRANCH   1  12
ATOM     12  C   UNL     1      31.263  58.700   5.405  1.00  0.00     0.021 A 
ATOM     13  C   UNL     1      31.904  59.854   5.885  1.00  0.00     0.016 A 
ATOM     14  C   UNL     1      32.827  59.769   6.932  1.00  0.00     0.047 A 
ATOM     15  C   UNL     1      33.109  58.531   7.523  1.00  0.00     0.115 A 
ATOM     16  C   UNL     1      31.536  57.463   6.017  1.00  0.00     0.016 A 
ATOM     17  C   UNL     1      32.458  57.380   7.065  1.00  0.00     0.047 A 
BRANCH  15  18
ATOM     18  O   UNL     1      34.027  58.433   8.566  1.00  0.00    -0.508 OA
ATOM     19  H   UNL     1      35.007  58.651   8.431  1.00  0.00     0.293 HD
ENDBRANCH  15  18
ENDBRANCH   1  12
BRANCH   2  20
ATOM     20  O   UNL     1      28.398  58.569   5.845  1.00  0.00    -0.502 OA
ATOM     21  H   UNL     1      28.614  59.193   6.613  1.00  0.00     0.293 HD
ENDBRANCH   2  20
BRANCH   6  22
ATOM     22  O   UNL     1      26.312  59.212   1.124  1.00  0.00    -0.507 OA
ATOM     23  H   UNL     1      25.733  58.610   0.550  1.00  0.00     0.293 HD
ENDBRANCH   6  22
BRANCH   8  24
ATOM     24  O   UNL     1      30.247  59.504  -1.651  1.00  0.00    -0.508 OA
ATOM     25  H   UNL     1      29.769  59.178  -2.483  1.00  0.00     0.293 HD
ENDBRANCH   8  24
TORSDOF 5
ENDMDL
MODEL 9
REMARK VINA RESULT:    -5.623      5.331      7.481
REMARK INTER + INTRA:          -6.871
REMARK INTER:                  -6.716
REMARK INTRA:                  -0.155
REMARK UNBOUND:                -0.262
REMARK SMILES O=c1c(O)c(-c2ccc(O)cc2)oc2cc(O)cc(O)c12
REMARK SMILES IDX 5 1 3 2 2 3 1 4 21 5 19 6 18 7 16 8 15 9 14 10 13 11 6 12
REMARK SMILES IDX 7 13 8 14 9 15 12 16 11 17 10 18 4 20 20 22 17 24
REMARK H PARENT 10 19 4 21 20 23 17 25
REMARK Flexibility Score: inf
ROOT
ATOM      1  C   UNL     1      28.534  57.702   7.603  1.00  0.00     0.180 A 
ATOM      2  C   UNL     1      28.729  59.015   8.071  1.00  0.00     0.208 A 
ATOM      3  C   UNL     1      29.674  59.832   7.431  1.00  0.00     0.238 A 
ATOM      4  O   UNL     1      29.864  61.006   7.849  1.00  0.00    -0.285 OA
ATOM      5  C   UNL     1      30.392  59.330   6.326  1.00  0.00     0.111 A 
ATOM      6  C   UNL     1      31.360  60.089   5.623  1.00  0.00     0.134 A 
ATOM      7  C   UNL     1      32.026  59.521   4.526  1.00  0.00     0.093 A 
ATOM      8  C   UNL     1      31.744  58.215   4.120  1.00  0.00     0.123 A 
ATOM      9  C   UNL     1      30.789  57.461   4.810  1.00  0.00     0.094 A 
ATOM     10  C   UNL     1      30.116  58.007   5.907  1.00  0.00     0.146 A 
ATOM     11  O   UNL     1      29.219  57.269   6.548  1.00  0.00    -0.452 OA
ENDROOT
BRANCH   1  12
ATOM     12  C   UNL     1      27.569  56.775   8.237  1.00  0.00     0.021 A 
ATOM     13  C   UNL     1      28.045  55.664   8.952  1.00  0.00     0.016 A 
ATOM     14  C   UNL     1      27.153  54.788   9.578  1.00  0.00     0.047 A 
ATOM     15  C   UNL     1      25.774  55.021   9.510  1.00  0.00     0.115 A 
ATOM     16  C   UNL     1      26.183  57.014   8.190  1.00  0.00     0.016 A 
ATOM     17  C   UNL     1      25.292  56.137   8.818  1.00  0.00     0.047 A 
BRANCH  15  18
ATOM     18  O   UNL     1      24.875  54.155  10.129  1.00  0.00    -0.508 OA
ATOM     19  H   UNL     1      23.989  53.917   9.699  1.00  0.00     0.293 HD
ENDBRANCH  15  18
ENDBRANCH   1  12
BRANCH   2  20
ATOM     20  O   UNL     1      27.969  59.505   9.138  1.00  0.00    -0.502 OA
ATOM     21  H   UNL     1      27.077  59.101   9.400  1.00  0.00     0.293 HD
ENDBRANCH   2  20
BRANCH   6  22
ATOM     22  O   UNL     1      31.664  61.396   6.004  1.00  0.00    -0.507 OA
ATOM     23  H   UNL     1      30.954  62.117   6.051  1.00  0.00     0.293 HD
ENDBRANCH   6  22
BRANCH   8  24
ATOM     24  O   UNL     1      32.418  57.676   3.027  1.00  0.00    -0.508 OA
ATOM     25  H   UNL     1      33.378  57.925   2.820  1.00  0.00     0.293 HD
ENDBRANCH   8  24
TORSDOF 5
ENDMDL
