MODEL 1
REMARK VINA RESULT:    -5.772      0.000      0.000
REMARK INTER + INTRA:          -7.156
REMARK INTER:                  -6.953
REMARK INTRA:                  -0.203
REMARK UNBOUND:                -0.203
REMARK SMILES O=c1c(O)c(-c2ccc(O)c(O)c2)oc2cc(O)cc(O)c12
REMARK SMILES IDX 5 1 3 2 2 3 1 4 22 5 20 6 19 7 17 8 16 9 15 10 14 11 6 12
REMARK SMILES IDX 7 13 8 14 9 15 13 16 11 17 10 18 12 20 4 22 21 24 18 26
REMARK H PARENT 10 19 12 21 4 23 21 25 18 27
REMARK Flexibility Score: inf
ROOT
ATOM      1  C   UNL     1      -1.794   8.972 -10.576  1.00  0.00     0.180 A 
ATOM      2  C   UNL     1      -1.577   7.823  -9.796  1.00  0.00     0.208 A 
ATOM      3  C   UNL     1      -0.260   7.456  -9.476  1.00  0.00     0.238 A 
ATOM      4  O   UNL     1      -0.070   6.396  -8.825  1.00  0.00    -0.285 OA
ATOM      5  C   UNL     1       0.822   8.252  -9.924  1.00  0.00     0.111 A 
ATOM      6  C   UNL     1       2.194   7.996  -9.626  1.00  0.00     0.134 A 
ATOM      7  C   UNL     1       3.188   8.774 -10.230  1.00  0.00     0.093 A 
ATOM      8  C   UNL     1       2.861   9.837 -11.070  1.00  0.00     0.123 A 
ATOM      9  C   UNL     1       1.520  10.133 -11.322  1.00  0.00     0.094 A 
ATOM     10  C   UNL     1       0.506   9.352 -10.763  1.00  0.00     0.146 A 
ATOM     11  O   UNL     1      -0.757   9.661 -11.036  1.00  0.00    -0.452 OA
ENDROOT
BRANCH   1  12
ATOM     12  C   UNL     1      -3.154   9.437 -10.933  1.00  0.00     0.025 A 
ATOM     13  C   UNL     1      -3.966   8.711 -11.821  1.00  0.00     0.016 A 
ATOM     14  C   UNL     1      -5.255   9.156 -12.125  1.00  0.00     0.051 A 
ATOM     15  C   UNL     1      -5.758  10.322 -11.539  1.00  0.00     0.157 A 
ATOM     16  C   UNL     1      -3.669  10.596 -10.329  1.00  0.00     0.062 A 
ATOM     17  C   UNL     1      -4.962  11.045 -10.633  1.00  0.00     0.158 A 
BRANCH  15  18
ATOM     18  O   UNL     1      -7.048  10.742 -11.862  1.00  0.00    -0.504 OA
ATOM     19  H   UNL     1      -7.222  11.607 -12.359  1.00  0.00     0.293 HD
ENDBRANCH  15  18
BRANCH  17  20
ATOM     20  O   UNL     1      -5.459  12.204 -10.040  1.00  0.00    -0.504 OA
ATOM     21  H   UNL     1      -5.637  13.042 -10.581  1.00  0.00     0.293 HD
ENDBRANCH  17  20
ENDBRANCH   1  12
BRANCH   2  22
ATOM     22  O   UNL     1      -2.658   7.040  -9.383  1.00  0.00    -0.502 OA
ATOM     23  H   UNL     1      -2.837   6.831  -8.407  1.00  0.00     0.293 HD
ENDBRANCH   2  22
BRANCH   6  24
ATOM     24  O   UNL     1       2.628   7.017  -8.727  1.00  0.00    -0.507 OA
ATOM     25  H   UNL     1       2.280   6.905  -7.787  1.00  0.00     0.293 HD
ENDBRANCH   6  24
BRANCH   8  26
ATOM     26  O   UNL     1       3.876  10.600 -11.642  1.00  0.00    -0.508 OA
ATOM     27  H   UNL     1       3.795  10.971 -12.582  1.00  0.00     0.293 HD
ENDBRANCH   8  26
TORSDOF 6
ENDMDL
MODEL 2
REMARK VINA RESULT:    -5.678      1.701      7.088
REMARK INTER + INTRA:          -7.043
REMARK INTER:                  -7.127
REMARK INTRA:                   0.084
REMARK UNBOUND:                -0.203
REMARK SMILES O=c1c(O)c(-c2ccc(O)c(O)c2)oc2cc(O)cc(O)c12
REMARK SMILES IDX 5 1 3 2 2 3 1 4 22 5 20 6 19 7 17 8 16 9 15 10 14 11 6 12
REMARK SMILES IDX 7 13 8 14 9 15 13 16 11 17 10 18 12 20 4 22 21 24 18 26
REMARK H PARENT 10 19 12 21 4 23 21 25 18 27
REMARK Flexibility Score: inf
ROOT
ATOM      1  C   UNL     1       1.673   9.012 -10.659  1.00  0.00     0.180 A 
ATOM      2  C   UNL     1       1.534   7.942  -9.758  1.00  0.00     0.208 A 
ATOM      3  C   UNL     1       0.245   7.476  -9.448  1.00  0.00     0.238 A 
ATOM      4  O   UNL     1       0.125   6.555  -8.599  1.00  0.00    -0.285 OA
ATOM      5  C   UNL     1      -0.885   8.074 -10.055  1.00  0.00     0.111 A 
ATOM      6  C   UNL     1      -2.233   7.657  -9.844  1.00  0.00     0.134 A 
ATOM      7  C   UNL     1      -3.281   8.404 -10.394  1.00  0.00     0.093 A 
ATOM      8  C   UNL     1      -3.030   9.514 -11.200  1.00  0.00     0.123 A 
ATOM      9  C   UNL     1      -1.713   9.896 -11.461  1.00  0.00     0.094 A 
ATOM     10  C   UNL     1      -0.647   9.192 -10.896  1.00  0.00     0.146 A 
ATOM     11  O   UNL     1       0.591   9.594 -11.161  1.00  0.00    -0.452 OA
ENDROOT
BRANCH   1  12
ATOM     12  C   UNL     1       2.998   9.541 -11.055  1.00  0.00     0.025 A 
ATOM     13  C   UNL     1       3.270  10.919 -11.040  1.00  0.00     0.016 A 
ATOM     14  C   UNL     1       4.536  11.394 -11.395  1.00  0.00     0.051 A 
ATOM     15  C   UNL     1       5.550  10.503 -11.756  1.00  0.00     0.157 A 
ATOM     16  C   UNL     1       4.025   8.646 -11.398  1.00  0.00     0.062 A 
ATOM     17  C   UNL     1       5.296   9.120 -11.755  1.00  0.00     0.158 A 
BRANCH  15  18
ATOM     18  O   UNL     1       6.803  11.005 -12.107  1.00  0.00    -0.504 OA
ATOM     19  H   UNL     1       7.542  11.129 -11.426  1.00  0.00     0.293 HD
ENDBRANCH  15  18
BRANCH  17  20
ATOM     20  O   UNL     1       6.304   8.225 -12.108  1.00  0.00    -0.504 OA
ATOM     21  H   UNL     1       6.355   7.297 -11.704  1.00  0.00     0.293 HD
ENDBRANCH  17  20
ENDBRANCH   1  12
BRANCH   2  22
ATOM     22  O   UNL     1       2.661   7.380  -9.154  1.00  0.00    -0.502 OA
ATOM     23  H   UNL     1       3.517   7.902  -9.005  1.00  0.00     0.293 HD
ENDBRANCH   2  22
BRANCH   6  24
ATOM     24  O   UNL     1      -2.593   6.509  -9.132  1.00  0.00    -0.507 OA
ATOM     25  H   UNL     1      -3.240   6.492  -8.357  1.00  0.00     0.293 HD
ENDBRANCH   6  24
BRANCH   8  26
ATOM     26  O   UNL     1      -4.097  10.225 -11.743  1.00  0.00    -0.508 OA
ATOM     27  H   UNL     1      -4.644   9.854 -12.512  1.00  0.00     0.293 HD
ENDBRANCH   8  26
TORSDOF 6
ENDMDL
MODEL 3
REMARK VINA RESULT:    -5.586      1.712      6.755
REMARK INTER + INTRA:          -6.931
REMARK INTER:                  -6.725
REMARK INTRA:                  -0.206
REMARK UNBOUND:                -0.203
REMARK SMILES O=c1c(O)c(-c2ccc(O)c(O)c2)oc2cc(O)cc(O)c12
REMARK SMILES IDX 5 1 3 2 2 3 1 4 22 5 20 6 19 7 17 8 16 9 15 10 14 11 6 12
REMARK SMILES IDX 7 13 8 14 9 15 13 16 11 17 10 18 12 20 4 22 21 24 18 26
REMARK H PARENT 10 19 12 21 4 23 21 25 18 27
REMARK Flexibility Score: inf
ROOT
ATOM      1  C   UNL     1       1.682   9.272 -10.608  1.00  0.00     0.180 A 
ATOM      2  C   UNL     1       1.680   8.102  -9.828  1.00  0.00     0.208 A 
ATOM      3  C   UNL     1       0.457   7.465  -9.560  1.00  0.00     0.238 A 
ATOM      4  O   UNL     1       0.457   6.450  -8.816  1.00  0.00    -0.285 OA
ATOM      5  C   UNL     1      -0.744   7.995 -10.088  1.00  0.00     0.111 A 
ATOM      6  C   UNL     1      -2.034   7.410  -9.911  1.00  0.00     0.134 A 
ATOM      7  C   UNL     1      -3.169   8.091 -10.367  1.00  0.00     0.093 A 
ATOM      8  C   UNL     1      -3.058   9.302 -11.049  1.00  0.00     0.123 A 
ATOM      9  C   UNL     1      -1.796   9.855 -11.278  1.00  0.00     0.094 A 
ATOM     10  C   UNL     1      -0.648   9.217 -10.803  1.00  0.00     0.146 A 
ATOM     11  O   UNL     1       0.532   9.781 -11.034  1.00  0.00    -0.452 OA
ENDROOT
BRANCH   1  12
ATOM     12  C   UNL     1       2.932   9.985 -10.955  1.00  0.00     0.025 A 
ATOM     13  C   UNL     1       3.902   9.400 -11.788  1.00  0.00     0.016 A 
ATOM     14  C   UNL     1       5.064  10.101 -12.121  1.00  0.00     0.051 A 
ATOM     15  C   UNL     1       5.270  11.398 -11.641  1.00  0.00     0.157 A 
ATOM     16  C   UNL     1       3.132  11.296 -10.491  1.00  0.00     0.062 A 
ATOM     17  C   UNL     1       4.297  12.001 -10.824  1.00  0.00     0.158 A 
BRANCH  15  18
ATOM     18  O   UNL     1       6.439  12.073 -11.989  1.00  0.00    -0.504 OA
ATOM     19  H   UNL     1       7.352  11.759 -11.685  1.00  0.00     0.293 HD
ENDBRANCH  15  18
BRANCH  17  20
ATOM     20  O   UNL     1       4.493  13.296 -10.348  1.00  0.00    -0.504 OA
ATOM     21  H   UNL     1       3.720  13.863 -10.019  1.00  0.00     0.293 HD
ENDBRANCH  17  20
ENDBRANCH   1  12
BRANCH   2  22
ATOM     22  O   UNL     1       2.875   7.608  -9.299  1.00  0.00    -0.502 OA
ATOM     23  H   UNL     1       3.243   7.914  -8.406  1.00  0.00     0.293 HD
ENDBRANCH   2  22
BRANCH   6  24
ATOM     24  O   UNL     1      -2.250   6.159  -9.327  1.00  0.00    -0.507 OA
ATOM     25  H   UNL     1      -1.631   5.367  -9.417  1.00  0.00     0.293 HD
ENDBRANCH   6  24
BRANCH   8  26
ATOM     26  O   UNL     1      -4.208   9.945 -11.502  1.00  0.00    -0.508 OA
ATOM     27  H   UNL     1      -4.855  10.388 -10.860  1.00  0.00     0.293 HD
ENDBRANCH   8  26
TORSDOF 6
ENDMDL
MODEL 4
REMARK VINA RESULT:    -5.105     14.359     15.984
REMARK INTER + INTRA:          -6.352
REMARK INTER:                  -6.473
REMARK INTRA:                   0.121
REMARK UNBOUND:                -0.203
REMARK SMILES O=c1c(O)c(-c2ccc(O)c(O)c2)oc2cc(O)cc(O)c12
REMARK SMILES IDX 5 1 3 2 2 3 1 4 22 5 20 6 19 7 17 8 16 9 15 10 14 11 6 12
REMARK SMILES IDX 7 13 8 14 9 15 13 16 11 17 10 18 12 20 4 22 21 24 18 26
REMARK H PARENT 10 19 12 21 4 23 21 25 18 27
REMARK Flexibility Score: inf
ROOT
ATOM      1  C   UNL     1      -4.232  -5.016  -6.013  1.00  0.00     0.180 A 
ATOM      2  C   UNL     1      -5.573  -4.750  -6.337  1.00  0.00     0.208 A 
ATOM      3  C   UNL     1      -5.931  -4.597  -7.687  1.00  0.00     0.238 A 
ATOM      4  O   UNL     1      -7.123  -4.304  -7.966  1.00  0.00    -0.285 OA
ATOM      5  C   UNL     1      -4.947  -4.729  -8.695  1.00  0.00     0.111 A 
ATOM      6  C   UNL     1      -5.204  -4.633 -10.096  1.00  0.00     0.134 A 
ATOM      7  C   UNL     1      -4.133  -4.650 -10.997  1.00  0.00     0.093 A 
ATOM      8  C   UNL     1      -2.823  -4.823 -10.556  1.00  0.00     0.123 A 
ATOM      9  C   UNL     1      -2.565  -4.977  -9.193  1.00  0.00     0.094 A 
ATOM     10  C   UNL     1      -3.609  -4.929  -8.266  1.00  0.00     0.146 A 
ATOM     11  O   UNL     1      -3.321  -5.069  -6.977  1.00  0.00    -0.452 OA
ENDROOT
BRANCH   1  12
ATOM     12  C   UNL     1      -3.783  -5.215  -4.617  1.00  0.00     0.025 A 
ATOM     13  C   UNL     1      -4.564  -5.928  -3.691  1.00  0.00     0.016 A 
ATOM     14  C   UNL     1      -4.110  -6.123  -2.384  1.00  0.00     0.051 A 
ATOM     15  C   UNL     1      -2.866  -5.624  -1.985  1.00  0.00     0.157 A 
ATOM     16  C   UNL     1      -2.525  -4.732  -4.219  1.00  0.00     0.062 A 
ATOM     17  C   UNL     1      -2.067  -4.927  -2.908  1.00  0.00     0.158 A 
BRANCH  15  18
ATOM     18  O   UNL     1      -2.439  -5.833  -0.674  1.00  0.00    -0.504 OA
ATOM     19  H   UNL     1      -1.592  -5.414  -0.311  1.00  0.00     0.293 HD
ENDBRANCH  15  18
BRANCH  17  20
ATOM     20  O   UNL     1      -0.823  -4.432  -2.519  1.00  0.00    -0.504 OA
ATOM     21  H   UNL     1      -0.739  -3.603  -1.943  1.00  0.00     0.293 HD
ENDBRANCH  17  20
ENDBRANCH   1  12
BRANCH   2  22
ATOM     22  O   UNL     1      -6.525  -4.602  -5.324  1.00  0.00    -0.502 OA
ATOM     23  H   UNL     1      -6.787  -3.697  -4.951  1.00  0.00     0.293 HD
ENDBRANCH   2  22
BRANCH   6  24
ATOM     24  O   UNL     1      -6.485  -4.550 -10.650  1.00  0.00    -0.507 OA
ATOM     25  H   UNL     1      -7.157  -3.827 -10.439  1.00  0.00     0.293 HD
ENDBRANCH   6  24
BRANCH   8  26
ATOM     26  O   UNL     1      -1.783  -4.850 -11.483  1.00  0.00    -0.508 OA
ATOM     27  H   UNL     1      -1.398  -5.724 -11.822  1.00  0.00     0.293 HD
ENDBRANCH   8  26
TORSDOF 6
ENDMDL
MODEL 5
REMARK VINA RESULT:    -4.940      1.688      6.673
REMARK INTER + INTRA:          -6.154
REMARK INTER:                  -6.226
REMARK INTRA:                   0.072
REMARK UNBOUND:                -0.203
REMARK SMILES O=c1c(O)c(-c2ccc(O)c(O)c2)oc2cc(O)cc(O)c12
REMARK SMILES IDX 5 1 3 2 2 3 1 4 22 5 20 6 19 7 17 8 16 9 15 10 14 11 6 12
REMARK SMILES IDX 7 13 8 14 9 15 13 16 11 17 10 18 12 20 4 22 21 24 18 26
REMARK H PARENT 10 19 12 21 4 23 21 25 18 27
REMARK Flexibility Score: inf
ROOT
ATOM      1  C   UNL     1      -0.456   9.379 -11.186  1.00  0.00     0.180 A 
ATOM      2  C   UNL     1      -1.373   8.405 -10.757  1.00  0.00     0.208 A 
ATOM      3  C   UNL     1      -2.731   8.751 -10.645  1.00  0.00     0.238 A 
ATOM      4  O   UNL     1      -3.538   7.891 -10.207  1.00  0.00    -0.285 OA
ATOM      5  C   UNL     1      -3.154  10.060 -10.979  1.00  0.00     0.111 A 
ATOM      6  C   UNL     1      -4.508  10.507 -10.940  1.00  0.00     0.134 A 
ATOM      7  C   UNL     1      -4.795  11.859 -11.166  1.00  0.00     0.093 A 
ATOM      8  C   UNL     1      -3.788  12.765 -11.492  1.00  0.00     0.123 A 
ATOM      9  C   UNL     1      -2.466  12.326 -11.590  1.00  0.00     0.094 A 
ATOM     10  C   UNL     1      -2.144  10.991 -11.335  1.00  0.00     0.146 A 
ATOM     11  O   UNL     1      -0.873  10.615 -11.429  1.00  0.00    -0.452 OA
ENDROOT
BRANCH   1  12
ATOM     12  C   UNL     1       0.985   9.084 -11.354  1.00  0.00     0.025 A 
ATOM     13  C   UNL     1       1.423   7.892 -11.956  1.00  0.00     0.016 A 
ATOM     14  C   UNL     1       2.788   7.644 -12.125  1.00  0.00     0.051 A 
ATOM     15  C   UNL     1       3.735   8.586 -11.709  1.00  0.00     0.157 A 
ATOM     16  C   UNL     1       1.938  10.037 -10.956  1.00  0.00     0.062 A 
ATOM     17  C   UNL     1       3.308   9.791 -11.124  1.00  0.00     0.158 A 
BRANCH  15  18
ATOM     18  O   UNL     1       5.090   8.312 -11.889  1.00  0.00    -0.504 OA
ATOM     19  H   UNL     1       5.448   7.365 -11.912  1.00  0.00     0.293 HD
ENDBRANCH  15  18
BRANCH  17  20
ATOM     20  O   UNL     1       4.246  10.737 -10.714  1.00  0.00    -0.504 OA
ATOM     21  H   UNL     1       4.148  11.234  -9.835  1.00  0.00     0.293 HD
ENDBRANCH  17  20
ENDBRANCH   1  12
BRANCH   2  22
ATOM     22  O   UNL     1      -0.931   7.126 -10.411  1.00  0.00    -0.502 OA
ATOM     23  H   UNL     1      -1.402   6.556  -9.717  1.00  0.00     0.293 HD
ENDBRANCH   2  22
BRANCH   6  24
ATOM     24  O   UNL     1      -5.603   9.667 -10.715  1.00  0.00    -0.507 OA
ATOM     25  H   UNL     1      -6.481   9.722 -11.208  1.00  0.00     0.293 HD
ENDBRANCH   6  24
BRANCH   8  26
ATOM     26  O   UNL     1      -4.112  14.100 -11.725  1.00  0.00    -0.508 OA
ATOM     27  H   UNL     1      -3.939  14.538 -12.622  1.00  0.00     0.293 HD
ENDBRANCH   8  26
TORSDOF 6
ENDMDL
MODEL 6
REMARK VINA RESULT:    -4.916     11.207     12.857
REMARK INTER + INTRA:          -6.125
REMARK INTER:                  -5.802
REMARK INTRA:                  -0.324
REMARK UNBOUND:                -0.203
REMARK SMILES O=c1c(O)c(-c2ccc(O)c(O)c2)oc2cc(O)cc(O)c12
REMARK SMILES IDX 5 1 3 2 2 3 1 4 22 5 20 6 19 7 17 8 16 9 15 10 14 11 6 12
REMARK SMILES IDX 7 13 8 14 9 15 13 16 11 17 10 18 12 20 4 22 21 24 18 26
REMARK H PARENT 10 19 12 21 4 23 21 25 18 27
REMARK Flexibility Score: inf
ROOT
ATOM      1  C   UNL     1      10.170  11.197  -7.410  1.00  0.00     0.180 A 
ATOM      2  C   UNL     1      10.250  11.849  -8.653  1.00  0.00     0.208 A 
ATOM      3  C   UNL     1      10.788  11.157  -9.751  1.00  0.00     0.238 A 
ATOM      4  O   UNL     1      10.908  11.765 -10.847  1.00  0.00    -0.285 OA
ATOM      5  C   UNL     1      11.224   9.819  -9.596  1.00  0.00     0.111 A 
ATOM      6  C   UNL     1      11.749   9.012 -10.649  1.00  0.00     0.134 A 
ATOM      7  C   UNL     1      12.270   7.746 -10.354  1.00  0.00     0.093 A 
ATOM      8  C   UNL     1      12.227   7.233  -9.059  1.00  0.00     0.123 A 
ATOM      9  C   UNL     1      11.662   7.991  -8.032  1.00  0.00     0.094 A 
ATOM     10  C   UNL     1      11.167   9.272  -8.289  1.00  0.00     0.146 A 
ATOM     11  O   UNL     1      10.647   9.965  -7.282  1.00  0.00    -0.452 OA
ENDROOT
BRANCH   1  12
ATOM     12  C   UNL     1       9.592  11.850  -6.215  1.00  0.00     0.025 A 
ATOM     13  C   UNL     1      10.387  12.609  -5.337  1.00  0.00     0.016 A 
ATOM     14  C   UNL     1       9.815  13.236  -4.227  1.00  0.00     0.051 A 
ATOM     15  C   UNL     1       8.442  13.129  -3.983  1.00  0.00     0.157 A 
ATOM     16  C   UNL     1       8.209  11.762  -5.978  1.00  0.00     0.062 A 
ATOM     17  C   UNL     1       7.634  12.391  -4.865  1.00  0.00     0.158 A 
BRANCH  15  18
ATOM     18  O   UNL     1       7.900  13.765  -2.868  1.00  0.00    -0.504 OA
ATOM     19  H   UNL     1       7.318  13.274  -2.199  1.00  0.00     0.293 HD
ENDBRANCH  15  18
BRANCH  17  20
ATOM     20  O   UNL     1       6.264  12.285  -4.631  1.00  0.00    -0.504 OA
ATOM     21  H   UNL     1       5.734  13.049  -4.227  1.00  0.00     0.293 HD
ENDBRANCH  17  20
ENDBRANCH   1  12
BRANCH   2  22
ATOM     22  O   UNL     1       9.835  13.177  -8.779  1.00  0.00    -0.502 OA
ATOM     23  H   UNL     1       9.541  13.574  -9.664  1.00  0.00     0.293 HD
ENDBRANCH   2  22
BRANCH   6  24
ATOM     24  O   UNL     1      11.755   9.390 -11.995  1.00  0.00    -0.507 OA
ATOM     25  H   UNL     1      12.309  10.142 -12.378  1.00  0.00     0.293 HD
ENDBRANCH   6  24
BRANCH   8  26
ATOM     26  O   UNL     1      12.741   5.964  -8.804  1.00  0.00    -0.508 OA
ATOM     27  H   UNL     1      13.172   5.735  -7.916  1.00  0.00     0.293 HD
ENDBRANCH   8  26
TORSDOF 6
ENDMDL
MODEL 7
REMARK VINA RESULT:    -4.840     11.602     14.116
REMARK INTER + INTRA:          -6.033
REMARK INTER:                  -5.699
REMARK INTRA:                  -0.334
REMARK UNBOUND:                -0.203
REMARK SMILES O=c1c(O)c(-c2ccc(O)c(O)c2)oc2cc(O)cc(O)c12
REMARK SMILES IDX 5 1 3 2 2 3 1 4 22 5 20 6 19 7 17 8 16 9 15 10 14 11 6 12
REMARK SMILES IDX 7 13 8 14 9 15 13 16 11 17 10 18 12 20 4 22 21 24 18 26
REMARK H PARENT 10 19 12 21 4 23 21 25 18 27
REMARK Flexibility Score: inf
ROOT
ATOM      1  C   UNL     1      10.830  10.455  -7.242  1.00  0.00     0.180 A 
ATOM      2  C   UNL     1       9.497  10.897  -7.289  1.00  0.00     0.208 A 
ATOM      3  C   UNL     1       9.030  11.760  -6.283  1.00  0.00     0.238 A 
ATOM      4  O   UNL     1       7.821  12.108  -6.300  1.00  0.00    -0.285 OA
ATOM      5  C   UNL     1       9.907  12.183  -5.255  1.00  0.00     0.111 A 
ATOM      6  C   UNL     1       9.552  13.086  -4.209  1.00  0.00     0.134 A 
ATOM      7  C   UNL     1      10.459  13.331  -3.171  1.00  0.00     0.093 A 
ATOM      8  C   UNL     1      11.730  12.759  -3.175  1.00  0.00     0.123 A 
ATOM      9  C   UNL     1      12.109  11.920  -4.225  1.00  0.00     0.094 A 
ATOM     10  C   UNL     1      11.213  11.628  -5.255  1.00  0.00     0.146 A 
ATOM     11  O   UNL     1      11.608  10.817  -6.230  1.00  0.00    -0.452 OA
ENDROOT
BRANCH   1  12
ATOM     12  C   UNL     1      11.402   9.566  -8.279  1.00  0.00     0.025 A 
ATOM     13  C   UNL     1      11.991  10.085  -9.445  1.00  0.00     0.016 A 
ATOM     14  C   UNL     1      12.545   9.228 -10.400  1.00  0.00     0.051 A 
ATOM     15  C   UNL     1      12.532   7.844 -10.200  1.00  0.00     0.157 A 
ATOM     16  C   UNL     1      11.409   8.177  -8.072  1.00  0.00     0.062 A 
ATOM     17  C   UNL     1      11.964   7.315  -9.028  1.00  0.00     0.158 A 
BRANCH  15  18
ATOM     18  O   UNL     1      13.091   7.013 -11.170  1.00  0.00    -0.504 OA
ATOM     19  H   UNL     1      13.910   6.446 -10.985  1.00  0.00     0.293 HD
ENDBRANCH  15  18
BRANCH  17  20
ATOM     20  O   UNL     1      11.954   5.937  -8.819  1.00  0.00    -0.504 OA
ATOM     21  H   UNL     1      12.471   5.512  -8.058  1.00  0.00     0.293 HD
ENDBRANCH  17  20
ENDBRANCH   1  12
BRANCH   2  22
ATOM     22  O   UNL     1       8.643  10.451  -8.301  1.00  0.00    -0.502 OA
ATOM     23  H   UNL     1       8.425  11.012  -9.116  1.00  0.00     0.293 HD
ENDBRANCH   2  22
BRANCH   6  24
ATOM     24  O   UNL     1       8.342  13.785  -4.157  1.00  0.00    -0.507 OA
ATOM     25  H   UNL     1       8.157  14.651  -4.640  1.00  0.00     0.293 HD
ENDBRANCH   6  24
BRANCH   8  26
ATOM     26  O   UNL     1      12.613  13.038  -2.134  1.00  0.00    -0.508 OA
ATOM     27  H   UNL     1      12.753  12.387  -1.370  1.00  0.00     0.293 HD
ENDBRANCH   8  26
TORSDOF 6
ENDMDL
MODEL 8
REMARK VINA RESULT:    -4.814     16.057     17.860
REMARK INTER + INTRA:          -6.002
REMARK INTER:                  -6.084
REMARK INTRA:                   0.082
REMARK UNBOUND:                -0.203
REMARK SMILES O=c1c(O)c(-c2ccc(O)c(O)c2)oc2cc(O)cc(O)c12
REMARK SMILES IDX 5 1 3 2 2 3 1 4 22 5 20 6 19 7 17 8 16 9 15 10 14 11 6 12
REMARK SMILES IDX 7 13 8 14 9 15 13 16 11 17 10 18 12 20 4 22 21 24 18 26
REMARK H PARENT 10 19 12 21 4 23 21 25 18 27
REMARK Flexibility Score: inf
ROOT
ATOM      1  C   UNL     1      -1.226  11.474   5.695  1.00  0.00     0.180 A 
ATOM      2  C   UNL     1      -2.350  12.196   5.260  1.00  0.00     0.208 A 
ATOM      3  C   UNL     1      -3.612  11.579   5.295  1.00  0.00     0.238 A 
ATOM      4  O   UNL     1      -4.606  12.212   4.853  1.00  0.00    -0.285 OA
ATOM      5  C   UNL     1      -3.735  10.255   5.781  1.00  0.00     0.111 A 
ATOM      6  C   UNL     1      -4.968   9.546   5.897  1.00  0.00     0.134 A 
ATOM      7  C   UNL     1      -4.956   8.196   6.267  1.00  0.00     0.093 A 
ATOM      8  C   UNL     1      -3.765   7.546   6.585  1.00  0.00     0.123 A 
ATOM      9  C   UNL     1      -2.558   8.246   6.531  1.00  0.00     0.094 A 
ATOM     10  C   UNL     1      -2.534   9.584   6.131  1.00  0.00     0.146 A 
ATOM     11  O   UNL     1      -1.364  10.212   6.082  1.00  0.00    -0.452 OA
ENDROOT
BRANCH   1  12
ATOM     12  C   UNL     1       0.131  12.064   5.711  1.00  0.00     0.025 A 
ATOM     13  C   UNL     1       0.621  12.806   4.623  1.00  0.00     0.016 A 
ATOM     14  C   UNL     1       1.897  13.374   4.670  1.00  0.00     0.051 A 
ATOM     15  C   UNL     1       2.696  13.224   5.807  1.00  0.00     0.157 A 
ATOM     16  C   UNL     1       0.929  11.932   6.860  1.00  0.00     0.062 A 
ATOM     17  C   UNL     1       2.210  12.501   6.910  1.00  0.00     0.158 A 
BRANCH  15  18
ATOM     18  O   UNL     1       3.965  13.801   5.825  1.00  0.00    -0.504 OA
ATOM     19  H   UNL     1       4.410  14.150   4.985  1.00  0.00     0.293 HD
ENDBRANCH  15  18
BRANCH  17  20
ATOM     20  O   UNL     1       2.999  12.353   8.049  1.00  0.00    -0.504 OA
ATOM     21  H   UNL     1       3.361  11.448   8.329  1.00  0.00     0.293 HD
ENDBRANCH  17  20
ENDBRANCH   1  12
BRANCH   2  22
ATOM     22  O   UNL     1      -2.204  13.495   4.765  1.00  0.00    -0.502 OA
ATOM     23  H   UNL     1      -2.803  14.259   5.054  1.00  0.00     0.293 HD
ENDBRANCH   2  22
BRANCH   6  24
ATOM     24  O   UNL     1      -6.224  10.126   5.693  1.00  0.00    -0.507 OA
ATOM     25  H   UNL     1      -6.802   9.973   4.880  1.00  0.00     0.293 HD
ENDBRANCH   6  24
BRANCH   8  26
ATOM     26  O   UNL     1      -3.792   6.206   6.963  1.00  0.00    -0.508 OA
ATOM     27  H   UNL     1      -3.365   5.486   6.393  1.00  0.00     0.293 HD
ENDBRANCH   8  26
TORSDOF 6
ENDMDL
MODEL 9
REMARK VINA RESULT:    -4.773      2.046      2.926
REMARK INTER + INTRA:          -5.953
REMARK INTER:                  -5.952
REMARK INTRA:                  -0.000
REMARK UNBOUND:                -0.203
REMARK SMILES O=c1c(O)c(-c2ccc(O)c(O)c2)oc2cc(O)cc(O)c12
REMARK SMILES IDX 5 1 3 2 2 3 1 4 22 5 20 6 19 7 17 8 16 9 15 10 14 11 6 12
REMARK SMILES IDX 7 13 8 14 9 15 13 16 11 17 10 18 12 20 4 22 21 24 18 26
REMARK H PARENT 10 19 12 21 4 23 21 25 18 27
REMARK Flexibility Score: inf
ROOT
ATOM      1  C   UNL     1       0.383   9.251 -11.259  1.00  0.00     0.180 A 
ATOM      2  C   UNL     1       0.993   8.026 -11.578  1.00  0.00     0.208 A 
ATOM      3  C   UNL     1       2.382   7.991 -11.785  1.00  0.00     0.238 A 
ATOM      4  O   UNL     1       2.915   6.902 -12.125  1.00  0.00    -0.285 OA
ATOM      5  C   UNL     1       3.144   9.177 -11.655  1.00  0.00     0.111 A 
ATOM      6  C   UNL     1       4.561   9.250 -11.805  1.00  0.00     0.134 A 
ATOM      7  C   UNL     1       5.194  10.498 -11.783  1.00  0.00     0.093 A 
ATOM      8  C   UNL     1       4.473  11.668 -11.553  1.00  0.00     0.123 A 
ATOM      9  C   UNL     1       3.094  11.603 -11.347  1.00  0.00     0.094 A 
ATOM     10  C   UNL     1       2.429  10.375 -11.399  1.00  0.00     0.146 A 
ATOM     11  O   UNL     1       1.114  10.357 -11.208  1.00  0.00    -0.452 OA
ENDROOT
BRANCH   1  12
ATOM     12  C   UNL     1      -1.071   9.363 -11.000  1.00  0.00     0.025 A 
ATOM     13  C   UNL     1      -1.730   8.480 -10.127  1.00  0.00     0.016 A 
ATOM     14  C   UNL     1      -3.098   8.619  -9.880  1.00  0.00     0.051 A 
ATOM     15  C   UNL     1      -3.826   9.646 -10.488  1.00  0.00     0.157 A 
ATOM     16  C   UNL     1      -1.800  10.407 -11.593  1.00  0.00     0.062 A 
ATOM     17  C   UNL     1      -3.174  10.548 -11.347  1.00  0.00     0.158 A 
BRANCH  15  18
ATOM     18  O   UNL     1      -5.190   9.760 -10.224  1.00  0.00    -0.504 OA
ATOM     19  H   UNL     1      -5.891   9.348 -10.828  1.00  0.00     0.293 HD
ENDBRANCH  15  18
BRANCH  17  20
ATOM     20  O   UNL     1      -3.892  11.578 -11.951  1.00  0.00    -0.504 OA
ATOM     21  H   UNL     1      -3.804  11.777 -12.942  1.00  0.00     0.293 HD
ENDBRANCH  17  20
ENDBRANCH   1  12
BRANCH   2  22
ATOM     22  O   UNL     1       0.220   6.871 -11.723  1.00  0.00    -0.502 OA
ATOM     23  H   UNL     1       0.591   5.943 -11.560  1.00  0.00     0.293 HD
ENDBRANCH   2  22
BRANCH   6  24
ATOM     24  O   UNL     1       5.390   8.132 -11.946  1.00  0.00    -0.507 OA
ATOM     25  H   UNL     1       6.013   7.785 -11.233  1.00  0.00     0.293 HD
ENDBRANCH   6  24
BRANCH   8  26
ATOM     26  O   UNL     1       5.138  12.892 -11.523  1.00  0.00    -0.508 OA
ATOM     27  H   UNL     1       5.439  13.310 -10.650  1.00  0.00     0.293 HD
ENDBRANCH   8  26
TORSDOF 6
ENDMDL
