MODEL 1
REMARK VINA RESULT:    -2.517      0.000      0.000
REMARK INTER + INTRA:          -2.819
REMARK INTER:                  -2.811
REMARK INTRA:                  -0.008
REMARK UNBOUND:                -0.008
REMARK SMILES CCCC(=O)[O-]
REMARK SMILES IDX 3 1 4 2 5 3 6 4 2 5 1 6
REMARK H PARENT
REMARK Flexibility Score: inf
ROOT
ATOM      1  C   UNL     1      -4.611   7.701  -3.888  1.00  0.00     0.052 C 
ENDROOT
BRANCH   1   2
ATOM      2  C   UNL     1      -4.862   8.481  -2.635  1.00  0.00     0.041 C 
ATOM      3  O   UNL     1      -4.906   9.739  -2.670  1.00  0.00    -0.550 OA
ATOM      4  O   UNL     1      -4.998   7.820  -1.422  1.00  0.00    -0.550 OA
ENDBRANCH   1   2
BRANCH   1   5
ATOM      5  C   UNL     1      -3.297   8.142  -4.539  1.00  0.00     0.003 C 
ATOM      6  C   UNL     1      -2.464   6.938  -4.967  1.00  0.00     0.004 C 
ENDBRANCH   1   5
TORSDOF 2
ENDMDL
MODEL 2
REMARK VINA RESULT:    -2.496      2.086      3.515
REMARK INTER + INTRA:          -2.796
REMARK INTER:                  -2.759
REMARK INTRA:                  -0.038
REMARK UNBOUND:                -0.008
REMARK SMILES CCCC(=O)[O-]
REMARK SMILES IDX 3 1 4 2 5 3 6 4 2 5 1 6
REMARK H PARENT
REMARK Flexibility Score: inf
ROOT
ATOM      1  C   UNL     1      -4.803   8.137  -1.528  1.00  0.00     0.052 C 
ENDROOT
BRANCH   1   2
ATOM      2  C   UNL     1      -4.433   8.331  -2.965  1.00  0.00     0.041 C 
ATOM      3  O   UNL     1      -4.802   7.497  -3.833  1.00  0.00    -0.550 OA
ATOM      4  O   UNL     1      -3.639   9.407  -3.338  1.00  0.00    -0.550 OA
ENDBRANCH   1   2
BRANCH   1   5
ATOM      5  C   UNL     1      -3.646   8.551  -0.616  1.00  0.00     0.003 C 
ATOM      6  C   UNL     1      -4.052   9.702   0.299  1.00  0.00     0.004 C 
ENDBRANCH   1   5
TORSDOF 2
ENDMDL
MODEL 3
REMARK VINA RESULT:    -2.456      2.512      3.227
REMARK INTER + INTRA:          -2.752
REMARK INTER:                  -2.739
REMARK INTRA:                  -0.013
REMARK UNBOUND:                -0.008
REMARK SMILES CCCC(=O)[O-]
REMARK SMILES IDX 3 1 4 2 5 3 6 4 2 5 1 6
REMARK H PARENT
REMARK Flexibility Score: inf
ROOT
ATOM      1  C   UNL     1      -3.018   8.156  -1.837  1.00  0.00     0.052 C 
ENDROOT
BRANCH   1   2
ATOM      2  C   UNL     1      -4.456   8.132  -2.252  1.00  0.00     0.041 C 
ATOM      3  O   UNL     1      -5.363   8.349  -1.406  1.00  0.00    -0.550 OA
ATOM      4  O   UNL     1      -4.796   7.822  -3.562  1.00  0.00    -0.550 OA
ENDBRANCH   1   2
BRANCH   1   5
ATOM      5  C   UNL     1      -2.895   8.493  -0.349  1.00  0.00     0.003 C 
ATOM      6  C   UNL     1      -1.496   8.180   0.173  1.00  0.00     0.004 C 
ENDBRANCH   1   5
TORSDOF 2
ENDMDL
MODEL 4
REMARK VINA RESULT:    -2.443      2.233      3.150
REMARK INTER + INTRA:          -2.737
REMARK INTER:                  -2.705
REMARK INTRA:                  -0.031
REMARK UNBOUND:                -0.008
REMARK SMILES CCCC(=O)[O-]
REMARK SMILES IDX 3 1 4 2 5 3 6 4 2 5 1 6
REMARK H PARENT
REMARK Flexibility Score: inf
ROOT
ATOM      1  C   UNL     1      -4.731   7.634  -3.931  1.00  0.00     0.052 C 
ENDROOT
BRANCH   1   2
ATOM      2  C   UNL     1      -3.383   7.817  -4.553  1.00  0.00     0.041 C 
ATOM      3  O   UNL     1      -2.925   8.974  -4.743  1.00  0.00    -0.550 OA
ATOM      4  O   UNL     1      -2.653   6.711  -4.968  1.00  0.00    -0.550 OA
ENDBRANCH   1   2
BRANCH   1   5
ATOM      5  C   UNL     1      -4.965   8.684  -2.841  1.00  0.00     0.003 C 
ATOM      6  C   UNL     1      -4.803   8.078  -1.450  1.00  0.00     0.004 C 
ENDBRANCH   1   5
TORSDOF 2
ENDMDL
MODEL 5
REMARK VINA RESULT:    -2.430     13.608     14.179
REMARK INTER + INTRA:          -2.723
REMARK INTER:                  -2.713
REMARK INTRA:                  -0.009
REMARK UNBOUND:                -0.008
REMARK SMILES CCCC(=O)[O-]
REMARK SMILES IDX 3 1 4 2 5 3 6 4 2 5 1 6
REMARK H PARENT
REMARK Flexibility Score: inf
ROOT
ATOM      1  C   UNL     1     -17.885   9.859  -6.083  1.00  0.00     0.052 C 
ENDROOT
BRANCH   1   2
ATOM      2  C   UNL     1     -19.066   9.623  -5.194  1.00  0.00     0.041 C 
ATOM      3  O   UNL     1     -19.519  10.557  -4.481  1.00  0.00    -0.550 OA
ATOM      4  O   UNL     1     -19.636   8.360  -5.117  1.00  0.00    -0.550 OA
ENDBRANCH   1   2
BRANCH   1   5
ATOM      5  C   UNL     1     -16.775  10.581  -5.316  1.00  0.00     0.003 C 
ATOM      6  C   UNL     1     -15.414   9.947  -5.591  1.00  0.00     0.004 C 
ENDBRANCH   1   5
TORSDOF 2
ENDMDL
MODEL 6
REMARK VINA RESULT:    -2.420      1.886      2.380
REMARK INTER + INTRA:          -2.712
REMARK INTER:                  -2.702
REMARK INTRA:                  -0.010
REMARK UNBOUND:                -0.008
REMARK SMILES CCCC(=O)[O-]
REMARK SMILES IDX 3 1 4 2 5 3 6 4 2 5 1 6
REMARK H PARENT
REMARK Flexibility Score: inf
ROOT
ATOM      1  C   UNL     1      -4.656   8.038  -1.839  1.00  0.00     0.052 C 
ENDROOT
BRANCH   1   2
ATOM      2  C   UNL     1      -3.881   8.630  -0.703  1.00  0.00     0.041 C 
ATOM      3  O   UNL     1      -2.720   8.217  -0.445  1.00  0.00    -0.550 OA
ATOM      4  O   UNL     1      -4.461   9.602   0.100  1.00  0.00    -0.550 OA
ENDBRANCH   1   2
BRANCH   1   5
ATOM      5  C   UNL     1      -4.014   8.412  -3.177  1.00  0.00     0.003 C 
ATOM      6  C   UNL     1      -4.452   7.457  -4.284  1.00  0.00     0.004 C 
ENDBRANCH   1   5
TORSDOF 2
ENDMDL
MODEL 7
REMARK VINA RESULT:    -2.388     19.031     19.739
REMARK INTER + INTRA:          -2.675
REMARK INTER:                  -2.669
REMARK INTRA:                  -0.006
REMARK UNBOUND:                -0.008
REMARK SMILES CCCC(=O)[O-]
REMARK SMILES IDX 3 1 4 2 5 3 6 4 2 5 1 6
REMARK H PARENT
REMARK Flexibility Score: inf
ROOT
ATOM      1  C   UNL     1     -11.372  -7.653   6.511  1.00  0.00     0.052 C 
ENDROOT
BRANCH   1   2
ATOM      2  C   UNL     1     -11.582  -8.446   5.259  1.00  0.00     0.041 C 
ATOM      3  O   UNL     1     -10.596  -8.801   4.561  1.00  0.00    -0.550 OA
ATOM      4  O   UNL     1     -12.869  -8.752   4.838  1.00  0.00    -0.550 OA
ENDBRANCH   1   2
BRANCH   1   5
ATOM      5  C   UNL     1     -10.737  -6.299   6.186  1.00  0.00     0.003 C 
ATOM      6  C   UNL     1     -11.251  -5.211   7.125  1.00  0.00     0.004 C 
ENDBRANCH   1   5
TORSDOF 2
ENDMDL
MODEL 8
REMARK VINA RESULT:    -2.381     16.766     17.263
REMARK INTER + INTRA:          -2.668
REMARK INTER:                  -2.653
REMARK INTRA:                  -0.016
REMARK UNBOUND:                -0.008
REMARK SMILES CCCC(=O)[O-]
REMARK SMILES IDX 3 1 4 2 5 3 6 4 2 5 1 6
REMARK H PARENT
REMARK Flexibility Score: inf
ROOT
ATOM      1  C   UNL     1     -20.288   5.242  -5.684  1.00  0.00     0.052 C 
ENDROOT
BRANCH   1   2
ATOM      2  C   UNL     1     -20.632   4.236  -6.737  1.00  0.00     0.041 C 
ATOM      3  O   UNL     1     -20.470   3.007  -6.515  1.00  0.00    -0.550 OA
ATOM      4  O   UNL     1     -21.084   4.657  -7.979  1.00  0.00    -0.550 OA
ENDBRANCH   1   2
BRANCH   1   5
ATOM      5  C   UNL     1     -21.021   6.561  -5.944  1.00  0.00     0.003 C 
ATOM      6  C   UNL     1     -20.240   7.744  -5.381  1.00  0.00     0.004 C 
ENDBRANCH   1   5
TORSDOF 2
ENDMDL
MODEL 9
REMARK VINA RESULT:    -2.280      2.814      3.611
REMARK INTER + INTRA:          -2.555
REMARK INTER:                  -2.519
REMARK INTRA:                  -0.036
REMARK UNBOUND:                -0.008
REMARK SMILES CCCC(=O)[O-]
REMARK SMILES IDX 3 1 4 2 5 3 6 4 2 5 1 6
REMARK H PARENT
REMARK Flexibility Score: inf
ROOT
ATOM      1  C   UNL     1      -1.335   6.143  -4.971  1.00  0.00     0.052 C 
ENDROOT
BRANCH   1   2
ATOM      2  C   UNL     1      -2.379   7.190  -4.740  1.00  0.00     0.041 C 
ATOM      3  O   UNL     1      -2.044   8.356  -4.404  1.00  0.00    -0.550 OA
ATOM      4  O   UNL     1      -3.724   6.865  -4.848  1.00  0.00    -0.550 OA
ENDBRANCH   1   2
BRANCH   1   5
ATOM      5  C   UNL     1      -1.578   5.429  -6.303  1.00  0.00     0.003 C 
ATOM      6  C   UNL     1      -1.762   3.929  -6.097  1.00  0.00     0.004 C 
ENDBRANCH   1   5
TORSDOF 2
ENDMDL
