MODEL 1
REMARK VINA RESULT:    -4.455      0.000      0.000
REMARK INTER + INTRA:          -6.117
REMARK INTER:                  -6.018
REMARK INTRA:                  -0.099
REMARK UNBOUND:                -0.099
REMARK SMILES [NH3+]CCCC[C@H]([NH3+])C(=O)[O-]
REMARK SMILES IDX 4 1 3 2 2 3 1 4 5 8 6 9 7 10 8 14 9 15 10 16
REMARK H PARENT 1 5 1 6 1 7 7 11 7 12 7 13
REMARK Flexibility Score: inf
ROOT
ATOM      1  C   UNL     1       3.494  26.405  11.014  1.00  0.00     0.012 C 
ENDROOT
BRANCH   1   2
ATOM      2  C   UNL     1       3.689  24.907  10.720  1.00  0.00     0.061 C 
BRANCH   2   3
ATOM      3  C   UNL     1       5.128  24.572  10.293  1.00  0.00     0.258 C 
BRANCH   3   4
ATOM      4  N   UNL     1       5.970  24.202  11.432  1.00  0.00    -0.358 N 
ATOM      5  H   UNL     1       6.969  24.187  11.125  1.00  0.00     0.344 HD
ATOM      6  H   UNL     1       5.874  24.903  12.200  1.00  0.00     0.344 HD
ATOM      7  H   UNL     1       5.713  23.251  11.782  1.00  0.00     0.344 HD
ENDBRANCH   3   4
ENDBRANCH   2   3
ENDBRANCH   1   2
BRANCH   1   8
ATOM      8  C   UNL     1       2.385  26.656  12.056  1.00  0.00     0.072 C 
BRANCH   8   9
ATOM      9  C   UNL     1       2.726  27.775  13.069  1.00  0.00     0.227 C 
BRANCH   9  10
ATOM     10  N   UNL     1       2.378  27.395  14.443  1.00  0.00    -0.350 N 
ATOM     11  H   UNL     1       2.909  26.536  14.721  1.00  0.00     0.345 HD
ATOM     12  H   UNL     1       1.361  27.165  14.504  1.00  0.00     0.345 HD
ATOM     13  H   UNL     1       2.606  28.166  15.112  1.00  0.00     0.345 HD
ENDBRANCH   9  10
BRANCH   9  14
ATOM     14  C   UNL     1       2.004  29.038  12.682  1.00  0.00     0.099 C 
ATOM     15  O   UNL     1       2.440  29.756  11.746  1.00  0.00    -0.544 OA
ATOM     16  O   UNL     1       0.838  29.407  13.343  1.00  0.00    -0.544 OA
ENDBRANCH   9  14
ENDBRANCH   8   9
ENDBRANCH   1   8
TORSDOF 7
ENDMDL
MODEL 2
REMARK VINA RESULT:    -4.356      2.076      2.622
REMARK INTER + INTRA:          -5.984
REMARK INTER:                  -5.862
REMARK INTRA:                  -0.121
REMARK UNBOUND:                -0.099
REMARK SMILES [NH3+]CCCC[C@H]([NH3+])C(=O)[O-]
REMARK SMILES IDX 4 1 3 2 2 3 1 4 5 8 6 9 7 10 8 14 9 15 10 16
REMARK H PARENT 1 5 1 6 1 7 7 11 7 12 7 13
REMARK Flexibility Score: inf
ROOT
ATOM      1  C   UNL     1       2.670  25.825  11.863  1.00  0.00     0.012 C 
ENDROOT
BRANCH   1   2
ATOM      2  C   UNL     1       2.279  25.174  10.524  1.00  0.00     0.061 C 
BRANCH   2   3
ATOM      3  C   UNL     1       0.876  24.546  10.561  1.00  0.00     0.258 C 
BRANCH   3   4
ATOM      4  N   UNL     1       0.111  24.971  11.736  1.00  0.00    -0.358 N 
ATOM      5  H   UNL     1       0.058  24.176  12.412  1.00  0.00     0.344 HD
ATOM      6  H   UNL     1       0.585  25.773  12.209  1.00  0.00     0.344 HD
ATOM      7  H   UNL     1      -0.860  25.243  11.460  1.00  0.00     0.344 HD
ENDBRANCH   3   4
ENDBRANCH   2   3
ENDBRANCH   1   2
BRANCH   1   8
ATOM      8  C   UNL     1       3.059  27.309  11.699  1.00  0.00     0.072 C 
BRANCH   8   9
ATOM      9  C   UNL     1       2.857  28.148  12.983  1.00  0.00     0.227 C 
BRANCH   9  10
ATOM     10  N   UNL     1       2.420  27.321  14.114  1.00  0.00    -0.350 N 
ATOM     11  H   UNL     1       1.636  26.695  13.816  1.00  0.00     0.345 HD
ATOM     12  H   UNL     1       2.057  27.929  14.882  1.00  0.00     0.345 HD
ATOM     13  H   UNL     1       3.208  26.734  14.472  1.00  0.00     0.345 HD
ENDBRANCH   9  10
BRANCH   9  14
ATOM     14  C   UNL     1       1.851  29.236  12.717  1.00  0.00     0.099 C 
ATOM     15  O   UNL     1       0.798  29.305  13.403  1.00  0.00    -0.544 OA
ATOM     16  O   UNL     1       2.089  30.184  11.729  1.00  0.00    -0.544 OA
ENDBRANCH   9  14
ENDBRANCH   8   9
ENDBRANCH   1   8
TORSDOF 7
ENDMDL
MODEL 3
REMARK VINA RESULT:    -3.949      3.702      4.186
REMARK INTER + INTRA:          -5.434
REMARK INTER:                  -5.238
REMARK INTRA:                  -0.195
REMARK UNBOUND:                -0.099
REMARK SMILES [NH3+]CCCC[C@H]([NH3+])C(=O)[O-]
REMARK SMILES IDX 4 1 3 2 2 3 1 4 5 8 6 9 7 10 8 14 9 15 10 16
REMARK H PARENT 1 5 1 6 1 7 7 11 7 12 7 13
REMARK Flexibility Score: inf
ROOT
ATOM      1  C   UNL     1       1.762  30.270  12.253  1.00  0.00     0.012 C 
ENDROOT
BRANCH   1   2
ATOM      2  C   UNL     1       2.867  29.811  11.285  1.00  0.00     0.061 C 
BRANCH   2   3
ATOM      3  C   UNL     1       4.122  30.698  11.360  1.00  0.00     0.258 C 
BRANCH   3   4
ATOM      4  N   UNL     1       4.908  30.442  12.569  1.00  0.00    -0.358 N 
ATOM      5  H   UNL     1       5.865  30.125  12.290  1.00  0.00     0.344 HD
ATOM      6  H   UNL     1       5.004  31.315  13.134  1.00  0.00     0.344 HD
ATOM      7  H   UNL     1       4.461  29.691  13.143  1.00  0.00     0.344 HD
ENDBRANCH   3   4
ENDBRANCH   2   3
ENDBRANCH   1   2
BRANCH   1   8
ATOM      8  C   UNL     1       1.202  29.104  13.094  1.00  0.00     0.072 C 
BRANCH   8   9
ATOM      9  C   UNL     1       2.168  28.617  14.200  1.00  0.00     0.227 C 
BRANCH   9  10
ATOM     10  N   UNL     1       2.527  27.204  14.030  1.00  0.00    -0.350 N 
ATOM     11  H   UNL     1       3.565  27.088  14.104  1.00  0.00     0.345 HD
ATOM     12  H   UNL     1       2.244  26.875  13.080  1.00  0.00     0.345 HD
ATOM     13  H   UNL     1       2.066  26.612  14.760  1.00  0.00     0.345 HD
ENDBRANCH   9  10
BRANCH   9  14
ATOM     14  C   UNL     1       1.534  28.831  15.549  1.00  0.00     0.099 C 
ATOM     15  O   UNL     1       2.246  28.857  16.586  1.00  0.00    -0.544 OA
ATOM     16  O   UNL     1       0.162  29.024  15.654  1.00  0.00    -0.544 OA
ENDBRANCH   9  14
ENDBRANCH   8   9
ENDBRANCH   1   8
TORSDOF 7
ENDMDL
MODEL 4
REMARK VINA RESULT:    -3.888      1.368      1.621
REMARK INTER + INTRA:          -5.351
REMARK INTER:                  -5.179
REMARK INTRA:                  -0.172
REMARK UNBOUND:                -0.099
REMARK SMILES [NH3+]CCCC[C@H]([NH3+])C(=O)[O-]
REMARK SMILES IDX 4 1 3 2 2 3 1 4 5 8 6 9 7 10 8 14 9 15 10 16
REMARK H PARENT 1 5 1 6 1 7 7 11 7 12 7 13
REMARK Flexibility Score: inf
ROOT
ATOM      1  C   UNL     1       3.454  26.758  10.061  1.00  0.00     0.012 C 
ENDROOT
BRANCH   1   2
ATOM      2  C   UNL     1       4.770  25.965   9.981  1.00  0.00     0.061 C 
BRANCH   2   3
ATOM      3  C   UNL     1       4.677  24.596  10.677  1.00  0.00     0.258 C 
BRANCH   3   4
ATOM      4  N   UNL     1       5.931  24.225  11.335  1.00  0.00    -0.358 N 
ATOM      5  H   UNL     1       5.993  23.182  11.383  1.00  0.00     0.344 HD
ATOM      6  H   UNL     1       6.748  24.577  10.788  1.00  0.00     0.344 HD
ATOM      7  H   UNL     1       5.960  24.608  12.308  1.00  0.00     0.344 HD
ENDBRANCH   3   4
ENDBRANCH   2   3
ENDBRANCH   1   2
BRANCH   1   8
ATOM      8  C   UNL     1       3.460  27.785  11.213  1.00  0.00     0.072 C 
BRANCH   8   9
ATOM      9  C   UNL     1       2.788  27.271  12.507  1.00  0.00     0.227 C 
BRANCH   9  10
ATOM     10  N   UNL     1       1.748  26.273  12.224  1.00  0.00    -0.350 N 
ATOM     11  H   UNL     1       2.065  25.328  12.543  1.00  0.00     0.345 HD
ATOM     12  H   UNL     1       1.579  26.215  11.195  1.00  0.00     0.345 HD
ATOM     13  H   UNL     1       0.856  26.516  12.714  1.00  0.00     0.345 HD
ENDBRANCH   9  10
BRANCH   9  14
ATOM     14  C   UNL     1       2.198  28.433  13.262  1.00  0.00     0.099 C 
ATOM     15  O   UNL     1       2.141  28.407  14.519  1.00  0.00    -0.544 OA
ATOM     16  O   UNL     1       1.735  29.549  12.577  1.00  0.00    -0.544 OA
ENDBRANCH   9  14
ENDBRANCH   8   9
ENDBRANCH   1   8
TORSDOF 7
ENDMDL
MODEL 5
REMARK VINA RESULT:    -3.885      3.144      5.089
REMARK INTER + INTRA:          -5.347
REMARK INTER:                  -5.263
REMARK INTRA:                  -0.084
REMARK UNBOUND:                -0.099
REMARK SMILES [NH3+]CCCC[C@H]([NH3+])C(=O)[O-]
REMARK SMILES IDX 4 1 3 2 2 3 1 4 5 8 6 9 7 10 8 14 9 15 10 16
REMARK H PARENT 1 5 1 6 1 7 7 11 7 12 7 13
REMARK Flexibility Score: inf
ROOT
ATOM      1  C   UNL     1       1.567  30.223  12.280  1.00  0.00     0.012 C 
ENDROOT
BRANCH   1   2
ATOM      2  C   UNL     1       2.008  31.467  11.489  1.00  0.00     0.061 C 
BRANCH   2   3
ATOM      3  C   UNL     1       1.805  31.304   9.973  1.00  0.00     0.258 C 
BRANCH   3   4
ATOM      4  N   UNL     1       0.559  31.919   9.512  1.00  0.00    -0.358 N 
ATOM      5  H   UNL     1       0.509  32.898   9.878  1.00  0.00     0.344 HD
ATOM      6  H   UNL     1       0.534  31.958   8.469  1.00  0.00     0.344 HD
ATOM      7  H   UNL     1      -0.266  31.385   9.870  1.00  0.00     0.344 HD
ENDBRANCH   3   4
ENDBRANCH   2   3
ENDBRANCH   1   2
BRANCH   1   8
ATOM      8  C   UNL     1       2.692  29.172  12.389  1.00  0.00     0.072 C 
BRANCH   8   9
ATOM      9  C   UNL     1       2.180  27.745  12.696  1.00  0.00     0.227 C 
BRANCH   9  10
ATOM     10  N   UNL     1       2.467  27.344  14.079  1.00  0.00    -0.350 N 
ATOM     11  H   UNL     1       3.499  27.381  14.253  1.00  0.00     0.345 HD
ATOM     12  H   UNL     1       2.159  26.359  14.237  1.00  0.00     0.345 HD
ATOM     13  H   UNL     1       1.985  27.978  14.757  1.00  0.00     0.345 HD
ENDBRANCH   9  10
BRANCH   9  14
ATOM     14  C   UNL     1       2.806  26.770  11.734  1.00  0.00     0.099 C 
ATOM     15  O   UNL     1       3.661  27.165  10.899  1.00  0.00    -0.544 OA
ATOM     16  O   UNL     1       2.460  25.425  11.777  1.00  0.00    -0.544 OA
ENDBRANCH   9  14
ENDBRANCH   8   9
ENDBRANCH   1   8
TORSDOF 7
ENDMDL
MODEL 6
REMARK VINA RESULT:    -3.839      3.808      5.523
REMARK INTER + INTRA:          -5.285
REMARK INTER:                  -5.181
REMARK INTRA:                  -0.104
REMARK UNBOUND:                -0.099
REMARK SMILES [NH3+]CCCC[C@H]([NH3+])C(=O)[O-]
REMARK SMILES IDX 4 1 3 2 2 3 1 4 5 8 6 9 7 10 8 14 9 15 10 16
REMARK H PARENT 1 5 1 6 1 7 7 11 7 12 7 13
REMARK Flexibility Score: inf
ROOT
ATOM      1  C   UNL     1       3.574  24.792  10.756  1.00  0.00     0.012 C 
ENDROOT
BRANCH   1   2
ATOM      2  C   UNL     1       2.252  25.435  10.301  1.00  0.00     0.061 C 
BRANCH   2   3
ATOM      3  C   UNL     1       1.030  24.552  10.607  1.00  0.00     0.258 C 
BRANCH   3   4
ATOM      4  N   UNL     1       0.220  25.091  11.701  1.00  0.00    -0.358 N 
ATOM      5  H   UNL     1       0.842  25.615  12.358  1.00  0.00     0.344 HD
ATOM      6  H   UNL     1      -0.498  25.754  11.331  1.00  0.00     0.344 HD
ATOM      7  H   UNL     1      -0.247  24.316  12.226  1.00  0.00     0.344 HD
ENDBRANCH   3   4
ENDBRANCH   2   3
ENDBRANCH   1   2
BRANCH   1   8
ATOM      8  C   UNL     1       4.534  24.532   9.576  1.00  0.00     0.072 C 
BRANCH   8   9
ATOM      9  C   UNL     1       5.997  24.280  10.011  1.00  0.00     0.227 C 
BRANCH   9  10
ATOM     10  N   UNL     1       6.124  24.171  11.470  1.00  0.00    -0.350 N 
ATOM     11  H   UNL     1       6.999  23.651  11.714  1.00  0.00     0.345 HD
ATOM     12  H   UNL     1       5.320  23.628  11.858  1.00  0.00     0.345 HD
ATOM     13  H   UNL     1       6.156  25.118  11.912  1.00  0.00     0.345 HD
ENDBRANCH   9  10
BRANCH   9  14
ATOM     14  C   UNL     1       6.871  25.394   9.497  1.00  0.00     0.099 C 
ATOM     15  O   UNL     1       6.388  26.540   9.305  1.00  0.00    -0.544 OA
ATOM     16  O   UNL     1       8.220  25.168   9.254  1.00  0.00    -0.544 OA
ENDBRANCH   9  14
ENDBRANCH   8   9
ENDBRANCH   1   8
TORSDOF 7
ENDMDL
MODEL 7
REMARK VINA RESULT:    -3.808      2.851      4.809
REMARK INTER + INTRA:          -5.243
REMARK INTER:                  -5.058
REMARK INTRA:                  -0.185
REMARK UNBOUND:                -0.099
REMARK SMILES [NH3+]CCCC[C@H]([NH3+])C(=O)[O-]
REMARK SMILES IDX 4 1 3 2 2 3 1 4 5 8 6 9 7 10 8 14 9 15 10 16
REMARK H PARENT 1 5 1 6 1 7 7 11 7 12 7 13
REMARK Flexibility Score: inf
ROOT
ATOM      1  C   UNL     1       3.358  27.893  11.264  1.00  0.00     0.012 C 
ENDROOT
BRANCH   1   2
ATOM      2  C   UNL     1       2.610  27.312  12.477  1.00  0.00     0.061 C 
BRANCH   2   3
ATOM      3  C   UNL     1       2.644  28.249  13.696  1.00  0.00     0.258 C 
BRANCH   3   4
ATOM      4  N   UNL     1       2.072  27.624  14.890  1.00  0.00    -0.358 N 
ATOM      5  H   UNL     1       2.831  27.123  15.407  1.00  0.00     0.344 HD
ATOM      6  H   UNL     1       1.668  28.349  15.524  1.00  0.00     0.344 HD
ATOM      7  H   UNL     1       1.335  26.932  14.623  1.00  0.00     0.344 HD
ENDBRANCH   3   4
ENDBRANCH   2   3
ENDBRANCH   1   2
BRANCH   1   8
ATOM      8  C   UNL     1       3.946  26.791  10.358  1.00  0.00     0.072 C 
BRANCH   8   9
ATOM      9  C   UNL     1       3.723  25.359  10.897  1.00  0.00     0.227 C 
BRANCH   9  10
ATOM     10  N   UNL     1       4.991  24.673  11.173  1.00  0.00    -0.350 N 
ATOM     11  H   UNL     1       5.679  25.348  11.582  1.00  0.00     0.345 HD
ATOM     12  H   UNL     1       5.402  24.310  10.284  1.00  0.00     0.345 HD
ATOM     13  H   UNL     1       4.849  23.883  11.844  1.00  0.00     0.345 HD
ENDBRANCH   9  10
BRANCH   9  14
ATOM     14  C   UNL     1       2.913  24.569   9.903  1.00  0.00     0.099 C 
ATOM     15  O   UNL     1       3.485  23.793   9.095  1.00  0.00    -0.544 OA
ATOM     16  O   UNL     1       1.528  24.676   9.887  1.00  0.00    -0.544 OA
ENDBRANCH   9  14
ENDBRANCH   8   9
ENDBRANCH   1   8
TORSDOF 7
ENDMDL
MODEL 8
REMARK VINA RESULT:    -3.779      3.315      4.438
REMARK INTER + INTRA:          -5.204
REMARK INTER:                  -5.100
REMARK INTRA:                  -0.104
REMARK UNBOUND:                -0.099
REMARK SMILES [NH3+]CCCC[C@H]([NH3+])C(=O)[O-]
REMARK SMILES IDX 4 1 3 2 2 3 1 4 5 8 6 9 7 10 8 14 9 15 10 16
REMARK H PARENT 1 5 1 6 1 7 7 11 7 12 7 13
REMARK Flexibility Score: inf
ROOT
ATOM      1  C   UNL     1       4.313  30.213  12.906  1.00  0.00     0.012 C 
ENDROOT
BRANCH   1   2
ATOM      2  C   UNL     1       5.622  30.386  12.117  1.00  0.00     0.061 C 
BRANCH   2   3
ATOM      3  C   UNL     1       6.129  31.838  12.127  1.00  0.00     0.258 C 
BRANCH   3   4
ATOM      4  N   UNL     1       7.520  31.935  12.577  1.00  0.00    -0.358 N 
ATOM      5  H   UNL     1       7.990  32.712  12.060  1.00  0.00     0.344 HD
ATOM      6  H   UNL     1       7.558  32.150  13.598  1.00  0.00     0.344 HD
ATOM      7  H   UNL     1       8.030  31.043  12.380  1.00  0.00     0.344 HD
ENDBRANCH   3   4
ENDBRANCH   2   3
ENDBRANCH   1   2
BRANCH   1   8
ATOM      8  C   UNL     1       3.472  29.026  12.390  1.00  0.00     0.072 C 
BRANCH   8   9
ATOM      9  C   UNL     1       2.882  28.147  13.518  1.00  0.00     0.227 C 
BRANCH   9  10
ATOM     10  N   UNL     1       2.563  26.794  13.047  1.00  0.00    -0.350 N 
ATOM     11  H   UNL     1       3.437  26.221  12.987  1.00  0.00     0.345 HD
ATOM     12  H   UNL     1       2.153  26.837  12.087  1.00  0.00     0.345 HD
ATOM     13  H   UNL     1       1.891  26.323  13.696  1.00  0.00     0.345 HD
ENDBRANCH   9  10
BRANCH   9  14
ATOM     14  C   UNL     1       1.648  28.807  14.074  1.00  0.00     0.099 C 
ATOM     15  O   UNL     1       0.867  29.433  13.311  1.00  0.00    -0.544 OA
ATOM     16  O   UNL     1       1.353  28.709  15.428  1.00  0.00    -0.544 OA
ENDBRANCH   9  14
ENDBRANCH   8   9
ENDBRANCH   1   8
TORSDOF 7
ENDMDL
MODEL 9
REMARK VINA RESULT:    -3.730      3.329      5.489
REMARK INTER + INTRA:          -5.138
REMARK INTER:                  -4.993
REMARK INTRA:                  -0.145
REMARK UNBOUND:                -0.099
REMARK SMILES [NH3+]CCCC[C@H]([NH3+])C(=O)[O-]
REMARK SMILES IDX 4 1 3 2 2 3 1 4 5 8 6 9 7 10 8 14 9 15 10 16
REMARK H PARENT 1 5 1 6 1 7 7 11 7 12 7 13
REMARK Flexibility Score: inf
ROOT
ATOM      1  C   UNL     1       3.549  25.206  10.951  1.00  0.00     0.012 C 
ENDROOT
BRANCH   1   2
ATOM      2  C   UNL     1       3.481  26.723  11.204  1.00  0.00     0.061 C 
BRANCH   2   3
ATOM      3  C   UNL     1       2.344  27.110  12.164  1.00  0.00     0.258 C 
BRANCH   3   4
ATOM      4  N   UNL     1       2.736  26.977  13.569  1.00  0.00    -0.358 N 
ATOM      5  H   UNL     1       3.218  27.854  13.871  1.00  0.00     0.344 HD
ATOM      6  H   UNL     1       1.894  26.841  14.172  1.00  0.00     0.344 HD
ATOM      7  H   UNL     1       3.395  26.174  13.689  1.00  0.00     0.344 HD
ENDBRANCH   3   4
ENDBRANCH   2   3
ENDBRANCH   1   2
BRANCH   1   8
ATOM      8  C   UNL     1       4.394  24.859   9.708  1.00  0.00     0.072 C 
BRANCH   8   9
ATOM      9  C   UNL     1       5.758  24.210  10.046  1.00  0.00     0.227 C 
BRANCH   9  10
ATOM     10  N   UNL     1       6.005  24.179  11.493  1.00  0.00    -0.350 N 
ATOM     11  H   UNL     1       7.004  23.928  11.678  1.00  0.00     0.345 HD
ATOM     12  H   UNL     1       5.412  23.446  11.941  1.00  0.00     0.345 HD
ATOM     13  H   UNL     1       5.802  25.110  11.925  1.00  0.00     0.345 HD
ENDBRANCH   9  10
BRANCH   9  14
ATOM     14  C   UNL     1       6.858  24.965   9.348  1.00  0.00     0.099 C 
ATOM     15  O   UNL     1       7.858  24.350   8.894  1.00  0.00    -0.544 OA
ATOM     16  O   UNL     1       6.766  26.342   9.182  1.00  0.00    -0.544 OA
ENDBRANCH   9  14
ENDBRANCH   8   9
ENDBRANCH   1   8
TORSDOF 7
ENDMDL
