MODEL 1
REMARK VINA RESULT:    -6.750      0.000      0.000
REMARK INTER + INTRA:          -7.411
REMARK INTER:                  -7.145
REMARK INTRA:                  -0.266
REMARK UNBOUND:                -0.266
REMARK SMILES O=c1cc(-c2ccccc2)oc2ccccc12
REMARK SMILES IDX 4 1 3 2 2 3 1 4 17 5 16 6 15 7 14 8 13 9 12 10 11 11 5 12
REMARK SMILES IDX 8 13 7 14 9 15 6 16 10 17
REMARK H PARENT
REMARK Flexibility Score: inf
ROOT
ATOM      1  C   UNL     1      19.983  -0.546 -19.502  1.00  0.00     0.138 A 
ATOM      2  C   UNL     1      19.735   0.307 -18.407  1.00  0.00     0.100 A 
ATOM      3  C   UNL     1      19.118  -0.202 -17.262  1.00  0.00     0.193 A 
ATOM      4  O   UNL     1      18.897   0.562 -16.284  1.00  0.00    -0.289 OA
ATOM      5  C   UNL     1      18.757  -1.555 -17.218  1.00  0.00     0.065 A 
ATOM      6  C   UNL     1      18.133  -2.131 -16.096  1.00  0.00     0.016 A 
ATOM      7  C   UNL     1      17.793  -3.488 -16.104  1.00  0.00     0.001 A 
ATOM      8  C   UNL     1      18.069  -4.275 -17.225  1.00  0.00     0.004 A 
ATOM      9  C   UNL     1      18.688  -3.711 -18.344  1.00  0.00     0.048 A 
ATOM     10  C   UNL     1      19.033  -2.355 -18.346  1.00  0.00     0.138 A 
ATOM     11  O   UNL     1      19.621  -1.827 -19.415  1.00  0.00    -0.456 OA
ENDROOT
BRANCH   1  12
ATOM     12  C   UNL     1      20.637  -0.082 -20.765  1.00  0.00     0.017 A 
ATOM     13  C   UNL     1      21.882   0.883 -23.107  1.00  0.00     0.000 A 
ATOM     14  C   UNL     1      21.701   1.729 -22.014  1.00  0.00     0.001 A 
ATOM     15  C   UNL     1      21.446  -0.440 -23.041  1.00  0.00     0.001 A 
ATOM     16  C   UNL     1      21.084   1.254 -20.852  1.00  0.00     0.012 A 
ATOM     17  C   UNL     1      20.830  -0.924 -21.883  1.00  0.00     0.012 A 
ENDBRANCH   1  12
TORSDOF 1
ENDMDL
MODEL 2
REMARK VINA RESULT:    -6.686      1.126      2.655
REMARK INTER + INTRA:          -7.343
REMARK INTER:                  -7.077
REMARK INTRA:                  -0.266
REMARK UNBOUND:                -0.266
REMARK SMILES O=c1cc(-c2ccccc2)oc2ccccc12
REMARK SMILES IDX 4 1 3 2 2 3 1 4 17 5 16 6 15 7 14 8 13 9 12 10 11 11 5 12
REMARK SMILES IDX 8 13 7 14 9 15 6 16 10 17
REMARK H PARENT
REMARK Flexibility Score: inf
ROOT
ATOM      1  C   UNL     1      19.977  -0.643 -19.695  1.00  0.00     0.138 A 
ATOM      2  C   UNL     1      19.567  -1.992 -19.697  1.00  0.00     0.100 A 
ATOM      3  C   UNL     1      18.950  -2.526 -18.564  1.00  0.00     0.193 A 
ATOM      4  O   UNL     1      18.583  -3.733 -18.566  1.00  0.00    -0.289 OA
ATOM      5  C   UNL     1      18.745  -1.711 -17.442  1.00  0.00     0.065 A 
ATOM      6  C   UNL     1      18.129  -2.186 -16.269  1.00  0.00     0.016 A 
ATOM      7  C   UNL     1      17.949  -1.331 -15.178  1.00  0.00     0.001 A 
ATOM      8  C   UNL     1      18.381  -0.003 -15.246  1.00  0.00     0.004 A 
ATOM      9  C   UNL     1      18.994   0.476 -16.407  1.00  0.00     0.048 A 
ATOM     10  C   UNL     1      19.178  -0.371 -17.505  1.00  0.00     0.138 A 
ATOM     11  O   UNL     1      19.763   0.095 -18.604  1.00  0.00    -0.456 OA
ENDROOT
BRANCH   1  12
ATOM     12  C   UNL     1      20.647   0.006 -20.865  1.00  0.00     0.017 A 
ATOM     13  C   UNL     1      21.907   1.145 -23.120  1.00  0.00     0.000 A 
ATOM     14  C   UNL     1      21.553  -0.204 -23.125  1.00  0.00     0.001 A 
ATOM     15  C   UNL     1      21.638   1.930 -21.999  1.00  0.00     0.001 A 
ATOM     16  C   UNL     1      20.929  -0.770 -22.009  1.00  0.00     0.012 A 
ATOM     17  C   UNL     1      21.013   1.371 -20.879  1.00  0.00     0.012 A 
ENDBRANCH   1  12
TORSDOF 1
ENDMDL
MODEL 3
REMARK VINA RESULT:    -6.048     11.955     15.524
REMARK INTER + INTRA:          -6.668
REMARK INTER:                  -6.402
REMARK INTRA:                  -0.266
REMARK UNBOUND:                -0.266
REMARK SMILES O=c1cc(-c2ccccc2)oc2ccccc12
REMARK SMILES IDX 4 1 3 2 2 3 1 4 17 5 16 6 15 7 14 8 13 9 12 10 11 11 5 12
REMARK SMILES IDX 8 13 7 14 9 15 6 16 10 17
REMARK H PARENT
REMARK Flexibility Score: inf
ROOT
ATOM      1  C   UNL     1      10.802  -6.974  -8.919  1.00  0.00     0.138 A 
ATOM      2  C   UNL     1      10.517  -5.994  -7.946  1.00  0.00     0.100 A 
ATOM      3  C   UNL     1       9.484  -6.212  -7.031  1.00  0.00     0.193 A 
ATOM      4  O   UNL     1       9.230  -5.334  -6.161  1.00  0.00    -0.289 OA
ATOM      5  C   UNL     1       8.748  -7.402  -7.092  1.00  0.00     0.065 A 
ATOM      6  C   UNL     1       7.696  -7.684  -6.202  1.00  0.00     0.016 A 
ATOM      7  C   UNL     1       6.993  -8.888  -6.307  1.00  0.00     0.001 A 
ATOM      8  C   UNL     1       7.331  -9.815  -7.297  1.00  0.00     0.004 A 
ATOM      9  C   UNL     1       8.374  -9.543  -8.187  1.00  0.00     0.048 A 
ATOM     10  C   UNL     1       9.084  -8.342  -8.090  1.00  0.00     0.138 A 
ATOM     11  O   UNL     1      10.075  -8.092  -8.940  1.00  0.00    -0.456 OA
ENDROOT
BRANCH   1  12
ATOM     12  C   UNL     1      11.889  -6.820  -9.935  1.00  0.00     0.017 A 
ATOM     13  C   UNL     1      13.916  -6.617 -11.890  1.00  0.00     0.000 A 
ATOM     14  C   UNL     1      13.102  -7.748 -11.843  1.00  0.00     0.001 A 
ATOM     15  C   UNL     1      13.727  -5.587 -10.969  1.00  0.00     0.001 A 
ATOM     16  C   UNL     1      12.097  -7.851 -10.875  1.00  0.00     0.012 A 
ATOM     17  C   UNL     1      12.724  -5.681  -9.999  1.00  0.00     0.012 A 
ENDBRANCH   1  12
TORSDOF 1
ENDMDL
MODEL 4
REMARK VINA RESULT:    -5.954     11.525     15.146
REMARK INTER + INTRA:          -6.568
REMARK INTER:                  -6.302
REMARK INTRA:                  -0.265
REMARK UNBOUND:                -0.266
REMARK SMILES O=c1cc(-c2ccccc2)oc2ccccc12
REMARK SMILES IDX 4 1 3 2 2 3 1 4 17 5 16 6 15 7 14 8 13 9 12 10 11 11 5 12
REMARK SMILES IDX 8 13 7 14 9 15 6 16 10 17
REMARK H PARENT
REMARK Flexibility Score: inf
ROOT
ATOM      1  C   UNL     1      11.187  -7.279  -9.393  1.00  0.00     0.138 A 
ATOM      2  C   UNL     1      10.605  -8.561  -9.476  1.00  0.00     0.100 A 
ATOM      3  C   UNL     1       9.570  -8.905  -8.604  1.00  0.00     0.193 A 
ATOM      4  O   UNL     1       9.050 -10.052  -8.679  1.00  0.00    -0.289 OA
ATOM      5  C   UNL     1       9.125  -7.971  -7.659  1.00  0.00     0.065 A 
ATOM      6  C   UNL     1       8.087  -8.254  -6.752  1.00  0.00     0.016 A 
ATOM      7  C   UNL     1       7.681  -7.285  -5.829  1.00  0.00     0.001 A 
ATOM      8  C   UNL     1       8.303  -6.034  -5.803  1.00  0.00     0.004 A 
ATOM      9  C   UNL     1       9.335  -5.745  -6.701  1.00  0.00     0.048 A 
ATOM     10  C   UNL     1       9.749  -6.707  -7.629  1.00  0.00     0.138 A 
ATOM     11  O   UNL     1      10.731  -6.422  -8.478  1.00  0.00    -0.456 OA
ENDROOT
BRANCH   1  12
ATOM     12  C   UNL     1      12.299  -6.831 -10.288  1.00  0.00     0.017 A 
ATOM     13  C   UNL     1      14.406  -5.902 -11.921  1.00  0.00     0.000 A 
ATOM     14  C   UNL     1      13.984  -5.145 -10.829  1.00  0.00     0.001 A 
ATOM     15  C   UNL     1      13.785  -7.118 -12.205  1.00  0.00     0.001 A 
ATOM     16  C   UNL     1      12.940  -5.603 -10.019  1.00  0.00     0.012 A 
ATOM     17  C   UNL     1      12.741  -7.584 -11.399  1.00  0.00     0.012 A 
ENDBRANCH   1  12
TORSDOF 1
ENDMDL
MODEL 5
REMARK VINA RESULT:    -5.912     11.239     15.678
REMARK INTER + INTRA:          -6.523
REMARK INTER:                  -6.258
REMARK INTRA:                  -0.266
REMARK UNBOUND:                -0.266
REMARK SMILES O=c1cc(-c2ccccc2)oc2ccccc12
REMARK SMILES IDX 4 1 3 2 2 3 1 4 17 5 16 6 15 7 14 8 13 9 12 10 11 11 5 12
REMARK SMILES IDX 8 13 7 14 9 15 6 16 10 17
REMARK H PARENT
REMARK Flexibility Score: inf
ROOT
ATOM      1  C   UNL     1      10.699  -7.114  -8.834  1.00  0.00     0.138 A 
ATOM      2  C   UNL     1      10.655  -8.292  -9.608  1.00  0.00     0.100 A 
ATOM      3  C   UNL     1      11.561  -8.461 -10.657  1.00  0.00     0.193 A 
ATOM      4  O   UNL     1      11.521  -9.515 -11.349  1.00  0.00    -0.289 OA
ATOM      5  C   UNL     1      12.502  -7.457 -10.925  1.00  0.00     0.065 A 
ATOM      6  C   UNL     1      13.441  -7.564 -11.967  1.00  0.00     0.016 A 
ATOM      7  C   UNL     1      14.358  -6.532 -12.191  1.00  0.00     0.001 A 
ATOM      8  C   UNL     1      14.344  -5.391 -11.384  1.00  0.00     0.004 A 
ATOM      9  C   UNL     1      13.413  -5.276 -10.347  1.00  0.00     0.048 A 
ATOM     10  C   UNL     1      12.492  -6.303 -10.113  1.00  0.00     0.138 A 
ATOM     11  O   UNL     1      11.611  -6.185  -9.125  1.00  0.00    -0.456 OA
ENDROOT
BRANCH   1  12
ATOM     12  C   UNL     1       9.766  -6.853  -7.694  1.00  0.00     0.017 A 
ATOM     13  C   UNL     1       7.967  -6.451  -5.556  1.00  0.00     0.000 A 
ATOM     14  C   UNL     1       7.969  -7.662  -6.249  1.00  0.00     0.001 A 
ATOM     15  C   UNL     1       8.855  -5.440  -5.922  1.00  0.00     0.001 A 
ATOM     16  C   UNL     1       8.859  -7.863  -7.308  1.00  0.00     0.012 A 
ATOM     17  C   UNL     1       9.749  -5.634  -6.980  1.00  0.00     0.012 A 
ENDBRANCH   1  12
TORSDOF 1
ENDMDL
MODEL 6
REMARK VINA RESULT:    -5.875     10.380     13.400
REMARK INTER + INTRA:          -6.485
REMARK INTER:                  -6.265
REMARK INTRA:                  -0.220
REMARK UNBOUND:                -0.266
REMARK SMILES O=c1cc(-c2ccccc2)oc2ccccc12
REMARK SMILES IDX 4 1 3 2 2 3 1 4 17 5 16 6 15 7 14 8 13 9 12 10 11 11 5 12
REMARK SMILES IDX 8 13 7 14 9 15 6 16 10 17
REMARK H PARENT
REMARK Flexibility Score: inf
ROOT
ATOM      1  C   UNL     1      11.821  -6.176 -10.586  1.00  0.00     0.138 A 
ATOM      2  C   UNL     1      11.737  -6.484  -9.212  1.00  0.00     0.100 A 
ATOM      3  C   UNL     1      10.570  -6.179  -8.509  1.00  0.00     0.193 A 
ATOM      4  O   UNL     1      10.495  -6.455  -7.280  1.00  0.00    -0.289 OA
ATOM      5  C   UNL     1       9.498  -5.573  -9.179  1.00  0.00     0.065 A 
ATOM      6  C   UNL     1       8.295  -5.240  -8.529  1.00  0.00     0.016 A 
ATOM      7  C   UNL     1       7.257  -4.637  -9.246  1.00  0.00     0.001 A 
ATOM      8  C   UNL     1       7.410  -4.360 -10.607  1.00  0.00     0.004 A 
ATOM      9  C   UNL     1       8.602  -4.687 -11.260  1.00  0.00     0.048 A 
ATOM     10  C   UNL     1       9.647  -5.292 -10.553  1.00  0.00     0.138 A 
ATOM     11  O   UNL     1      10.777  -5.599 -11.182  1.00  0.00    -0.456 OA
ENDROOT
BRANCH   1  12
ATOM     12  C   UNL     1      13.033  -6.468 -11.413  1.00  0.00     0.017 A 
ATOM     13  C   UNL     1      15.354  -6.927 -12.953  1.00  0.00     0.000 A 
ATOM     14  C   UNL     1      15.178  -5.706 -12.303  1.00  0.00     0.001 A 
ATOM     15  C   UNL     1      14.382  -7.920 -12.841  1.00  0.00     0.001 A 
ATOM     16  C   UNL     1      14.029  -5.476 -11.540  1.00  0.00     0.012 A 
ATOM     17  C   UNL     1      13.230  -7.699 -12.079  1.00  0.00     0.012 A 
ENDBRANCH   1  12
TORSDOF 1
ENDMDL
MODEL 7
REMARK VINA RESULT:    -5.864      1.991      3.231
REMARK INTER + INTRA:          -6.473
REMARK INTER:                  -6.249
REMARK INTRA:                  -0.225
REMARK UNBOUND:                -0.266
REMARK SMILES O=c1cc(-c2ccccc2)oc2ccccc12
REMARK SMILES IDX 4 1 3 2 2 3 1 4 17 5 16 6 15 7 14 8 13 9 12 10 11 11 5 12
REMARK SMILES IDX 8 13 7 14 9 15 6 16 10 17
REMARK H PARENT
REMARK Flexibility Score: inf
ROOT
ATOM      1  C   UNL     1      18.457  -1.236 -16.948  1.00  0.00     0.138 A 
ATOM      2  C   UNL     1      17.734  -0.428 -16.047  1.00  0.00     0.100 A 
ATOM      3  C   UNL     1      17.008  -1.027 -15.015  1.00  0.00     0.193 A 
ATOM      4  O   UNL     1      16.361  -0.303 -14.209  1.00  0.00    -0.289 OA
ATOM      5  C   UNL     1      17.010  -2.423 -14.890  1.00  0.00     0.065 A 
ATOM      6  C   UNL     1      16.300  -3.089 -13.874  1.00  0.00     0.016 A 
ATOM      7  C   UNL     1      16.336  -4.485 -13.795  1.00  0.00     0.001 A 
ATOM      8  C   UNL     1      17.075  -5.223 -14.723  1.00  0.00     0.004 A 
ATOM      9  C   UNL     1      17.783  -4.569 -15.736  1.00  0.00     0.048 A 
ATOM     10  C   UNL     1      17.754  -3.173 -15.824  1.00  0.00     0.138 A 
ATOM     11  O   UNL     1      18.430  -2.561 -16.791  1.00  0.00    -0.456 OA
ENDROOT
BRANCH   1  12
ATOM     12  C   UNL     1      19.259  -0.676 -18.080  1.00  0.00     0.017 A 
ATOM     13  C   UNL     1      20.699   0.357 -20.277  1.00  0.00     0.000 A 
ATOM     14  C   UNL     1      19.426  -0.179 -20.467  1.00  0.00     0.001 A 
ATOM     15  C   UNL     1      21.260   0.381 -19.000  1.00  0.00     0.001 A 
ATOM     16  C   UNL     1      18.711  -0.691 -19.380  1.00  0.00     0.012 A 
ATOM     17  C   UNL     1      20.551  -0.129 -17.908  1.00  0.00     0.012 A 
ENDBRANCH   1  12
TORSDOF 1
ENDMDL
MODEL 8
REMARK VINA RESULT:    -5.834      9.963     12.950
REMARK INTER + INTRA:          -6.441
REMARK INTER:                  -6.218
REMARK INTRA:                  -0.223
REMARK UNBOUND:                -0.266
REMARK SMILES O=c1cc(-c2ccccc2)oc2ccccc12
REMARK SMILES IDX 4 1 3 2 2 3 1 4 17 5 16 6 15 7 14 8 13 9 12 10 11 11 5 12
REMARK SMILES IDX 8 13 7 14 9 15 6 16 10 17
REMARK H PARENT
REMARK Flexibility Score: inf
ROOT
ATOM      1  C   UNL     1      12.625  -5.559 -10.548  1.00  0.00     0.138 A 
ATOM      2  C   UNL     1      11.539  -4.941 -11.202  1.00  0.00     0.100 A 
ATOM      3  C   UNL     1      10.243  -5.141 -10.723  1.00  0.00     0.193 A 
ATOM      4  O   UNL     1       9.272  -4.588 -11.309  1.00  0.00    -0.289 OA
ATOM      5  C   UNL     1      10.040  -5.951  -9.598  1.00  0.00     0.065 A 
ATOM      6  C   UNL     1       8.761  -6.193  -9.064  1.00  0.00     0.016 A 
ATOM      7  C   UNL     1       8.615  -7.010  -7.939  1.00  0.00     0.001 A 
ATOM      8  C   UNL     1       9.737  -7.590  -7.341  1.00  0.00     0.004 A 
ATOM      9  C   UNL     1      11.012  -7.356  -7.865  1.00  0.00     0.048 A 
ATOM     10  C   UNL     1      11.169  -6.539  -8.990  1.00  0.00     0.138 A 
ATOM     11  O   UNL     1      12.385  -6.322  -9.480  1.00  0.00    -0.456 OA
ENDROOT
BRANCH   1  12
ATOM     12  C   UNL     1      14.044  -5.398 -10.996  1.00  0.00     0.017 A 
ATOM     13  C   UNL     1      16.701  -5.154 -11.917  1.00  0.00     0.000 A 
ATOM     14  C   UNL     1      15.786  -5.934 -12.623  1.00  0.00     0.001 A 
ATOM     15  C   UNL     1      16.301  -4.496 -10.754  1.00  0.00     0.001 A 
ATOM     16  C   UNL     1      14.469  -6.056 -12.169  1.00  0.00     0.012 A 
ATOM     17  C   UNL     1      14.986  -4.613 -10.293  1.00  0.00     0.012 A 
ENDBRANCH   1  12
TORSDOF 1
ENDMDL
MODEL 9
REMARK VINA RESULT:    -5.825     17.949     19.668
REMARK INTER + INTRA:          -6.432
REMARK INTER:                  -6.200
REMARK INTRA:                  -0.232
REMARK UNBOUND:                -0.266
REMARK SMILES O=c1cc(-c2ccccc2)oc2ccccc12
REMARK SMILES IDX 4 1 3 2 2 3 1 4 17 5 16 6 15 7 14 8 13 9 12 10 11 11 5 12
REMARK SMILES IDX 8 13 7 14 9 15 6 16 10 17
REMARK H PARENT
REMARK Flexibility Score: inf
ROOT
ATOM      1  C   UNL     1       4.861   6.340  -9.786  1.00  0.00     0.138 A 
ATOM      2  C   UNL     1       4.968   7.717  -9.501  1.00  0.00     0.100 A 
ATOM      3  C   UNL     1       4.952   8.641 -10.548  1.00  0.00     0.193 A 
ATOM      4  O   UNL     1       5.048   9.872 -10.292  1.00  0.00    -0.289 OA
ATOM      5  C   UNL     1       4.827   8.185 -11.868  1.00  0.00     0.065 A 
ATOM      6  C   UNL     1       4.804   9.062 -12.968  1.00  0.00     0.016 A 
ATOM      7  C   UNL     1       4.678   8.555 -14.265  1.00  0.00     0.001 A 
ATOM      8  C   UNL     1       4.576   7.177 -14.474  1.00  0.00     0.004 A 
ATOM      9  C   UNL     1       4.599   6.298 -13.386  1.00  0.00     0.048 A 
ATOM     10  C   UNL     1       4.724   6.795 -12.084  1.00  0.00     0.138 A 
ATOM     11  O   UNL     1       4.745   5.953 -11.057  1.00  0.00    -0.456 OA
ENDROOT
BRANCH   1  12
ATOM     12  C   UNL     1       4.871   5.286  -8.725  1.00  0.00     0.017 A 
ATOM     13  C   UNL     1       4.972   3.259  -6.762  1.00  0.00     0.000 A 
ATOM     14  C   UNL     1       5.964   3.334  -7.740  1.00  0.00     0.001 A 
ATOM     15  C   UNL     1       3.930   4.187  -6.756  1.00  0.00     0.001 A 
ATOM     16  C   UNL     1       5.915   4.337  -8.713  1.00  0.00     0.012 A 
ATOM     17  C   UNL     1       3.875   5.193  -7.726  1.00  0.00     0.012 A 
ENDBRANCH   1  12
TORSDOF 1
ENDMDL
