MODEL 1
REMARK VINA RESULT:    29.571      0.000      0.000
REMARK INTER + INTRA:          36.065
REMARK INTER:                  35.621
REMARK INTRA:                   0.444
REMARK UNBOUND:                 0.444
REMARK SMILES O=c1c(O)c(-c2ccc(O)c(O)c2)oc2cc(O)cc(O)c12
REMARK SMILES IDX 5 1 3 2 2 3 1 4 22 5 20 6 19 7 17 8 16 9 15 10 14 11 6 12
REMARK SMILES IDX 7 13 8 14 9 15 13 16 11 17 10 18 12 20 4 22 21 24 18 26
REMARK H PARENT 10 19 12 21 4 23 21 25 18 27
REMARK Flexibility Score: inf
ROOT
ATOM      1  C   UNL     1      17.191   3.292  13.491  1.00  0.00     0.180 A 
ATOM      2  C   UNL     1      17.396   2.771  14.780  1.00  0.00     0.208 A 
ATOM      3  C   UNL     1      16.442   3.025  15.777  1.00  0.00     0.238 A 
ATOM      4  O   UNL     1      16.603   2.510  16.914  1.00  0.00    -0.285 OA
ATOM      5  C   UNL     1      15.302   3.811  15.477  1.00  0.00     0.111 A 
ATOM      6  C   UNL     1      14.291   4.164  16.421  1.00  0.00     0.134 A 
ATOM      7  C   UNL     1      13.143   4.835  15.984  1.00  0.00     0.093 A 
ATOM      8  C   UNL     1      12.999   5.222  14.652  1.00  0.00     0.123 A 
ATOM      9  C   UNL     1      14.008   4.934  13.733  1.00  0.00     0.094 A 
ATOM     10  C   UNL     1      15.149   4.234  14.132  1.00  0.00     0.146 A 
ATOM     11  O   UNL     1      16.082   3.969  13.224  1.00  0.00    -0.452 OA
ENDROOT
BRANCH   1  12
ATOM     12  C   UNL     1      18.166   3.088  12.394  1.00  0.00     0.025 A 
ATOM     13  C   UNL     1      19.224   2.171  12.517  1.00  0.00     0.016 A 
ATOM     14  C   UNL     1      20.145   2.012  11.478  1.00  0.00     0.051 A 
ATOM     15  C   UNL     1      20.033   2.774  10.310  1.00  0.00     0.157 A 
ATOM     16  C   UNL     1      18.068   3.866  11.229  1.00  0.00     0.062 A 
ATOM     17  C   UNL     1      18.992   3.708  10.185  1.00  0.00     0.158 A 
BRANCH  15  18
ATOM     18  O   UNL     1      20.967   2.592   9.290  1.00  0.00    -0.504 OA
ATOM     19  H   UNL     1      21.469   3.368   8.877  1.00  0.00     0.293 HD
ENDBRANCH  15  18
BRANCH  17  20
ATOM     20  O   UNL     1      18.878   4.476   9.027  1.00  0.00    -0.504 OA
ATOM     21  H   UNL     1      17.991   4.588   8.549  1.00  0.00     0.293 HD
ENDBRANCH  17  20
ENDBRANCH   1  12
BRANCH   2  22
ATOM     22  O   UNL     1      18.517   1.980  15.048  1.00  0.00    -0.502 OA
ATOM     23  H   UNL     1      19.454   2.363  15.100  1.00  0.00     0.293 HD
ENDBRANCH   2  22
BRANCH   6  24
ATOM     24  O   UNL     1      14.379   3.907  17.792  1.00  0.00    -0.507 OA
ATOM     25  H   UNL     1      13.745   3.316  18.309  1.00  0.00     0.293 HD
ENDBRANCH   6  24
BRANCH   8  26
ATOM     26  O   UNL     1      11.849   5.903  14.254  1.00  0.00    -0.508 OA
ATOM     27  H   UNL     1      10.929   5.618  14.566  1.00  0.00     0.293 HD
ENDBRANCH   8  26
TORSDOF 6
ENDMDL
MODEL 2
REMARK VINA RESULT:    29.676      4.628      7.546
REMARK INTER + INTRA:          36.192
REMARK INTER:                  35.791
REMARK INTRA:                   0.400
REMARK UNBOUND:                 0.444
REMARK SMILES O=c1c(O)c(-c2ccc(O)c(O)c2)oc2cc(O)cc(O)c12
REMARK SMILES IDX 5 1 3 2 2 3 1 4 22 5 20 6 19 7 17 8 16 9 15 10 14 11 6 12
REMARK SMILES IDX 7 13 8 14 9 15 13 16 11 17 10 18 12 20 4 22 21 24 18 26
REMARK H PARENT 10 19 12 21 4 23 21 25 18 27
REMARK Flexibility Score: inf
ROOT
ATOM      1  C   UNL     1      15.094   7.865  16.177  1.00  0.00     0.180 A 
ATOM      2  C   UNL     1      14.106   7.849  15.178  1.00  0.00     0.208 A 
ATOM      3  C   UNL     1      13.613   6.614  14.729  1.00  0.00     0.238 A 
ATOM      4  O   UNL     1      12.690   6.606  13.874  1.00  0.00    -0.285 OA
ATOM      5  C   UNL     1      14.123   5.410  15.274  1.00  0.00     0.111 A 
ATOM      6  C   UNL     1      13.724   4.102  14.865  1.00  0.00     0.134 A 
ATOM      7  C   UNL     1      14.199   2.986  15.564  1.00  0.00     0.093 A 
ATOM      8  C   UNL     1      15.109   3.126  16.611  1.00  0.00     0.123 A 
ATOM      9  C   UNL     1      15.552   4.396  16.980  1.00  0.00     0.094 A 
ATOM     10  C   UNL     1      15.067   5.532  16.326  1.00  0.00     0.146 A 
ATOM     11  O   UNL     1      15.505   6.723  16.715  1.00  0.00    -0.452 OA
ENDROOT
BRANCH   1  12
ATOM     12  C   UNL     1      15.682   9.127  16.684  1.00  0.00     0.025 A 
ATOM     13  C   UNL     1      15.043  10.364  16.484  1.00  0.00     0.016 A 
ATOM     14  C   UNL     1      15.629  11.543  16.950  1.00  0.00     0.051 A 
ATOM     15  C   UNL     1      16.862  11.511  17.608  1.00  0.00     0.157 A 
ATOM     16  C   UNL     1      16.931   9.099  17.326  1.00  0.00     0.062 A 
ATOM     17  C   UNL     1      17.519  10.284  17.794  1.00  0.00     0.158 A 
BRANCH  15  18
ATOM     18  O   UNL     1      17.421  12.705  18.063  1.00  0.00    -0.504 OA
ATOM     19  H   UNL     1      18.420  12.870  18.051  1.00  0.00     0.293 HD
ENDBRANCH  15  18
BRANCH  17  20
ATOM     20  O   UNL     1      18.753  10.242  18.443  1.00  0.00    -0.504 OA
ATOM     21  H   UNL     1      19.445  10.971  18.315  1.00  0.00     0.293 HD
ENDBRANCH  17  20
ENDBRANCH   1  12
BRANCH   2  22
ATOM     22  O   UNL     1      13.601   9.048  14.669  1.00  0.00    -0.502 OA
ATOM     23  H   UNL     1      14.166   9.885  14.585  1.00  0.00     0.293 HD
ENDBRANCH   2  22
BRANCH   6  24
ATOM     24  O   UNL     1      12.892   3.846  13.772  1.00  0.00    -0.507 OA
ATOM     25  H   UNL     1      13.135   3.257  12.990  1.00  0.00     0.293 HD
ENDBRANCH   6  24
BRANCH   8  26
ATOM     26  O   UNL     1      15.574   1.991  17.274  1.00  0.00    -0.508 OA
ATOM     27  H   UNL     1      14.968   1.439  17.869  1.00  0.00     0.293 HD
ENDBRANCH   8  26
TORSDOF 6
ENDMDL
MODEL 3
REMARK VINA RESULT:    31.134      3.073      4.835
REMARK INTER + INTRA:          37.948
REMARK INTER:                  38.188
REMARK INTRA:                  -0.239
REMARK UNBOUND:                 0.444
REMARK SMILES O=c1c(O)c(-c2ccc(O)c(O)c2)oc2cc(O)cc(O)c12
REMARK SMILES IDX 5 1 3 2 2 3 1 4 22 5 20 6 19 7 17 8 16 9 15 10 14 11 6 12
REMARK SMILES IDX 7 13 8 14 9 15 13 16 11 17 10 18 12 20 4 22 21 24 18 26
REMARK H PARENT 10 19 12 21 4 23 21 25 18 27
REMARK Flexibility Score: inf
ROOT
ATOM      1  C   UNL     1      15.624   4.051  14.935  1.00  0.00     0.180 A 
ATOM      2  C   UNL     1      14.486   3.820  14.145  1.00  0.00     0.208 A 
ATOM      3  C   UNL     1      13.555   4.856  13.973  1.00  0.00     0.238 A 
ATOM      4  O   UNL     1      12.565   4.661  13.220  1.00  0.00    -0.285 OA
ATOM      5  C   UNL     1      13.766   6.105  14.605  1.00  0.00     0.111 A 
ATOM      6  C   UNL     1      12.867   7.213  14.531  1.00  0.00     0.134 A 
ATOM      7  C   UNL     1      13.240   8.442  15.089  1.00  0.00     0.093 A 
ATOM      8  C   UNL     1      14.447   8.586  15.772  1.00  0.00     0.123 A 
ATOM      9  C   UNL     1      15.305   7.494  15.901  1.00  0.00     0.094 A 
ATOM     10  C   UNL     1      14.978   6.264  15.325  1.00  0.00     0.146 A 
ATOM     11  O   UNL     1      15.827   5.253  15.461  1.00  0.00    -0.452 OA
ENDROOT
BRANCH   1  12
ATOM     12  C   UNL     1      16.638   3.000  15.184  1.00  0.00     0.025 A 
ATOM     13  C   UNL     1      17.528   2.588  14.177  1.00  0.00     0.016 A 
ATOM     14  C   UNL     1      18.459   1.578  14.428  1.00  0.00     0.051 A 
ATOM     15  C   UNL     1      18.509   0.955  15.679  1.00  0.00     0.157 A 
ATOM     16  C   UNL     1      16.676   2.358  16.433  1.00  0.00     0.062 A 
ATOM     17  C   UNL     1      17.611   1.344  16.686  1.00  0.00     0.158 A 
BRANCH  15  18
ATOM     18  O   UNL     1      19.452  -0.049  15.900  1.00  0.00    -0.504 OA
ATOM     19  H   UNL     1      19.514  -0.868  15.307  1.00  0.00     0.293 HD
ENDBRANCH  15  18
BRANCH  17  20
ATOM     20  O   UNL     1      17.649   0.723  17.934  1.00  0.00    -0.504 OA
ATOM     21  H   UNL     1      18.489   0.720  18.501  1.00  0.00     0.293 HD
ENDBRANCH  17  20
ENDBRANCH   1  12
BRANCH   2  22
ATOM     22  O   UNL     1      14.308   2.586  13.512  1.00  0.00    -0.502 OA
ATOM     23  H   UNL     1      14.313   2.486  12.504  1.00  0.00     0.293 HD
ENDBRANCH   2  22
BRANCH   6  24
ATOM     24  O   UNL     1      11.597   7.150  13.952  1.00  0.00    -0.507 OA
ATOM     25  H   UNL     1      11.027   7.951  13.726  1.00  0.00     0.293 HD
ENDBRANCH   6  24
BRANCH   8  26
ATOM     26  O   UNL     1      14.779   9.820  16.328  1.00  0.00    -0.508 OA
ATOM     27  H   UNL     1      14.352  10.680  16.005  1.00  0.00     0.293 HD
ENDBRANCH   8  26
TORSDOF 6
ENDMDL
