MODEL 1
REMARK VINA RESULT:    -3.415      0.000      0.000
REMARK INTER + INTRA:          -4.130
REMARK INTER:                  -4.014
REMARK INTRA:                  -0.116
REMARK UNBOUND:                -0.116
REMARK SMILES O=C([O-])CCC(=O)[O-]
REMARK SMILES IDX 4 1 2 2 1 3 3 4 5 5 6 6 7 7 8 8
REMARK H PARENT
REMARK Flexibility Score: inf
ROOT
ATOM      1  C   UNL     1      20.150  -8.706  22.175  1.00  0.00     0.059 C 
ENDROOT
BRANCH   1   2
ATOM      2  C   UNL     1      20.494  -8.167  23.532  1.00  0.00     0.042 C 
ATOM      3  O   UNL     1      21.536  -8.554  24.121  1.00  0.00    -0.550 OA
ATOM      4  O   UNL     1      19.683  -7.208  24.125  1.00  0.00    -0.550 OA
ENDBRANCH   1   2
BRANCH   1   5
ATOM      5  C   UNL     1      18.758  -8.249  21.722  1.00  0.00     0.059 C 
BRANCH   5   6
ATOM      6  C   UNL     1      18.841  -7.193  20.663  1.00  0.00     0.042 C 
ATOM      7  O   UNL     1      18.248  -7.351  19.564  1.00  0.00    -0.550 OA
ATOM      8  O   UNL     1      19.539  -6.016  20.907  1.00  0.00    -0.550 OA
ENDBRANCH   5   6
ENDBRANCH   1   5
TORSDOF 3
ENDMDL
MODEL 2
REMARK VINA RESULT:    -3.369      0.537      3.770
REMARK INTER + INTRA:          -4.076
REMARK INTER:                  -4.020
REMARK INTRA:                  -0.056
REMARK UNBOUND:                -0.116
REMARK SMILES O=C([O-])CCC(=O)[O-]
REMARK SMILES IDX 4 1 2 2 1 3 3 4 5 5 6 6 7 7 8 8
REMARK H PARENT
REMARK Flexibility Score: inf
ROOT
ATOM      1  C   UNL     1      18.596  -8.297  21.378  1.00  0.00     0.059 C 
ENDROOT
BRANCH   1   2
ATOM      2  C   UNL     1      18.838  -7.133  20.465  1.00  0.00     0.042 C 
ATOM      3  O   UNL     1      18.301  -7.098  19.328  1.00  0.00    -0.550 OA
ATOM      4  O   UNL     1      19.623  -6.069  20.889  1.00  0.00    -0.550 OA
ENDBRANCH   1   2
BRANCH   1   5
ATOM      5  C   UNL     1      19.877  -8.720  22.106  1.00  0.00     0.059 C 
BRANCH   5   6
ATOM      6  C   UNL     1      19.933  -8.160  23.495  1.00  0.00     0.042 C 
ATOM      7  O   UNL     1      18.870  -7.884  24.109  1.00  0.00    -0.550 OA
ATOM      8  O   UNL     1      21.159  -7.983  24.125  1.00  0.00    -0.550 OA
ENDBRANCH   5   6
ENDBRANCH   1   5
TORSDOF 3
ENDMDL
MODEL 3
REMARK VINA RESULT:    -2.652     13.999     15.646
REMARK INTER + INTRA:          -3.233
REMARK INTER:                  -3.153
REMARK INTRA:                  -0.080
REMARK UNBOUND:                -0.116
REMARK SMILES O=C([O-])CCC(=O)[O-]
REMARK SMILES IDX 4 1 2 2 1 3 3 4 5 5 6 6 7 7 8 8
REMARK H PARENT
REMARK Flexibility Score: inf
ROOT
ATOM      1  C   UNL     1      17.720  -8.237   6.051  1.00  0.00     0.059 C 
ENDROOT
BRANCH   1   2
ATOM      2  C   UNL     1      16.542  -7.319   6.173  1.00  0.00     0.042 C 
ATOM      3  O   UNL     1      16.033  -7.090   7.301  1.00  0.00    -0.550 OA
ATOM      4  O   UNL     1      16.033  -6.686   5.046  1.00  0.00    -0.550 OA
ENDBRANCH   1   2
BRANCH   1   5
ATOM      5  C   UNL     1      19.028  -7.531   6.428  1.00  0.00     0.059 C 
BRANCH   5   6
ATOM      6  C   UNL     1      19.304  -7.628   7.897  1.00  0.00     0.042 C 
ATOM      7  O   UNL     1      19.104  -6.635   8.645  1.00  0.00    -0.550 OA
ATOM      8  O   UNL     1      19.742  -8.827   8.447  1.00  0.00    -0.550 OA
ENDBRANCH   5   6
ENDBRANCH   1   5
TORSDOF 3
ENDMDL
MODEL 4
REMARK VINA RESULT:    -2.637     14.009     15.309
REMARK INTER + INTRA:          -3.216
REMARK INTER:                  -3.135
REMARK INTRA:                  -0.081
REMARK UNBOUND:                -0.116
REMARK SMILES O=C([O-])CCC(=O)[O-]
REMARK SMILES IDX 4 1 2 2 1 3 3 4 5 5 6 6 7 7 8 8
REMARK H PARENT
REMARK Flexibility Score: inf
ROOT
ATOM      1  C   UNL     1      19.017  -7.505   6.415  1.00  0.00     0.059 C 
ENDROOT
BRANCH   1   2
ATOM      2  C   UNL     1      19.318  -7.622   7.879  1.00  0.00     0.042 C 
ATOM      3  O   UNL     1      19.135  -6.638   8.642  1.00  0.00    -0.550 OA
ATOM      4  O   UNL     1      19.763  -8.828   8.404  1.00  0.00    -0.550 OA
ENDBRANCH   1   2
BRANCH   1   5
ATOM      5  C   UNL     1      17.707  -8.214   6.049  1.00  0.00     0.059 C 
BRANCH   5   6
ATOM      6  C   UNL     1      16.526  -7.307   6.205  1.00  0.00     0.042 C 
ATOM      7  O   UNL     1      16.032  -7.101   7.344  1.00  0.00    -0.550 OA
ATOM      8  O   UNL     1      15.996  -6.656   5.097  1.00  0.00    -0.550 OA
ENDBRANCH   5   6
ENDBRANCH   1   5
TORSDOF 3
ENDMDL
MODEL 5
REMARK VINA RESULT:    -2.623     14.044     15.675
REMARK INTER + INTRA:          -3.200
REMARK INTER:                  -3.118
REMARK INTRA:                  -0.081
REMARK UNBOUND:                -0.116
REMARK SMILES O=C([O-])CCC(=O)[O-]
REMARK SMILES IDX 4 1 2 2 1 3 3 4 5 5 6 6 7 7 8 8
REMARK H PARENT
REMARK Flexibility Score: inf
ROOT
ATOM      1  C   UNL     1      17.676  -8.272   5.991  1.00  0.00     0.059 C 
ENDROOT
BRANCH   1   2
ATOM      2  C   UNL     1      16.528  -7.320   6.145  1.00  0.00     0.042 C 
ATOM      3  O   UNL     1      16.041  -7.095   7.284  1.00  0.00    -0.550 OA
ATOM      4  O   UNL     1      16.023  -6.654   5.036  1.00  0.00    -0.550 OA
ENDBRANCH   1   2
BRANCH   1   5
ATOM      5  C   UNL     1      19.012  -7.607   6.347  1.00  0.00     0.059 C 
BRANCH   5   6
ATOM      6  C   UNL     1      19.307  -7.711   7.812  1.00  0.00     0.042 C 
ATOM      7  O   UNL     1      19.749  -8.788   8.293  1.00  0.00    -0.550 OA
ATOM      8  O   UNL     1      19.134  -6.607   8.638  1.00  0.00    -0.550 OA
ENDBRANCH   5   6
ENDBRANCH   1   5
TORSDOF 3
ENDMDL
MODEL 6
REMARK VINA RESULT:    -2.579     18.766     20.271
REMARK INTER + INTRA:          -3.147
REMARK INTER:                  -3.059
REMARK INTRA:                  -0.088
REMARK UNBOUND:                -0.116
REMARK SMILES O=C([O-])CCC(=O)[O-]
REMARK SMILES IDX 4 1 2 2 1 3 3 4 5 5 6 6 7 7 8 8
REMARK H PARENT
REMARK Flexibility Score: inf
ROOT
ATOM      1  C   UNL     1       7.199  -7.986   5.679  1.00  0.00     0.059 C 
ENDROOT
BRANCH   1   2
ATOM      2  C   UNL     1       6.199  -6.933   6.053  1.00  0.00     0.042 C 
ATOM      3  O   UNL     1       6.307  -6.319   7.146  1.00  0.00    -0.550 OA
ATOM      4  O   UNL     1       5.174  -6.605   5.176  1.00  0.00    -0.550 OA
ENDBRANCH   1   2
BRANCH   1   5
ATOM      5  C   UNL     1       6.852  -9.342   6.305  1.00  0.00     0.059 C 
BRANCH   5   6
ATOM      6  C   UNL     1       7.746  -9.660   7.465  1.00  0.00     0.042 C 
ATOM      7  O   UNL     1       8.991  -9.748   7.299  1.00  0.00    -0.550 OA
ATOM      8  O   UNL     1       7.208  -9.818   8.736  1.00  0.00    -0.550 OA
ENDBRANCH   5   6
ENDBRANCH   1   5
TORSDOF 3
ENDMDL
MODEL 7
REMARK VINA RESULT:    -2.560     18.693     19.933
REMARK INTER + INTRA:          -3.125
REMARK INTER:                  -3.033
REMARK INTRA:                  -0.091
REMARK UNBOUND:                -0.116
REMARK SMILES O=C([O-])CCC(=O)[O-]
REMARK SMILES IDX 4 1 2 2 1 3 3 4 5 5 6 6 7 7 8 8
REMARK H PARENT
REMARK Flexibility Score: inf
ROOT
ATOM      1  C   UNL     1       7.015  -9.355   6.282  1.00  0.00     0.059 C 
ENDROOT
BRANCH   1   2
ATOM      2  C   UNL     1       7.872  -9.705   7.461  1.00  0.00     0.042 C 
ATOM      3  O   UNL     1       9.119  -9.808   7.328  1.00  0.00    -0.550 OA
ATOM      4  O   UNL     1       7.296  -9.877   8.713  1.00  0.00    -0.550 OA
ENDBRANCH   1   2
BRANCH   1   5
ATOM      5  C   UNL     1       7.342  -7.958   5.740  1.00  0.00     0.059 C 
BRANCH   5   6
ATOM      6  C   UNL     1       6.299  -6.956   6.132  1.00  0.00     0.042 C 
ATOM      7  O   UNL     1       6.360  -6.386   7.252  1.00  0.00    -0.550 OA
ATOM      8  O   UNL     1       5.285  -6.623   5.243  1.00  0.00    -0.550 OA
ENDBRANCH   5   6
ENDBRANCH   1   5
TORSDOF 3
ENDMDL
MODEL 8
REMARK VINA RESULT:    -2.508     13.788     15.662
REMARK INTER + INTRA:          -3.064
REMARK INTER:                  -2.981
REMARK INTRA:                  -0.084
REMARK UNBOUND:                -0.116
REMARK SMILES O=C([O-])CCC(=O)[O-]
REMARK SMILES IDX 4 1 2 2 1 3 3 4 5 5 6 6 7 7 8 8
REMARK H PARENT
REMARK Flexibility Score: inf
ROOT
ATOM      1  C   UNL     1      19.686  -8.404   6.594  1.00  0.00     0.059 C 
ENDROOT
BRANCH   1   2
ATOM      2  C   UNL     1      19.412  -8.045   8.024  1.00  0.00     0.042 C 
ATOM      3  O   UNL     1      18.883  -6.938   8.308  1.00  0.00    -0.550 OA
ATOM      4  O   UNL     1      19.704  -8.949   9.037  1.00  0.00    -0.550 OA
ENDBRANCH   1   2
BRANCH   1   5
ATOM      5  C   UNL     1      19.454  -7.212   5.658  1.00  0.00     0.059 C 
BRANCH   5   6
ATOM      6  C   UNL     1      20.747  -6.616   5.191  1.00  0.00     0.042 C 
ATOM      7  O   UNL     1      20.907  -5.367   5.200  1.00  0.00    -0.550 OA
ATOM      8  O   UNL     1      21.789  -7.441   4.787  1.00  0.00    -0.550 OA
ENDBRANCH   5   6
ENDBRANCH   1   5
TORSDOF 3
ENDMDL
MODEL 9
REMARK VINA RESULT:    -2.496     14.320     16.299
REMARK INTER + INTRA:          -3.050
REMARK INTER:                  -2.981
REMARK INTRA:                  -0.069
REMARK UNBOUND:                -0.116
REMARK SMILES O=C([O-])CCC(=O)[O-]
REMARK SMILES IDX 4 1 2 2 1 3 3 4 5 5 6 6 7 7 8 8
REMARK H PARENT
REMARK Flexibility Score: inf
ROOT
ATOM      1  C   UNL     1      20.651  -7.513   5.326  1.00  0.00     0.059 C 
ENDROOT
BRANCH   1   2
ATOM      2  C   UNL     1      21.430  -6.276   4.992  1.00  0.00     0.042 C 
ATOM      3  O   UNL     1      20.886  -5.144   5.078  1.00  0.00    -0.550 OA
ATOM      4  O   UNL     1      22.765  -6.373   4.624  1.00  0.00    -0.550 OA
ENDBRANCH   1   2
BRANCH   1   5
ATOM      5  C   UNL     1      19.345  -7.178   6.057  1.00  0.00     0.059 C 
BRANCH   5   6
ATOM      6  C   UNL     1      19.387  -7.615   7.489  1.00  0.00     0.042 C 
ATOM      7  O   UNL     1      19.029  -6.826   8.402  1.00  0.00    -0.550 OA
ATOM      8  O   UNL     1      19.782  -8.908   7.812  1.00  0.00    -0.550 OA
ENDBRANCH   5   6
ENDBRANCH   1   5
TORSDOF 3
ENDMDL
