MODEL 1
REMARK VINA RESULT:    -3.176      0.000      0.000
REMARK INTER + INTRA:          -3.684
REMARK INTER:                  -3.640
REMARK INTRA:                  -0.045
REMARK UNBOUND:                -0.045
REMARK SMILES O=C([O-])c1cc(O)c(O)c(O)c1
REMARK SMILES IDX 4 1 5 2 12 3 6 4 10 5 8 6 2 7 1 8 3 9 7 10 11 12 9 14
REMARK H PARENT 7 11 11 13 9 15
REMARK Flexibility Score: inf
ROOT
ATOM      1  C   UNL     1      -1.769  12.624 -10.281  1.00  0.00     0.005 A 
ATOM      2  C   UNL     1      -2.054  11.537  -9.439  1.00  0.00     0.060 A 
ATOM      3  C   UNL     1      -0.754  13.522  -9.912  1.00  0.00     0.060 A 
ATOM      4  C   UNL     1      -1.344  11.340  -8.248  1.00  0.00     0.162 A 
ATOM      5  C   UNL     1      -0.036  13.337  -8.724  1.00  0.00     0.162 A 
ATOM      6  C   UNL     1      -0.322  12.251  -7.885  1.00  0.00     0.200 A 
ENDROOT
BRANCH   1   7
ATOM      7  C   UNL     1      -2.530  12.817 -11.536  1.00  0.00     0.072 C 
ATOM      8  O   UNL     1      -3.597  13.486 -11.542  1.00  0.00    -0.545 OA
ATOM      9  O   UNL     1      -2.076  12.262 -12.726  1.00  0.00    -0.545 OA
ENDBRANCH   1   7
BRANCH   4  10
ATOM     10  O   UNL     1      -1.683  10.237  -7.463  1.00  0.00    -0.504 OA
ATOM     11  H   UNL     1      -2.374  10.257  -6.728  1.00  0.00     0.293 HD
ENDBRANCH   4  10
BRANCH   5  12
ATOM     12  O   UNL     1       0.970  14.234  -8.368  1.00  0.00    -0.504 OA
ATOM     13  H   UNL     1       1.421  14.826  -9.055  1.00  0.00     0.293 HD
ENDBRANCH   5  12
BRANCH   6  14
ATOM     14  O   UNL     1       0.424  12.114  -6.712  1.00  0.00    -0.502 OA
ATOM     15  H   UNL     1       0.225  12.606  -5.854  1.00  0.00     0.293 HD
ENDBRANCH   6  14
TORSDOF 4
ENDMDL
MODEL 2
REMARK VINA RESULT:    -3.174      0.070      2.437
REMARK INTER + INTRA:          -3.683
REMARK INTER:                  -3.638
REMARK INTRA:                  -0.045
REMARK UNBOUND:                -0.045
REMARK SMILES O=C([O-])c1cc(O)c(O)c(O)c1
REMARK SMILES IDX 4 1 5 2 12 3 6 4 10 5 8 6 2 7 1 8 3 9 7 10 11 12 9 14
REMARK H PARENT 7 11 11 13 9 15
REMARK Flexibility Score: inf
ROOT
ATOM      1  C   UNL     1      -1.813  12.603 -10.297  1.00  0.00     0.005 A 
ATOM      2  C   UNL     1      -0.800  13.504  -9.933  1.00  0.00     0.060 A 
ATOM      3  C   UNL     1      -2.085  11.510  -9.458  1.00  0.00     0.060 A 
ATOM      4  C   UNL     1      -0.065  13.327  -8.753  1.00  0.00     0.162 A 
ATOM      5  C   UNL     1      -1.358  11.321  -8.276  1.00  0.00     0.162 A 
ATOM      6  C   UNL     1      -0.347  12.222  -7.914  1.00  0.00     0.200 A 
ENDROOT
BRANCH   1   7
ATOM      7  C   UNL     1      -2.579  12.805 -11.547  1.00  0.00     0.072 C 
ATOM      8  O   UNL     1      -3.629  13.501 -11.549  1.00  0.00    -0.545 OA
ATOM      9  O   UNL     1      -2.150  12.229 -12.736  1.00  0.00    -0.545 OA
ENDBRANCH   1   7
BRANCH   4  10
ATOM     10  O   UNL     1       0.926  14.264  -8.458  1.00  0.00    -0.504 OA
ATOM     11  H   UNL     1       0.746  15.170  -8.052  1.00  0.00     0.293 HD
ENDBRANCH   4  10
BRANCH   5  12
ATOM     12  O   UNL     1      -1.637  10.233  -7.450  1.00  0.00    -0.504 OA
ATOM     13  H   UNL     1      -1.453   9.281  -7.745  1.00  0.00     0.293 HD
ENDBRANCH   5  12
BRANCH   6  14
ATOM     14  O   UNL     1       0.347  11.986  -6.725  1.00  0.00    -0.502 OA
ATOM     15  H   UNL     1      -0.069  12.043  -5.807  1.00  0.00     0.293 HD
ENDBRANCH   6  14
TORSDOF 4
ENDMDL
MODEL 3
REMARK VINA RESULT:    -2.952      1.467      2.126
REMARK INTER + INTRA:          -3.428
REMARK INTER:                  -3.380
REMARK INTRA:                  -0.048
REMARK UNBOUND:                -0.045
REMARK SMILES O=C([O-])c1cc(O)c(O)c(O)c1
REMARK SMILES IDX 4 1 5 2 12 3 6 4 10 5 8 6 2 7 1 8 3 9 7 10 11 12 9 14
REMARK H PARENT 7 11 11 13 9 15
REMARK Flexibility Score: inf
ROOT
ATOM      1  C   UNL     1      -1.661  12.568 -10.526  1.00  0.00     0.005 A 
ATOM      2  C   UNL     1      -2.354  11.360 -10.708  1.00  0.00     0.060 A 
ATOM      3  C   UNL     1      -1.049  12.821  -9.287  1.00  0.00     0.060 A 
ATOM      4  C   UNL     1      -2.439  10.414  -9.678  1.00  0.00     0.162 A 
ATOM      5  C   UNL     1      -1.127  11.883  -8.249  1.00  0.00     0.162 A 
ATOM      6  C   UNL     1      -1.819  10.679  -8.433  1.00  0.00     0.200 A 
ENDROOT
BRANCH   1   7
ATOM      7  C   UNL     1      -1.581  13.556 -11.624  1.00  0.00     0.072 C 
ATOM      8  O   UNL     1      -2.616  13.898 -12.256  1.00  0.00    -0.545 OA
ATOM      9  O   UNL     1      -0.361  14.122 -11.974  1.00  0.00    -0.545 OA
ENDBRANCH   1   7
BRANCH   4  10
ATOM     10  O   UNL     1      -3.144   9.237  -9.934  1.00  0.00    -0.504 OA
ATOM     11  H   UNL     1      -4.069   9.043  -9.580  1.00  0.00     0.293 HD
ENDBRANCH   4  10
BRANCH   5  12
ATOM     12  O   UNL     1      -0.515  12.144  -7.024  1.00  0.00    -0.504 OA
ATOM     13  H   UNL     1      -0.174  11.397  -6.431  1.00  0.00     0.293 HD
ENDBRANCH   5  12
BRANCH   6  14
ATOM     14  O   UNL     1      -1.865   9.779  -7.366  1.00  0.00    -0.502 OA
ATOM     15  H   UNL     1      -2.616   9.738  -6.693  1.00  0.00     0.293 HD
ENDBRANCH   6  14
TORSDOF 4
ENDMDL
MODEL 4
REMARK VINA RESULT:    -2.909      1.062      1.187
REMARK INTER + INTRA:          -3.378
REMARK INTER:                  -3.326
REMARK INTRA:                  -0.052
REMARK UNBOUND:                -0.045
REMARK SMILES O=C([O-])c1cc(O)c(O)c(O)c1
REMARK SMILES IDX 4 1 5 2 12 3 6 4 10 5 8 6 2 7 1 8 3 9 7 10 11 12 9 14
REMARK H PARENT 7 11 11 13 9 15
REMARK Flexibility Score: inf
ROOT
ATOM      1  C   UNL     1      -1.471  11.753 -10.723  1.00  0.00     0.005 A 
ATOM      2  C   UNL     1      -1.902  10.820  -9.768  1.00  0.00     0.060 A 
ATOM      3  C   UNL     1      -0.693  12.845 -10.304  1.00  0.00     0.060 A 
ATOM      4  C   UNL     1      -1.569  10.964  -8.415  1.00  0.00     0.162 A 
ATOM      5  C   UNL     1      -0.354  13.002  -8.954  1.00  0.00     0.162 A 
ATOM      6  C   UNL     1      -0.786  12.069  -8.002  1.00  0.00     0.200 A 
ENDROOT
BRANCH   1   7
ATOM      7  C   UNL     1      -1.831  11.585 -12.148  1.00  0.00     0.072 C 
ATOM      8  O   UNL     1      -1.693  12.537 -12.961  1.00  0.00    -0.545 OA
ATOM      9  O   UNL     1      -2.329  10.373 -12.611  1.00  0.00    -0.545 OA
ENDBRANCH   1   7
BRANCH   4  10
ATOM     10  O   UNL     1      -2.035   9.996  -7.524  1.00  0.00    -0.504 OA
ATOM     11  H   UNL     1      -2.987   9.662  -7.496  1.00  0.00     0.293 HD
ENDBRANCH   4  10
BRANCH   5  12
ATOM     12  O   UNL     1       0.419  14.090  -8.549  1.00  0.00    -0.504 OA
ATOM     13  H   UNL     1       0.182  15.038  -8.816  1.00  0.00     0.293 HD
ENDBRANCH   5  12
BRANCH   6  14
ATOM     14  O   UNL     1      -0.419  12.273  -6.670  1.00  0.00    -0.502 OA
ATOM     15  H   UNL     1       0.529  12.206  -6.328  1.00  0.00     0.293 HD
ENDBRANCH   6  14
TORSDOF 4
ENDMDL
MODEL 5
REMARK VINA RESULT:    -2.863      1.628      2.940
REMARK INTER + INTRA:          -3.325
REMARK INTER:                  -3.277
REMARK INTRA:                  -0.048
REMARK UNBOUND:                -0.045
REMARK SMILES O=C([O-])c1cc(O)c(O)c(O)c1
REMARK SMILES IDX 4 1 5 2 12 3 6 4 10 5 8 6 2 7 1 8 3 9 7 10 11 12 9 14
REMARK H PARENT 7 11 11 13 9 15
REMARK Flexibility Score: inf
ROOT
ATOM      1  C   UNL     1      -1.071  12.768 -10.755  1.00  0.00     0.005 A 
ATOM      2  C   UNL     1      -0.843  13.216  -9.444  1.00  0.00     0.060 A 
ATOM      3  C   UNL     1      -1.541  11.459 -10.955  1.00  0.00     0.060 A 
ATOM      4  C   UNL     1      -1.076  12.380  -8.345  1.00  0.00     0.162 A 
ATOM      5  C   UNL     1      -1.778  10.613  -9.864  1.00  0.00     0.162 A 
ATOM      6  C   UNL     1      -1.549  11.063  -8.556  1.00  0.00     0.200 A 
ENDROOT
BRANCH   1   7
ATOM      7  C   UNL     1      -0.820  13.664 -11.906  1.00  0.00     0.072 C 
ATOM      8  O   UNL     1       0.232  14.355 -11.962  1.00  0.00    -0.545 OA
ATOM      9  O   UNL     1      -1.742  13.755 -12.941  1.00  0.00    -0.545 OA
ENDBRANCH   1   7
BRANCH   4  10
ATOM     10  O   UNL     1      -0.826  12.896  -7.072  1.00  0.00    -0.504 OA
ATOM     11  H   UNL     1      -0.734  12.332  -6.240  1.00  0.00     0.293 HD
ENDBRANCH   4  10
BRANCH   5  12
ATOM     12  O   UNL     1      -2.244   9.316 -10.073  1.00  0.00    -0.504 OA
ATOM     13  H   UNL     1      -3.222   9.127 -10.258  1.00  0.00     0.293 HD
ENDBRANCH   5  12
BRANCH   6  14
ATOM     14  O   UNL     1      -1.802  10.178  -7.504  1.00  0.00    -0.502 OA
ATOM     15  H   UNL     1      -2.042  10.467  -6.568  1.00  0.00     0.293 HD
ENDBRANCH   6  14
TORSDOF 4
ENDMDL
MODEL 6
REMARK VINA RESULT:    -2.858      2.282      2.808
REMARK INTER + INTRA:          -3.321
REMARK INTER:                  -3.268
REMARK INTRA:                  -0.053
REMARK UNBOUND:                -0.045
REMARK SMILES O=C([O-])c1cc(O)c(O)c(O)c1
REMARK SMILES IDX 4 1 5 2 12 3 6 4 10 5 8 6 2 7 1 8 3 9 7 10 11 12 9 14
REMARK H PARENT 7 11 11 13 9 15
REMARK Flexibility Score: inf
ROOT
ATOM      1  C   UNL     1      -2.569  10.110 -10.825  1.00  0.00     0.005 A 
ATOM      2  C   UNL     1      -2.343   9.559  -9.554  1.00  0.00     0.060 A 
ATOM      3  C   UNL     1      -2.328  11.480 -11.025  1.00  0.00     0.060 A 
ATOM      4  C   UNL     1      -1.884  10.351  -8.494  1.00  0.00     0.162 A 
ATOM      5  C   UNL     1      -1.869  12.283  -9.974  1.00  0.00     0.162 A 
ATOM      6  C   UNL     1      -1.644  11.731  -8.706  1.00  0.00     0.200 A 
ENDROOT
BRANCH   1   7
ATOM      7  C   UNL     1      -3.055   9.259 -11.934  1.00  0.00     0.072 C 
ATOM      8  O   UNL     1      -3.215   8.021 -11.768  1.00  0.00    -0.545 OA
ATOM      9  O   UNL     1      -3.341   9.815 -13.175  1.00  0.00    -0.545 OA
ENDBRANCH   1   7
BRANCH   4  10
ATOM     10  O   UNL     1      -1.683   9.732  -7.260  1.00  0.00    -0.504 OA
ATOM     11  H   UNL     1      -0.918   9.947  -6.637  1.00  0.00     0.293 HD
ENDBRANCH   4  10
BRANCH   5  12
ATOM     12  O   UNL     1      -1.632  13.641 -10.184  1.00  0.00    -0.504 OA
ATOM     13  H   UNL     1      -0.832  14.110  -9.776  1.00  0.00     0.293 HD
ENDBRANCH   5  12
BRANCH   6  14
ATOM     14  O   UNL     1      -1.186  12.577  -7.693  1.00  0.00    -0.502 OA
ATOM     15  H   UNL     1      -1.758  13.270  -7.234  1.00  0.00     0.293 HD
ENDBRANCH   6  14
TORSDOF 4
ENDMDL
MODEL 7
REMARK VINA RESULT:    -2.857      2.267      3.533
REMARK INTER + INTRA:          -3.319
REMARK INTER:                  -3.266
REMARK INTRA:                  -0.053
REMARK UNBOUND:                -0.045
REMARK SMILES O=C([O-])c1cc(O)c(O)c(O)c1
REMARK SMILES IDX 4 1 5 2 12 3 6 4 10 5 8 6 2 7 1 8 3 9 7 10 11 12 9 14
REMARK H PARENT 7 11 11 13 9 15
REMARK Flexibility Score: inf
ROOT
ATOM      1  C   UNL     1      -2.587  10.123 -10.856  1.00  0.00     0.005 A 
ATOM      2  C   UNL     1      -2.339  11.494 -11.029  1.00  0.00     0.060 A 
ATOM      3  C   UNL     1      -2.371   9.547  -9.593  1.00  0.00     0.060 A 
ATOM      4  C   UNL     1      -1.883  12.285  -9.967  1.00  0.00     0.162 A 
ATOM      5  C   UNL     1      -1.915  10.327  -8.523  1.00  0.00     0.162 A 
ATOM      6  C   UNL     1      -1.668  11.695  -8.699  1.00  0.00     0.200 A 
ENDROOT
BRANCH   1   7
ATOM      7  C   UNL     1      -3.069   9.301 -11.989  1.00  0.00     0.072 C 
ATOM      8  O   UNL     1      -3.088   8.045 -11.906  1.00  0.00    -0.545 OA
ATOM      9  O   UNL     1      -3.506   9.906 -13.161  1.00  0.00    -0.545 OA
ENDBRANCH   1   7
BRANCH   4  10
ATOM     10  O   UNL     1      -1.659  13.640 -10.216  1.00  0.00    -0.504 OA
ATOM     11  H   UNL     1      -0.888  14.166  -9.832  1.00  0.00     0.293 HD
ENDBRANCH   4  10
BRANCH   5  12
ATOM     12  O   UNL     1      -1.704   9.745  -7.274  1.00  0.00    -0.504 OA
ATOM     13  H   UNL     1      -0.827   9.855  -6.778  1.00  0.00     0.293 HD
ENDBRANCH   5  12
BRANCH   6  14
ATOM     14  O   UNL     1      -1.215  12.426  -7.598  1.00  0.00    -0.502 OA
ATOM     15  H   UNL     1      -0.436  13.068  -7.627  1.00  0.00     0.293 HD
ENDBRANCH   6  14
TORSDOF 4
ENDMDL
MODEL 8
REMARK VINA RESULT:    -2.850      4.615      6.910
REMARK INTER + INTRA:          -3.311
REMARK INTER:                  -3.258
REMARK INTRA:                  -0.052
REMARK UNBOUND:                -0.045
REMARK SMILES O=C([O-])c1cc(O)c(O)c(O)c1
REMARK SMILES IDX 4 1 5 2 12 3 6 4 10 5 8 6 2 7 1 8 3 9 7 10 11 12 9 14
REMARK H PARENT 7 11 11 13 9 15
REMARK Flexibility Score: inf
ROOT
ATOM      1  C   UNL     1      -0.371  14.249  -3.062  1.00  0.00     0.005 A 
ATOM      2  C   UNL     1      -0.672  13.287  -4.038  1.00  0.00     0.060 A 
ATOM      3  C   UNL     1       0.497  15.303  -3.391  1.00  0.00     0.060 A 
ATOM      4  C   UNL     1      -0.123  13.365  -5.324  1.00  0.00     0.162 A 
ATOM      5  C   UNL     1       1.054  15.393  -4.673  1.00  0.00     0.162 A 
ATOM      6  C   UNL     1       0.752  14.430  -5.646  1.00  0.00     0.200 A 
ENDROOT
BRANCH   1   7
ATOM      7  C   UNL     1      -0.961  14.152  -1.708  1.00  0.00     0.072 C 
ATOM      8  O   UNL     1      -0.501  14.839  -0.758  1.00  0.00    -0.545 OA
ATOM      9  O   UNL     1      -2.031  13.300  -1.466  1.00  0.00    -0.545 OA
ENDBRANCH   1   7
BRANCH   4  10
ATOM     10  O   UNL     1      -0.469  12.371  -6.240  1.00  0.00    -0.504 OA
ATOM     11  H   UNL     1      -0.543  11.390  -6.011  1.00  0.00     0.293 HD
ENDBRANCH   4  10
BRANCH   5  12
ATOM     12  O   UNL     1       1.915  16.443  -4.990  1.00  0.00    -0.504 OA
ATOM     13  H   UNL     1       2.921  16.324  -4.990  1.00  0.00     0.293 HD
ENDBRANCH   5  12
BRANCH   6  14
ATOM     14  O   UNL     1       1.334  14.568  -6.908  1.00  0.00    -0.502 OA
ATOM     15  H   UNL     1       1.372  15.435  -7.423  1.00  0.00     0.293 HD
ENDBRANCH   6  14
TORSDOF 4
ENDMDL
