MODEL 1
REMARK VINA RESULT:    -5.339      0.000      0.000
REMARK INTER + INTRA:         -14.515
REMARK INTER:                 -12.205
REMARK INTRA:                  -2.310
REMARK UNBOUND:                -2.310
REMARK SMILES CCCCCCCCCCCCCCCCCCCCCCCC(=O)[O-]
REMARK SMILES IDX 13 1 14 2 15 3 16 4 17 5 18 6 19 7 20 8 21 9 22 10 23 11
REMARK SMILES IDX 24 12 25 13 26 14 12 15 11 16 10 17 9 18 8 19 7 20 6 21 5 22
REMARK SMILES IDX 4 23 3 24 2 25 1 26
REMARK H PARENT
REMARK Flexibility Score: inf
ROOT
ATOM      1  C   UNL     1     -23.256 -28.876  38.967  1.00  0.00     0.000 C 
ENDROOT
BRANCH   1   2
ATOM      2  C   UNL     1     -22.178 -28.125  38.169  1.00  0.00     0.000 C 
BRANCH   2   3
ATOM      3  C   UNL     1     -21.413 -27.100  39.024  1.00  0.00     0.000 C 
BRANCH   3   4
ATOM      4  C   UNL     1     -20.101 -26.649  38.361  1.00  0.00     0.000 C 
BRANCH   4   5
ATOM      5  C   UNL     1     -19.280 -25.707  39.257  1.00  0.00     0.000 C 
BRANCH   5   6
ATOM      6  C   UNL     1     -17.768 -25.782  38.975  1.00  0.00     0.000 C 
BRANCH   6   7
ATOM      7  C   UNL     1     -17.369 -26.710  37.810  1.00  0.00     0.000 C 
BRANCH   7   8
ATOM      8  C   UNL     1     -16.622 -26.025  36.648  1.00  0.00     0.000 C 
BRANCH   8   9
ATOM      9  C   UNL     1     -16.264 -26.950  35.471  1.00  0.00     0.000 C 
BRANCH   9  10
ATOM     10  C   UNL     1     -15.618 -28.270  35.925  1.00  0.00     0.006 C 
BRANCH  10  11
ATOM     11  C   UNL     1     -14.479 -28.710  34.993  1.00  0.00     0.053 C 
BRANCH  11  12
ATOM     12  C   UNL     1     -14.765 -30.034  34.352  1.00  0.00     0.041 C 
ATOM     13  O   UNL     1     -15.223 -30.985  35.038  1.00  0.00    -0.550 OA
ATOM     14  O   UNL     1     -14.559 -30.209  32.988  1.00  0.00    -0.550 OA
ENDBRANCH  11  12
ENDBRANCH  10  11
ENDBRANCH   9  10
ENDBRANCH   8   9
ENDBRANCH   7   8
ENDBRANCH   6   7
ENDBRANCH   5   6
ENDBRANCH   4   5
ENDBRANCH   3   4
ENDBRANCH   2   3
ENDBRANCH   1   2
BRANCH   1  15
ATOM     15  C   UNL     1     -22.958 -28.909  40.476  1.00  0.00     0.000 C 
BRANCH  15  16
ATOM     16  C   UNL     1     -24.196 -28.605  41.341  1.00  0.00     0.000 C 
BRANCH  16  17
ATOM     17  C   UNL     1     -25.436 -28.121  40.565  1.00  0.00     0.000 C 
BRANCH  17  18
ATOM     18  C   UNL     1     -26.041 -26.833  41.142  1.00  0.00    -0.000 C 
BRANCH  18  19
ATOM     19  C   UNL     1     -25.057 -26.147  42.103  1.00  0.00    -0.000 C 
BRANCH  19  20
ATOM     20  C   UNL     1     -24.435 -24.867  41.515  1.00  0.00    -0.000 C 
BRANCH  20  21
ATOM     21  C   UNL     1     -22.898 -24.880  41.402  1.00  0.00    -0.000 C 
BRANCH  21  22
ATOM     22  C   UNL     1     -22.262 -23.534  41.005  1.00  0.00    -0.000 C 
BRANCH  22  23
ATOM     23  C   UNL     1     -22.829 -22.942  39.696  1.00  0.00    -0.000 C 
BRANCH  23  24
ATOM     24  C   UNL     1     -21.849 -23.072  38.518  1.00  0.00    -0.000 C 
BRANCH  24  25
ATOM     25  C   UNL     1     -21.195 -21.731  38.147  1.00  0.00    -0.003 C 
ATOM     26  C   UNL     1     -22.052 -20.531  38.547  1.00  0.00     0.004 C 
ENDBRANCH  24  25
ENDBRANCH  23  24
ENDBRANCH  22  23
ENDBRANCH  21  22
ENDBRANCH  20  21
ENDBRANCH  19  20
ENDBRANCH  18  19
ENDBRANCH  17  18
ENDBRANCH  16  17
ENDBRANCH  15  16
ENDBRANCH   1  15
TORSDOF 22
ENDMDL
MODEL 2
REMARK VINA RESULT:    -5.261      1.889      4.071
REMARK INTER + INTRA:         -14.337
REMARK INTER:                 -12.092
REMARK INTRA:                  -2.246
REMARK UNBOUND:                -2.310
REMARK SMILES CCCCCCCCCCCCCCCCCCCCCCCC(=O)[O-]
REMARK SMILES IDX 13 1 14 2 15 3 16 4 17 5 18 6 19 7 20 8 21 9 22 10 23 11
REMARK SMILES IDX 24 12 25 13 26 14 12 15 11 16 10 17 9 18 8 19 7 20 6 21 5 22
REMARK SMILES IDX 4 23 3 24 2 25 1 26
REMARK H PARENT
REMARK Flexibility Score: inf
ROOT
ATOM      1  C   UNL     1     -19.567 -25.239  39.730  1.00  0.00     0.000 C 
ENDROOT
BRANCH   1   2
ATOM      2  C   UNL     1     -18.171 -25.582  39.186  1.00  0.00     0.000 C 
BRANCH   2   3
ATOM      3  C   UNL     1     -18.212 -26.650  38.079  1.00  0.00     0.000 C 
BRANCH   3   4
ATOM      4  C   UNL     1     -16.809 -27.010  37.562  1.00  0.00     0.000 C 
BRANCH   4   5
ATOM      5  C   UNL     1     -16.773 -27.197  36.036  1.00  0.00     0.000 C 
BRANCH   5   6
ATOM      6  C   UNL     1     -16.159 -25.990  35.301  1.00  0.00     0.000 C 
BRANCH   6   7
ATOM      7  C   UNL     1     -14.988 -26.330  34.358  1.00  0.00     0.000 C 
BRANCH   7   8
ATOM      8  C   UNL     1     -14.233 -27.634  34.690  1.00  0.00     0.000 C 
BRANCH   8   9
ATOM      9  C   UNL     1     -14.386 -28.756  33.648  1.00  0.00     0.000 C 
BRANCH   9  10
ATOM     10  C   UNL     1     -14.506 -30.151  34.287  1.00  0.00     0.006 C 
BRANCH  10  11
ATOM     11  C   UNL     1     -14.261 -30.118  35.802  1.00  0.00     0.053 C 
BRANCH  11  12
ATOM     12  C   UNL     1     -15.208 -31.016  36.539  1.00  0.00     0.041 C 
ATOM     13  O   UNL     1     -16.243 -30.540  37.075  1.00  0.00    -0.550 OA
ATOM     14  O   UNL     1     -14.968 -32.384  36.604  1.00  0.00    -0.550 OA
ENDBRANCH  11  12
ENDBRANCH  10  11
ENDBRANCH   9  10
ENDBRANCH   8   9
ENDBRANCH   7   8
ENDBRANCH   6   7
ENDBRANCH   5   6
ENDBRANCH   4   5
ENDBRANCH   3   4
ENDBRANCH   2   3
ENDBRANCH   1   2
BRANCH   1  15
ATOM     15  C   UNL     1     -20.698 -25.828  38.869  1.00  0.00     0.000 C 
BRANCH  15  16
ATOM     16  C   UNL     1     -21.425 -27.003  39.551  1.00  0.00     0.000 C 
BRANCH  16  17
ATOM     17  C   UNL     1     -21.928 -28.105  38.599  1.00  0.00     0.000 C 
BRANCH  17  18
ATOM     18  C   UNL     1     -23.244 -28.745  39.064  1.00  0.00    -0.000 C 
BRANCH  18  19
ATOM     19  C   UNL     1     -23.165 -29.149  40.544  1.00  0.00    -0.000 C 
BRANCH  19  20
ATOM     20  C   UNL     1     -24.278 -28.516  41.400  1.00  0.00    -0.000 C 
BRANCH  20  21
ATOM     21  C   UNL     1     -25.579 -28.188  40.643  1.00  0.00    -0.000 C 
BRANCH  21  22
ATOM     22  C   UNL     1     -26.423 -27.054  41.255  1.00  0.00    -0.000 C 
BRANCH  22  23
ATOM     23  C   UNL     1     -25.612 -26.092  42.151  1.00  0.00    -0.000 C 
BRANCH  23  24
ATOM     24  C   UNL     1     -25.588 -24.655  41.602  1.00  0.00    -0.000 C 
BRANCH  24  25
ATOM     25  C   UNL     1     -24.244 -24.300  40.946  1.00  0.00    -0.003 C 
ATOM     26  C   UNL     1     -23.047 -24.815  41.745  1.00  0.00     0.004 C 
ENDBRANCH  24  25
ENDBRANCH  23  24
ENDBRANCH  22  23
ENDBRANCH  21  22
ENDBRANCH  20  21
ENDBRANCH  19  20
ENDBRANCH  18  19
ENDBRANCH  17  18
ENDBRANCH  16  17
ENDBRANCH  15  16
ENDBRANCH   1  15
TORSDOF 22
ENDMDL
MODEL 3
REMARK VINA RESULT:    -5.255      5.424      8.190
REMARK INTER + INTRA:         -14.323
REMARK INTER:                 -11.279
REMARK INTRA:                  -3.043
REMARK UNBOUND:                -2.310
REMARK SMILES CCCCCCCCCCCCCCCCCCCCCCCC(=O)[O-]
REMARK SMILES IDX 13 1 14 2 15 3 16 4 17 5 18 6 19 7 20 8 21 9 22 10 23 11
REMARK SMILES IDX 24 12 25 13 26 14 12 15 11 16 10 17 9 18 8 19 7 20 6 21 5 22
REMARK SMILES IDX 4 23 3 24 2 25 1 26
REMARK H PARENT
REMARK Flexibility Score: inf
ROOT
ATOM      1  C   UNL     1     -21.017 -26.244  40.015  1.00  0.00     0.000 C 
ENDROOT
BRANCH   1   2
ATOM      2  C   UNL     1     -20.298 -26.607  38.706  1.00  0.00     0.000 C 
BRANCH   2   3
ATOM      3  C   UNL     1     -21.214 -27.335  37.708  1.00  0.00     0.000 C 
BRANCH   3   4
ATOM      4  C   UNL     1     -22.235 -28.246  38.410  1.00  0.00     0.000 C 
BRANCH   4   5
ATOM      5  C   UNL     1     -23.427 -28.604  37.505  1.00  0.00     0.000 C 
BRANCH   5   6
ATOM      6  C   UNL     1     -24.575 -29.285  38.272  1.00  0.00     0.000 C 
BRANCH   6   7
ATOM      7  C   UNL     1     -24.331 -29.466  39.784  1.00  0.00     0.000 C 
BRANCH   7   8
ATOM      8  C   UNL     1     -25.162 -28.545  40.700  1.00  0.00     0.000 C 
BRANCH   8   9
ATOM      9  C   UNL     1     -24.367 -27.419  41.384  1.00  0.00     0.000 C 
BRANCH   9  10
ATOM     10  C   UNL     1     -25.273 -26.380  42.070  1.00  0.00     0.006 C 
BRANCH  10  11
ATOM     11  C   UNL     1     -26.716 -26.436  41.550  1.00  0.00     0.053 C 
BRANCH  11  12
ATOM     12  C   UNL     1     -27.641 -25.603  42.386  1.00  0.00     0.041 C 
ATOM     13  O   UNL     1     -27.437 -24.368  42.517  1.00  0.00    -0.550 OA
ATOM     14  O   UNL     1     -28.750 -26.184  42.991  1.00  0.00    -0.550 OA
ENDBRANCH  11  12
ENDBRANCH  10  11
ENDBRANCH   9  10
ENDBRANCH   8   9
ENDBRANCH   7   8
ENDBRANCH   6   7
ENDBRANCH   5   6
ENDBRANCH   4   5
ENDBRANCH   3   4
ENDBRANCH   2   3
ENDBRANCH   1   2
BRANCH   1  15
ATOM     15  C   UNL     1     -21.455 -24.770  40.059  1.00  0.00     0.000 C 
BRANCH  15  16
ATOM     16  C   UNL     1     -22.231 -24.410  41.340  1.00  0.00     0.000 C 
BRANCH  16  17
ATOM     17  C   UNL     1     -22.902 -23.023  41.334  1.00  0.00     0.000 C 
BRANCH  17  18
ATOM     18  C   UNL     1     -24.370 -23.067  40.886  1.00  0.00    -0.000 C 
BRANCH  18  19
ATOM     19  C   UNL     1     -24.814 -21.707  40.326  1.00  0.00    -0.000 C 
BRANCH  19  20
ATOM     20  C   UNL     1     -24.105 -21.339  39.009  1.00  0.00    -0.000 C 
BRANCH  20  21
ATOM     21  C   UNL     1     -23.383 -19.977  39.013  1.00  0.00    -0.000 C 
BRANCH  21  22
ATOM     22  C   UNL     1     -21.976 -19.982  38.386  1.00  0.00    -0.000 C 
BRANCH  22  23
ATOM     23  C   UNL     1     -21.322 -21.380  38.340  1.00  0.00    -0.000 C 
BRANCH  23  24
ATOM     24  C   UNL     1     -20.081 -21.480  39.242  1.00  0.00    -0.000 C 
BRANCH  24  25
ATOM     25  C   UNL     1     -18.812 -21.849  38.457  1.00  0.00    -0.003 C 
ATOM     26  C   UNL     1     -18.247 -23.210  38.861  1.00  0.00     0.004 C 
ENDBRANCH  24  25
ENDBRANCH  23  24
ENDBRANCH  22  23
ENDBRANCH  21  22
ENDBRANCH  20  21
ENDBRANCH  19  20
ENDBRANCH  18  19
ENDBRANCH  17  18
ENDBRANCH  16  17
ENDBRANCH  15  16
ENDBRANCH   1  15
TORSDOF 22
ENDMDL
MODEL 4
REMARK VINA RESULT:    -5.187      4.219      4.967
REMARK INTER + INTRA:         -14.168
REMARK INTER:                 -11.383
REMARK INTRA:                  -2.785
REMARK UNBOUND:                -2.310
REMARK SMILES CCCCCCCCCCCCCCCCCCCCCCCC(=O)[O-]
REMARK SMILES IDX 13 1 14 2 15 3 16 4 17 5 18 6 19 7 20 8 21 9 22 10 23 11
REMARK SMILES IDX 24 12 25 13 26 14 12 15 11 16 10 17 9 18 8 19 7 20 6 21 5 22
REMARK SMILES IDX 4 23 3 24 2 25 1 26
REMARK H PARENT
REMARK Flexibility Score: inf
ROOT
ATOM      1  C   UNL     1     -23.324 -29.555  40.255  1.00  0.00     0.000 C 
ENDROOT
BRANCH   1   2
ATOM      2  C   UNL     1     -22.683 -28.189  39.961  1.00  0.00     0.000 C 
BRANCH   2   3
ATOM      3  C   UNL     1     -22.078 -28.110  38.548  1.00  0.00     0.000 C 
BRANCH   3   4
ATOM      4  C   UNL     1     -21.074 -26.954  38.407  1.00  0.00     0.000 C 
BRANCH   4   5
ATOM      5  C   UNL     1     -20.775 -26.264  39.749  1.00  0.00     0.000 C 
BRANCH   5   6
ATOM      6  C   UNL     1     -19.794 -25.085  39.608  1.00  0.00     0.000 C 
BRANCH   6   7
ATOM      7  C   UNL     1     -18.328 -25.486  39.348  1.00  0.00     0.000 C 
BRANCH   7   8
ATOM      8  C   UNL     1     -17.402 -24.337  38.899  1.00  0.00     0.000 C 
BRANCH   8   9
ATOM      9  C   UNL     1     -18.081 -22.961  38.786  1.00  0.00     0.000 C 
BRANCH   9  10
ATOM     10  C   UNL     1     -17.102 -21.793  39.000  1.00  0.00     0.006 C 
BRANCH  10  11
ATOM     11  C   UNL     1     -15.899 -22.195  39.865  1.00  0.00     0.053 C 
BRANCH  11  12
ATOM     12  C   UNL     1     -15.310 -21.017  40.581  1.00  0.00     0.041 C 
ATOM     13  O   UNL     1     -14.282 -20.449  40.126  1.00  0.00    -0.550 OA
ATOM     14  O   UNL     1     -15.915 -20.523  41.730  1.00  0.00    -0.550 OA
ENDBRANCH  11  12
ENDBRANCH  10  11
ENDBRANCH   9  10
ENDBRANCH   8   9
ENDBRANCH   7   8
ENDBRANCH   6   7
ENDBRANCH   5   6
ENDBRANCH   4   5
ENDBRANCH   3   4
ENDBRANCH   2   3
ENDBRANCH   1   2
BRANCH   1  15
ATOM     15  C   UNL     1     -24.852 -29.467  40.420  1.00  0.00     0.000 C 
BRANCH  15  16
ATOM     16  C   UNL     1     -25.409 -28.061  40.126  1.00  0.00     0.000 C 
BRANCH  16  17
ATOM     17  C   UNL     1     -26.350 -27.489  41.203  1.00  0.00     0.000 C 
BRANCH  17  18
ATOM     18  C   UNL     1     -25.993 -26.053  41.613  1.00  0.00    -0.000 C 
BRANCH  18  19
ATOM     19  C   UNL     1     -24.525 -25.958  42.056  1.00  0.00    -0.000 C 
BRANCH  19  20
ATOM     20  C   UNL     1     -23.808 -24.712  41.502  1.00  0.00    -0.000 C 
BRANCH  20  21
ATOM     21  C   UNL     1     -24.739 -23.599  40.983  1.00  0.00    -0.000 C 
BRANCH  21  22
ATOM     22  C   UNL     1     -24.023 -22.392  40.348  1.00  0.00    -0.000 C 
BRANCH  22  23
ATOM     23  C   UNL     1     -22.685 -22.034  41.032  1.00  0.00    -0.000 C 
BRANCH  23  24
ATOM     24  C   UNL     1     -21.513 -21.976  40.038  1.00  0.00    -0.000 C 
BRANCH  24  25
ATOM     25  C   UNL     1     -21.953 -22.260  38.593  1.00  0.00    -0.003 C 
ATOM     26  C   UNL     1     -21.348 -21.276  37.593  1.00  0.00     0.004 C 
ENDBRANCH  24  25
ENDBRANCH  23  24
ENDBRANCH  22  23
ENDBRANCH  21  22
ENDBRANCH  20  21
ENDBRANCH  19  20
ENDBRANCH  18  19
ENDBRANCH  17  18
ENDBRANCH  16  17
ENDBRANCH  15  16
ENDBRANCH   1  15
TORSDOF 22
ENDMDL
MODEL 5
REMARK VINA RESULT:    -5.176      4.509      7.230
REMARK INTER + INTRA:         -14.142
REMARK INTER:                 -11.709
REMARK INTRA:                  -2.433
REMARK UNBOUND:                -2.310
REMARK SMILES CCCCCCCCCCCCCCCCCCCCCCCC(=O)[O-]
REMARK SMILES IDX 13 1 14 2 15 3 16 4 17 5 18 6 19 7 20 8 21 9 22 10 23 11
REMARK SMILES IDX 24 12 25 13 26 14 12 15 11 16 10 17 9 18 8 19 7 20 6 21 5 22
REMARK SMILES IDX 4 23 3 24 2 25 1 26
REMARK H PARENT
REMARK Flexibility Score: inf
ROOT
ATOM      1  C   UNL     1     -22.639 -28.636  39.688  1.00  0.00     0.000 C 
ENDROOT
BRANCH   1   2
ATOM      2  C   UNL     1     -21.899 -28.025  38.488  1.00  0.00     0.000 C 
BRANCH   2   3
ATOM      3  C   UNL     1     -21.222 -26.685  38.827  1.00  0.00     0.000 C 
BRANCH   3   4
ATOM      4  C   UNL     1     -21.667 -26.136  40.192  1.00  0.00     0.000 C 
BRANCH   4   5
ATOM      5  C   UNL     1     -21.024 -24.777  40.520  1.00  0.00     0.000 C 
BRANCH   5   6
ATOM      6  C   UNL     1     -21.938 -23.874  41.369  1.00  0.00     0.000 C 
BRANCH   6   7
ATOM      7  C   UNL     1     -23.243 -23.433  40.675  1.00  0.00     0.000 C 
BRANCH   7   8
ATOM      8  C   UNL     1     -23.398 -21.913  40.469  1.00  0.00     0.000 C 
BRANCH   8   9
ATOM      9  C   UNL     1     -23.441 -21.457  39.000  1.00  0.00     0.000 C 
BRANCH   9  10
ATOM     10  C   UNL     1     -22.386 -22.159  38.127  1.00  0.00     0.006 C 
BRANCH  10  11
ATOM     11  C   UNL     1     -21.420 -21.162  37.470  1.00  0.00     0.053 C 
BRANCH  11  12
ATOM     12  C   UNL     1     -20.007 -21.374  37.924  1.00  0.00     0.041 C 
ATOM     13  O   UNL     1     -19.774 -21.904  39.041  1.00  0.00    -0.550 OA
ATOM     14  O   UNL     1     -18.947 -21.019  37.097  1.00  0.00    -0.550 OA
ENDBRANCH  11  12
ENDBRANCH  10  11
ENDBRANCH   9  10
ENDBRANCH   8   9
ENDBRANCH   7   8
ENDBRANCH   6   7
ENDBRANCH   5   6
ENDBRANCH   4   5
ENDBRANCH   3   4
ENDBRANCH   2   3
ENDBRANCH   1   2
BRANCH   1  15
ATOM     15  C   UNL     1     -24.124 -28.906  39.391  1.00  0.00     0.000 C 
BRANCH  15  16
ATOM     16  C   UNL     1     -25.056 -28.485  40.544  1.00  0.00     0.000 C 
BRANCH  16  17
ATOM     17  C   UNL     1     -24.344 -28.078  41.848  1.00  0.00     0.000 C 
BRANCH  17  18
ATOM     18  C   UNL     1     -24.922 -26.802  42.476  1.00  0.00    -0.000 C 
BRANCH  18  19
ATOM     19  C   UNL     1     -25.401 -25.826  41.392  1.00  0.00    -0.000 C 
BRANCH  19  20
ATOM     20  C   UNL     1     -26.552 -24.918  41.865  1.00  0.00    -0.000 C 
BRANCH  20  21
ATOM     21  C   UNL     1     -27.479 -25.539  42.928  1.00  0.00    -0.000 C 
BRANCH  21  22
ATOM     22  C   UNL     1     -28.621 -26.410  42.371  1.00  0.00    -0.000 C 
BRANCH  22  23
ATOM     23  C   UNL     1     -30.021 -25.994  42.874  1.00  0.00    -0.000 C 
BRANCH  23  24
ATOM     24  C   UNL     1     -31.144 -26.847  42.261  1.00  0.00    -0.000 C 
BRANCH  24  25
ATOM     25  C   UNL     1     -32.195 -25.996  41.530  1.00  0.00    -0.003 C 
ATOM     26  C   UNL     1     -31.577 -24.816  40.783  1.00  0.00     0.004 C 
ENDBRANCH  24  25
ENDBRANCH  23  24
ENDBRANCH  22  23
ENDBRANCH  21  22
ENDBRANCH  20  21
ENDBRANCH  19  20
ENDBRANCH  18  19
ENDBRANCH  17  18
ENDBRANCH  16  17
ENDBRANCH  15  16
ENDBRANCH   1  15
TORSDOF 22
ENDMDL
MODEL 6
REMARK VINA RESULT:    -5.118      5.170      8.116
REMARK INTER + INTRA:         -14.011
REMARK INTER:                 -11.524
REMARK INTRA:                  -2.487
REMARK UNBOUND:                -2.310
REMARK SMILES CCCCCCCCCCCCCCCCCCCCCCCC(=O)[O-]
REMARK SMILES IDX 13 1 14 2 15 3 16 4 17 5 18 6 19 7 20 8 21 9 22 10 23 11
REMARK SMILES IDX 24 12 25 13 26 14 12 15 11 16 10 17 9 18 8 19 7 20 6 21 5 22
REMARK SMILES IDX 4 23 3 24 2 25 1 26
REMARK H PARENT
REMARK Flexibility Score: inf
ROOT
ATOM      1  C   UNL     1     -24.685 -29.250  38.000  1.00  0.00     0.000 C 
ENDROOT
BRANCH   1   2
ATOM      2  C   UNL     1     -23.455 -28.519  37.437  1.00  0.00     0.000 C 
BRANCH   2   3
ATOM      3  C   UNL     1     -22.244 -28.580  38.384  1.00  0.00     0.000 C 
BRANCH   3   4
ATOM      4  C   UNL     1     -21.492 -27.240  38.457  1.00  0.00     0.000 C 
BRANCH   4   5
ATOM      5  C   UNL     1     -21.433 -26.674  39.885  1.00  0.00     0.000 C 
BRANCH   5   6
ATOM      6  C   UNL     1     -20.519 -25.440  40.001  1.00  0.00     0.000 C 
BRANCH   6   7
ATOM      7  C   UNL     1     -21.235 -24.135  40.403  1.00  0.00     0.000 C 
BRANCH   7   8
ATOM      8  C   UNL     1     -22.384 -24.300  41.418  1.00  0.00     0.000 C 
BRANCH   8   9
ATOM      9  C   UNL     1     -23.714 -23.644  41.006  1.00  0.00     0.000 C 
BRANCH   9  10
ATOM     10  C   UNL     1     -23.531 -22.525  39.966  1.00  0.00     0.006 C 
BRANCH  10  11
ATOM     11  C   UNL     1     -24.014 -21.164  40.487  1.00  0.00     0.053 C 
BRANCH  11  12
ATOM     12  C   UNL     1     -22.961 -20.473  41.301  1.00  0.00     0.041 C 
ATOM     13  O   UNL     1     -21.742 -20.686  41.070  1.00  0.00    -0.550 OA
ATOM     14  O   UNL     1     -23.326 -19.567  42.290  1.00  0.00    -0.550 OA
ENDBRANCH  11  12
ENDBRANCH  10  11
ENDBRANCH   9  10
ENDBRANCH   8   9
ENDBRANCH   7   8
ENDBRANCH   6   7
ENDBRANCH   5   6
ENDBRANCH   4   5
ENDBRANCH   3   4
ENDBRANCH   2   3
ENDBRANCH   1   2
BRANCH   1  15
ATOM     15  C   UNL     1     -24.387 -29.974  39.325  1.00  0.00     0.000 C 
BRANCH  15  16
ATOM     16  C   UNL     1     -25.093 -29.332  40.534  1.00  0.00     0.000 C 
BRANCH  16  17
ATOM     17  C   UNL     1     -24.165 -28.602  41.525  1.00  0.00     0.000 C 
BRANCH  17  18
ATOM     18  C   UNL     1     -24.654 -27.190  41.877  1.00  0.00    -0.000 C 
BRANCH  18  19
ATOM     19  C   UNL     1     -26.062 -26.941  41.317  1.00  0.00    -0.000 C 
BRANCH  19  20
ATOM     20  C   UNL     1     -26.664 -25.600  41.777  1.00  0.00    -0.000 C 
BRANCH  20  21
ATOM     21  C   UNL     1     -27.817 -25.714  42.793  1.00  0.00    -0.000 C 
BRANCH  21  22
ATOM     22  C   UNL     1     -29.171 -26.147  42.198  1.00  0.00    -0.000 C 
BRANCH  22  23
ATOM     23  C   UNL     1     -30.354 -26.004  43.180  1.00  0.00    -0.000 C 
BRANCH  23  24
ATOM     24  C   UNL     1     -31.418 -25.013  42.680  1.00  0.00    -0.000 C 
BRANCH  24  25
ATOM     25  C   UNL     1     -31.253 -24.675  41.189  1.00  0.00    -0.003 C 
ATOM     26  C   UNL     1     -32.319 -25.337  40.317  1.00  0.00     0.004 C 
ENDBRANCH  24  25
ENDBRANCH  23  24
ENDBRANCH  22  23
ENDBRANCH  21  22
ENDBRANCH  20  21
ENDBRANCH  19  20
ENDBRANCH  18  19
ENDBRANCH  17  18
ENDBRANCH  16  17
ENDBRANCH  15  16
ENDBRANCH   1  15
TORSDOF 22
ENDMDL
MODEL 7
REMARK VINA RESULT:    -5.108      6.143     10.691
REMARK INTER + INTRA:         -13.988
REMARK INTER:                 -10.688
REMARK INTRA:                  -3.300
REMARK UNBOUND:                -2.310
REMARK SMILES CCCCCCCCCCCCCCCCCCCCCCCC(=O)[O-]
REMARK SMILES IDX 13 1 14 2 15 3 16 4 17 5 18 6 19 7 20 8 21 9 22 10 23 11
REMARK SMILES IDX 24 12 25 13 26 14 12 15 11 16 10 17 9 18 8 19 7 20 6 21 5 22
REMARK SMILES IDX 4 23 3 24 2 25 1 26
REMARK H PARENT
REMARK Flexibility Score: inf
ROOT
ATOM      1  C   UNL     1     -25.340 -26.152  42.865  1.00  0.00     0.000 C 
ENDROOT
BRANCH   1   2
ATOM      2  C   UNL     1     -26.740 -25.563  43.103  1.00  0.00     0.000 C 
BRANCH   2   3
ATOM      3  C   UNL     1     -27.775 -26.062  42.079  1.00  0.00     0.000 C 
BRANCH   3   4
ATOM      4  C   UNL     1     -29.187 -26.164  42.680  1.00  0.00     0.000 C 
BRANCH   4   5
ATOM      5  C   UNL     1     -30.290 -25.893  41.643  1.00  0.00     0.000 C 
BRANCH   5   6
ATOM      6  C   UNL     1     -31.250 -24.768  42.073  1.00  0.00     0.000 C 
BRANCH   6   7
ATOM      7  C   UNL     1     -30.999 -24.203  43.485  1.00  0.00     0.000 C 
BRANCH   7   8
ATOM      8  C   UNL     1     -30.545 -22.730  43.534  1.00  0.00     0.000 C 
BRANCH   8   9
ATOM      9  C   UNL     1     -29.030 -22.522  43.710  1.00  0.00     0.000 C 
BRANCH   9  10
ATOM     10  C   UNL     1     -28.288 -22.377  42.370  1.00  0.00     0.006 C 
BRANCH  10  11
ATOM     11  C   UNL     1     -29.158 -21.713  41.293  1.00  0.00     0.053 C 
BRANCH  11  12
ATOM     12  C   UNL     1     -28.621 -20.371  40.895  1.00  0.00     0.041 C 
ATOM     13  O   UNL     1     -28.078 -19.626  41.752  1.00  0.00    -0.550 OA
ATOM     14  O   UNL     1     -28.690 -19.957  39.569  1.00  0.00    -0.550 OA
ENDBRANCH  11  12
ENDBRANCH  10  11
ENDBRANCH   9  10
ENDBRANCH   8   9
ENDBRANCH   7   8
ENDBRANCH   6   7
ENDBRANCH   5   6
ENDBRANCH   4   5
ENDBRANCH   3   4
ENDBRANCH   2   3
ENDBRANCH   1   2
BRANCH   1  15
ATOM     15  C   UNL     1     -25.175 -26.731  41.449  1.00  0.00     0.000 C 
BRANCH  15  16
ATOM     16  C   UNL     1     -24.429 -28.078  41.432  1.00  0.00     0.000 C 
BRANCH  16  17
ATOM     17  C   UNL     1     -24.097 -28.627  40.031  1.00  0.00     0.000 C 
BRANCH  17  18
ATOM     18  C   UNL     1     -22.590 -28.799  39.794  1.00  0.00    -0.000 C 
BRANCH  18  19
ATOM     19  C   UNL     1     -22.168 -28.162  38.462  1.00  0.00    -0.000 C 
BRANCH  19  20
ATOM     20  C   UNL     1     -21.173 -26.999  38.639  1.00  0.00    -0.000 C 
BRANCH  20  21
ATOM     21  C   UNL     1     -21.181 -26.339  40.031  1.00  0.00    -0.000 C 
BRANCH  21  22
ATOM     22  C   UNL     1     -21.566 -24.847  40.044  1.00  0.00    -0.000 C 
BRANCH  22  23
ATOM     23  C   UNL     1     -22.226 -24.388  41.363  1.00  0.00    -0.000 C 
BRANCH  23  24
ATOM     24  C   UNL     1     -22.943 -23.036  41.223  1.00  0.00    -0.000 C 
BRANCH  24  25
ATOM     25  C   UNL     1     -24.405 -23.189  40.773  1.00  0.00    -0.003 C 
ATOM     26  C   UNL     1     -25.092 -21.844  40.544  1.00  0.00     0.004 C 
ENDBRANCH  24  25
ENDBRANCH  23  24
ENDBRANCH  22  23
ENDBRANCH  21  22
ENDBRANCH  20  21
ENDBRANCH  19  20
ENDBRANCH  18  19
ENDBRANCH  17  18
ENDBRANCH  16  17
ENDBRANCH  15  16
ENDBRANCH   1  15
TORSDOF 22
ENDMDL
MODEL 8
REMARK VINA RESULT:    -5.080      4.497      7.154
REMARK INTER + INTRA:         -13.924
REMARK INTER:                 -11.349
REMARK INTRA:                  -2.574
REMARK UNBOUND:                -2.310
REMARK SMILES CCCCCCCCCCCCCCCCCCCCCCCC(=O)[O-]
REMARK SMILES IDX 13 1 14 2 15 3 16 4 17 5 18 6 19 7 20 8 21 9 22 10 23 11
REMARK SMILES IDX 24 12 25 13 26 14 12 15 11 16 10 17 9 18 8 19 7 20 6 21 5 22
REMARK SMILES IDX 4 23 3 24 2 25 1 26
REMARK H PARENT
REMARK Flexibility Score: inf
ROOT
ATOM      1  C   UNL     1     -23.763 -23.983  41.010  1.00  0.00     0.000 C 
ENDROOT
BRANCH   1   2
ATOM      2  C   UNL     1     -22.542 -23.174  41.479  1.00  0.00     0.000 C 
BRANCH   2   3
ATOM      3  C   UNL     1     -21.770 -22.535  40.311  1.00  0.00     0.000 C 
BRANCH   3   4
ATOM      4  C   UNL     1     -21.354 -23.568  39.251  1.00  0.00     0.000 C 
BRANCH   4   5
ATOM      5  C   UNL     1     -19.860 -23.926  39.330  1.00  0.00     0.000 C 
BRANCH   5   6
ATOM      6  C   UNL     1     -19.618 -25.414  39.644  1.00  0.00     0.000 C 
BRANCH   6   7
ATOM      7  C   UNL     1     -20.881 -26.297  39.623  1.00  0.00     0.000 C 
BRANCH   7   8
ATOM      8  C   UNL     1     -21.110 -27.089  38.320  1.00  0.00     0.000 C 
BRANCH   8   9
ATOM      9  C   UNL     1     -22.177 -28.195  38.410  1.00  0.00     0.000 C 
BRANCH   9  10
ATOM     10  C   UNL     1     -22.838 -28.275  39.797  1.00  0.00     0.006 C 
BRANCH  10  11
ATOM     11  C   UNL     1     -23.482 -29.644  40.055  1.00  0.00     0.053 C 
BRANCH  11  12
ATOM     12  C   UNL     1     -24.957 -29.624  39.787  1.00  0.00     0.041 C 
ATOM     13  O   UNL     1     -25.717 -28.901  40.483  1.00  0.00    -0.550 OA
ATOM     14  O   UNL     1     -25.488 -30.376  38.746  1.00  0.00    -0.550 OA
ENDBRANCH  11  12
ENDBRANCH  10  11
ENDBRANCH   9  10
ENDBRANCH   8   9
ENDBRANCH   7   8
ENDBRANCH   6   7
ENDBRANCH   5   6
ENDBRANCH   4   5
ENDBRANCH   3   4
ENDBRANCH   2   3
ENDBRANCH   1   2
BRANCH   1  15
ATOM     15  C   UNL     1     -23.741 -25.434  41.522  1.00  0.00     0.000 C 
BRANCH  15  16
ATOM     16  C   UNL     1     -25.057 -25.851  42.207  1.00  0.00     0.000 C 
BRANCH  16  17
ATOM     17  C   UNL     1     -26.315 -25.104  41.722  1.00  0.00     0.000 C 
BRANCH  17  18
ATOM     18  C   UNL     1     -27.525 -25.303  42.646  1.00  0.00    -0.000 C 
BRANCH  18  19
ATOM     19  C   UNL     1     -28.376 -26.496  42.185  1.00  0.00    -0.000 C 
BRANCH  19  20
ATOM     20  C   UNL     1     -29.872 -26.155  42.058  1.00  0.00    -0.000 C 
BRANCH  20  21
ATOM     21  C   UNL     1     -30.495 -25.476  43.293  1.00  0.00    -0.000 C 
BRANCH  21  22
ATOM     22  C   UNL     1     -31.487 -24.339  42.982  1.00  0.00    -0.000 C 
BRANCH  22  23
ATOM     23  C   UNL     1     -30.804 -22.995  42.647  1.00  0.00    -0.000 C 
BRANCH  23  24
ATOM     24  C   UNL     1     -29.880 -22.506  43.775  1.00  0.00    -0.000 C 
BRANCH  24  25
ATOM     25  C   UNL     1     -28.646 -21.761  43.241  1.00  0.00    -0.003 C 
ATOM     26  C   UNL     1     -28.498 -21.881  41.725  1.00  0.00     0.004 C 
ENDBRANCH  24  25
ENDBRANCH  23  24
ENDBRANCH  22  23
ENDBRANCH  21  22
ENDBRANCH  20  21
ENDBRANCH  19  20
ENDBRANCH  18  19
ENDBRANCH  17  18
ENDBRANCH  16  17
ENDBRANCH  15  16
ENDBRANCH   1  15
TORSDOF 22
ENDMDL
MODEL 9
REMARK VINA RESULT:    -5.013      4.689      7.635
REMARK INTER + INTRA:         -13.770
REMARK INTER:                 -11.135
REMARK INTRA:                  -2.635
REMARK UNBOUND:                -2.310
REMARK SMILES CCCCCCCCCCCCCCCCCCCCCCCC(=O)[O-]
REMARK SMILES IDX 13 1 14 2 15 3 16 4 17 5 18 6 19 7 20 8 21 9 22 10 23 11
REMARK SMILES IDX 24 12 25 13 26 14 12 15 11 16 10 17 9 18 8 19 7 20 6 21 5 22
REMARK SMILES IDX 4 23 3 24 2 25 1 26
REMARK H PARENT
REMARK Flexibility Score: inf
ROOT
ATOM      1  C   UNL     1     -25.026 -28.214  40.465  1.00  0.00     0.000 C 
ENDROOT
BRANCH   1   2
ATOM      2  C   UNL     1     -24.071 -29.195  39.764  1.00  0.00     0.000 C 
BRANCH   2   3
ATOM      3  C   UNL     1     -22.620 -28.684  39.725  1.00  0.00     0.000 C 
BRANCH   3   4
ATOM      4  C   UNL     1     -22.234 -28.127  38.345  1.00  0.00     0.000 C 
BRANCH   4   5
ATOM      5  C   UNL     1     -21.150 -27.040  38.429  1.00  0.00     0.000 C 
BRANCH   5   6
ATOM      6  C   UNL     1     -20.930 -26.526  39.864  1.00  0.00     0.000 C 
BRANCH   6   7
ATOM      7  C   UNL     1     -21.121 -25.007  40.047  1.00  0.00     0.000 C 
BRANCH   7   8
ATOM      8  C   UNL     1     -22.114 -24.597  41.154  1.00  0.00     0.000 C 
BRANCH   8   9
ATOM      9  C   UNL     1     -22.482 -23.102  41.175  1.00  0.00     0.000 C 
BRANCH   9  10
ATOM     10  C   UNL     1     -23.842 -22.813  40.517  1.00  0.00     0.006 C 
BRANCH  10  11
ATOM     11  C   UNL     1     -23.792 -21.589  39.593  1.00  0.00     0.053 C 
BRANCH  11  12
ATOM     12  C   UNL     1     -22.660 -21.676  38.614  1.00  0.00     0.041 C 
ATOM     13  O   UNL     1     -22.576 -22.656  37.829  1.00  0.00    -0.550 OA
ATOM     14  O   UNL     1     -21.717 -20.657  38.544  1.00  0.00    -0.550 OA
ENDBRANCH  11  12
ENDBRANCH  10  11
ENDBRANCH   9  10
ENDBRANCH   8   9
ENDBRANCH   7   8
ENDBRANCH   6   7
ENDBRANCH   5   6
ENDBRANCH   4   5
ENDBRANCH   3   4
ENDBRANCH   2   3
ENDBRANCH   1   2
BRANCH   1  15
ATOM     15  C   UNL     1     -24.283 -27.190  41.341  1.00  0.00     0.000 C 
BRANCH  15  16
ATOM     16  C   UNL     1     -25.224 -26.388  42.259  1.00  0.00     0.000 C 
BRANCH  16  17
ATOM     17  C   UNL     1     -26.234 -25.480  41.532  1.00  0.00     0.000 C 
BRANCH  17  18
ATOM     18  C   UNL     1     -27.236 -24.810  42.484  1.00  0.00    -0.000 C 
BRANCH  18  19
ATOM     19  C   UNL     1     -28.198 -25.846  43.084  1.00  0.00    -0.000 C 
BRANCH  19  20
ATOM     20  C   UNL     1     -29.326 -26.251  42.117  1.00  0.00    -0.000 C 
BRANCH  20  21
ATOM     21  C   UNL     1     -30.750 -25.899  42.590  1.00  0.00    -0.000 C 
BRANCH  21  22
ATOM     22  C   UNL     1     -30.853 -24.641  43.473  1.00  0.00    -0.000 C 
BRANCH  22  23
ATOM     23  C   UNL     1     -31.228 -23.363  42.690  1.00  0.00    -0.000 C 
BRANCH  23  24
ATOM     24  C   UNL     1     -30.084 -22.336  42.655  1.00  0.00    -0.000 C 
BRANCH  24  25
ATOM     25  C   UNL     1     -29.329 -22.252  43.991  1.00  0.00    -0.003 C 
ATOM     26  C   UNL     1     -29.997 -21.300  44.982  1.00  0.00     0.004 C 
ENDBRANCH  24  25
ENDBRANCH  23  24
ENDBRANCH  22  23
ENDBRANCH  21  22
ENDBRANCH  20  21
ENDBRANCH  19  20
ENDBRANCH  18  19
ENDBRANCH  17  18
ENDBRANCH  16  17
ENDBRANCH  15  16
ENDBRANCH   1  15
TORSDOF 22
ENDMDL
