MODEL 1
REMARK VINA RESULT:    -4.458      0.000      0.000
REMARK INTER + INTRA:         -10.060
REMARK INTER:                  -8.106
REMARK INTRA:                  -1.954
REMARK UNBOUND:                -1.954
REMARK SMILES CCCCCCCCCCCCCCCC(=O)[O-]
REMARK SMILES IDX 9 1 10 2 11 3 12 4 13 5 14 6 15 7 16 8 17 9 18 10 8 11 7 12
REMARK SMILES IDX 6 13 5 14 4 15 3 16 2 17 1 18
REMARK H PARENT
REMARK Flexibility Score: inf
ROOT
ATOM      1  C   UNL     1       0.878 -21.962 -15.734  1.00  0.00     0.000 C 
ENDROOT
BRANCH   1   2
ATOM      2  C   UNL     1       0.247 -20.780 -14.980  1.00  0.00     0.000 C 
BRANCH   2   3
ATOM      3  C   UNL     1       1.298 -19.877 -14.311  1.00  0.00     0.000 C 
BRANCH   3   4
ATOM      4  C   UNL     1       2.333 -20.675 -13.503  1.00  0.00     0.000 C 
BRANCH   4   5
ATOM      5  C   UNL     1       3.725 -20.024 -13.514  1.00  0.00     0.000 C 
BRANCH   5   6
ATOM      6  C   UNL     1       4.491 -20.346 -12.221  1.00  0.00     0.006 C 
BRANCH   6   7
ATOM      7  C   UNL     1       3.655 -20.066 -10.965  1.00  0.00     0.053 C 
BRANCH   7   8
ATOM      8  C   UNL     1       3.702 -21.212 -10.001  1.00  0.00     0.041 C 
ATOM      9  O   UNL     1       4.014 -22.365 -10.400  1.00  0.00    -0.550 OA
ATOM     10  O   UNL     1       3.431 -20.999  -8.655  1.00  0.00    -0.550 OA
ENDBRANCH   7   8
ENDBRANCH   6   7
ENDBRANCH   5   6
ENDBRANCH   4   5
ENDBRANCH   3   4
ENDBRANCH   2   3
ENDBRANCH   1   2
BRANCH   1  11
ATOM     11  C   UNL     1      -0.131 -22.711 -16.617  1.00  0.00     0.000 C 
BRANCH  11  12
ATOM     12  C   UNL     1      -0.634 -23.982 -15.917  1.00  0.00    -0.000 C 
BRANCH  12  13
ATOM     13  C   UNL     1       0.429 -24.627 -15.011  1.00  0.00    -0.000 C 
BRANCH  13  14
ATOM     14  C   UNL     1      -0.125 -25.551 -13.907  1.00  0.00    -0.000 C 
BRANCH  14  15
ATOM     15  C   UNL     1       0.161 -25.095 -12.464  1.00  0.00    -0.000 C 
BRANCH  15  16
ATOM     16  C   UNL     1       0.751 -23.676 -12.393  1.00  0.00    -0.000 C 
BRANCH  16  17
ATOM     17  C   UNL     1      -0.069 -22.743 -11.490  1.00  0.00    -0.003 C 
ATOM     18  C   UNL     1      -1.376 -22.285 -12.141  1.00  0.00     0.004 C 
ENDBRANCH  16  17
ENDBRANCH  15  16
ENDBRANCH  14  15
ENDBRANCH  13  14
ENDBRANCH  12  13
ENDBRANCH  11  12
ENDBRANCH   1  11
TORSDOF 14
ENDMDL
MODEL 2
REMARK VINA RESULT:    -4.303      1.800      2.952
REMARK INTER + INTRA:          -9.779
REMARK INTER:                  -8.245
REMARK INTRA:                  -1.535
REMARK UNBOUND:                -1.954
REMARK SMILES CCCCCCCCCCCCCCCC(=O)[O-]
REMARK SMILES IDX 9 1 10 2 11 3 12 4 13 5 14 6 15 7 16 8 17 9 18 10 8 11 7 12
REMARK SMILES IDX 6 13 5 14 4 15 3 16 2 17 1 18
REMARK H PARENT
REMARK Flexibility Score: inf
ROOT
ATOM      1  C   UNL     1      -2.194 -22.620 -15.484  1.00  0.00     0.000 C 
ENDROOT
BRANCH   1   2
ATOM      2  C   UNL     1      -1.191 -21.504 -15.151  1.00  0.00     0.000 C 
BRANCH   2   3
ATOM      3  C   UNL     1       0.136 -21.655 -15.913  1.00  0.00     0.000 C 
BRANCH   3   4
ATOM      4  C   UNL     1       1.362 -21.539 -14.993  1.00  0.00     0.000 C 
BRANCH   4   5
ATOM      5  C   UNL     1       1.014 -20.971 -13.609  1.00  0.00     0.000 C 
BRANCH   5   6
ATOM      6  C   UNL     1       2.142 -21.250 -12.602  1.00  0.00     0.006 C 
BRANCH   6   7
ATOM      7  C   UNL     1       3.407 -20.438 -12.908  1.00  0.00     0.053 C 
BRANCH   7   8
ATOM      8  C   UNL     1       4.588 -20.940 -12.135  1.00  0.00     0.041 C 
ATOM      9  O   UNL     1       4.452 -21.878 -11.306  1.00  0.00    -0.550 OA
ATOM     10  O   UNL     1       5.845 -20.391 -12.353  1.00  0.00    -0.550 OA
ENDBRANCH   7   8
ENDBRANCH   6   7
ENDBRANCH   5   6
ENDBRANCH   4   5
ENDBRANCH   3   4
ENDBRANCH   2   3
ENDBRANCH   1   2
BRANCH   1  11
ATOM     11  C   UNL     1      -1.520 -23.873 -16.061  1.00  0.00     0.000 C 
BRANCH  11  12
ATOM     12  C   UNL     1      -1.366 -24.958 -14.985  1.00  0.00    -0.000 C 
BRANCH  12  13
ATOM     13  C   UNL     1       0.088 -25.130 -14.511  1.00  0.00    -0.000 C 
BRANCH  13  14
ATOM     14  C   UNL     1       0.368 -24.655 -13.070  1.00  0.00    -0.000 C 
BRANCH  14  15
ATOM     15  C   UNL     1      -0.584 -25.214 -11.998  1.00  0.00    -0.000 C 
BRANCH  15  16
ATOM     16  C   UNL     1      -0.715 -26.746 -12.056  1.00  0.00    -0.000 C 
BRANCH  16  17
ATOM     17  C   UNL     1       0.289 -27.458 -11.138  1.00  0.00    -0.003 C 
ATOM     18  C   UNL     1      -0.316 -28.662 -10.415  1.00  0.00     0.004 C 
ENDBRANCH  16  17
ENDBRANCH  15  16
ENDBRANCH  14  15
ENDBRANCH  13  14
ENDBRANCH  12  13
ENDBRANCH  11  12
ENDBRANCH   1  11
TORSDOF 14
ENDMDL
MODEL 3
REMARK VINA RESULT:    -4.267      1.509      2.620
REMARK INTER + INTRA:          -9.714
REMARK INTER:                  -8.038
REMARK INTRA:                  -1.676
REMARK UNBOUND:                -1.954
REMARK SMILES CCCCCCCCCCCCCCCC(=O)[O-]
REMARK SMILES IDX 9 1 10 2 11 3 12 4 13 5 14 6 15 7 16 8 17 9 18 10 8 11 7 12
REMARK SMILES IDX 6 13 5 14 4 15 3 16 2 17 1 18
REMARK H PARENT
REMARK Flexibility Score: inf
ROOT
ATOM      1  C   UNL     1       0.199 -20.925 -15.182  1.00  0.00     0.000 C 
ENDROOT
BRANCH   1   2
ATOM      2  C   UNL     1       0.916 -20.098 -14.104  1.00  0.00     0.000 C 
BRANCH   2   3
ATOM      3  C   UNL     1       0.175 -20.114 -12.756  1.00  0.00     0.000 C 
BRANCH   3   4
ATOM      4  C   UNL     1       0.506 -21.357 -11.915  1.00  0.00     0.000 C 
BRANCH   4   5
ATOM      5  C   UNL     1       2.011 -21.660 -11.869  1.00  0.00     0.000 C 
BRANCH   5   6
ATOM      6  C   UNL     1       2.678 -20.948 -10.681  1.00  0.00     0.006 C 
BRANCH   6   7
ATOM      7  C   UNL     1       3.797 -19.998 -11.127  1.00  0.00     0.053 C 
BRANCH   7   8
ATOM      8  C   UNL     1       4.547 -20.539 -12.304  1.00  0.00     0.041 C 
ATOM      9  O   UNL     1       5.301 -21.539 -12.172  1.00  0.00    -0.550 OA
ATOM     10  O   UNL     1       4.391 -19.956 -13.555  1.00  0.00    -0.550 OA
ENDBRANCH   7   8
ENDBRANCH   6   7
ENDBRANCH   5   6
ENDBRANCH   4   5
ENDBRANCH   3   4
ENDBRANCH   2   3
ENDBRANCH   1   2
BRANCH   1  11
ATOM     11  C   UNL     1       1.095 -22.014 -15.792  1.00  0.00     0.000 C 
BRANCH  11  12
ATOM     12  C   UNL     1       0.318 -22.851 -16.819  1.00  0.00    -0.000 C 
BRANCH  12  13
ATOM     13  C   UNL     1      -1.187 -22.934 -16.508  1.00  0.00    -0.000 C 
BRANCH  13  14
ATOM     14  C   UNL     1      -1.670 -24.296 -15.969  1.00  0.00    -0.000 C 
BRANCH  14  15
ATOM     15  C   UNL     1      -1.408 -24.539 -14.471  1.00  0.00    -0.000 C 
BRANCH  15  16
ATOM     16  C   UNL     1      -0.129 -25.355 -14.215  1.00  0.00    -0.000 C 
BRANCH  16  17
ATOM     17  C   UNL     1       0.618 -24.897 -12.953  1.00  0.00    -0.003 C 
ATOM     18  C   UNL     1       0.302 -25.760 -11.730  1.00  0.00     0.004 C 
ENDBRANCH  16  17
ENDBRANCH  15  16
ENDBRANCH  14  15
ENDBRANCH  13  14
ENDBRANCH  12  13
ENDBRANCH  11  12
ENDBRANCH   1  11
TORSDOF 14
ENDMDL
MODEL 4
REMARK VINA RESULT:    -4.220      1.406      2.233
REMARK INTER + INTRA:          -9.627
REMARK INTER:                  -7.434
REMARK INTRA:                  -2.194
REMARK UNBOUND:                -1.954
REMARK SMILES CCCCCCCCCCCCCCCC(=O)[O-]
REMARK SMILES IDX 9 1 10 2 11 3 12 4 13 5 14 6 15 7 16 8 17 9 18 10 8 11 7 12
REMARK SMILES IDX 6 13 5 14 4 15 3 16 2 17 1 18
REMARK H PARENT
REMARK Flexibility Score: inf
ROOT
ATOM      1  C   UNL     1      -2.025 -22.649 -15.719  1.00  0.00     0.000 C 
ENDROOT
BRANCH   1   2
ATOM      2  C   UNL     1      -1.042 -21.542 -15.307  1.00  0.00     0.000 C 
BRANCH   2   3
ATOM      3  C   UNL     1       0.350 -21.724 -15.934  1.00  0.00     0.000 C 
BRANCH   3   4
ATOM      4  C   UNL     1       1.488 -21.437 -14.941  1.00  0.00     0.000 C 
BRANCH   4   5
ATOM      5  C   UNL     1       1.088 -20.425 -13.857  1.00  0.00     0.000 C 
BRANCH   5   6
ATOM      6  C   UNL     1       2.082 -20.455 -12.685  1.00  0.00     0.006 C 
BRANCH   6   7
ATOM      7  C   UNL     1       3.541 -20.452 -13.160  1.00  0.00     0.053 C 
BRANCH   7   8
ATOM      8  C   UNL     1       4.479 -20.882 -12.074  1.00  0.00     0.041 C 
ATOM      9  O   UNL     1       5.596 -21.387 -12.362  1.00  0.00    -0.550 OA
ATOM     10  O   UNL     1       4.131 -20.696 -10.742  1.00  0.00    -0.550 OA
ENDBRANCH   7   8
ENDBRANCH   6   7
ENDBRANCH   5   6
ENDBRANCH   4   5
ENDBRANCH   3   4
ENDBRANCH   2   3
ENDBRANCH   1   2
BRANCH   1  11
ATOM     11  C   UNL     1      -1.319 -23.948 -16.135  1.00  0.00     0.000 C 
BRANCH  11  12
ATOM     12  C   UNL     1      -1.239 -24.929 -14.956  1.00  0.00    -0.000 C 
BRANCH  12  13
ATOM     13  C   UNL     1       0.193 -25.109 -14.423  1.00  0.00    -0.000 C 
BRANCH  13  14
ATOM     14  C   UNL     1       0.432 -24.580 -12.994  1.00  0.00    -0.000 C 
BRANCH  14  15
ATOM     15  C   UNL     1      -0.729 -23.767 -12.392  1.00  0.00    -0.000 C 
BRANCH  15  16
ATOM     16  C   UNL     1      -0.278 -22.837 -11.252  1.00  0.00    -0.000 C 
BRANCH  16  17
ATOM     17  C   UNL     1       0.426 -23.596 -10.117  1.00  0.00    -0.003 C 
ATOM     18  C   UNL     1       1.709 -22.908  -9.650  1.00  0.00     0.004 C 
ENDBRANCH  16  17
ENDBRANCH  15  16
ENDBRANCH  14  15
ENDBRANCH  13  14
ENDBRANCH  12  13
ENDBRANCH  11  12
ENDBRANCH   1  11
TORSDOF 14
ENDMDL
MODEL 5
REMARK VINA RESULT:    -4.178      1.828      3.142
REMARK INTER + INTRA:          -9.552
REMARK INTER:                  -7.597
REMARK INTRA:                  -1.955
REMARK UNBOUND:                -1.954
REMARK SMILES CCCCCCCCCCCCCCCC(=O)[O-]
REMARK SMILES IDX 9 1 10 2 11 3 12 4 13 5 14 6 15 7 16 8 17 9 18 10 8 11 7 12
REMARK SMILES IDX 6 13 5 14 4 15 3 16 2 17 1 18
REMARK H PARENT
REMARK Flexibility Score: inf
ROOT
ATOM      1  C   UNL     1      -3.124 -20.390 -13.770  1.00  0.00     0.000 C 
ENDROOT
BRANCH   1   2
ATOM      2  C   UNL     1      -1.933 -19.787 -14.532  1.00  0.00     0.000 C 
BRANCH   2   3
ATOM      3  C   UNL     1      -0.587 -20.069 -13.842  1.00  0.00     0.000 C 
BRANCH   3   4
ATOM      4  C   UNL     1       0.509 -20.484 -14.836  1.00  0.00     0.000 C 
BRANCH   4   5
ATOM      5  C   UNL     1       1.922 -20.367 -14.244  1.00  0.00     0.000 C 
BRANCH   5   6
ATOM      6  C   UNL     1       2.043 -21.182 -12.946  1.00  0.00     0.006 C 
BRANCH   6   7
ATOM      7  C   UNL     1       3.003 -20.533 -11.939  1.00  0.00     0.053 C 
BRANCH   7   8
ATOM      8  C   UNL     1       4.193 -21.402 -11.670  1.00  0.00     0.041 C 
ATOM      9  O   UNL     1       4.171 -22.234 -10.725  1.00  0.00    -0.550 OA
ATOM     10  O   UNL     1       5.316 -21.312 -12.482  1.00  0.00    -0.550 OA
ENDBRANCH   7   8
ENDBRANCH   6   7
ENDBRANCH   5   6
ENDBRANCH   4   5
ENDBRANCH   3   4
ENDBRANCH   2   3
ENDBRANCH   1   2
BRANCH   1  11
ATOM     11  C   UNL     1      -3.293 -21.896 -14.024  1.00  0.00     0.000 C 
BRANCH  11  12
ATOM     12  C   UNL     1      -3.189 -22.213 -15.523  1.00  0.00    -0.000 C 
BRANCH  12  13
ATOM     13  C   UNL     1      -3.222 -23.723 -15.819  1.00  0.00    -0.000 C 
BRANCH  13  14
ATOM     14  C   UNL     1      -1.979 -24.276 -16.545  1.00  0.00    -0.000 C 
BRANCH  14  15
ATOM     15  C   UNL     1      -0.766 -23.328 -16.587  1.00  0.00    -0.000 C 
BRANCH  15  16
ATOM     16  C   UNL     1       0.434 -23.859 -15.784  1.00  0.00    -0.000 C 
BRANCH  16  17
ATOM     17  C   UNL     1       0.009 -24.774 -14.626  1.00  0.00    -0.003 C 
ATOM     18  C   UNL     1      -0.260 -24.006 -13.331  1.00  0.00     0.004 C 
ENDBRANCH  16  17
ENDBRANCH  15  16
ENDBRANCH  14  15
ENDBRANCH  13  14
ENDBRANCH  12  13
ENDBRANCH  11  12
ENDBRANCH   1  11
TORSDOF 14
ENDMDL
MODEL 6
REMARK VINA RESULT:    -4.137      1.448      3.564
REMARK INTER + INTRA:          -9.478
REMARK INTER:                  -7.206
REMARK INTRA:                  -2.272
REMARK UNBOUND:                -1.954
REMARK SMILES CCCCCCCCCCCCCCCC(=O)[O-]
REMARK SMILES IDX 9 1 10 2 11 3 12 4 13 5 14 6 15 7 16 8 17 9 18 10 8 11 7 12
REMARK SMILES IDX 6 13 5 14 4 15 3 16 2 17 1 18
REMARK H PARENT
REMARK Flexibility Score: inf
ROOT
ATOM      1  C   UNL     1      -0.637 -25.366 -12.515  1.00  0.00     0.000 C 
ENDROOT
BRANCH   1   2
ATOM      2  C   UNL     1       0.600 -24.551 -12.105  1.00  0.00     0.000 C 
BRANCH   2   3
ATOM      3  C   UNL     1       0.593 -24.176 -10.613  1.00  0.00     0.000 C 
BRANCH   3   4
ATOM      4  C   UNL     1       1.227 -22.802 -10.346  1.00  0.00     0.000 C 
BRANCH   4   5
ATOM      5  C   UNL     1       1.995 -22.256 -11.560  1.00  0.00     0.000 C 
BRANCH   5   6
ATOM      6  C   UNL     1       1.998 -20.719 -11.561  1.00  0.00     0.006 C 
BRANCH   6   7
ATOM      7  C   UNL     1       3.132 -20.142 -12.419  1.00  0.00     0.053 C 
BRANCH   7   8
ATOM      8  C   UNL     1       4.477 -20.428 -11.825  1.00  0.00     0.041 C 
ATOM      9  O   UNL     1       4.832 -19.868 -10.755  1.00  0.00    -0.550 OA
ATOM     10  O   UNL     1       5.327 -21.339 -12.440  1.00  0.00    -0.550 OA
ENDBRANCH   7   8
ENDBRANCH   6   7
ENDBRANCH   5   6
ENDBRANCH   4   5
ENDBRANCH   3   4
ENDBRANCH   2   3
ENDBRANCH   1   2
BRANCH   1  11
ATOM     11  C   UNL     1      -0.775 -25.514 -14.037  1.00  0.00     0.000 C 
BRANCH  11  12
ATOM     12  C   UNL     1       0.350 -24.763 -14.764  1.00  0.00    -0.000 C 
BRANCH  12  13
ATOM     13  C   UNL     1      -0.156 -23.936 -15.959  1.00  0.00    -0.000 C 
BRANCH  13  14
ATOM     14  C   UNL     1       0.621 -22.632 -16.230  1.00  0.00    -0.000 C 
BRANCH  14  15
ATOM     15  C   UNL     1       0.915 -21.772 -14.988  1.00  0.00    -0.000 C 
BRANCH  15  16
ATOM     16  C   UNL     1       0.134 -20.446 -14.981  1.00  0.00    -0.000 C 
BRANCH  16  17
ATOM     17  C   UNL     1      -0.794 -20.315 -13.764  1.00  0.00    -0.003 C 
ATOM     18  C   UNL     1      -1.340 -21.662 -13.286  1.00  0.00     0.004 C 
ENDBRANCH  16  17
ENDBRANCH  15  16
ENDBRANCH  14  15
ENDBRANCH  13  14
ENDBRANCH  12  13
ENDBRANCH  11  12
ENDBRANCH   1  11
TORSDOF 14
ENDMDL
MODEL 7
REMARK VINA RESULT:    -4.127      9.590     11.150
REMARK INTER + INTRA:          -9.458
REMARK INTER:                  -8.180
REMARK INTRA:                  -1.279
REMARK UNBOUND:                -1.954
REMARK SMILES CCCCCCCCCCCCCCCC(=O)[O-]
REMARK SMILES IDX 9 1 10 2 11 3 12 4 13 5 14 6 15 7 16 8 17 9 18 10 8 11 7 12
REMARK SMILES IDX 6 13 5 14 4 15 3 16 2 17 1 18
REMARK H PARENT
REMARK Flexibility Score: inf
ROOT
ATOM      1  C   UNL     1      -7.002 -22.818 -14.055  1.00  0.00     0.000 C 
ENDROOT
BRANCH   1   2
ATOM      2  C   UNL     1      -7.548 -21.393 -13.872  1.00  0.00     0.000 C 
BRANCH   2   3
ATOM      3  C   UNL     1      -8.352 -20.907 -15.090  1.00  0.00     0.000 C 
BRANCH   3   4
ATOM      4  C   UNL     1      -7.948 -19.495 -15.540  1.00  0.00     0.000 C 
BRANCH   4   5
ATOM      5  C   UNL     1      -6.449 -19.378 -15.856  1.00  0.00     0.000 C 
BRANCH   5   6
ATOM      6  C   UNL     1      -6.192 -18.275 -16.895  1.00  0.00     0.006 C 
BRANCH   6   7
ATOM      7  C   UNL     1      -6.815 -16.934 -16.484  1.00  0.00     0.053 C 
BRANCH   7   8
ATOM      8  C   UNL     1      -7.668 -16.362 -17.575  1.00  0.00     0.041 C 
ATOM      9  O   UNL     1      -7.545 -16.773 -18.759  1.00  0.00    -0.550 OA
ATOM     10  O   UNL     1      -8.620 -15.396 -17.277  1.00  0.00    -0.550 OA
ENDBRANCH   7   8
ENDBRANCH   6   7
ENDBRANCH   5   6
ENDBRANCH   4   5
ENDBRANCH   3   4
ENDBRANCH   2   3
ENDBRANCH   1   2
BRANCH   1  11
ATOM     11  C   UNL     1      -7.178 -23.344 -15.487  1.00  0.00     0.000 C 
BRANCH  11  12
ATOM     12  C   UNL     1      -7.766 -24.763 -15.480  1.00  0.00    -0.000 C 
BRANCH  12  13
ATOM     13  C   UNL     1      -9.304 -24.774 -15.484  1.00  0.00    -0.000 C 
BRANCH  13  14
ATOM     14  C   UNL     1      -9.949 -26.111 -15.904  1.00  0.00    -0.000 C 
BRANCH  14  15
ATOM     15  C   UNL     1      -9.566 -26.613 -17.308  1.00  0.00    -0.000 C 
BRANCH  15  16
ATOM     16  C   UNL     1      -9.855 -25.579 -18.410  1.00  0.00    -0.000 C 
BRANCH  16  17
ATOM     17  C   UNL     1      -8.579 -25.107 -19.124  1.00  0.00    -0.003 C 
ATOM     18  C   UNL     1      -7.464 -26.153 -19.098  1.00  0.00     0.004 C 
ENDBRANCH  16  17
ENDBRANCH  15  16
ENDBRANCH  14  15
ENDBRANCH  13  14
ENDBRANCH  12  13
ENDBRANCH  11  12
ENDBRANCH   1  11
TORSDOF 14
ENDMDL
MODEL 8
REMARK VINA RESULT:    -4.098      2.005      3.557
REMARK INTER + INTRA:          -9.406
REMARK INTER:                  -7.690
REMARK INTRA:                  -1.716
REMARK UNBOUND:                -1.954
REMARK SMILES CCCCCCCCCCCCCCCC(=O)[O-]
REMARK SMILES IDX 9 1 10 2 11 3 12 4 13 5 14 6 15 7 16 8 17 9 18 10 8 11 7 12
REMARK SMILES IDX 6 13 5 14 4 15 3 16 2 17 1 18
REMARK H PARENT
REMARK Flexibility Score: inf
ROOT
ATOM      1  C   UNL     1       0.431 -23.251 -12.584  1.00  0.00     0.000 C 
ENDROOT
BRANCH   1   2
ATOM      2  C   UNL     1      -0.908 -22.507 -12.712  1.00  0.00     0.000 C 
BRANCH   2   3
ATOM      3  C   UNL     1      -0.749 -21.104 -13.321  1.00  0.00     0.000 C 
BRANCH   3   4
ATOM      4  C   UNL     1       0.290 -21.066 -14.453  1.00  0.00     0.000 C 
BRANCH   4   5
ATOM      5  C   UNL     1       1.368 -19.994 -14.234  1.00  0.00     0.000 C 
BRANCH   5   6
ATOM      6  C   UNL     1       2.704 -20.635 -13.825  1.00  0.00     0.006 C 
BRANCH   6   7
ATOM      7  C   UNL     1       2.962 -20.527 -12.316  1.00  0.00     0.053 C 
BRANCH   7   8
ATOM      8  C   UNL     1       4.217 -21.240 -11.916  1.00  0.00     0.041 C 
ATOM      9  O   UNL     1       5.313 -20.953 -12.465  1.00  0.00    -0.550 OA
ATOM     10  O   UNL     1       4.179 -22.202 -10.914  1.00  0.00    -0.550 OA
ENDBRANCH   7   8
ENDBRANCH   6   7
ENDBRANCH   5   6
ENDBRANCH   4   5
ENDBRANCH   3   4
ENDBRANCH   2   3
ENDBRANCH   1   2
BRANCH   1  11
ATOM     11  C   UNL     1       0.395 -24.653 -13.212  1.00  0.00     0.000 C 
BRANCH  11  12
ATOM     12  C   UNL     1      -0.776 -24.782 -14.197  1.00  0.00    -0.000 C 
BRANCH  12  13
ATOM     13  C   UNL     1      -0.358 -24.538 -15.658  1.00  0.00    -0.000 C 
BRANCH  13  14
ATOM     14  C   UNL     1      -1.394 -23.786 -16.519  1.00  0.00    -0.000 C 
BRANCH  14  15
ATOM     15  C   UNL     1      -2.708 -24.545 -16.779  1.00  0.00    -0.000 C 
BRANCH  15  16
ATOM     16  C   UNL     1      -3.954 -23.665 -16.579  1.00  0.00    -0.000 C 
BRANCH  16  17
ATOM     17  C   UNL     1      -3.600 -22.227 -16.172  1.00  0.00    -0.003 C 
ATOM     18  C   UNL     1      -4.832 -21.334 -16.015  1.00  0.00     0.004 C 
ENDBRANCH  16  17
ENDBRANCH  15  16
ENDBRANCH  14  15
ENDBRANCH  13  14
ENDBRANCH  12  13
ENDBRANCH  11  12
ENDBRANCH   1  11
TORSDOF 14
ENDMDL
MODEL 9
REMARK VINA RESULT:    -4.095      1.437      3.524
REMARK INTER + INTRA:          -9.400
REMARK INTER:                  -7.234
REMARK INTRA:                  -2.167
REMARK UNBOUND:                -1.954
REMARK SMILES CCCCCCCCCCCCCCCC(=O)[O-]
REMARK SMILES IDX 9 1 10 2 11 3 12 4 13 5 14 6 15 7 16 8 17 9 18 10 8 11 7 12
REMARK SMILES IDX 6 13 5 14 4 15 3 16 2 17 1 18
REMARK H PARENT
REMARK Flexibility Score: inf
ROOT
ATOM      1  C   UNL     1      -0.271 -23.424 -10.767  1.00  0.00     0.000 C 
ENDROOT
BRANCH   1   2
ATOM      2  C   UNL     1      -0.447 -21.910 -10.962  1.00  0.00     0.000 C 
BRANCH   2   3
ATOM      3  C   UNL     1      -0.846 -21.541 -12.401  1.00  0.00     0.000 C 
BRANCH   3   4
ATOM      4  C   UNL     1       0.148 -20.574 -13.061  1.00  0.00     0.000 C 
BRANCH   4   5
ATOM      5  C   UNL     1       1.264 -21.300 -13.828  1.00  0.00     0.000 C 
BRANCH   5   6
ATOM      6  C   UNL     1       2.634 -20.670 -13.530  1.00  0.00     0.006 C 
BRANCH   6   7
ATOM      7  C   UNL     1       2.941 -20.629 -12.027  1.00  0.00     0.053 C 
BRANCH   7   8
ATOM      8  C   UNL     1       4.161 -21.428 -11.688  1.00  0.00     0.041 C 
ATOM      9  O   UNL     1       4.164 -22.191 -10.686  1.00  0.00    -0.550 OA
ATOM     10  O   UNL     1       5.287 -21.353 -12.498  1.00  0.00    -0.550 OA
ENDBRANCH   7   8
ENDBRANCH   6   7
ENDBRANCH   5   6
ENDBRANCH   4   5
ENDBRANCH   3   4
ENDBRANCH   2   3
ENDBRANCH   1   2
BRANCH   1  11
ATOM     11  C   UNL     1       1.152 -23.905 -11.091  1.00  0.00     0.000 C 
BRANCH  11  12
ATOM     12  C   UNL     1       1.123 -25.062 -12.100  1.00  0.00    -0.000 C 
BRANCH  12  13
ATOM     13  C   UNL     1      -0.048 -24.962 -13.093  1.00  0.00    -0.000 C 
BRANCH  13  14
ATOM     14  C   UNL     1       0.344 -25.069 -14.581  1.00  0.00    -0.000 C 
BRANCH  14  15
ATOM     15  C   UNL     1      -0.372 -24.084 -15.522  1.00  0.00    -0.000 C 
BRANCH  15  16
ATOM     16  C   UNL     1      -1.788 -24.549 -15.906  1.00  0.00    -0.000 C 
BRANCH  16  17
ATOM     17  C   UNL     1      -2.879 -23.597 -15.390  1.00  0.00    -0.003 C 
ATOM     18  C   UNL     1      -2.542 -22.124 -15.627  1.00  0.00     0.004 C 
ENDBRANCH  16  17
ENDBRANCH  15  16
ENDBRANCH  14  15
ENDBRANCH  13  14
ENDBRANCH  12  13
ENDBRANCH  11  12
ENDBRANCH   1  11
TORSDOF 14
ENDMDL
