MODEL 1
REMARK VINA RESULT:    -5.215      0.000      0.000
REMARK INTER + INTRA:          -6.738
REMARK INTER:                  -6.434
REMARK INTRA:                  -0.304
REMARK UNBOUND:                -0.304
REMARK SMILES CCOC(=O)c1ccc(O)c(O)c1
REMARK SMILES IDX 4 1 5 2 3 3 2 4 1 5 6 6 13 7 7 8 11 9 8 10 9 11 12 12 10 14
REMARK H PARENT 12 13 10 15
REMARK Flexibility Score: inf
ROOT
ATOM      1  C   UNL     1      12.305   9.828  12.921  1.00  0.00     0.338 C 
ATOM      2  O   UNL     1      13.239   9.402  13.656  1.00  0.00    -0.246 OA
ENDROOT
BRANCH   1   3
ATOM      3  O   UNL     1      12.587  10.313  11.637  1.00  0.00    -0.462 OA
BRANCH   3   4
ATOM      4  C   UNL     1      12.147  11.584  11.162  1.00  0.00     0.230 C 
ATOM      5  C   UNL     1      12.636  12.700  12.078  1.00  0.00     0.049 C 
ENDBRANCH   3   4
ENDBRANCH   1   3
BRANCH   1   6
ATOM      6  C   UNL     1      10.910   9.822  13.415  1.00  0.00     0.064 A 
ATOM      7  C   UNL     1      10.567  10.527  14.582  1.00  0.00     0.065 A 
ATOM      8  C   UNL     1       9.909   9.114  12.726  1.00  0.00     0.020 A 
ATOM      9  C   UNL     1       9.250  10.526  15.056  1.00  0.00     0.158 A 
ATOM     10  C   UNL     1       8.593   9.112  13.198  1.00  0.00     0.051 A 
ATOM     11  C   UNL     1       8.257   9.816  14.361  1.00  0.00     0.157 A 
BRANCH   9  12
ATOM     12  O   UNL     1       8.948  11.237  16.217  1.00  0.00    -0.504 OA
ATOM     13  H   UNL     1       8.236  11.958  16.237  1.00  0.00     0.293 HD
ENDBRANCH   9  12
BRANCH  11  14
ATOM     14  O   UNL     1       6.944   9.812  14.828  1.00  0.00    -0.504 OA
ATOM     15  H   UNL     1       6.404  10.666  14.900  1.00  0.00     0.293 HD
ENDBRANCH  11  14
ENDBRANCH   1   6
TORSDOF 5
ENDMDL
MODEL 2
REMARK VINA RESULT:    -5.195      1.534      2.343
REMARK INTER + INTRA:          -6.714
REMARK INTER:                  -6.404
REMARK INTRA:                  -0.310
REMARK UNBOUND:                -0.304
REMARK SMILES CCOC(=O)c1ccc(O)c(O)c1
REMARK SMILES IDX 4 1 5 2 3 3 2 4 1 5 6 6 13 7 7 8 11 9 8 10 9 11 12 12 10 14
REMARK H PARENT 12 13 10 15
REMARK Flexibility Score: inf
ROOT
ATOM      1  C   UNL     1      12.991  10.863  13.434  1.00  0.00     0.338 C 
ATOM      2  O   UNL     1      13.102  11.618  12.428  1.00  0.00    -0.246 OA
ENDROOT
BRANCH   1   3
ATOM      3  O   UNL     1      14.133  10.460  14.139  1.00  0.00    -0.462 OA
BRANCH   3   4
ATOM      4  C   UNL     1      14.540   9.098  14.264  1.00  0.00     0.230 C 
ATOM      5  C   UNL     1      14.868   8.509  12.897  1.00  0.00     0.049 C 
ENDBRANCH   3   4
ENDBRANCH   1   3
BRANCH   1   6
ATOM      6  C   UNL     1      11.656  10.398  13.869  1.00  0.00     0.064 A 
ATOM      7  C   UNL     1      11.262  10.528  15.212  1.00  0.00     0.065 A 
ATOM      8  C   UNL     1      10.762   9.823  12.948  1.00  0.00     0.020 A 
ATOM      9  C   UNL     1      10.000  10.091  15.632  1.00  0.00     0.158 A 
ATOM     10  C   UNL     1       9.501   9.386  13.365  1.00  0.00     0.051 A 
ATOM     11  C   UNL     1       9.114   9.517  14.705  1.00  0.00     0.157 A 
BRANCH   9  12
ATOM     12  O   UNL     1       9.645  10.236  16.973  1.00  0.00    -0.504 OA
ATOM     13  H   UNL     1       8.787  10.695  17.256  1.00  0.00     0.293 HD
ENDBRANCH   9  12
BRANCH  11  14
ATOM     14  O   UNL     1       7.856   9.080  15.117  1.00  0.00    -0.504 OA
ATOM     15  H   UNL     1       7.326   8.405  14.578  1.00  0.00     0.293 HD
ENDBRANCH  11  14
ENDBRANCH   1   6
TORSDOF 5
ENDMDL
MODEL 3
REMARK VINA RESULT:    -5.141      1.741      2.477
REMARK INTER + INTRA:          -6.646
REMARK INTER:                  -6.330
REMARK INTRA:                  -0.317
REMARK UNBOUND:                -0.304
REMARK SMILES CCOC(=O)c1ccc(O)c(O)c1
REMARK SMILES IDX 4 1 5 2 3 3 2 4 1 5 6 6 13 7 7 8 11 9 8 10 9 11 12 12 10 14
REMARK H PARENT 12 13 10 15
REMARK Flexibility Score: inf
ROOT
ATOM      1  C   UNL     1      13.516   9.817  13.561  1.00  0.00     0.338 C 
ATOM      2  O   UNL     1      14.594   9.808  14.217  1.00  0.00    -0.246 OA
ENDROOT
BRANCH   1   3
ATOM      3  O   UNL     1      13.501   9.383  12.229  1.00  0.00    -0.462 OA
BRANCH   3   4
ATOM      4  C   UNL     1      13.002  10.172  11.149  1.00  0.00     0.230 C 
ATOM      5  C   UNL     1      11.755   9.534  10.549  1.00  0.00     0.049 C 
ENDBRANCH   3   4
ENDBRANCH   1   3
BRANCH   1   6
ATOM      6  C   UNL     1      12.265  10.291  14.194  1.00  0.00     0.064 A 
ATOM      7  C   UNL     1      11.217   9.391  14.454  1.00  0.00     0.065 A 
ATOM      8  C   UNL     1      12.106  11.643  14.544  1.00  0.00     0.020 A 
ATOM      9  C   UNL     1      10.030   9.831  15.053  1.00  0.00     0.158 A 
ATOM     10  C   UNL     1      10.922  12.085  15.142  1.00  0.00     0.051 A 
ATOM     11  C   UNL     1       9.881  11.183  15.399  1.00  0.00     0.157 A 
BRANCH   9  12
ATOM     12  O   UNL     1       9.012   8.909  15.296  1.00  0.00    -0.504 OA
ATOM     13  H   UNL     1       8.666   8.723  16.230  1.00  0.00     0.293 HD
ENDBRANCH   9  12
BRANCH  11  14
ATOM     14  O   UNL     1       8.702  11.628  15.996  1.00  0.00    -0.504 OA
ATOM     15  H   UNL     1       7.885  11.866  15.445  1.00  0.00     0.293 HD
ENDBRANCH  11  14
ENDBRANCH   1   6
TORSDOF 5
ENDMDL
MODEL 4
REMARK VINA RESULT:    -5.089      1.438      2.692
REMARK INTER + INTRA:          -6.583
REMARK INTER:                  -6.277
REMARK INTRA:                  -0.306
REMARK UNBOUND:                -0.304
REMARK SMILES CCOC(=O)c1ccc(O)c(O)c1
REMARK SMILES IDX 4 1 5 2 3 3 2 4 1 5 6 6 13 7 7 8 11 9 8 10 9 11 12 12 10 14
REMARK H PARENT 12 13 10 15
REMARK Flexibility Score: inf
ROOT
ATOM      1  C   UNL     1      12.248   9.921  11.980  1.00  0.00     0.338 C 
ATOM      2  O   UNL     1      11.770   9.750  10.824  1.00  0.00    -0.246 OA
ENDROOT
BRANCH   1   3
ATOM      3  O   UNL     1      13.614   9.721  12.213  1.00  0.00    -0.462 OA
BRANCH   3   4
ATOM      4  C   UNL     1      14.122   8.914  13.274  1.00  0.00     0.230 C 
ATOM      5  C   UNL     1      14.668   9.786  14.398  1.00  0.00     0.049 C 
ENDBRANCH   3   4
ENDBRANCH   1   3
BRANCH   1   6
ATOM      6  C   UNL     1      11.364  10.330  13.094  1.00  0.00     0.064 A 
ATOM      7  C   UNL     1      10.359   9.463  13.558  1.00  0.00     0.065 A 
ATOM      8  C   UNL     1      11.516  11.587  13.706  1.00  0.00     0.020 A 
ATOM      9  C   UNL     1       9.519   9.842  14.612  1.00  0.00     0.158 A 
ATOM     10  C   UNL     1      10.679  11.968  14.759  1.00  0.00     0.051 A 
ATOM     11  C   UNL     1       9.679  11.100  15.216  1.00  0.00     0.157 A 
BRANCH   9  12
ATOM     12  O   UNL     1       8.534   8.955  15.045  1.00  0.00    -0.504 OA
ATOM     13  H   UNL     1       7.551   9.203  15.049  1.00  0.00     0.293 HD
ENDBRANCH   9  12
BRANCH  11  14
ATOM     14  O   UNL     1       8.846  11.483  16.267  1.00  0.00    -0.504 OA
ATOM     15  H   UNL     1       8.208  12.266  16.180  1.00  0.00     0.293 HD
ENDBRANCH  11  14
ENDBRANCH   1   6
TORSDOF 5
ENDMDL
MODEL 5
REMARK VINA RESULT:    -5.045      1.562      2.732
REMARK INTER + INTRA:          -6.529
REMARK INTER:                  -6.408
REMARK INTRA:                  -0.121
REMARK UNBOUND:                -0.304
REMARK SMILES CCOC(=O)c1ccc(O)c(O)c1
REMARK SMILES IDX 4 1 5 2 3 3 2 4 1 5 6 6 13 7 7 8 11 9 8 10 9 11 12 12 10 14
REMARK H PARENT 12 13 10 15
REMARK Flexibility Score: inf
ROOT
ATOM      1  C   UNL     1      12.182  10.393  13.560  1.00  0.00     0.338 C 
ATOM      2  O   UNL     1      12.571  11.501  13.098  1.00  0.00    -0.246 OA
ENDROOT
BRANCH   1   3
ATOM      3  O   UNL     1      13.109   9.375  13.820  1.00  0.00    -0.462 OA
BRANCH   3   4
ATOM      4  C   UNL     1      14.479   9.620  14.134  1.00  0.00     0.230 C 
ATOM      5  C   UNL     1      15.346   9.502  12.886  1.00  0.00     0.049 C 
ENDBRANCH   3   4
ENDBRANCH   1   3
BRANCH   1   6
ATOM      6  C   UNL     1      10.745  10.163  13.825  1.00  0.00     0.064 A 
ATOM      7  C   UNL     1       9.945   9.504  12.875  1.00  0.00     0.065 A 
ATOM      8  C   UNL     1      10.158  10.597  15.027  1.00  0.00     0.020 A 
ATOM      9  C   UNL     1       8.584   9.282  13.117  1.00  0.00     0.158 A 
ATOM     10  C   UNL     1       8.799  10.376  15.271  1.00  0.00     0.051 A 
ATOM     11  C   UNL     1       8.007   9.719  14.320  1.00  0.00     0.157 A 
BRANCH   9  12
ATOM     12  O   UNL     1       7.823   8.625  12.151  1.00  0.00    -0.504 OA
ATOM     13  H   UNL     1       8.246   8.047  11.433  1.00  0.00     0.293 HD
ENDBRANCH   9  12
BRANCH  11  14
ATOM     14  O   UNL     1       6.653   9.501  14.568  1.00  0.00    -0.504 OA
ATOM     15  H   UNL     1       6.028   9.167  13.843  1.00  0.00     0.293 HD
ENDBRANCH  11  14
ENDBRANCH   1   6
TORSDOF 5
ENDMDL
MODEL 6
REMARK VINA RESULT:    -5.015      1.973      2.563
REMARK INTER + INTRA:          -6.492
REMARK INTER:                  -6.185
REMARK INTRA:                  -0.307
REMARK UNBOUND:                -0.304
REMARK SMILES CCOC(=O)c1ccc(O)c(O)c1
REMARK SMILES IDX 4 1 5 2 3 3 2 4 1 5 6 6 13 7 7 8 11 9 8 10 9 11 12 12 10 14
REMARK H PARENT 12 13 10 15
REMARK Flexibility Score: inf
ROOT
ATOM      1  C   UNL     1      13.906   9.115  13.116  1.00  0.00     0.338 C 
ATOM      2  O   UNL     1      14.805   8.522  13.775  1.00  0.00    -0.246 OA
ENDROOT
BRANCH   1   3
ATOM      3  O   UNL     1      13.948   9.119  11.716  1.00  0.00    -0.462 OA
BRANCH   3   4
ATOM      4  C   UNL     1      13.710  10.282  10.925  1.00  0.00     0.230 C 
ATOM      5  C   UNL     1      14.897  11.235  11.001  1.00  0.00     0.049 C 
ENDBRANCH   3   4
ENDBRANCH   1   3
BRANCH   1   6
ATOM      6  C   UNL     1      12.809   9.814  13.821  1.00  0.00     0.064 A 
ATOM      7  C   UNL     1      13.086  10.910  14.656  1.00  0.00     0.065 A 
ATOM      8  C   UNL     1      11.476   9.394  13.667  1.00  0.00     0.020 A 
ATOM      9  C   UNL     1      12.054  11.577  15.327  1.00  0.00     0.158 A 
ATOM     10  C   UNL     1      10.443  10.058  14.336  1.00  0.00     0.051 A 
ATOM     11  C   UNL     1      10.726  11.150  15.167  1.00  0.00     0.157 A 
BRANCH   9  12
ATOM     12  O   UNL     1      12.368  12.660  16.147  1.00  0.00    -0.504 OA
ATOM     13  H   UNL     1      13.249  13.156  16.070  1.00  0.00     0.293 HD
ENDBRANCH   9  12
BRANCH  11  14
ATOM     14  O   UNL     1       9.693  11.810  15.832  1.00  0.00    -0.504 OA
ATOM     15  H   UNL     1       9.812  12.170  16.771  1.00  0.00     0.293 HD
ENDBRANCH  11  14
ENDBRANCH   1   6
TORSDOF 5
ENDMDL
MODEL 7
REMARK VINA RESULT:    -4.921      2.000      2.910
REMARK INTER + INTRA:          -6.376
REMARK INTER:                  -6.051
REMARK INTRA:                  -0.325
REMARK UNBOUND:                -0.304
REMARK SMILES CCOC(=O)c1ccc(O)c(O)c1
REMARK SMILES IDX 4 1 5 2 3 3 2 4 1 5 6 6 13 7 7 8 11 9 8 10 9 11 12 12 10 14
REMARK H PARENT 12 13 10 15
REMARK Flexibility Score: inf
ROOT
ATOM      1  C   UNL     1      12.310  11.085  11.454  1.00  0.00     0.338 C 
ATOM      2  O   UNL     1      11.888  12.081  10.803  1.00  0.00    -0.246 OA
ENDROOT
BRANCH   1   3
ATOM      3  O   UNL     1      13.215  10.192  10.865  1.00  0.00    -0.462 OA
BRANCH   3   4
ATOM      4  C   UNL     1      14.566  10.043  11.296  1.00  0.00     0.230 C 
ATOM      5  C   UNL     1      14.740   8.745  12.076  1.00  0.00     0.049 C 
ENDBRANCH   3   4
ENDBRANCH   1   3
BRANCH   1   6
ATOM      6  C   UNL     1      11.847  10.855  12.840  1.00  0.00     0.064 A 
ATOM      7  C   UNL     1      12.238  11.725  13.873  1.00  0.00     0.065 A 
ATOM      8  C   UNL     1      11.010   9.767  13.145  1.00  0.00     0.020 A 
ATOM      9  C   UNL     1      11.804  11.514  15.187  1.00  0.00     0.158 A 
ATOM     10  C   UNL     1      10.575   9.554  14.456  1.00  0.00     0.051 A 
ATOM     11  C   UNL     1      10.968  10.424  15.482  1.00  0.00     0.157 A 
BRANCH   9  12
ATOM     12  O   UNL     1      12.213  12.398  16.185  1.00  0.00    -0.504 OA
ATOM     13  H   UNL     1      11.596  12.685  16.936  1.00  0.00     0.293 HD
ENDBRANCH   9  12
BRANCH  11  14
ATOM     14  O   UNL     1      10.532  10.209  16.788  1.00  0.00    -0.504 OA
ATOM     15  H   UNL     1      10.717   9.339  17.273  1.00  0.00     0.293 HD
ENDBRANCH  11  14
ENDBRANCH   1   6
TORSDOF 5
ENDMDL
MODEL 8
REMARK VINA RESULT:    -4.744      1.518      4.883
REMARK INTER + INTRA:          -6.157
REMARK INTER:                  -5.895
REMARK INTRA:                  -0.262
REMARK UNBOUND:                -0.304
REMARK SMILES CCOC(=O)c1ccc(O)c(O)c1
REMARK SMILES IDX 4 1 5 2 3 3 2 4 1 5 6 6 13 7 7 8 11 9 8 10 9 11 12 12 10 14
REMARK H PARENT 12 13 10 15
REMARK Flexibility Score: inf
ROOT
ATOM      1  C   UNL     1       9.734  10.814  15.052  1.00  0.00     0.338 C 
ATOM      2  O   UNL     1       9.319  11.917  15.502  1.00  0.00    -0.246 OA
ENDROOT
BRANCH   1   3
ATOM      3  O   UNL     1       8.912   9.680  15.102  1.00  0.00    -0.462 OA
BRANCH   3   4
ATOM      4  C   UNL     1       7.794   9.480  14.240  1.00  0.00     0.230 C 
ATOM      5  C   UNL     1       8.252   9.008  12.865  1.00  0.00     0.049 C 
ENDBRANCH   3   4
ENDBRANCH   1   3
BRANCH   1   6
ATOM      6  C   UNL     1      11.092  10.713  14.473  1.00  0.00     0.064 A 
ATOM      7  C   UNL     1      12.192  10.409  15.293  1.00  0.00     0.065 A 
ATOM      8  C   UNL     1      11.302  10.918  13.097  1.00  0.00     0.020 A 
ATOM      9  C   UNL     1      13.481  10.311  14.754  1.00  0.00     0.158 A 
ATOM     10  C   UNL     1      12.588  10.821  12.556  1.00  0.00     0.051 A 
ATOM     11  C   UNL     1      13.680  10.518  13.379  1.00  0.00     0.157 A 
BRANCH   9  12
ATOM     12  O   UNL     1      14.547  10.008  15.599  1.00  0.00    -0.504 OA
ATOM     13  H   UNL     1      14.494   9.267  16.289  1.00  0.00     0.293 HD
ENDBRANCH   9  12
BRANCH  11  14
ATOM     14  O   UNL     1      14.961  10.421  12.835  1.00  0.00    -0.504 OA
ATOM     15  H   UNL     1      15.109  10.359  11.835  1.00  0.00     0.293 HD
ENDBRANCH  11  14
ENDBRANCH   1   6
TORSDOF 5
ENDMDL
MODEL 9
REMARK VINA RESULT:    -3.256      1.271      2.270
REMARK INTER + INTRA:          -4.321
REMARK INTER:                  -4.016
REMARK INTRA:                  -0.305
REMARK UNBOUND:                -0.304
REMARK SMILES CCOC(=O)c1ccc(O)c(O)c1
REMARK SMILES IDX 4 1 5 2 3 3 2 4 1 5 6 6 13 7 7 8 11 9 8 10 9 11 12 12 10 14
REMARK H PARENT 12 13 10 15
REMARK Flexibility Score: inf
ROOT
ATOM      1  C   UNL     1      11.323   9.896  11.576  1.00  0.00     0.338 C 
ATOM      2  O   UNL     1      10.785   9.064  10.794  1.00  0.00    -0.246 OA
ENDROOT
BRANCH   1   3
ATOM      3  O   UNL     1      12.326  10.754  11.108  1.00  0.00    -0.462 OA
BRANCH   3   4
ATOM      4  C   UNL     1      12.065  12.048  10.566  1.00  0.00     0.230 C 
ATOM      5  C   UNL     1      12.272  13.125  11.625  1.00  0.00     0.049 C 
ENDBRANCH   3   4
ENDBRANCH   1   3
BRANCH   1   6
ATOM      6  C   UNL     1      10.899   9.964  12.992  1.00  0.00     0.064 A 
ATOM      7  C   UNL     1       9.564   9.705  13.347  1.00  0.00     0.065 A 
ATOM      8  C   UNL     1      11.823  10.287  14.002  1.00  0.00     0.020 A 
ATOM      9  C   UNL     1       9.154   9.767  14.684  1.00  0.00     0.158 A 
ATOM     10  C   UNL     1      11.416  10.350  15.339  1.00  0.00     0.051 A 
ATOM     11  C   UNL     1      10.084  10.091  15.686  1.00  0.00     0.157 A 
BRANCH   9  12
ATOM     12  O   UNL     1       7.821   9.503  14.997  1.00  0.00    -0.504 OA
ATOM     13  H   UNL     1       7.541   8.672  15.505  1.00  0.00     0.293 HD
ENDBRANCH   9  12
BRANCH  11  14
ATOM     14  O   UNL     1       9.683  10.154  17.020  1.00  0.00    -0.504 OA
ATOM     15  H   UNL     1       8.709  10.269  17.276  1.00  0.00     0.293 HD
ENDBRANCH  11  14
ENDBRANCH   1   6
TORSDOF 5
ENDMDL
