MODEL 1
REMARK VINA RESULT:    -4.847      0.000      0.000
REMARK INTER + INTRA:          -8.182
REMARK INTER:                  -7.397
REMARK INTRA:                  -0.785
REMARK UNBOUND:                -0.785
REMARK SMILES C=CCCCCCCCCCC
REMARK SMILES IDX 7 1 8 2 9 3 10 4 11 5 12 6 6 7 5 8 4 9 3 10 2 11 1 12
REMARK H PARENT
REMARK Flexibility Score: inf
ROOT
ATOM      1  C   UNL     1       2.842  13.416   5.860  1.00  0.00     0.000 C 
ENDROOT
BRANCH   1   2
ATOM      2  C   UNL     1       1.434  13.490   6.464  1.00  0.00    -0.000 C 
BRANCH   2   3
ATOM      3  C   UNL     1       0.393  13.845   5.392  1.00  0.00    -0.000 C 
BRANCH   3   4
ATOM      4  C   UNL     1      -1.007  13.305   5.722  1.00  0.00    -0.000 C 
BRANCH   4   5
ATOM      5  C   UNL     1      -1.032  11.776   5.865  1.00  0.00    -0.003 C 
ATOM      6  C   UNL     1      -1.681  11.359   7.181  1.00  0.00     0.004 C 
ENDBRANCH   4   5
ENDBRANCH   3   4
ENDBRANCH   2   3
ENDBRANCH   1   2
BRANCH   1   7
ATOM      7  C   UNL     1       2.827  12.675   4.518  1.00  0.00     0.000 C 
BRANCH   7   8
ATOM      8  C   UNL     1       4.064  13.023   3.683  1.00  0.00     0.000 C 
BRANCH   8   9
ATOM      9  C   UNL     1       3.997  14.466   3.170  1.00  0.00     0.004 C 
BRANCH   9  10
ATOM     10  C   UNL     1       2.680  14.726   2.429  1.00  0.00     0.027 C 
BRANCH  10  11
ATOM     11  C   UNL     1       2.745  16.002   1.635  1.00  0.00    -0.035 C 
ATOM     12  C   UNL     1       3.777  16.845   1.740  1.00  0.00     0.004 C 
ENDBRANCH  10  11
ENDBRANCH   9  10
ENDBRANCH   8   9
ENDBRANCH   7   8
ENDBRANCH   1   7
TORSDOF 9
ENDMDL
MODEL 2
REMARK VINA RESULT:    -4.819      0.964      1.743
REMARK INTER + INTRA:          -8.139
REMARK INTER:                  -7.268
REMARK INTRA:                  -0.871
REMARK UNBOUND:                -0.785
REMARK SMILES C=CCCCCCCCCCC
REMARK SMILES IDX 7 1 8 2 9 3 10 4 11 5 12 6 6 7 5 8 4 9 3 10 2 11 1 12
REMARK H PARENT
REMARK Flexibility Score: inf
ROOT
ATOM      1  C   UNL     1       2.387  12.200   4.321  1.00  0.00     0.000 C 
ENDROOT
BRANCH   1   2
ATOM      2  C   UNL     1       2.627  13.214   5.446  1.00  0.00    -0.000 C 
BRANCH   2   3
ATOM      3  C   UNL     1       1.524  13.125   6.511  1.00  0.00    -0.000 C 
BRANCH   3   4
ATOM      4  C   UNL     1       0.248  13.879   6.107  1.00  0.00    -0.000 C 
BRANCH   4   5
ATOM      5  C   UNL     1      -0.872  12.938   5.639  1.00  0.00    -0.003 C 
ATOM      6  C   UNL     1      -0.975  11.715   6.545  1.00  0.00     0.004 C 
ENDBRANCH   4   5
ENDBRANCH   3   4
ENDBRANCH   2   3
ENDBRANCH   1   2
BRANCH   1   7
ATOM      7  C   UNL     1       2.459  12.874   2.946  1.00  0.00     0.000 C 
BRANCH   7   8
ATOM      8  C   UNL     1       1.202  13.708   2.675  1.00  0.00     0.000 C 
BRANCH   8   9
ATOM      9  C   UNL     1       1.552  15.016   1.955  1.00  0.00     0.004 C 
BRANCH   9  10
ATOM     10  C   UNL     1       3.045  15.337   2.089  1.00  0.00     0.027 C 
BRANCH  10  11
ATOM     11  C   UNL     1       3.374  16.669   1.473  1.00  0.00    -0.035 C 
ATOM     12  C   UNL     1       4.335  17.455   1.967  1.00  0.00     0.004 C 
ENDBRANCH  10  11
ENDBRANCH   9  10
ENDBRANCH   8   9
ENDBRANCH   7   8
ENDBRANCH   1   7
TORSDOF 9
ENDMDL
MODEL 3
REMARK VINA RESULT:    -4.751      1.608      2.549
REMARK INTER + INTRA:          -8.035
REMARK INTER:                  -6.878
REMARK INTRA:                  -1.157
REMARK UNBOUND:                -0.785
REMARK SMILES C=CCCCCCCCCCC
REMARK SMILES IDX 7 1 8 2 9 3 10 4 11 5 12 6 6 7 5 8 4 9 3 10 2 11 1 12
REMARK H PARENT
REMARK Flexibility Score: inf
ROOT
ATOM      1  C   UNL     1       3.254  12.746   4.644  1.00  0.00     0.000 C 
ENDROOT
BRANCH   1   2
ATOM      2  C   UNL     1       3.030  13.688   5.834  1.00  0.00    -0.000 C 
BRANCH   2   3
ATOM      3  C   UNL     1       1.770  13.292   6.618  1.00  0.00    -0.000 C 
BRANCH   3   4
ATOM      4  C   UNL     1       0.476  13.552   5.832  1.00  0.00    -0.000 C 
BRANCH   4   5
ATOM      5  C   UNL     1      -0.227  12.256   5.404  1.00  0.00    -0.003 C 
ATOM      6  C   UNL     1      -1.179  11.763   6.490  1.00  0.00     0.004 C 
ENDBRANCH   4   5
ENDBRANCH   3   4
ENDBRANCH   2   3
ENDBRANCH   1   2
BRANCH   1   7
ATOM      7  C   UNL     1       4.074  13.432   3.546  1.00  0.00     0.000 C 
BRANCH   7   8
ATOM      8  C   UNL     1       3.215  14.422   2.752  1.00  0.00     0.000 C 
BRANCH   8   9
ATOM      9  C   UNL     1       1.882  13.787   2.338  1.00  0.00     0.004 C 
BRANCH   9  10
ATOM     10  C   UNL     1       0.782  14.848   2.213  1.00  0.00     0.027 C 
BRANCH  10  11
ATOM     11  C   UNL     1      -0.582  14.216   2.176  1.00  0.00    -0.035 C 
ATOM     12  C   UNL     1      -1.655  14.826   2.689  1.00  0.00     0.004 C 
ENDBRANCH  10  11
ENDBRANCH   9  10
ENDBRANCH   8   9
ENDBRANCH   7   8
ENDBRANCH   1   7
TORSDOF 9
ENDMDL
MODEL 4
REMARK VINA RESULT:    -4.741      0.399      5.849
REMARK INTER + INTRA:          -8.020
REMARK INTER:                  -7.194
REMARK INTRA:                  -0.826
REMARK UNBOUND:                -0.785
REMARK SMILES C=CCCCCCCCCCC
REMARK SMILES IDX 7 1 8 2 9 3 10 4 11 5 12 6 6 7 5 8 4 9 3 10 2 11 1 12
REMARK H PARENT
REMARK Flexibility Score: inf
ROOT
ATOM      1  C   UNL     1       2.746  12.679   4.286  1.00  0.00     0.000 C 
ENDROOT
BRANCH   1   2
ATOM      2  C   UNL     1       4.043  13.000   3.532  1.00  0.00    -0.000 C 
BRANCH   2   3
ATOM      3  C   UNL     1       4.099  14.485   3.144  1.00  0.00    -0.000 C 
BRANCH   3   4
ATOM      4  C   UNL     1       2.849  14.946   2.379  1.00  0.00    -0.000 C 
BRANCH   4   5
ATOM      5  C   UNL     1       3.150  16.072   1.379  1.00  0.00    -0.003 C 
ATOM      6  C   UNL     1       4.104  17.100   1.981  1.00  0.00     0.004 C 
ENDBRANCH   4   5
ENDBRANCH   3   4
ENDBRANCH   2   3
ENDBRANCH   1   2
BRANCH   1   7
ATOM      7  C   UNL     1       2.799  13.211   5.723  1.00  0.00     0.000 C 
BRANCH   7   8
ATOM      8  C   UNL     1       1.411  13.653   6.198  1.00  0.00     0.000 C 
BRANCH   8   9
ATOM      9  C   UNL     1       0.432  13.758   5.023  1.00  0.00     0.004 C 
BRANCH   9  10
ATOM     10  C   UNL     1      -0.839  12.942   5.290  1.00  0.00     0.027 C 
BRANCH  10  11
ATOM     11  C   UNL     1      -0.671  12.048   6.487  1.00  0.00    -0.035 C 
ATOM     12  C   UNL     1      -1.697  11.369   7.008  1.00  0.00     0.004 C 
ENDBRANCH  10  11
ENDBRANCH   9  10
ENDBRANCH   8   9
ENDBRANCH   7   8
ENDBRANCH   1   7
TORSDOF 9
ENDMDL
MODEL 5
REMARK VINA RESULT:    -4.649      1.083      5.808
REMARK INTER + INTRA:          -7.880
REMARK INTER:                  -6.973
REMARK INTRA:                  -0.907
REMARK UNBOUND:                -0.785
REMARK SMILES C=CCCCCCCCCCC
REMARK SMILES IDX 7 1 8 2 9 3 10 4 11 5 12 6 6 7 5 8 4 9 3 10 2 11 1 12
REMARK H PARENT
REMARK Flexibility Score: inf
ROOT
ATOM      1  C   UNL     1       2.513  12.941   2.877  1.00  0.00     0.000 C 
ENDROOT
BRANCH   1   2
ATOM      2  C   UNL     1       1.277  13.769   2.502  1.00  0.00    -0.000 C 
BRANCH   2   3
ATOM      3  C   UNL     1       1.672  15.005   1.680  1.00  0.00    -0.000 C 
BRANCH   3   4
ATOM      4  C   UNL     1       3.006  15.617   2.134  1.00  0.00    -0.000 C 
BRANCH   4   5
ATOM      5  C   UNL     1       3.548  16.656   1.142  1.00  0.00    -0.003 C 
ATOM      6  C   UNL     1       2.816  16.572  -0.194  1.00  0.00     0.004 C 
ENDBRANCH   4   5
ENDBRANCH   3   4
ENDBRANCH   2   3
ENDBRANCH   1   2
BRANCH   1   7
ATOM      7  C   UNL     1       2.358  12.322   4.271  1.00  0.00     0.000 C 
BRANCH   7   8
ATOM      8  C   UNL     1       2.486  13.387   5.365  1.00  0.00     0.000 C 
BRANCH   8   9
ATOM      9  C   UNL     1       1.388  13.227   6.423  1.00  0.00     0.004 C 
BRANCH   9  10
ATOM     10  C   UNL     1       0.066  13.838   5.942  1.00  0.00     0.027 C 
BRANCH  10  11
ATOM     11  C   UNL     1      -1.020  12.801   5.874  1.00  0.00    -0.035 C 
ATOM     12  C   UNL     1      -0.962  11.672   6.586  1.00  0.00     0.004 C 
ENDBRANCH  10  11
ENDBRANCH   9  10
ENDBRANCH   8   9
ENDBRANCH   7   8
ENDBRANCH   1   7
TORSDOF 9
ENDMDL
MODEL 6
REMARK VINA RESULT:    -4.576      1.845      4.954
REMARK INTER + INTRA:          -7.768
REMARK INTER:                  -6.713
REMARK INTRA:                  -1.055
REMARK UNBOUND:                -0.785
REMARK SMILES C=CCCCCCCCCCC
REMARK SMILES IDX 7 1 8 2 9 3 10 4 11 5 12 6 6 7 5 8 4 9 3 10 2 11 1 12
REMARK H PARENT
REMARK Flexibility Score: inf
ROOT
ATOM      1  C   UNL     1       2.658  12.773   2.832  1.00  0.00     0.000 C 
ENDROOT
BRANCH   1   2
ATOM      2  C   UNL     1       2.697  14.307   2.831  1.00  0.00    -0.000 C 
BRANCH   2   3
ATOM      3  C   UNL     1       1.590  14.884   1.936  1.00  0.00    -0.000 C 
BRANCH   3   4
ATOM      4  C   UNL     1       0.181  14.509   2.419  1.00  0.00    -0.000 C 
BRANCH   4   5
ATOM      5  C   UNL     1      -0.762  14.140   1.264  1.00  0.00    -0.003 C 
ATOM      6  C   UNL     1       0.020  13.603   0.069  1.00  0.00     0.004 C 
ENDBRANCH   4   5
ENDBRANCH   3   4
ENDBRANCH   2   3
ENDBRANCH   1   2
BRANCH   1   7
ATOM      7  C   UNL     1       2.454  12.229   4.250  1.00  0.00     0.000 C 
BRANCH   7   8
ATOM      8  C   UNL     1       2.654  13.330   5.298  1.00  0.00     0.000 C 
BRANCH   8   9
ATOM      9  C   UNL     1       1.642  13.195   6.441  1.00  0.00     0.004 C 
BRANCH   9  10
ATOM     10  C   UNL     1       0.254  13.684   6.009  1.00  0.00     0.027 C 
BRANCH  10  11
ATOM     11  C   UNL     1      -0.635  12.532   5.630  1.00  0.00    -0.035 C 
ATOM     12  C   UNL     1      -1.120  11.686   6.544  1.00  0.00     0.004 C 
ENDBRANCH  10  11
ENDBRANCH   9  10
ENDBRANCH   8   9
ENDBRANCH   7   8
ENDBRANCH   1   7
TORSDOF 9
ENDMDL
MODEL 7
REMARK VINA RESULT:    -4.531      2.166      3.494
REMARK INTER + INTRA:          -7.701
REMARK INTER:                  -6.630
REMARK INTRA:                  -1.070
REMARK UNBOUND:                -0.785
REMARK SMILES C=CCCCCCCCCCC
REMARK SMILES IDX 7 1 8 2 9 3 10 4 11 5 12 6 6 7 5 8 4 9 3 10 2 11 1 12
REMARK H PARENT
REMARK Flexibility Score: inf
ROOT
ATOM      1  C   UNL     1       0.002  12.331   6.181  1.00  0.00     0.000 C 
ENDROOT
BRANCH   1   2
ATOM      2  C   UNL     1      -1.451  12.825   6.158  1.00  0.00    -0.000 C 
BRANCH   2   3
ATOM      3  C   UNL     1      -1.509  14.359   6.111  1.00  0.00    -0.000 C 
BRANCH   3   4
ATOM      4  C   UNL     1      -2.931  14.904   6.311  1.00  0.00    -0.000 C 
BRANCH   4   5
ATOM      5  C   UNL     1      -3.074  16.364   5.856  1.00  0.00    -0.003 C 
ATOM      6  C   UNL     1      -3.577  16.443   4.417  1.00  0.00     0.004 C 
ENDBRANCH   4   5
ENDBRANCH   3   4
ENDBRANCH   2   3
ENDBRANCH   1   2
BRANCH   1   7
ATOM      7  C   UNL     1       0.976  13.496   6.395  1.00  0.00     0.000 C 
BRANCH   7   8
ATOM      8  C   UNL     1       2.229  13.331   5.529  1.00  0.00     0.000 C 
BRANCH   8   9
ATOM      9  C   UNL     1       1.930  12.498   4.277  1.00  0.00     0.004 C 
BRANCH   9  10
ATOM     10  C   UNL     1       2.194  13.306   3.001  1.00  0.00     0.027 C 
BRANCH  10  11
ATOM     11  C   UNL     1       1.234  14.456   2.876  1.00  0.00    -0.035 C 
ATOM     12  C   UNL     1      -0.074  14.263   2.680  1.00  0.00     0.004 C 
ENDBRANCH  10  11
ENDBRANCH   9  10
ENDBRANCH   8   9
ENDBRANCH   7   8
ENDBRANCH   1   7
TORSDOF 9
ENDMDL
MODEL 8
REMARK VINA RESULT:    -4.529      1.971      4.919
REMARK INTER + INTRA:          -7.697
REMARK INTER:                  -6.530
REMARK INTRA:                  -1.167
REMARK UNBOUND:                -0.785
REMARK SMILES C=CCCCCCCCCCC
REMARK SMILES IDX 7 1 8 2 9 3 10 4 11 5 12 6 6 7 5 8 4 9 3 10 2 11 1 12
REMARK H PARENT
REMARK Flexibility Score: inf
ROOT
ATOM      1  C   UNL     1       3.408  14.284   3.119  1.00  0.00     0.000 C 
ENDROOT
BRANCH   1   2
ATOM      2  C   UNL     1       2.470  14.881   2.061  1.00  0.00    -0.000 C 
BRANCH   2   3
ATOM      3  C   UNL     1       1.026  14.403   2.275  1.00  0.00    -0.000 C 
BRANCH   3   4
ATOM      4  C   UNL     1       0.340  13.985   0.965  1.00  0.00    -0.000 C 
BRANCH   4   5
ATOM      5  C   UNL     1       1.265  13.173   0.047  1.00  0.00    -0.003 C 
ATOM      6  C   UNL     1       0.468  12.466  -1.046  1.00  0.00     0.004 C 
ENDBRANCH   4   5
ENDBRANCH   3   4
ENDBRANCH   2   3
ENDBRANCH   1   2
BRANCH   1   7
ATOM      7  C   UNL     1       3.304  12.755   3.147  1.00  0.00     0.000 C 
BRANCH   7   8
ATOM      8  C   UNL     1       2.927  12.254   4.546  1.00  0.00     0.000 C 
BRANCH   8   9
ATOM      9  C   UNL     1       2.895  13.407   5.556  1.00  0.00     0.004 C 
BRANCH   9  10
ATOM     10  C   UNL     1       1.575  13.420   6.335  1.00  0.00     0.027 C 
BRANCH  10  11
ATOM     11  C   UNL     1       0.496  12.683   5.592  1.00  0.00    -0.035 C 
ATOM     12  C   UNL     1      -0.717  13.211   5.404  1.00  0.00     0.004 C 
ENDBRANCH  10  11
ENDBRANCH   9  10
ENDBRANCH   8   9
ENDBRANCH   7   8
ENDBRANCH   1   7
TORSDOF 9
ENDMDL
MODEL 9
REMARK VINA RESULT:    -4.518      1.215      5.233
REMARK INTER + INTRA:          -7.680
REMARK INTER:                  -6.727
REMARK INTRA:                  -0.953
REMARK UNBOUND:                -0.785
REMARK SMILES C=CCCCCCCCCCC
REMARK SMILES IDX 7 1 8 2 9 3 10 4 11 5 12 6 6 7 5 8 4 9 3 10 2 11 1 12
REMARK H PARENT
REMARK Flexibility Score: inf
ROOT
ATOM      1  C   UNL     1       2.719  12.469   4.741  1.00  0.00     0.000 C 
ENDROOT
BRANCH   1   2
ATOM      2  C   UNL     1       3.871  12.976   3.864  1.00  0.00    -0.000 C 
BRANCH   2   3
ATOM      3  C   UNL     1       3.428  14.176   3.014  1.00  0.00    -0.000 C 
BRANCH   3   4
ATOM      4  C   UNL     1       2.095  13.929   2.290  1.00  0.00    -0.000 C 
BRANCH   4   5
ATOM      5  C   UNL     1       1.452  15.226   1.778  1.00  0.00    -0.003 C 
ATOM      6  C   UNL     1       2.512  16.206   1.282  1.00  0.00     0.004 C 
ENDBRANCH   4   5
ENDBRANCH   3   4
ENDBRANCH   2   3
ENDBRANCH   1   2
BRANCH   1   7
ATOM      7  C   UNL     1       2.506  13.383   5.953  1.00  0.00     0.000 C 
BRANCH   7   8
ATOM      8  C   UNL     1       1.059  13.308   6.452  1.00  0.00     0.000 C 
BRANCH   8   9
ATOM      9  C   UNL     1       0.126  12.766   5.362  1.00  0.00     0.004 C 
BRANCH   9  10
ATOM     10  C   UNL     1      -0.850  13.848   4.884  1.00  0.00     0.027 C 
BRANCH  10  11
ATOM     11  C   UNL     1      -1.588  14.464   6.040  1.00  0.00    -0.035 C 
ATOM     12  C   UNL     1      -2.813  14.979   5.899  1.00  0.00     0.004 C 
ENDBRANCH  10  11
ENDBRANCH   9  10
ENDBRANCH   8   9
ENDBRANCH   7   8
ENDBRANCH   1   7
TORSDOF 9
ENDMDL
