MODEL 1
REMARK VINA RESULT:    -3.892      0.000      0.000
REMARK INTER + INTRA:          -4.933
REMARK INTER:                  -4.802
REMARK INTRA:                  -0.131
REMARK UNBOUND:                -0.131
REMARK SMILES CCCCCC(=O)[O-]
REMARK SMILES IDX 4 1 5 2 6 3 7 4 8 5 3 6 2 7 1 8
REMARK H PARENT
REMARK Flexibility Score: inf
ROOT
ATOM      1  C   UNL     1       7.582   7.063   7.365  1.00  0.00     0.006 C 
ENDROOT
BRANCH   1   2
ATOM      2  C   UNL     1       7.915   7.721   6.017  1.00  0.00     0.053 C 
BRANCH   2   3
ATOM      3  C   UNL     1       6.727   7.764   5.106  1.00  0.00     0.041 C 
ATOM      4  O   UNL     1       6.128   8.852   4.895  1.00  0.00    -0.550 OA
ATOM      5  O   UNL     1       6.302   6.609   4.464  1.00  0.00    -0.550 OA
ENDBRANCH   2   3
ENDBRANCH   1   2
BRANCH   1   6
ATOM      6  C   UNL     1       8.728   6.222   7.958  1.00  0.00     0.000 C 
BRANCH   6   7
ATOM      7  C   UNL     1       8.266   4.836   8.431  1.00  0.00    -0.003 C 
ATOM      8  C   UNL     1       6.995   4.403   7.706  1.00  0.00     0.004 C 
ENDBRANCH   6   7
ENDBRANCH   1   6
TORSDOF 4
ENDMDL
MODEL 2
REMARK VINA RESULT:    -3.877      8.458      9.164
REMARK INTER + INTRA:          -4.914
REMARK INTER:                  -4.780
REMARK INTRA:                  -0.134
REMARK UNBOUND:                -0.131
REMARK SMILES CCCCCC(=O)[O-]
REMARK SMILES IDX 4 1 5 2 6 3 7 4 8 5 3 6 2 7 1 8
REMARK H PARENT
REMARK Flexibility Score: inf
ROOT
ATOM      1  C   UNL     1       0.588   6.218  11.838  1.00  0.00     0.006 C 
ENDROOT
BRANCH   1   2
ATOM      2  C   UNL     1      -0.828   5.785  11.428  1.00  0.00     0.053 C 
BRANCH   2   3
ATOM      3  C   UNL     1      -0.994   5.748   9.940  1.00  0.00     0.041 C 
ATOM      4  O   UNL     1      -0.736   4.695   9.299  1.00  0.00    -0.550 OA
ATOM      5  O   UNL     1      -1.466   6.866   9.266  1.00  0.00    -0.550 OA
ENDBRANCH   2   3
ENDBRANCH   1   2
BRANCH   1   6
ATOM      6  C   UNL     1       0.635   7.135  13.074  1.00  0.00     0.000 C 
BRANCH   6   7
ATOM      7  C   UNL     1       1.362   8.460  12.806  1.00  0.00    -0.003 C 
ATOM      8  C   UNL     1       1.253   8.859  11.337  1.00  0.00     0.004 C 
ENDBRANCH   6   7
ENDBRANCH   1   6
TORSDOF 4
ENDMDL
MODEL 3
REMARK VINA RESULT:    -3.781      8.533      9.334
REMARK INTER + INTRA:          -4.796
REMARK INTER:                  -4.706
REMARK INTRA:                  -0.090
REMARK UNBOUND:                -0.131
REMARK SMILES CCCCCC(=O)[O-]
REMARK SMILES IDX 4 1 5 2 6 3 7 4 8 5 3 6 2 7 1 8
REMARK H PARENT
REMARK Flexibility Score: inf
ROOT
ATOM      1  C   UNL     1       0.760   6.526  11.199  1.00  0.00     0.006 C 
ENDROOT
BRANCH   1   2
ATOM      2  C   UNL     1      -0.533   5.918  11.765  1.00  0.00     0.053 C 
BRANCH   2   3
ATOM      3  C   UNL     1      -1.000   4.745  10.960  1.00  0.00     0.041 C 
ATOM      4  O   UNL     1      -1.751   3.877  11.480  1.00  0.00    -0.550 OA
ATOM      5  O   UNL     1      -0.632   4.627   9.626  1.00  0.00    -0.550 OA
ENDBRANCH   2   3
ENDBRANCH   1   2
BRANCH   1   6
ATOM      6  C   UNL     1       0.541   7.768  10.315  1.00  0.00     0.000 C 
BRANCH   6   7
ATOM      7  C   UNL     1       1.282   9.007  10.835  1.00  0.00    -0.003 C 
ATOM      8  C   UNL     1       1.680   8.837  12.299  1.00  0.00     0.004 C 
ENDBRANCH   6   7
ENDBRANCH   1   6
TORSDOF 4
ENDMDL
MODEL 4
REMARK VINA RESULT:    -3.743      8.460      9.184
REMARK INTER + INTRA:          -4.749
REMARK INTER:                  -4.622
REMARK INTRA:                  -0.127
REMARK UNBOUND:                -0.131
REMARK SMILES CCCCCC(=O)[O-]
REMARK SMILES IDX 4 1 5 2 6 3 7 4 8 5 3 6 2 7 1 8
REMARK H PARENT
REMARK Flexibility Score: inf
ROOT
ATOM      1  C   UNL     1       0.988   6.459  10.844  1.00  0.00     0.006 C 
ENDROOT
BRANCH   1   2
ATOM      2  C   UNL     1       0.816   7.055  12.250  1.00  0.00     0.053 C 
BRANCH   2   3
ATOM      3  C   UNL     1       1.387   8.436  12.348  1.00  0.00     0.041 C 
ATOM      4  O   UNL     1       1.143   9.288  11.452  1.00  0.00    -0.550 OA
ATOM      5  O   UNL     1       2.160   8.791  13.444  1.00  0.00    -0.550 OA
ENDBRANCH   2   3
ENDBRANCH   1   2
BRANCH   1   6
ATOM      6  C   UNL     1      -0.251   5.708  10.320  1.00  0.00     0.000 C 
BRANCH   6   7
ATOM      7  C   UNL     1      -1.291   5.437  11.416  1.00  0.00    -0.003 C 
ATOM      8  C   UNL     1      -1.729   3.975  11.409  1.00  0.00     0.004 C 
ENDBRANCH   6   7
ENDBRANCH   1   6
TORSDOF 4
ENDMDL
MODEL 5
REMARK VINA RESULT:    -3.727      2.584      4.302
REMARK INTER + INTRA:          -4.730
REMARK INTER:                  -4.597
REMARK INTRA:                  -0.133
REMARK UNBOUND:                -0.131
REMARK SMILES CCCCCC(=O)[O-]
REMARK SMILES IDX 4 1 5 2 6 3 7 4 8 5 3 6 2 7 1 8
REMARK H PARENT
REMARK Flexibility Score: inf
ROOT
ATOM      1  C   UNL     1       6.690   7.350   7.377  1.00  0.00     0.006 C 
ENDROOT
BRANCH   1   2
ATOM      2  C   UNL     1       8.011   6.597   7.601  1.00  0.00     0.053 C 
BRANCH   2   3
ATOM      3  C   UNL     1       7.783   5.197   8.081  1.00  0.00     0.041 C 
ATOM      4  O   UNL     1       7.042   4.415   7.429  1.00  0.00    -0.550 OA
ATOM      5  O   UNL     1       8.417   4.745   9.231  1.00  0.00    -0.550 OA
ENDBRANCH   2   3
ENDBRANCH   1   2
BRANCH   1   6
ATOM      6  C   UNL     1       6.652   8.187   6.085  1.00  0.00     0.000 C 
BRANCH   6   7
ATOM      7  C   UNL     1       7.992   8.187   5.335  1.00  0.00    -0.003 C 
ATOM      8  C   UNL     1       8.403   9.603   4.943  1.00  0.00     0.004 C 
ENDBRANCH   6   7
ENDBRANCH   1   6
TORSDOF 4
ENDMDL
MODEL 6
REMARK VINA RESULT:    -3.717      2.315      3.576
REMARK INTER + INTRA:          -4.717
REMARK INTER:                  -4.546
REMARK INTRA:                  -0.171
REMARK UNBOUND:                -0.131
REMARK SMILES CCCCCC(=O)[O-]
REMARK SMILES IDX 4 1 5 2 6 3 7 4 8 5 3 6 2 7 1 8
REMARK H PARENT
REMARK Flexibility Score: inf
ROOT
ATOM      1  C   UNL     1       6.824   4.389   7.441  1.00  0.00     0.006 C 
ENDROOT
BRANCH   1   2
ATOM      2  C   UNL     1       5.434   3.988   7.958  1.00  0.00     0.053 C 
BRANCH   2   3
ATOM      3  C   UNL     1       4.338   4.718   7.245  1.00  0.00     0.041 C 
ATOM      4  O   UNL     1       4.555   5.851   6.738  1.00  0.00    -0.550 OA
ATOM      5  O   UNL     1       3.086   4.132   7.111  1.00  0.00    -0.550 OA
ENDBRANCH   2   3
ENDBRANCH   1   2
BRANCH   1   6
ATOM      6  C   UNL     1       7.772   4.926   8.529  1.00  0.00     0.000 C 
BRANCH   6   7
ATOM      7  C   UNL     1       8.675   6.061   8.026  1.00  0.00    -0.003 C 
ATOM      8  C   UNL     1       7.901   7.024   7.130  1.00  0.00     0.004 C 
ENDBRANCH   6   7
ENDBRANCH   1   6
TORSDOF 4
ENDMDL
MODEL 7
REMARK VINA RESULT:    -3.704      2.008      2.438
REMARK INTER + INTRA:          -4.701
REMARK INTER:                  -4.512
REMARK INTRA:                  -0.190
REMARK UNBOUND:                -0.131
REMARK SMILES CCCCCC(=O)[O-]
REMARK SMILES IDX 4 1 5 2 6 3 7 4 8 5 3 6 2 7 1 8
REMARK H PARENT
REMARK Flexibility Score: inf
ROOT
ATOM      1  C   UNL     1       6.893   7.199   6.195  1.00  0.00     0.006 C 
ENDROOT
BRANCH   1   2
ATOM      2  C   UNL     1       6.155   8.520   5.929  1.00  0.00     0.053 C 
BRANCH   2   3
ATOM      3  C   UNL     1       5.263   8.903   7.069  1.00  0.00     0.041 C 
ATOM      4  O   UNL     1       4.362   9.769   6.906  1.00  0.00    -0.550 OA
ATOM      5  O   UNL     1       5.404   8.280   8.302  1.00  0.00    -0.550 OA
ENDBRANCH   2   3
ENDBRANCH   1   2
BRANCH   1   6
ATOM      6  C   UNL     1       8.366   7.371   6.611  1.00  0.00     0.000 C 
BRANCH   6   7
ATOM      7  C   UNL     1       8.743   6.520   7.832  1.00  0.00    -0.003 C 
ATOM      8  C   UNL     1       7.754   5.376   8.032  1.00  0.00     0.004 C 
ENDBRANCH   6   7
ENDBRANCH   1   6
TORSDOF 4
ENDMDL
MODEL 8
REMARK VINA RESULT:    -3.693      1.650      2.423
REMARK INTER + INTRA:          -4.688
REMARK INTER:                  -4.493
REMARK INTRA:                  -0.194
REMARK UNBOUND:                -0.131
REMARK SMILES CCCCCC(=O)[O-]
REMARK SMILES IDX 4 1 5 2 6 3 7 4 8 5 3 6 2 7 1 8
REMARK H PARENT
REMARK Flexibility Score: inf
ROOT
ATOM      1  C   UNL     1       7.870   5.474   8.498  1.00  0.00     0.006 C 
ENDROOT
BRANCH   1   2
ATOM      2  C   UNL     1       8.724   6.439   7.661  1.00  0.00     0.053 C 
BRANCH   2   3
ATOM      3  C   UNL     1       7.881   7.363   6.838  1.00  0.00     0.041 C 
ATOM      4  O   UNL     1       8.296   7.776   5.722  1.00  0.00    -0.550 OA
ATOM      5  O   UNL     1       6.624   7.743   7.287  1.00  0.00    -0.550 OA
ENDBRANCH   2   3
ENDBRANCH   1   2
BRANCH   1   6
ATOM      6  C   UNL     1       7.261   4.309   7.695  1.00  0.00     0.000 C 
BRANCH   6   7
ATOM      7  C   UNL     1       5.851   3.931   8.169  1.00  0.00    -0.003 C 
ATOM      8  C   UNL     1       4.787   4.730   7.421  1.00  0.00     0.004 C 
ENDBRANCH   6   7
ENDBRANCH   1   6
TORSDOF 4
ENDMDL
MODEL 9
REMARK VINA RESULT:    -3.676      2.068      3.818
REMARK INTER + INTRA:          -4.666
REMARK INTER:                  -4.491
REMARK INTRA:                  -0.175
REMARK UNBOUND:                -0.131
REMARK SMILES CCCCCC(=O)[O-]
REMARK SMILES IDX 4 1 5 2 6 3 7 4 8 5 3 6 2 7 1 8
REMARK H PARENT
REMARK Flexibility Score: inf
ROOT
ATOM      1  C   UNL     1       7.259   6.960   7.490  1.00  0.00     0.006 C 
ENDROOT
BRANCH   1   2
ATOM      2  C   UNL     1       7.342   5.499   7.960  1.00  0.00     0.053 C 
BRANCH   2   3
ATOM      3  C   UNL     1       6.143   4.706   7.540  1.00  0.00     0.041 C 
ATOM      4  O   UNL     1       5.842   3.643   8.144  1.00  0.00    -0.550 OA
ATOM      5  O   UNL     1       5.339   5.159   6.502  1.00  0.00    -0.550 OA
ENDBRANCH   2   3
ENDBRANCH   1   2
BRANCH   1   6
ATOM      6  C   UNL     1       8.382   7.378   6.523  1.00  0.00     0.000 C 
BRANCH   6   7
ATOM      7  C   UNL     1       7.878   8.253   5.367  1.00  0.00    -0.003 C 
ATOM      8  C   UNL     1       6.376   8.499   5.478  1.00  0.00     0.004 C 
ENDBRANCH   6   7
ENDBRANCH   1   6
TORSDOF 4
ENDMDL
