MODEL 1
REMARK VINA RESULT:    -5.230      0.000      0.000
REMARK INTER + INTRA:          -5.980
REMARK INTER:                  -5.842
REMARK INTRA:                  -0.138
REMARK UNBOUND:                -0.138
REMARK SMILES O=C([O-])C=Cc1ccccc1
REMARK SMILES IDX 4 1 5 2 2 3 1 4 3 5 6 6 7 7 11 8 8 9 10 10 9 11
REMARK H PARENT
REMARK Flexibility Score: inf
ROOT
ATOM      1  C   UNL     1      34.802  21.299  14.564  1.00  0.00     0.025 C 
ATOM      2  C   UNL     1      34.659  20.249  13.741  1.00  0.00     0.010 C 
ENDROOT
BRANCH   1   3
ATOM      3  C   UNL     1      33.826  22.390  14.738  1.00  0.00     0.064 C 
ATOM      4  O   UNL     1      33.481  22.729  15.900  1.00  0.00    -0.545 OA
ATOM      5  O   UNL     1      33.331  23.102  13.650  1.00  0.00    -0.545 OA
ENDBRANCH   1   3
BRANCH   2   6
ATOM      6  C   UNL     1      33.424  19.899  13.010  1.00  0.00    -0.026 A 
ATOM      7  C   UNL     1      32.342  19.279  13.661  1.00  0.00     0.008 A 
ATOM      8  C   UNL     1      33.370  20.093  11.621  1.00  0.00     0.008 A 
ATOM      9  C   UNL     1      31.204  18.909  12.937  1.00  0.00     0.001 A 
ATOM     10  C   UNL     1      32.229  19.722  10.901  1.00  0.00     0.001 A 
ATOM     11  C   UNL     1      31.146  19.134  11.559  1.00  0.00     0.000 A 
ENDBRANCH   2   6
TORSDOF 2
ENDMDL
MODEL 2
REMARK VINA RESULT:    -4.999      2.843      4.695
REMARK INTER + INTRA:          -5.722
REMARK INTER:                  -5.444
REMARK INTRA:                  -0.278
REMARK UNBOUND:                -0.138
REMARK SMILES O=C([O-])C=Cc1ccccc1
REMARK SMILES IDX 4 1 5 2 2 3 1 4 3 5 6 6 7 7 11 8 8 9 10 10 9 11
REMARK H PARENT
REMARK Flexibility Score: inf
ROOT
ATOM      1  C   UNL     1      29.301  19.410  10.491  1.00  0.00     0.025 C 
ATOM      2  C   UNL     1      30.303  18.676  11.000  1.00  0.00     0.010 C 
ENDROOT
BRANCH   1   3
ATOM      3  C   UNL     1      29.084  20.848  10.736  1.00  0.00     0.064 C 
ATOM      4  O   UNL     1      28.353  21.205  11.697  1.00  0.00    -0.545 OA
ATOM      5  O   UNL     1      29.725  21.819   9.976  1.00  0.00    -0.545 OA
ENDBRANCH   1   3
BRANCH   2   6
ATOM      6  C   UNL     1      31.468  19.212  11.733  1.00  0.00    -0.026 A 
ATOM      7  C   UNL     1      32.600  19.695  11.051  1.00  0.00     0.008 A 
ATOM      8  C   UNL     1      31.489  19.143  13.135  1.00  0.00     0.008 A 
ATOM      9  C   UNL     1      33.712  20.149  11.768  1.00  0.00     0.001 A 
ATOM     10  C   UNL     1      32.603  19.599  13.847  1.00  0.00     0.001 A 
ATOM     11  C   UNL     1      33.712  20.106  13.164  1.00  0.00     0.000 A 
ENDBRANCH   2   6
TORSDOF 2
ENDMDL
MODEL 3
REMARK VINA RESULT:    -4.919      3.346      4.763
REMARK INTER + INTRA:          -5.633
REMARK INTER:                  -5.382
REMARK INTRA:                  -0.250
REMARK UNBOUND:                -0.138
REMARK SMILES O=C([O-])C=Cc1ccccc1
REMARK SMILES IDX 4 1 5 2 2 3 1 4 3 5 6 6 7 7 11 8 8 9 10 10 9 11
REMARK H PARENT
REMARK Flexibility Score: inf
ROOT
ATOM      1  C   UNL     1      30.395  18.300  10.183  1.00  0.00     0.025 C 
ATOM      2  C   UNL     1      31.652  18.509  10.605  1.00  0.00     0.010 C 
ENDROOT
BRANCH   1   3
ATOM      3  C   UNL     1      29.176  18.803  10.842  1.00  0.00     0.064 C 
ATOM      4  O   UNL     1      28.791  18.270  11.916  1.00  0.00    -0.545 OA
ATOM      5  O   UNL     1      28.481  19.900  10.344  1.00  0.00    -0.545 OA
ENDBRANCH   1   3
BRANCH   2   6
ATOM      6  C   UNL     1      32.047  19.436  11.686  1.00  0.00    -0.026 A 
ATOM      7  C   UNL     1      32.168  18.996  13.016  1.00  0.00     0.008 A 
ATOM      8  C   UNL     1      32.203  20.801  11.397  1.00  0.00     0.008 A 
ATOM      9  C   UNL     1      32.491  19.904  14.030  1.00  0.00     0.001 A 
ATOM     10  C   UNL     1      32.527  21.704  12.414  1.00  0.00     0.001 A 
ATOM     11  C   UNL     1      32.675  21.255  13.729  1.00  0.00     0.000 A 
ENDBRANCH   2   6
TORSDOF 2
ENDMDL
MODEL 4
REMARK VINA RESULT:    -4.873      2.496      4.425
REMARK INTER + INTRA:          -5.581
REMARK INTER:                  -5.371
REMARK INTRA:                  -0.210
REMARK UNBOUND:                -0.138
REMARK SMILES O=C([O-])C=Cc1ccccc1
REMARK SMILES IDX 4 1 5 2 2 3 1 4 3 5 6 6 7 7 11 8 8 9 10 10 9 11
REMARK H PARENT
REMARK Flexibility Score: inf
ROOT
ATOM      1  C   UNL     1      31.489  18.638  12.003  1.00  0.00     0.025 C 
ATOM      2  C   UNL     1      31.516  19.144  13.246  1.00  0.00     0.010 C 
ENDROOT
BRANCH   1   3
ATOM      3  C   UNL     1      32.010  19.306  10.796  1.00  0.00     0.064 C 
ATOM      4  O   UNL     1      31.201  19.741   9.935  1.00  0.00    -0.545 OA
ATOM      5  O   UNL     1      33.371  19.530  10.619  1.00  0.00    -0.545 OA
ENDBRANCH   1   3
BRANCH   2   6
ATOM      6  C   UNL     1      32.241  20.365  13.655  1.00  0.00    -0.026 A 
ATOM      7  C   UNL     1      33.565  20.305  14.124  1.00  0.00     0.008 A 
ATOM      8  C   UNL     1      31.560  21.593  13.674  1.00  0.00     0.008 A 
ATOM      9  C   UNL     1      34.211  21.468  14.555  1.00  0.00     0.001 A 
ATOM     10  C   UNL     1      32.211  22.753  14.106  1.00  0.00     0.001 A 
ATOM     11  C   UNL     1      33.537  22.692  14.542  1.00  0.00     0.000 A 
ENDBRANCH   2   6
TORSDOF 2
ENDMDL
MODEL 5
REMARK VINA RESULT:    -4.768      2.088      3.103
REMARK INTER + INTRA:          -5.464
REMARK INTER:                  -5.255
REMARK INTRA:                  -0.209
REMARK UNBOUND:                -0.138
REMARK SMILES O=C([O-])C=Cc1ccccc1
REMARK SMILES IDX 4 1 5 2 2 3 1 4 3 5 6 6 7 7 11 8 8 9 10 10 9 11
REMARK H PARENT
REMARK Flexibility Score: inf
ROOT
ATOM      1  C   UNL     1      33.632  20.113  12.368  1.00  0.00     0.025 C 
ATOM      2  C   UNL     1      33.266  19.947  11.088  1.00  0.00     0.010 C 
ENDROOT
BRANCH   1   3
ATOM      3  C   UNL     1      32.728  20.054  13.532  1.00  0.00     0.064 C 
ATOM      4  O   UNL     1      32.307  21.126  14.040  1.00  0.00    -0.545 OA
ATOM      5  O   UNL     1      32.272  18.841  14.037  1.00  0.00    -0.545 OA
ENDBRANCH   1   3
BRANCH   2   6
ATOM      6  C   UNL     1      31.938  19.486  10.633  1.00  0.00    -0.026 A 
ATOM      7  C   UNL     1      30.832  20.355  10.610  1.00  0.00     0.008 A 
ATOM      8  C   UNL     1      31.753  18.130  10.316  1.00  0.00     0.008 A 
ATOM      9  C   UNL     1      29.574  19.881  10.225  1.00  0.00     0.001 A 
ATOM     10  C   UNL     1      30.493  17.662   9.931  1.00  0.00     0.001 A 
ATOM     11  C   UNL     1      29.405  18.538   9.881  1.00  0.00     0.000 A 
ENDBRANCH   2   6
TORSDOF 2
ENDMDL
MODEL 6
REMARK VINA RESULT:    -4.706     14.278     15.569
REMARK INTER + INTRA:          -5.394
REMARK INTER:                  -5.119
REMARK INTRA:                  -0.275
REMARK UNBOUND:                -0.138
REMARK SMILES O=C([O-])C=Cc1ccccc1
REMARK SMILES IDX 4 1 5 2 2 3 1 4 3 5 6 6 7 7 11 8 8 9 10 10 9 11
REMARK H PARENT
REMARK Flexibility Score: inf
ROOT
ATOM      1  C   UNL     1      27.620   7.214  12.241  1.00  0.00     0.025 C 
ATOM      2  C   UNL     1      28.031   6.642  13.384  1.00  0.00     0.010 C 
ENDROOT
BRANCH   1   3
ATOM      3  C   UNL     1      28.385   7.252  10.981  1.00  0.00     0.064 C 
ATOM      4  O   UNL     1      29.149   8.227  10.753  1.00  0.00    -0.545 OA
ATOM      5  O   UNL     1      28.338   6.202  10.070  1.00  0.00    -0.545 OA
ENDBRANCH   1   3
BRANCH   2   6
ATOM      6  C   UNL     1      29.227   5.788  13.530  1.00  0.00    -0.026 A 
ATOM      7  C   UNL     1      29.189   4.418  13.216  1.00  0.00     0.008 A 
ATOM      8  C   UNL     1      30.394   6.332  14.091  1.00  0.00     0.008 A 
ATOM      9  C   UNL     1      30.320   3.619  13.413  1.00  0.00     0.001 A 
ATOM     10  C   UNL     1      31.523   5.529  14.286  1.00  0.00     0.001 A 
ATOM     11  C   UNL     1      31.487   4.175  13.943  1.00  0.00     0.000 A 
ENDBRANCH   2   6
TORSDOF 2
ENDMDL
MODEL 7
REMARK VINA RESULT:    -4.568      2.767      3.957
REMARK INTER + INTRA:          -5.240
REMARK INTER:                  -4.974
REMARK INTRA:                  -0.266
REMARK UNBOUND:                -0.138
REMARK SMILES O=C([O-])C=Cc1ccccc1
REMARK SMILES IDX 4 1 5 2 2 3 1 4 3 5 6 6 7 7 11 8 8 9 10 10 9 11
REMARK H PARENT
REMARK Flexibility Score: inf
ROOT
ATOM      1  C   UNL     1      32.376  19.521  11.752  1.00  0.00     0.025 C 
ATOM      2  C   UNL     1      31.431  19.668  10.811  1.00  0.00     0.010 C 
ENDROOT
BRANCH   1   3
ATOM      3  C   UNL     1      32.213  19.832  13.185  1.00  0.00     0.064 C 
ATOM      4  O   UNL     1      32.210  18.893  14.023  1.00  0.00    -0.545 OA
ATOM      5  O   UNL     1      32.136  21.145  13.638  1.00  0.00    -0.545 OA
ENDBRANCH   1   3
BRANCH   2   6
ATOM      6  C   UNL     1      30.011  19.982  11.069  1.00  0.00    -0.026 A 
ATOM      7  C   UNL     1      29.067  18.964  11.295  1.00  0.00     0.008 A 
ATOM      8  C   UNL     1      29.576  21.315  10.983  1.00  0.00     0.008 A 
ATOM      9  C   UNL     1      27.719  19.284  11.484  1.00  0.00     0.001 A 
ATOM     10  C   UNL     1      28.227  21.630  11.173  1.00  0.00     0.001 A 
ATOM     11  C   UNL     1      27.299  20.615  11.428  1.00  0.00     0.000 A 
ENDBRANCH   2   6
TORSDOF 2
ENDMDL
MODEL 8
REMARK VINA RESULT:    -4.529      1.712      2.314
REMARK INTER + INTRA:          -5.197
REMARK INTER:                  -5.044
REMARK INTRA:                  -0.153
REMARK UNBOUND:                -0.138
REMARK SMILES O=C([O-])C=Cc1ccccc1
REMARK SMILES IDX 4 1 5 2 2 3 1 4 3 5 6 6 7 7 11 8 8 9 10 10 9 11
REMARK H PARENT
REMARK Flexibility Score: inf
ROOT
ATOM      1  C   UNL     1      32.663  20.459  13.888  1.00  0.00     0.025 C 
ATOM      2  C   UNL     1      32.381  19.251  13.377  1.00  0.00     0.010 C 
ENDROOT
BRANCH   1   3
ATOM      3  C   UNL     1      32.298  21.752  13.280  1.00  0.00     0.064 C 
ATOM      4  O   UNL     1      31.734  22.628  13.987  1.00  0.00    -0.545 OA
ATOM      5  O   UNL     1      32.627  22.054  11.963  1.00  0.00    -0.545 OA
ENDBRANCH   1   3
BRANCH   2   6
ATOM      6  C   UNL     1      31.493  18.998  12.223  1.00  0.00    -0.026 A 
ATOM      7  C   UNL     1      30.097  18.931  12.377  1.00  0.00     0.008 A 
ATOM      8  C   UNL     1      32.060  18.716  10.970  1.00  0.00     0.008 A 
ATOM      9  C   UNL     1      29.282  18.637  11.279  1.00  0.00     0.001 A 
ATOM     10  C   UNL     1      31.241  18.424   9.875  1.00  0.00     0.001 A 
ATOM     11  C   UNL     1      29.852  18.389  10.029  1.00  0.00     0.000 A 
ENDBRANCH   2   6
TORSDOF 2
ENDMDL
MODEL 9
REMARK VINA RESULT:    -4.496     15.381     15.862
REMARK INTER + INTRA:          -5.160
REMARK INTER:                  -4.944
REMARK INTRA:                  -0.216
REMARK UNBOUND:                -0.138
REMARK SMILES O=C([O-])C=Cc1ccccc1
REMARK SMILES IDX 4 1 5 2 2 3 1 4 3 5 6 6 7 7 11 8 8 9 10 10 9 11
REMARK H PARENT
REMARK Flexibility Score: inf
ROOT
ATOM      1  C   UNL     1      31.731   4.983  14.569  1.00  0.00     0.025 C 
ATOM      2  C   UNL     1      31.120   6.118  14.193  1.00  0.00     0.010 C 
ENDROOT
BRANCH   1   3
ATOM      3  C   UNL     1      31.338   3.623  14.158  1.00  0.00     0.064 C 
ATOM      4  O   UNL     1      30.752   2.875  14.983  1.00  0.00    -0.545 OA
ATOM      5  O   UNL     1      31.536   3.172  12.857  1.00  0.00    -0.545 OA
ENDBRANCH   1   3
BRANCH   2   6
ATOM      6  C   UNL     1      30.075   6.221  13.154  1.00  0.00    -0.026 A 
ATOM      7  C   UNL     1      30.408   6.317  11.791  1.00  0.00     0.008 A 
ATOM      8  C   UNL     1      28.730   6.329  13.542  1.00  0.00     0.008 A 
ATOM      9  C   UNL     1      29.402   6.467  10.831  1.00  0.00     0.001 A 
ATOM     10  C   UNL     1      27.728   6.478  12.578  1.00  0.00     0.001 A 
ATOM     11  C   UNL     1      28.064   6.543  11.223  1.00  0.00     0.000 A 
ENDBRANCH   2   6
TORSDOF 2
ENDMDL
