MODEL 1
REMARK VINA RESULT:    -4.316      0.000      0.000
REMARK INTER + INTRA:          -6.919
REMARK INTER:                  -6.586
REMARK INTRA:                  -0.333
REMARK UNBOUND:                -0.333
REMARK SMILES O=C([O-])CCCCCCCCC(=O)[O-]
REMARK SMILES IDX 7 1 6 2 5 3 4 4 2 5 1 6 3 7 8 8 9 9 10 10 11 11 12 12 13 13
REMARK SMILES IDX 14 14
REMARK H PARENT
REMARK Flexibility Score: inf
ROOT
ATOM      1  C   UNL     1       0.332  -5.219  -8.375  1.00  0.00     0.000 C 
ENDROOT
BRANCH   1   2
ATOM      2  C   UNL     1       1.485  -4.777  -7.463  1.00  0.00     0.000 C 
BRANCH   2   3
ATOM      3  C   UNL     1       0.990  -3.813  -6.379  1.00  0.00     0.006 C 
BRANCH   3   4
ATOM      4  C   UNL     1       2.077  -2.800  -6.005  1.00  0.00     0.053 C 
BRANCH   4   5
ATOM      5  C   UNL     1       1.916  -1.541  -6.799  1.00  0.00     0.041 C 
ATOM      6  O   UNL     1       2.538  -1.393  -7.883  1.00  0.00    -0.550 OA
ATOM      7  O   UNL     1       1.119  -0.512  -6.315  1.00  0.00    -0.550 OA
ENDBRANCH   4   5
ENDBRANCH   3   4
ENDBRANCH   2   3
ENDBRANCH   1   2
BRANCH   1   8
ATOM      8  C   UNL     1       0.750  -6.310  -9.374  1.00  0.00     0.000 C 
BRANCH   8   9
ATOM      9  C   UNL     1      -0.262  -7.467  -9.444  1.00  0.00     0.000 C 
BRANCH   9  10
ATOM     10  C   UNL     1      -1.632  -7.088  -8.859  1.00  0.00     0.006 C 
BRANCH  10  11
ATOM     11  C   UNL     1      -2.655  -8.227  -8.970  1.00  0.00     0.053 C 
BRANCH  11  12
ATOM     12  C   UNL     1      -3.931  -7.850  -8.286  1.00  0.00     0.041 C 
ATOM     13  O   UNL     1      -4.547  -6.806  -8.625  1.00  0.00    -0.550 OA
ATOM     14  O   UNL     1      -4.414  -8.626  -7.241  1.00  0.00    -0.550 OA
ENDBRANCH  11  12
ENDBRANCH  10  11
ENDBRANCH   9  10
ENDBRANCH   8   9
ENDBRANCH   1   8
TORSDOF 9
ENDMDL
MODEL 2
REMARK VINA RESULT:    -4.172      4.227      5.737
REMARK INTER + INTRA:          -6.700
REMARK INTER:                  -6.047
REMARK INTRA:                  -0.653
REMARK UNBOUND:                -0.333
REMARK SMILES O=C([O-])CCCCCCCCC(=O)[O-]
REMARK SMILES IDX 7 1 6 2 5 3 4 4 2 5 1 6 3 7 8 8 9 9 10 10 11 11 12 12 13 13
REMARK SMILES IDX 14 14
REMARK H PARENT
REMARK Flexibility Score: inf
ROOT
ATOM      1  C   UNL     1       0.824  -1.122  -7.106  1.00  0.00     0.000 C 
ENDROOT
BRANCH   1   2
ATOM      2  C   UNL     1       1.671  -1.884  -6.076  1.00  0.00     0.000 C 
BRANCH   2   3
ATOM      3  C   UNL     1       1.147  -3.312  -5.882  1.00  0.00     0.006 C 
BRANCH   3   4
ATOM      4  C   UNL     1       2.248  -4.343  -6.149  1.00  0.00     0.053 C 
BRANCH   4   5
ATOM      5  C   UNL     1       2.160  -4.853  -7.553  1.00  0.00     0.041 C 
ATOM      6  O   UNL     1       3.181  -5.317  -8.124  1.00  0.00    -0.550 OA
ATOM      7  O   UNL     1       0.960  -4.770  -8.249  1.00  0.00    -0.550 OA
ENDBRANCH   4   5
ENDBRANCH   3   4
ENDBRANCH   2   3
ENDBRANCH   1   2
BRANCH   1   8
ATOM      8  C   UNL     1       1.373  -1.251  -8.535  1.00  0.00     0.000 C 
BRANCH   8   9
ATOM      9  C   UNL     1       0.256  -1.326  -9.592  1.00  0.00     0.000 C 
BRANCH   9  10
ATOM     10  C   UNL     1      -1.143  -1.128  -8.987  1.00  0.00     0.006 C 
BRANCH  10  11
ATOM     11  C   UNL     1      -1.797   0.186  -9.433  1.00  0.00     0.053 C 
BRANCH  11  12
ATOM     12  C   UNL     1      -3.217   0.247  -8.965  1.00  0.00     0.041 C 
ATOM     13  O   UNL     1      -3.919  -0.797  -8.932  1.00  0.00    -0.550 OA
ATOM     14  O   UNL     1      -3.781   1.467  -8.613  1.00  0.00    -0.550 OA
ENDBRANCH  11  12
ENDBRANCH  10  11
ENDBRANCH   9  10
ENDBRANCH   8   9
ENDBRANCH   1   8
TORSDOF 9
ENDMDL
MODEL 3
REMARK VINA RESULT:    -4.171      3.624      6.653
REMARK INTER + INTRA:          -6.699
REMARK INTER:                  -5.869
REMARK INTRA:                  -0.830
REMARK UNBOUND:                -0.333
REMARK SMILES O=C([O-])CCCCCCCCC(=O)[O-]
REMARK SMILES IDX 7 1 6 2 5 3 4 4 2 5 1 6 3 7 8 8 9 9 10 10 11 11 12 12 13 13
REMARK SMILES IDX 14 14
REMARK H PARENT
REMARK Flexibility Score: inf
ROOT
ATOM      1  C   UNL     1       2.291  -2.227  -6.313  1.00  0.00     0.000 C 
ENDROOT
BRANCH   1   2
ATOM      2  C   UNL     1       1.505  -3.390  -5.689  1.00  0.00     0.000 C 
BRANCH   2   3
ATOM      3  C   UNL     1       2.042  -4.740  -6.177  1.00  0.00     0.006 C 
BRANCH   3   4
ATOM      4  C   UNL     1       2.474  -4.663  -7.644  1.00  0.00     0.053 C 
BRANCH   4   5
ATOM      5  C   UNL     1       1.497  -5.386  -8.517  1.00  0.00     0.041 C 
ATOM      6  O   UNL     1       0.265  -5.150  -8.420  1.00  0.00    -0.550 OA
ATOM      7  O   UNL     1       1.944  -6.358  -9.404  1.00  0.00    -0.550 OA
ENDBRANCH   4   5
ENDBRANCH   3   4
ENDBRANCH   2   3
ENDBRANCH   1   2
BRANCH   1   8
ATOM      8  C   UNL     1       1.434  -0.965  -6.497  1.00  0.00     0.000 C 
BRANCH   8   9
ATOM      9  C   UNL     1       0.199  -1.212  -7.382  1.00  0.00     0.000 C 
BRANCH   9  10
ATOM     10  C   UNL     1       0.572  -1.526  -8.840  1.00  0.00     0.006 C 
BRANCH  10  11
ATOM     11  C   UNL     1       1.416  -0.419  -9.484  1.00  0.00     0.053 C 
BRANCH  11  12
ATOM     12  C   UNL     1       0.570   0.780  -9.776  1.00  0.00     0.041 C 
ATOM     13  O   UNL     1       1.051   1.938  -9.667  1.00  0.00    -0.550 OA
ATOM     14  O   UNL     1      -0.766   0.619 -10.122  1.00  0.00    -0.550 OA
ENDBRANCH  11  12
ENDBRANCH  10  11
ENDBRANCH   9  10
ENDBRANCH   8   9
ENDBRANCH   1   8
TORSDOF 9
ENDMDL
MODEL 4
REMARK VINA RESULT:    -4.159      4.064      6.055
REMARK INTER + INTRA:          -6.680
REMARK INTER:                  -6.038
REMARK INTRA:                  -0.642
REMARK UNBOUND:                -0.333
REMARK SMILES O=C([O-])CCCCCCCCC(=O)[O-]
REMARK SMILES IDX 7 1 6 2 5 3 4 4 2 5 1 6 3 7 8 8 9 9 10 10 11 11 12 12 13 13
REMARK SMILES IDX 14 14
REMARK H PARENT
REMARK Flexibility Score: inf
ROOT
ATOM      1  C   UNL     1       0.366  -0.717  -8.447  1.00  0.00     0.000 C 
ENDROOT
BRANCH   1   2
ATOM      2  C   UNL     1      -0.331  -1.885  -9.160  1.00  0.00     0.000 C 
BRANCH   2   3
ATOM      3  C   UNL     1      -1.698  -1.458  -9.707  1.00  0.00     0.006 C 
BRANCH   3   4
ATOM      4  C   UNL     1      -2.110  -0.092  -9.151  1.00  0.00     0.053 C 
BRANCH   4   5
ATOM      5  C   UNL     1      -3.594  -0.026  -8.969  1.00  0.00     0.041 C 
ATOM      6  O   UNL     1      -4.164   1.085  -8.808  1.00  0.00    -0.550 OA
ATOM      7  O   UNL     1      -4.342  -1.196  -8.926  1.00  0.00    -0.550 OA
ENDBRANCH   4   5
ENDBRANCH   3   4
ENDBRANCH   2   3
ENDBRANCH   1   2
BRANCH   1   8
ATOM      8  C   UNL     1       0.664  -1.018  -6.970  1.00  0.00     0.000 C 
BRANCH   8   9
ATOM      9  C   UNL     1       1.984  -1.787  -6.778  1.00  0.00     0.000 C 
BRANCH   9  10
ATOM     10  C   UNL     1       1.837  -2.982  -5.822  1.00  0.00     0.006 C 
BRANCH  10  11
ATOM     11  C   UNL     1       0.931  -4.082  -6.390  1.00  0.00     0.053 C 
BRANCH  11  12
ATOM     12  C   UNL     1       1.636  -4.828  -7.479  1.00  0.00     0.041 C 
ATOM     13  O   UNL     1       1.026  -5.133  -8.536  1.00  0.00    -0.550 OA
ATOM     14  O   UNL     1       2.954  -5.230  -7.304  1.00  0.00    -0.550 OA
ENDBRANCH  11  12
ENDBRANCH  10  11
ENDBRANCH   9  10
ENDBRANCH   8   9
ENDBRANCH   1   8
TORSDOF 9
ENDMDL
MODEL 5
REMARK VINA RESULT:    -4.134      0.821      7.282
REMARK INTER + INTRA:          -6.642
REMARK INTER:                  -6.301
REMARK INTRA:                  -0.341
REMARK UNBOUND:                -0.333
REMARK SMILES O=C([O-])CCCCCCCCC(=O)[O-]
REMARK SMILES IDX 7 1 6 2 5 3 4 4 2 5 1 6 3 7 8 8 9 9 10 10 11 11 12 12 13 13
REMARK SMILES IDX 14 14
REMARK H PARENT
REMARK Flexibility Score: inf
ROOT
ATOM      1  C   UNL     1      -0.475  -5.993  -8.408  1.00  0.00     0.000 C 
ENDROOT
BRANCH   1   2
ATOM      2  C   UNL     1      -0.245  -7.137  -9.407  1.00  0.00     0.000 C 
BRANCH   2   3
ATOM      3  C   UNL     1      -1.446  -8.089  -9.437  1.00  0.00     0.006 C 
BRANCH   3   4
ATOM      4  C   UNL     1      -2.646  -7.485  -8.700  1.00  0.00     0.053 C 
BRANCH   4   5
ATOM      5  C   UNL     1      -3.667  -8.540  -8.408  1.00  0.00     0.041 C 
ATOM      6  O   UNL     1      -3.874  -9.466  -9.234  1.00  0.00    -0.550 OA
ATOM      7  O   UNL     1      -4.425  -8.471  -7.246  1.00  0.00    -0.550 OA
ENDBRANCH   4   5
ENDBRANCH   3   4
ENDBRANCH   2   3
ENDBRANCH   1   2
BRANCH   1   8
ATOM      8  C   UNL     1       0.647  -4.943  -8.442  1.00  0.00     0.000 C 
BRANCH   8   9
ATOM      9  C   UNL     1       1.447  -4.891  -7.128  1.00  0.00     0.000 C 
BRANCH   9  10
ATOM     10  C   UNL     1       0.976  -3.764  -6.194  1.00  0.00     0.006 C 
BRANCH  10  11
ATOM     11  C   UNL     1       2.080  -2.739  -5.906  1.00  0.00     0.053 C 
BRANCH  11  12
ATOM     12  C   UNL     1       1.958  -1.567  -6.828  1.00  0.00     0.041 C 
ATOM     13  O   UNL     1       2.762  -1.428  -7.787  1.00  0.00    -0.550 OA
ATOM     14  O   UNL     1       0.987  -0.601  -6.598  1.00  0.00    -0.550 OA
ENDBRANCH  11  12
ENDBRANCH  10  11
ENDBRANCH   9  10
ENDBRANCH   8   9
ENDBRANCH   1   8
TORSDOF 9
ENDMDL
MODEL 6
REMARK VINA RESULT:    -4.083      2.741      4.090
REMARK INTER + INTRA:          -6.563
REMARK INTER:                  -5.750
REMARK INTRA:                  -0.813
REMARK UNBOUND:                -0.333
REMARK SMILES O=C([O-])CCCCCCCCC(=O)[O-]
REMARK SMILES IDX 7 1 6 2 5 3 4 4 2 5 1 6 3 7 8 8 9 9 10 10 11 11 12 12 13 13
REMARK SMILES IDX 14 14
REMARK H PARENT
REMARK Flexibility Score: inf
ROOT
ATOM      1  C   UNL     1       1.230  -3.131  -5.787  1.00  0.00     0.000 C 
ENDROOT
BRANCH   1   2
ATOM      2  C   UNL     1       1.830  -1.741  -6.043  1.00  0.00     0.000 C 
BRANCH   2   3
ATOM      3  C   UNL     1       1.496  -1.251  -7.457  1.00  0.00     0.006 C 
BRANCH   3   4
ATOM      4  C   UNL     1       0.006  -0.921  -7.587  1.00  0.00     0.053 C 
BRANCH   4   5
ATOM      5  C   UNL     1      -0.466  -1.167  -8.986  1.00  0.00     0.041 C 
ATOM      6  O   UNL     1      -1.630  -0.834  -9.329  1.00  0.00    -0.550 OA
ATOM      7  O   UNL     1       0.365  -1.808  -9.897  1.00  0.00    -0.550 OA
ENDBRANCH   4   5
ENDBRANCH   3   4
ENDBRANCH   2   3
ENDBRANCH   1   2
BRANCH   1   8
ATOM      8  C   UNL     1       2.239  -4.265  -6.028  1.00  0.00     0.000 C 
BRANCH   8   9
ATOM      9  C   UNL     1       2.056  -4.937  -7.400  1.00  0.00     0.000 C 
BRANCH   9  10
ATOM     10  C   UNL     1       0.598  -4.899  -7.886  1.00  0.00     0.006 C 
BRANCH  10  11
ATOM     11  C   UNL     1       0.455  -5.318  -9.355  1.00  0.00     0.053 C 
BRANCH  11  12
ATOM     12  C   UNL     1       0.499  -6.808  -9.479  1.00  0.00     0.041 C 
ATOM     13  O   UNL     1      -0.505  -7.500  -9.164  1.00  0.00    -0.550 OA
ATOM     14  O   UNL     1       1.665  -7.437  -9.895  1.00  0.00    -0.550 OA
ENDBRANCH  11  12
ENDBRANCH  10  11
ENDBRANCH   9  10
ENDBRANCH   8   9
ENDBRANCH   1   8
TORSDOF 9
ENDMDL
MODEL 7
REMARK VINA RESULT:    -4.011      4.372      6.714
REMARK INTER + INTRA:          -6.454
REMARK INTER:                  -5.959
REMARK INTRA:                  -0.494
REMARK UNBOUND:                -0.333
REMARK SMILES O=C([O-])CCCCCCCCC(=O)[O-]
REMARK SMILES IDX 7 1 6 2 5 3 4 4 2 5 1 6 3 7 8 8 9 9 10 10 11 11 12 12 13 13
REMARK SMILES IDX 14 14
REMARK H PARENT
REMARK Flexibility Score: inf
ROOT
ATOM      1  C   UNL     1      -1.121  -1.597  -9.468  1.00  0.00     0.000 C 
ENDROOT
BRANCH   1   2
ATOM      2  C   UNL     1      -1.516  -0.286  -8.772  1.00  0.00     0.000 C 
BRANCH   2   3
ATOM      3  C   UNL     1      -3.005   0.015  -8.971  1.00  0.00     0.006 C 
BRANCH   3   4
ATOM      4  C   UNL     1      -3.772  -1.247  -9.378  1.00  0.00     0.053 C 
BRANCH   4   5
ATOM      5  C   UNL     1      -5.119  -1.275  -8.727  1.00  0.00     0.041 C 
ATOM      6  O   UNL     1      -5.597  -2.361  -8.307  1.00  0.00    -0.550 OA
ATOM      7  O   UNL     1      -5.868  -0.108  -8.629  1.00  0.00    -0.550 OA
ENDBRANCH   4   5
ENDBRANCH   3   4
ENDBRANCH   2   3
ENDBRANCH   1   2
BRANCH   1   8
ATOM      8  C   UNL     1       0.195  -2.181  -8.931  1.00  0.00     0.000 C 
BRANCH   8   9
ATOM      9  C   UNL     1       0.947  -1.198  -8.015  1.00  0.00     0.000 C 
BRANCH   9  10
ATOM     10  C   UNL     1       1.170  -1.761  -6.602  1.00  0.00     0.006 C 
BRANCH  10  11
ATOM     11  C   UNL     1       2.361  -2.726  -6.534  1.00  0.00     0.053 C 
BRANCH  11  12
ATOM     12  C   UNL     1       1.901  -4.098  -6.155  1.00  0.00     0.041 C 
ATOM     13  O   UNL     1       2.719  -4.937  -5.695  1.00  0.00    -0.550 OA
ATOM     14  O   UNL     1       0.576  -4.466  -6.356  1.00  0.00    -0.550 OA
ENDBRANCH  11  12
ENDBRANCH  10  11
ENDBRANCH   9  10
ENDBRANCH   8   9
ENDBRANCH   1   8
TORSDOF 9
ENDMDL
MODEL 8
REMARK VINA RESULT:    -3.978      3.652      4.739
REMARK INTER + INTRA:          -6.404
REMARK INTER:                  -5.435
REMARK INTRA:                  -0.969
REMARK UNBOUND:                -0.333
REMARK SMILES O=C([O-])CCCCCCCCC(=O)[O-]
REMARK SMILES IDX 7 1 6 2 5 3 4 4 2 5 1 6 3 7 8 8 9 9 10 10 11 11 12 12 13 13
REMARK SMILES IDX 14 14
REMARK H PARENT
REMARK Flexibility Score: inf
ROOT
ATOM      1  C   UNL     1       0.459  -0.918  -8.751  1.00  0.00     0.000 C 
ENDROOT
BRANCH   1   2
ATOM      2  C   UNL     1       1.778  -1.041  -7.974  1.00  0.00     0.000 C 
BRANCH   2   3
ATOM      3  C   UNL     1       1.557  -1.728  -6.621  1.00  0.00     0.006 C 
BRANCH   3   4
ATOM      4  C   UNL     1       2.617  -2.805  -6.372  1.00  0.00     0.053 C 
BRANCH   4   5
ATOM      5  C   UNL     1       1.969  -4.130  -6.118  1.00  0.00     0.041 C 
ATOM      6  O   UNL     1       0.718  -4.212  -6.009  1.00  0.00    -0.550 OA
ATOM      7  O   UNL     1       2.751  -5.266  -5.950  1.00  0.00    -0.550 OA
ENDBRANCH   4   5
ENDBRANCH   3   4
ENDBRANCH   2   3
ENDBRANCH   1   2
BRANCH   1   8
ATOM      8  C   UNL     1      -0.378  -2.207  -8.703  1.00  0.00     0.000 C 
BRANCH   8   9
ATOM      9  C   UNL     1      -0.524  -2.867 -10.085  1.00  0.00     0.000 C 
BRANCH   9  10
ATOM     10  C   UNL     1       0.062  -4.288 -10.125  1.00  0.00     0.006 C 
BRANCH  10  11
ATOM     11  C   UNL     1       1.541  -4.326  -9.719  1.00  0.00     0.053 C 
BRANCH  11  12
ATOM     12  C   UNL     1       1.964  -5.730  -9.420  1.00  0.00     0.041 C 
ATOM     13  O   UNL     1       1.107  -6.650  -9.358  1.00  0.00    -0.550 OA
ATOM     14  O   UNL     1       3.299  -6.014  -9.162  1.00  0.00    -0.550 OA
ENDBRANCH  11  12
ENDBRANCH  10  11
ENDBRANCH   9  10
ENDBRANCH   8   9
ENDBRANCH   1   8
TORSDOF 9
ENDMDL
MODEL 9
REMARK VINA RESULT:    -3.962      1.808      6.685
REMARK INTER + INTRA:          -6.379
REMARK INTER:                  -5.698
REMARK INTRA:                  -0.681
REMARK UNBOUND:                -0.333
REMARK SMILES O=C([O-])CCCCCCCCC(=O)[O-]
REMARK SMILES IDX 7 1 6 2 5 3 4 4 2 5 1 6 3 7 8 8 9 9 10 10 11 11 12 12 13 13
REMARK SMILES IDX 14 14
REMARK H PARENT
REMARK Flexibility Score: inf
ROOT
ATOM      1  C   UNL     1       2.194  -4.757  -7.337  1.00  0.00     0.000 C 
ENDROOT
BRANCH   1   2
ATOM      2  C   UNL     1       1.702  -5.146  -8.739  1.00  0.00     0.000 C 
BRANCH   2   3
ATOM      3  C   UNL     1       0.235  -5.591  -8.702  1.00  0.00     0.006 C 
BRANCH   3   4
ATOM      4  C   UNL     1      -0.048  -6.643  -9.779  1.00  0.00     0.053 C 
BRANCH   4   5
ATOM      5  C   UNL     1      -0.978  -7.693  -9.256  1.00  0.00     0.041 C 
ATOM      6  O   UNL     1      -0.711  -8.912  -9.418  1.00  0.00    -0.550 OA
ATOM      7  O   UNL     1      -2.164  -7.323  -8.635  1.00  0.00    -0.550 OA
ENDBRANCH   4   5
ENDBRANCH   3   4
ENDBRANCH   2   3
ENDBRANCH   1   2
BRANCH   1   8
ATOM      8  C   UNL     1       1.086  -4.138  -6.471  1.00  0.00     0.000 C 
BRANCH   8   9
ATOM      9  C   UNL     1       1.595  -2.972  -5.604  1.00  0.00     0.000 C 
BRANCH   9  10
ATOM     10  C   UNL     1       1.845  -1.694  -6.422  1.00  0.00     0.006 C 
BRANCH  10  11
ATOM     11  C   UNL     1       0.656  -1.328  -7.319  1.00  0.00     0.053 C 
BRANCH  11  12
ATOM     12  C   UNL     1       1.084  -1.263  -8.751  1.00  0.00     0.041 C 
ATOM     13  O   UNL     1       0.521  -1.986  -9.614  1.00  0.00    -0.550 OA
ATOM     14  O   UNL     1       2.139  -0.440  -9.125  1.00  0.00    -0.550 OA
ENDBRANCH  11  12
ENDBRANCH  10  11
ENDBRANCH   9  10
ENDBRANCH   8   9
ENDBRANCH   1   8
TORSDOF 9
ENDMDL
