MODEL 1
REMARK VINA RESULT:     5.150      0.000      0.000
REMARK INTER + INTRA:           8.998
REMARK INTER:                   7.257
REMARK INTRA:                   1.741
REMARK UNBOUND:                 1.741
REMARK SMILES O=C(C=Cc1ccc(O)cc1)CC(=O)C=Cc1ccc(O)cc1
REMARK SMILES IDX 12 1 2 2 1 3 3 4 4 5 5 6 6 7 7 8 8 9 11 10 10 11 9 12 13 14
REMARK SMILES IDX 14 15 15 16 16 17 17 18 18 19 23 20 19 21 22 22 20 23 21 24
REMARK H PARENT 9 13 21 25
REMARK Flexibility Score: inf
ROOT
ATOM      1  C   UNL     1      17.280 -18.872 -24.042  1.00  0.00     0.160 C 
ENDROOT
BRANCH   1   2
ATOM      2  C   UNL     1      17.943 -20.228 -24.074  1.00  0.00     0.163 C 
ATOM      3  O   UNL     1      19.176 -20.333 -23.829  1.00  0.00    -0.294 OA
BRANCH   2   4
ATOM      4  C   UNL     1      17.192 -21.463 -24.392  1.00  0.00     0.048 C 
ATOM      5  C   UNL     1      15.895 -21.469 -24.735  1.00  0.00     0.012 C 
BRANCH   5   6
ATOM      6  C   UNL     1      15.138 -22.702 -25.066  1.00  0.00    -0.025 A 
ATOM      7  C   UNL     1      15.637 -23.993 -24.795  1.00  0.00     0.012 A 
ATOM      8  C   UNL     1      14.881 -25.124 -25.114  1.00  0.00     0.047 A 
ATOM      9  C   UNL     1      13.617 -24.987 -25.693  1.00  0.00     0.115 A 
ATOM     10  C   UNL     1      13.860 -22.575 -25.634  1.00  0.00     0.012 A 
ATOM     11  C   UNL     1      13.107 -23.709 -25.952  1.00  0.00     0.047 A 
BRANCH   9  12
ATOM     12  O   UNL     1      12.875 -26.125 -26.005  1.00  0.00    -0.508 OA
ATOM     13  H   UNL     1      12.046 -26.074 -26.586  1.00  0.00     0.293 HD
ENDBRANCH   9  12
ENDBRANCH   5   6
ENDBRANCH   2   4
ENDBRANCH   1   2
BRANCH   1  14
ATOM     14  C   UNL     1      16.374 -18.647 -25.220  1.00  0.00     0.163 C 
ATOM     15  O   UNL     1      16.310 -19.523 -26.125  1.00  0.00    -0.294 OA
BRANCH  14  16
ATOM     16  C   UNL     1      15.539 -17.431 -25.287  1.00  0.00     0.048 C 
ATOM     17  C   UNL     1      15.962 -16.249 -24.819  1.00  0.00     0.012 C 
BRANCH  17  18
ATOM     18  C   UNL     1      15.157 -15.002 -24.881  1.00  0.00    -0.025 A 
ATOM     19  C   UNL     1      14.319 -14.586 -23.827  1.00  0.00     0.012 A 
ATOM     20  C   UNL     1      15.267 -14.188 -26.022  1.00  0.00     0.012 A 
ATOM     21  C   UNL     1      13.591 -13.395 -23.930  1.00  0.00     0.047 A 
ATOM     22  C   UNL     1      14.537 -13.000 -26.121  1.00  0.00     0.047 A 
ATOM     23  C   UNL     1      13.696 -12.601 -25.075  1.00  0.00     0.115 A 
BRANCH  23  24
ATOM     24  O   UNL     1      12.965 -11.419 -25.162  1.00  0.00    -0.508 OA
ATOM     25  H   UNL     1      12.334 -11.243 -25.935  1.00  0.00     0.293 HD
ENDBRANCH  23  24
ENDBRANCH  17  18
ENDBRANCH  14  16
ENDBRANCH   1  14
TORSDOF 8
ENDMDL
MODEL 2
REMARK VINA RESULT:     6.427      2.693      4.211
REMARK INTER + INTRA:          10.798
REMARK INTER:                  10.345
REMARK INTRA:                   0.453
REMARK UNBOUND:                 1.741
REMARK SMILES O=C(C=Cc1ccc(O)cc1)CC(=O)C=Cc1ccc(O)cc1
REMARK SMILES IDX 12 1 2 2 1 3 3 4 4 5 5 6 6 7 7 8 8 9 11 10 10 11 9 12 13 14
REMARK SMILES IDX 14 15 15 16 16 17 17 18 18 19 23 20 19 21 22 22 20 23 21 24
REMARK H PARENT 9 13 21 25
REMARK Flexibility Score: inf
ROOT
ATOM      1  C   UNL     1      15.470 -18.835 -25.656  1.00  0.00     0.160 C 
ENDROOT
BRANCH   1   2
ATOM      2  C   UNL     1      15.611 -20.308 -25.957  1.00  0.00     0.163 C 
ATOM      3  O   UNL     1      14.583 -21.030 -26.068  1.00  0.00    -0.294 OA
BRANCH   2   4
ATOM      4  C   UNL     1      16.932 -20.952 -26.125  1.00  0.00     0.048 C 
ATOM      5  C   UNL     1      17.335 -22.010 -25.403  1.00  0.00     0.012 C 
BRANCH   5   6
ATOM      6  C   UNL     1      18.654 -22.667 -25.575  1.00  0.00    -0.025 A 
ATOM      7  C   UNL     1      18.783 -24.029 -25.917  1.00  0.00     0.012 A 
ATOM      8  C   UNL     1      20.049 -24.600 -26.081  1.00  0.00     0.047 A 
ATOM      9  C   UNL     1      21.199 -23.823 -25.918  1.00  0.00     0.115 A 
ATOM     10  C   UNL     1      19.817 -21.892 -25.428  1.00  0.00     0.012 A 
ATOM     11  C   UNL     1      21.080 -22.467 -25.592  1.00  0.00     0.047 A 
BRANCH   9  12
ATOM     12  O   UNL     1      22.454 -24.408 -26.084  1.00  0.00    -0.508 OA
ATOM     13  H   UNL     1      23.175 -23.963 -26.639  1.00  0.00     0.293 HD
ENDBRANCH   9  12
ENDBRANCH   5   6
ENDBRANCH   2   4
ENDBRANCH   1   2
BRANCH   1  14
ATOM     14  C   UNL     1      14.034 -18.396 -25.590  1.00  0.00     0.163 C 
ATOM     15  O   UNL     1      13.129 -19.266 -25.469  1.00  0.00    -0.294 OA
BRANCH  14  16
ATOM     16  C   UNL     1      13.699 -16.959 -25.624  1.00  0.00     0.048 C 
ATOM     17  C   UNL     1      14.264 -16.075 -24.788  1.00  0.00     0.012 C 
BRANCH  17  18
ATOM     18  C   UNL     1      13.964 -14.621 -24.801  1.00  0.00    -0.025 A 
ATOM     19  C   UNL     1      14.098 -13.828 -25.958  1.00  0.00     0.012 A 
ATOM     20  C   UNL     1      13.492 -14.022 -23.620  1.00  0.00     0.012 A 
ATOM     21  C   UNL     1      13.790 -12.464 -25.921  1.00  0.00     0.047 A 
ATOM     22  C   UNL     1      13.187 -12.658 -23.587  1.00  0.00     0.047 A 
ATOM     23  C   UNL     1      13.336 -11.875 -24.738  1.00  0.00     0.115 A 
BRANCH  23  24
ATOM     24  O   UNL     1      13.034 -10.516 -24.717  1.00  0.00    -0.508 OA
ATOM     25  H   UNL     1      13.565  -9.847 -25.264  1.00  0.00     0.293 HD
ENDBRANCH  23  24
ENDBRANCH  17  18
ENDBRANCH  14  16
ENDBRANCH   1  14
TORSDOF 8
ENDMDL
MODEL 3
REMARK VINA RESULT:     7.863      3.152      4.306
REMARK INTER + INTRA:          12.822
REMARK INTER:                  12.450
REMARK INTRA:                   0.372
REMARK UNBOUND:                 1.741
REMARK SMILES O=C(C=Cc1ccc(O)cc1)CC(=O)C=Cc1ccc(O)cc1
REMARK SMILES IDX 12 1 2 2 1 3 3 4 4 5 5 6 6 7 7 8 8 9 11 10 10 11 9 12 13 14
REMARK SMILES IDX 14 15 15 16 16 17 17 18 18 19 23 20 19 21 22 22 20 23 21 24
REMARK H PARENT 9 13 21 25
REMARK Flexibility Score: inf
ROOT
ATOM      1  C   UNL     1      15.423 -20.609 -25.604  1.00  0.00     0.160 C 
ENDROOT
BRANCH   1   2
ATOM      2  C   UNL     1      15.438 -22.105 -25.807  1.00  0.00     0.163 C 
ATOM      3  O   UNL     1      14.363 -22.761 -25.742  1.00  0.00    -0.294 OA
BRANCH   2   4
ATOM      4  C   UNL     1      16.688 -22.847 -26.081  1.00  0.00     0.048 C 
ATOM      5  C   UNL     1      17.624 -23.086 -25.149  1.00  0.00     0.012 C 
BRANCH   5   6
ATOM      6  C   UNL     1      18.875 -23.839 -25.414  1.00  0.00    -0.025 A 
ATOM      7  C   UNL     1      20.087 -23.201 -25.749  1.00  0.00     0.012 A 
ATOM      8  C   UNL     1      21.242 -23.954 -25.977  1.00  0.00     0.047 A 
ATOM      9  C   UNL     1      21.211 -25.347 -25.863  1.00  0.00     0.115 A 
ATOM     10  C   UNL     1      18.858 -25.238 -25.287  1.00  0.00     0.012 A 
ATOM     11  C   UNL     1      20.015 -25.987 -25.516  1.00  0.00     0.047 A 
BRANCH   9  12
ATOM     12  O   UNL     1      22.371 -26.083 -26.093  1.00  0.00    -0.508 OA
ATOM     13  H   UNL     1      23.270 -25.781 -25.735  1.00  0.00     0.293 HD
ENDBRANCH   9  12
ENDBRANCH   5   6
ENDBRANCH   2   4
ENDBRANCH   1   2
BRANCH   1  14
ATOM     14  C   UNL     1      14.062 -20.011 -25.831  1.00  0.00     0.163 C 
ATOM     15  O   UNL     1      13.044 -20.751 -25.753  1.00  0.00    -0.294 OA
BRANCH  14  16
ATOM     16  C   UNL     1      13.926 -18.566 -26.098  1.00  0.00     0.048 C 
ATOM     17  C   UNL     1      14.333 -17.637 -25.221  1.00  0.00     0.012 C 
BRANCH  17  18
ATOM     18  C   UNL     1      14.226 -16.175 -25.460  1.00  0.00    -0.025 A 
ATOM     19  C   UNL     1      12.990 -15.497 -25.476  1.00  0.00     0.012 A 
ATOM     20  C   UNL     1      15.407 -15.435 -25.639  1.00  0.00     0.012 A 
ATOM     21  C   UNL     1      12.944 -14.115 -25.693  1.00  0.00     0.047 A 
ATOM     22  C   UNL     1      15.357 -14.055 -25.856  1.00  0.00     0.047 A 
ATOM     23  C   UNL     1      14.124 -13.392 -25.885  1.00  0.00     0.115 A 
BRANCH  23  24
ATOM     24  O   UNL     1      14.061 -12.017 -26.099  1.00  0.00    -0.508 OA
ATOM     25  H   UNL     1      13.744 -11.383 -25.376  1.00  0.00     0.293 HD
ENDBRANCH  23  24
ENDBRANCH  17  18
ENDBRANCH  14  16
ENDBRANCH   1  14
TORSDOF 8
ENDMDL
