MODEL 1
REMARK VINA RESULT:    -3.087      0.000      0.000
REMARK INTER + INTRA:          -3.087
REMARK INTER:                  -3.087
REMARK INTRA:                   0.000
REMARK UNBOUND:                 0.000
REMARK SMILES CC(=O)[O-]
REMARK SMILES IDX 1 1 2 2 3 3 4 4
REMARK H PARENT
REMARK Flexibility Score: inf
ROOT
ATOM      1  C   UNL     1      -1.555  -2.228  -4.180  1.00  0.00     0.063 C 
ATOM      2  C   UNL     1      -2.022  -2.630  -2.822  1.00  0.00     0.038 C 
ATOM      3  O   UNL     1      -2.078  -1.781  -1.895  1.00  0.00    -0.550 OA
ATOM      4  O   UNL     1      -2.448  -3.932  -2.590  1.00  0.00    -0.550 OA
ENDROOT
TORSDOF 0
ENDMDL
MODEL 2
REMARK VINA RESULT:    -3.064      0.088      1.622
REMARK INTER + INTRA:          -3.064
REMARK INTER:                  -3.064
REMARK INTRA:                   0.000
REMARK UNBOUND:                 0.000
REMARK SMILES CC(=O)[O-]
REMARK SMILES IDX 1 1 2 2 3 3 4 4
REMARK H PARENT
REMARK Flexibility Score: inf
ROOT
ATOM      1  C   UNL     1      -1.545  -2.344  -4.193  1.00  0.00     0.063 C 
ATOM      2  C   UNL     1      -2.042  -2.705  -2.834  1.00  0.00     0.038 C 
ATOM      3  O   UNL     1      -2.388  -3.889  -2.581  1.00  0.00    -0.550 OA
ATOM      4  O   UNL     1      -2.074  -1.749  -1.828  1.00  0.00    -0.550 OA
ENDROOT
TORSDOF 0
ENDMDL
MODEL 3
REMARK VINA RESULT:    -2.897      9.512     10.004
REMARK INTER + INTRA:          -2.897
REMARK INTER:                  -2.897
REMARK INTRA:                   0.000
REMARK UNBOUND:                 0.000
REMARK SMILES CC(=O)[O-]
REMARK SMILES IDX 1 1 2 2 3 3 4 4
REMARK H PARENT
REMARK Flexibility Score: inf
ROOT
ATOM      1  C   UNL     1       1.248   5.699  -2.330  1.00  0.00     0.063 C 
ATOM      2  C   UNL     1       1.846   6.346  -1.127  1.00  0.00     0.038 C 
ATOM      3  O   UNL     1       2.978   6.892  -1.199  1.00  0.00    -0.550 OA
ATOM      4  O   UNL     1       1.132   6.395   0.064  1.00  0.00    -0.550 OA
ENDROOT
TORSDOF 0
ENDMDL
MODEL 4
REMARK VINA RESULT:    -2.867     11.419     11.508
REMARK INTER + INTRA:          -2.867
REMARK INTER:                  -2.867
REMARK INTRA:                   0.000
REMARK UNBOUND:                 0.000
REMARK SMILES CC(=O)[O-]
REMARK SMILES IDX 1 1 2 2 3 3 4 4
REMARK H PARENT
REMARK Flexibility Score: inf
ROOT
ATOM      1  C   UNL     1      -5.533   5.565   4.684  1.00  0.00     0.063 C 
ATOM      2  C   UNL     1      -4.176   5.157   5.148  1.00  0.00     0.038 C 
ATOM      3  O   UNL     1      -3.150   5.674   4.635  1.00  0.00    -0.550 OA
ATOM      4  O   UNL     1      -4.041   4.246   6.188  1.00  0.00    -0.550 OA
ENDROOT
TORSDOF 0
ENDMDL
MODEL 5
REMARK VINA RESULT:    -2.863      2.215      2.521
REMARK INTER + INTRA:          -2.863
REMARK INTER:                  -2.863
REMARK INTRA:                   0.000
REMARK UNBOUND:                 0.000
REMARK SMILES CC(=O)[O-]
REMARK SMILES IDX 1 1 2 2 3 3 4 4
REMARK H PARENT
REMARK Flexibility Score: inf
ROOT
ATOM      1  C   UNL     1      -4.685  -1.567  -3.150  1.00  0.00     0.063 C 
ATOM      2  C   UNL     1      -4.005  -2.891  -3.233  1.00  0.00     0.038 C 
ATOM      3  O   UNL     1      -2.814  -2.967  -3.635  1.00  0.00    -0.550 OA
ATOM      4  O   UNL     1      -4.665  -4.041  -2.817  1.00  0.00    -0.550 OA
ENDROOT
TORSDOF 0
ENDMDL
MODEL 6
REMARK VINA RESULT:    -2.837     11.558     11.646
REMARK INTER + INTRA:          -2.837
REMARK INTER:                  -2.837
REMARK INTRA:                   0.000
REMARK UNBOUND:                 0.000
REMARK SMILES CC(=O)[O-]
REMARK SMILES IDX 1 1 2 2 3 3 4 4
REMARK H PARENT
REMARK Flexibility Score: inf
ROOT
ATOM      1  C   UNL     1      -6.344   6.454   2.137  1.00  0.00     0.063 C 
ATOM      2  C   UNL     1      -7.114   5.811   3.240  1.00  0.00     0.038 C 
ATOM      3  O   UNL     1      -6.574   5.621   4.361  1.00  0.00    -0.550 OA
ATOM      4  O   UNL     1      -8.448   5.470   3.052  1.00  0.00    -0.550 OA
ENDROOT
TORSDOF 0
ENDMDL
MODEL 7
REMARK VINA RESULT:    -2.783     10.247     10.620
REMARK INTER + INTRA:          -2.783
REMARK INTER:                  -2.783
REMARK INTRA:                   0.000
REMARK UNBOUND:                 0.000
REMARK SMILES CC(=O)[O-]
REMARK SMILES IDX 1 1 2 2 3 3 4 4
REMARK H PARENT
REMARK Flexibility Score: inf
ROOT
ATOM      1  C   UNL     1      -3.514   2.619   4.488  1.00  0.00     0.063 C 
ATOM      2  C   UNL     1      -3.140   3.687   5.459  1.00  0.00     0.038 C 
ATOM      3  O   UNL     1      -2.767   3.383   6.622  1.00  0.00    -0.550 OA
ATOM      4  O   UNL     1      -3.151   5.020   5.066  1.00  0.00    -0.550 OA
ENDROOT
TORSDOF 0
ENDMDL
MODEL 8
REMARK VINA RESULT:    -2.781      2.129      2.289
REMARK INTER + INTRA:          -2.781
REMARK INTER:                  -2.781
REMARK INTRA:                   0.000
REMARK UNBOUND:                 0.000
REMARK SMILES CC(=O)[O-]
REMARK SMILES IDX 1 1 2 2 3 3 4 4
REMARK H PARENT
REMARK Flexibility Score: inf
ROOT
ATOM      1  C   UNL     1      -2.268  -0.879  -3.973  1.00  0.00     0.063 C 
ATOM      2  C   UNL     1      -1.465  -2.085  -4.326  1.00  0.00     0.038 C 
ATOM      3  O   UNL     1      -0.633  -2.038  -5.270  1.00  0.00    -0.550 OA
ATOM      4  O   UNL     1      -1.594  -3.250  -3.580  1.00  0.00    -0.550 OA
ENDROOT
TORSDOF 0
ENDMDL
MODEL 9
REMARK VINA RESULT:    -2.780      3.911      4.201
REMARK INTER + INTRA:          -2.780
REMARK INTER:                  -2.780
REMARK INTRA:                   0.000
REMARK UNBOUND:                 0.000
REMARK SMILES CC(=O)[O-]
REMARK SMILES IDX 1 1 2 2 3 3 4 4
REMARK H PARENT
REMARK Flexibility Score: inf
ROOT
ATOM      1  C   UNL     1      -0.139  -4.124  -7.801  1.00  0.00     0.063 C 
ATOM      2  C   UNL     1      -0.173  -3.902  -6.326  1.00  0.00     0.038 C 
ATOM      3  O   UNL     1      -0.278  -2.736  -5.865  1.00  0.00    -0.550 OA
ATOM      4  O   UNL     1      -0.144  -4.986  -5.458  1.00  0.00    -0.550 OA
ENDROOT
TORSDOF 0
ENDMDL
