MODEL 1
REMARK VINA RESULT:    -3.878      0.000      0.000
REMARK INTER + INTRA:          -5.950
REMARK INTER:                  -5.919
REMARK INTRA:                  -0.031
REMARK UNBOUND:                -0.031
REMARK SMILES CC1=CCC[C@@H](C)C(=O)C[C@@H](C(C)C)C(=O)C1
REMARK SMILES IDX 8 1 9 2 6 3 7 4 5 5 4 6 3 7 2 8 1 9 10 11 11 12 15 13 16 14
REMARK SMILES IDX 17 15 12 17 13 18 14 19
REMARK H PARENT
REMARK Flexibility Score: 70.00
ROOT
ATOM      1  C   UNL     1     -12.644 -19.251  30.475  1.00  0.00     0.136 C 
ATOM      2  O   UNL     1     -12.050 -20.249  30.854  1.00  0.00    -0.299 OA
ENDROOT
BRANCH   1   3
ATOM      3  C   UNL     1     -13.053 -19.148  28.998  1.00  0.00     0.053 C 
ATOM      4  C   UNL     1     -13.606 -20.476  28.470  1.00  0.00     0.016 C 
BRANCH   3   5
ATOM      5  C   UNL     1     -11.785 -18.716  28.300  1.00  0.00     0.015 C 
BRANCH   5   6
ATOM      6  C   UNL     1     -11.615 -17.926  27.039  1.00  0.00     0.028 C 
BRANCH   6   7
ATOM      7  C   UNL     1     -12.509 -16.681  27.144  1.00  0.00    -0.028 C 
ATOM      8  C   UNL     1     -12.474 -15.634  28.050  1.00  0.00    -0.070 CG0
ATOM      9  C   UNL     1     -13.596 -14.629  27.928  1.00  0.00     0.039 C 
ATOM     10  G   UNL     1     -11.408 -15.352  29.151  1.00  0.00     0.000 G0
ENDBRANCH   6   7
ENDBRANCH   5   6
ENDBRANCH   3   5
ENDBRANCH   1   3
BRANCH   1  11
ATOM     11  C   UNL     1     -12.981 -18.153  31.498  1.00  0.00     0.087 C 
BRANCH  11  12
ATOM     12  C   UNL     1     -12.966 -16.666  30.967  1.00  0.00     0.066 C 
BRANCH  12  13
ATOM     13  C   UNL     1     -11.602 -16.130  30.461  1.00  0.00     0.140 C 
ATOM     14  O   UNL     1     -10.601 -16.435  31.094  1.00  0.00    -0.299 OA
BRANCH  13  15
ATOM     15  C   UNL     1     -11.413 -15.351  29.148  1.00  0.00     0.106 CG0
ATOM     16  G   UNL     1     -12.480 -15.633  28.049  1.00  0.00     0.000 G0
ENDBRANCH  13  15
ENDBRANCH  12  13
BRANCH  12  17
ATOM     17  C   UNL     1     -13.563 -15.657  32.007  1.00  0.00    -0.006 C 
ATOM     18  C   UNL     1     -14.466 -14.613  31.318  1.00  0.00     0.008 C 
ATOM     19  C   UNL     1     -14.376 -16.344  33.120  1.00  0.00     0.008 C 
ENDBRANCH  12  17
ENDBRANCH  11  12
ENDBRANCH   1  11
TORSDOF 1
ENDMDL
MODEL 2
REMARK VINA RESULT:    -3.158      1.727      4.033
REMARK INTER + INTRA:          -4.850
REMARK INTER:                  -5.101
REMARK INTRA:                   0.251
REMARK UNBOUND:                -0.031
REMARK SMILES CC1=CCC[C@@H](C)C(=O)C[C@@H](C(C)C)C(=O)C1
REMARK SMILES IDX 8 1 9 2 6 3 7 4 5 5 4 6 3 7 2 8 1 9 10 11 11 12 15 13 16 14
REMARK SMILES IDX 17 15 12 17 13 18 14 19
REMARK H PARENT
REMARK Flexibility Score: 70.00
ROOT
ATOM      1  C   UNL     1     -11.899 -17.089  26.975  1.00  0.00     0.136 C 
ATOM      2  O   UNL     1     -11.312 -16.792  25.946  1.00  0.00    -0.299 OA
ENDROOT
BRANCH   1   3
ATOM      3  C   UNL     1     -13.232 -16.398  27.294  1.00  0.00     0.053 C 
ATOM      4  C   UNL     1     -14.017 -16.067  26.020  1.00  0.00     0.016 C 
BRANCH   3   5
ATOM      5  C   UNL     1     -12.827 -15.170  28.075  1.00  0.00     0.015 C 
BRANCH   5   6
ATOM      6  C   UNL     1     -13.665 -14.257  28.916  1.00  0.00     0.028 C 
BRANCH   6   7
ATOM      7  C   UNL     1     -13.987 -14.992  30.226  1.00  0.00    -0.028 C 
ATOM      8  C   UNL     1     -13.183 -15.802  31.011  1.00  0.00    -0.070 CG0
ATOM      9  C   UNL     1     -13.873 -16.466  32.181  1.00  0.00     0.039 C 
ATOM     10  G   UNL     1     -11.660 -16.085  30.855  1.00  0.00     0.000 G0
ENDBRANCH   6   7
ENDBRANCH   5   6
ENDBRANCH   3   5
ENDBRANCH   1   3
BRANCH   1  11
ATOM     11  C   UNL     1     -11.290 -18.162  27.894  1.00  0.00     0.087 C 
BRANCH  11  12
ATOM     12  C   UNL     1     -11.945 -18.321  29.323  1.00  0.00     0.066 C 
BRANCH  12  13
ATOM     13  C   UNL     1     -11.281 -17.527  30.476  1.00  0.00     0.140 C 
ATOM     14  O   UNL     1     -10.330 -18.043  31.048  1.00  0.00    -0.299 OA
BRANCH  13  15
ATOM     15  C   UNL     1     -11.655 -16.084  30.860  1.00  0.00     0.106 CG0
ATOM     16  G   UNL     1     -13.180 -15.815  31.021  1.00  0.00     0.000 G0
ENDBRANCH  13  15
ENDBRANCH  12  13
BRANCH  12  17
ATOM     17  C   UNL     1     -12.090 -19.823  29.747  1.00  0.00    -0.006 C 
ATOM     18  C   UNL     1     -12.604 -19.947  31.196  1.00  0.00     0.008 C 
ATOM     19  C   UNL     1     -13.031 -20.624  28.828  1.00  0.00     0.008 C 
ENDBRANCH  12  17
ENDBRANCH  11  12
ENDBRANCH   1  11
TORSDOF 1
ENDMDL
MODEL 3
REMARK VINA RESULT:    -2.749      2.167      5.185
REMARK INTER + INTRA:          -4.227
REMARK INTER:                  -4.590
REMARK INTRA:                   0.364
REMARK UNBOUND:                -0.031
REMARK SMILES CC1=CCC[C@@H](C)C(=O)C[C@@H](C(C)C)C(=O)C1
REMARK SMILES IDX 8 1 9 2 6 3 7 4 5 5 4 6 3 7 2 8 1 9 10 11 11 12 15 13 16 14
REMARK SMILES IDX 17 15 12 17 13 18 14 19
REMARK H PARENT
REMARK Flexibility Score: 70.00
ROOT
ATOM      1  C   UNL     1     -13.822 -14.827  27.929  1.00  0.00     0.136 C 
ATOM      2  O   UNL     1     -14.024 -15.037  26.743  1.00  0.00    -0.299 OA
ENDROOT
BRANCH   1   3
ATOM      3  C   UNL     1     -14.877 -14.056  28.735  1.00  0.00     0.053 C 
ATOM      4  C   UNL     1     -14.986 -12.598  28.276  1.00  0.00     0.016 C 
BRANCH   3   5
ATOM      5  C   UNL     1     -14.410 -14.191  30.166  1.00  0.00     0.015 C 
BRANCH   5   6
ATOM      6  C   UNL     1     -15.129 -13.861  31.437  1.00  0.00     0.028 C 
BRANCH   6   7
ATOM      7  C   UNL     1     -15.031 -15.084  32.361  1.00  0.00    -0.028 C 
ATOM      8  C   UNL     1     -14.094 -16.103  32.391  1.00  0.00    -0.070 CG0
ATOM      9  C   UNL     1     -14.379 -17.222  33.367  1.00  0.00     0.039 C 
ATOM     10  G   UNL     1     -12.775 -16.219  31.571  1.00  0.00     0.000 G0
ENDBRANCH   6   7
ENDBRANCH   5   6
ENDBRANCH   3   5
ENDBRANCH   1   3
BRANCH   1  11
ATOM     11  C   UNL     1     -12.533 -15.368  28.571  1.00  0.00     0.087 C 
BRANCH  11  12
ATOM     12  C   UNL     1     -12.519 -16.905  28.935  1.00  0.00     0.066 C 
BRANCH  12  13
ATOM     13  C   UNL     1     -12.750 -17.261  30.426  1.00  0.00     0.140 C 
ATOM     14  O   UNL     1     -12.830 -18.445  30.722  1.00  0.00    -0.299 OA
BRANCH  13  15
ATOM     15  C   UNL     1     -12.755 -16.231  31.569  1.00  0.00     0.106 CG0
ATOM     16  G   UNL     1     -14.089 -16.130  32.366  1.00  0.00     0.000 G0
ENDBRANCH  13  15
ENDBRANCH  12  13
BRANCH  12  17
ATOM     17  C   UNL     1     -11.221 -17.624  28.429  1.00  0.00    -0.006 C 
ATOM     18  C   UNL     1     -11.017 -17.406  26.915  1.00  0.00     0.008 C 
ATOM     19  C   UNL     1      -9.948 -17.164  29.162  1.00  0.00     0.008 C 
ENDBRANCH  12  17
ENDBRANCH  11  12
ENDBRANCH   1  11
TORSDOF 1
ENDMDL
MODEL 4
REMARK VINA RESULT:    -2.616      1.411      2.083
REMARK INTER + INTRA:          -4.023
REMARK INTER:                  -5.024
REMARK INTRA:                   1.002
REMARK UNBOUND:                -0.031
REMARK SMILES CC1=CCC[C@@H](C)C(=O)C[C@@H](C(C)C)C(=O)C1
REMARK SMILES IDX 8 1 9 2 6 3 7 4 5 5 4 6 3 7 2 8 1 9 10 11 11 12 15 13 16 14
REMARK SMILES IDX 17 15 12 17 13 18 14 19
REMARK H PARENT
REMARK Flexibility Score: 70.00
ROOT
ATOM      1  C   UNL     1     -12.855 -18.950  30.198  1.00  0.00     0.136 C 
ATOM      2  O   UNL     1     -13.359 -18.915  29.086  1.00  0.00    -0.299 OA
ENDROOT
BRANCH   1   3
ATOM      3  C   UNL     1     -11.929 -20.121  30.557  1.00  0.00     0.053 C 
ATOM      4  C   UNL     1     -12.153 -20.599  31.995  1.00  0.00     0.016 C 
BRANCH   3   5
ATOM      5  C   UNL     1     -10.541 -19.569  30.326  1.00  0.00     0.015 C 
BRANCH   5   6
ATOM      6  C   UNL     1     -10.116 -18.175  29.984  1.00  0.00     0.028 C 
BRANCH   6   7
ATOM      7  C   UNL     1     -10.282 -17.994  28.468  1.00  0.00    -0.028 C 
ATOM      8  C   UNL     1     -11.025 -17.065  27.759  1.00  0.00    -0.070 CG0
ATOM      9  C   UNL     1     -11.054 -17.261  26.260  1.00  0.00     0.039 C 
ATOM     10  G   UNL     1     -11.802 -15.834  28.311  1.00  0.00     0.000 G0
ENDBRANCH   6   7
ENDBRANCH   5   6
ENDBRANCH   3   5
ENDBRANCH   1   3
BRANCH   1  11
ATOM     11  C   UNL     1     -13.146 -17.803  31.182  1.00  0.00     0.087 C 
BRANCH  11  12
ATOM     12  C   UNL     1     -13.264 -16.355  30.562  1.00  0.00     0.066 C 
BRANCH  12  13
ATOM     13  C   UNL     1     -12.006 -15.812  29.839  1.00  0.00     0.140 C 
ATOM     14  O   UNL     1     -11.072 -15.430  30.531  1.00  0.00    -0.299 OA
BRANCH  13  15
ATOM     15  C   UNL     1     -11.805 -15.842  28.313  1.00  0.00     0.106 CG0
ATOM     16  G   UNL     1     -11.025 -17.076  27.771  1.00  0.00     0.000 G0
ENDBRANCH  13  15
ENDBRANCH  12  13
BRANCH  12  17
ATOM     17  C   UNL     1     -13.753 -15.298  31.611  1.00  0.00    -0.006 C 
ATOM     18  C   UNL     1     -14.685 -14.255  30.959  1.00  0.00     0.008 C 
ATOM     19  C   UNL     1     -14.490 -15.927  32.807  1.00  0.00     0.008 C 
ENDBRANCH  12  17
ENDBRANCH  11  12
ENDBRANCH   1  11
TORSDOF 1
ENDMDL
MODEL 5
REMARK VINA RESULT:    -2.284      2.183      4.944
REMARK INTER + INTRA:          -3.517
REMARK INTER:                  -4.571
REMARK INTRA:                   1.054
REMARK UNBOUND:                -0.031
REMARK SMILES CC1=CCC[C@@H](C)C(=O)C[C@@H](C(C)C)C(=O)C1
REMARK SMILES IDX 8 1 9 2 6 3 7 4 5 5 4 6 3 7 2 8 1 9 10 11 11 12 15 13 16 14
REMARK SMILES IDX 17 15 12 17 13 18 14 19
REMARK H PARENT
REMARK Flexibility Score: 70.00
ROOT
ATOM      1  C   UNL     1     -13.258 -15.405  29.941  1.00  0.00     0.136 C 
ATOM      2  O   UNL     1     -14.172 -14.595  29.924  1.00  0.00    -0.299 OA
ENDROOT
BRANCH   1   3
ATOM      3  C   UNL     1     -12.940 -16.136  31.253  1.00  0.00     0.053 C 
ATOM      4  C   UNL     1     -13.608 -15.460  32.455  1.00  0.00     0.016 C 
BRANCH   3   5
ATOM      5  C   UNL     1     -11.431 -16.112  31.326  1.00  0.00     0.015 C 
BRANCH   5   6
ATOM      6  C   UNL     1     -10.435 -17.077  30.761  1.00  0.00     0.028 C 
BRANCH   6   7
ATOM      7  C   UNL     1     -10.846 -18.488  31.208  1.00  0.00    -0.028 C 
ATOM      8  C   UNL     1     -11.568 -19.460  30.536  1.00  0.00    -0.070 CG0
ATOM      9  C   UNL     1     -11.895 -20.699  31.336  1.00  0.00     0.039 C 
ATOM     10  G   UNL     1     -12.053 -19.443  29.056  1.00  0.00     0.000 G0
ENDBRANCH   6   7
ENDBRANCH   5   6
ENDBRANCH   3   5
ENDBRANCH   1   3
BRANCH   1  11
ATOM     11  C   UNL     1     -12.483 -15.679  28.641  1.00  0.00     0.087 C 
BRANCH  11  12
ATOM     12  C   UNL     1     -12.754 -17.067  27.938  1.00  0.00     0.066 C 
BRANCH  12  13
ATOM     13  C   UNL     1     -11.740 -18.200  28.238  1.00  0.00     0.140 C 
ATOM     14  O   UNL     1     -10.578 -18.028  27.900  1.00  0.00    -0.299 OA
BRANCH  13  15
ATOM     15  C   UNL     1     -12.074 -19.466  29.048  1.00  0.00     0.106 CG0
ATOM     16  G   UNL     1     -11.568 -19.465  30.520  1.00  0.00     0.000 G0
ENDBRANCH  13  15
ENDBRANCH  12  13
BRANCH  12  17
ATOM     17  C   UNL     1     -12.924 -16.925  26.386  1.00  0.00    -0.006 C 
ATOM     18  C   UNL     1     -13.899 -15.782  26.033  1.00  0.00     0.008 C 
ATOM     19  C   UNL     1     -11.593 -16.672  25.652  1.00  0.00     0.008 C 
ENDBRANCH  12  17
ENDBRANCH  11  12
ENDBRANCH   1  11
TORSDOF 1
ENDMDL
MODEL 6
REMARK VINA RESULT:    -2.205      1.884      3.619
REMARK INTER + INTRA:          -3.396
REMARK INTER:                  -3.584
REMARK INTRA:                   0.187
REMARK UNBOUND:                -0.031
REMARK SMILES CC1=CCC[C@@H](C)C(=O)C[C@@H](C(C)C)C(=O)C1
REMARK SMILES IDX 8 1 9 2 6 3 7 4 5 5 4 6 3 7 2 8 1 9 10 11 11 12 15 13 16 14
REMARK SMILES IDX 17 15 12 17 13 18 14 19
REMARK H PARENT
REMARK Flexibility Score: 70.00
ROOT
ATOM      1  C   UNL     1     -12.050 -15.544  28.272  1.00  0.00     0.136 C 
ATOM      2  O   UNL     1     -10.967 -15.029  28.504  1.00  0.00    -0.299 OA
ENDROOT
BRANCH   1   3
ATOM      3  C   UNL     1     -12.176 -16.501  27.079  1.00  0.00     0.053 C 
ATOM      4  C   UNL     1     -13.632 -16.652  26.625  1.00  0.00     0.016 C 
BRANCH   3   5
ATOM      5  C   UNL     1     -11.578 -17.793  27.586  1.00  0.00     0.015 C 
BRANCH   5   6
ATOM      6  C   UNL     1     -10.579 -18.015  28.679  1.00  0.00     0.028 C 
BRANCH   6   7
ATOM      7  C   UNL     1     -11.057 -19.213  29.513  1.00  0.00    -0.028 C 
ATOM      8  C   UNL     1     -11.978 -19.268  30.545  1.00  0.00    -0.070 CG0
ATOM      9  C   UNL     1     -12.114 -20.610  31.227  1.00  0.00     0.039 C 
ATOM     10  G   UNL     1     -12.907 -18.131  31.065  1.00  0.00     0.000 G0
ENDBRANCH   6   7
ENDBRANCH   5   6
ENDBRANCH   3   5
ENDBRANCH   1   3
BRANCH   1  11
ATOM     11  C   UNL     1     -13.236 -15.233  29.203  1.00  0.00     0.087 C 
BRANCH  11  12
ATOM     12  C   UNL     1     -12.988 -15.432  30.750  1.00  0.00     0.066 C 
BRANCH  12  13
ATOM     13  C   UNL     1     -12.271 -16.740  31.169  1.00  0.00     0.140 C 
ATOM     14  O   UNL     1     -11.175 -16.641  31.705  1.00  0.00    -0.299 OA
BRANCH  13  15
ATOM     15  C   UNL     1     -12.901 -18.141  31.074  1.00  0.00     0.106 CG0
ATOM     16  G   UNL     1     -11.954 -19.260  30.549  1.00  0.00     0.000 G0
ENDBRANCH  13  15
ENDBRANCH  12  13
BRANCH  12  17
ATOM     17  C   UNL     1     -14.304 -15.275  31.587  1.00  0.00    -0.006 C 
ATOM     18  C   UNL     1     -13.993 -15.083  33.086  1.00  0.00     0.008 C 
ATOM     19  C   UNL     1     -15.183 -14.100  31.119  1.00  0.00     0.008 C 
ENDBRANCH  12  17
ENDBRANCH  11  12
ENDBRANCH   1  11
TORSDOF 1
ENDMDL
MODEL 7
REMARK VINA RESULT:    -2.085      1.531      3.718
REMARK INTER + INTRA:          -3.212
REMARK INTER:                  -4.376
REMARK INTRA:                   1.164
REMARK UNBOUND:                -0.031
REMARK SMILES CC1=CCC[C@@H](C)C(=O)C[C@@H](C(C)C)C(=O)C1
REMARK SMILES IDX 8 1 9 2 6 3 7 4 5 5 4 6 3 7 2 8 1 9 10 11 11 12 15 13 16 14
REMARK SMILES IDX 17 15 12 17 13 18 14 19
REMARK H PARENT
REMARK Flexibility Score: 70.00
ROOT
ATOM      1  C   UNL     1     -13.209 -16.307  31.458  1.00  0.00     0.136 C 
ATOM      2  O   UNL     1     -13.787 -17.342  31.752  1.00  0.00    -0.299 OA
ENDROOT
BRANCH   1   3
ATOM      3  C   UNL     1     -13.943 -14.970  31.635  1.00  0.00     0.053 C 
ATOM      4  C   UNL     1     -15.068 -15.076  32.671  1.00  0.00     0.016 C 
BRANCH   3   5
ATOM      5  C   UNL     1     -14.447 -14.645  30.248  1.00  0.00     0.015 C 
BRANCH   5   6
ATOM      6  C   UNL     1     -13.712 -14.059  29.082  1.00  0.00     0.028 C 
BRANCH   6   7
ATOM      7  C   UNL     1     -13.805 -15.059  27.920  1.00  0.00    -0.028 C 
ATOM      8  C   UNL     1     -12.831 -15.873  27.367  1.00  0.00    -0.070 CG0
ATOM      9  C   UNL     1     -13.250 -16.650  26.140  1.00  0.00     0.039 C 
ATOM     10  G   UNL     1     -11.375 -16.107  27.870  1.00  0.00     0.000 G0
ENDBRANCH   6   7
ENDBRANCH   5   6
ENDBRANCH   3   5
ENDBRANCH   1   3
BRANCH   1  11
ATOM     11  C   UNL     1     -11.759 -16.385  30.948  1.00  0.00     0.087 C 
BRANCH  11  12
ATOM     12  C   UNL     1     -11.378 -17.659  30.097  1.00  0.00     0.066 C 
BRANCH  12  13
ATOM     13  C   UNL     1     -11.105 -17.423  28.590  1.00  0.00     0.140 C 
ATOM     14  O   UNL     1     -10.757 -18.383  27.917  1.00  0.00    -0.299 OA
BRANCH  13  15
ATOM     15  C   UNL     1     -11.368 -16.093  27.862  1.00  0.00     0.106 CG0
ATOM     16  G   UNL     1     -12.829 -15.887  27.361  1.00  0.00     0.000 G0
ENDBRANCH  13  15
ENDBRANCH  12  13
BRANCH  12  17
ATOM     17  C   UNL     1     -12.425 -18.815  30.256  1.00  0.00    -0.006 C 
ATOM     18  C   UNL     1     -13.038 -19.205  28.895  1.00  0.00     0.008 C 
ATOM     19  C   UNL     1     -11.835 -20.081  30.904  1.00  0.00     0.008 C 
ENDBRANCH  12  17
ENDBRANCH  11  12
ENDBRANCH   1  11
TORSDOF 1
ENDMDL
MODEL 8
REMARK VINA RESULT:    -1.999      1.667      3.923
REMARK INTER + INTRA:          -3.081
REMARK INTER:                  -4.888
REMARK INTRA:                   1.806
REMARK UNBOUND:                -0.031
REMARK SMILES CC1=CCC[C@@H](C)C(=O)C[C@@H](C(C)C)C(=O)C1
REMARK SMILES IDX 8 1 9 2 6 3 7 4 5 5 4 6 3 7 2 8 1 9 10 11 11 12 15 13 16 14
REMARK SMILES IDX 17 15 12 17 13 18 14 19
REMARK H PARENT
REMARK Flexibility Score: 70.00
ROOT
ATOM      1  C   UNL     1     -12.588 -18.895  28.446  1.00  0.00     0.136 C 
ATOM      2  O   UNL     1     -13.585 -18.294  28.076  1.00  0.00    -0.299 OA
ENDROOT
BRANCH   1   3
ATOM      3  C   UNL     1     -12.754 -20.274  29.101  1.00  0.00     0.053 C 
ATOM      4  C   UNL     1     -13.854 -21.096  28.420  1.00  0.00     0.016 C 
BRANCH   3   5
ATOM      5  C   UNL     1     -13.063 -19.955  30.545  1.00  0.00     0.015 C 
BRANCH   5   6
ATOM      6  C   UNL     1     -12.369 -19.015  31.482  1.00  0.00     0.028 C 
BRANCH   6   7
ATOM      7  C   UNL     1     -13.251 -17.766  31.628  1.00  0.00    -0.028 C 
ATOM      8  C   UNL     1     -13.001 -16.452  31.267  1.00  0.00    -0.070 CG0
ATOM      9  C   UNL     1     -14.057 -15.451  31.675  1.00  0.00     0.039 C 
ATOM     10  G   UNL     1     -11.787 -15.891  30.469  1.00  0.00     0.000 G0
ENDBRANCH   6   7
ENDBRANCH   5   6
ENDBRANCH   3   5
ENDBRANCH   1   3
BRANCH   1  11
ATOM     11  C   UNL     1     -11.208 -18.257  28.215  1.00  0.00     0.087 C 
BRANCH  11  12
ATOM     12  C   UNL     1     -11.187 -16.704  27.929  1.00  0.00     0.066 C 
BRANCH  12  13
ATOM     13  C   UNL     1     -11.956 -15.809  28.934  1.00  0.00     0.140 C 
ATOM     14  O   UNL     1     -12.827 -15.074  28.491  1.00  0.00    -0.299 OA
BRANCH  13  15
ATOM     15  C   UNL     1     -11.784 -15.882  30.462  1.00  0.00     0.106 CG0
ATOM     16  G   UNL     1     -13.008 -16.447  31.241  1.00  0.00     0.000 G0
ENDBRANCH  13  15
ENDBRANCH  12  13
BRANCH  12  17
ATOM     17  C   UNL     1     -11.655 -16.362  26.472  1.00  0.00    -0.006 C 
ATOM     18  C   UNL     1     -10.978 -17.284  25.437  1.00  0.00     0.008 C 
ATOM     19  C   UNL     1     -13.180 -16.460  26.286  1.00  0.00     0.008 C 
ENDBRANCH  12  17
ENDBRANCH  11  12
ENDBRANCH   1  11
TORSDOF 1
ENDMDL
MODEL 9
REMARK VINA RESULT:    -1.895      2.040      4.387
REMARK INTER + INTRA:          -2.923
REMARK INTER:                  -2.857
REMARK INTRA:                  -0.066
REMARK UNBOUND:                -0.031
REMARK SMILES CC1=CCC[C@@H](C)C(=O)C[C@@H](C(C)C)C(=O)C1
REMARK SMILES IDX 8 1 9 2 6 3 7 4 5 5 4 6 3 7 2 8 1 9 10 11 11 12 15 13 16 14
REMARK SMILES IDX 17 15 12 17 13 18 14 19
REMARK H PARENT
REMARK Flexibility Score: 70.00
ROOT
ATOM      1  C   UNL     1     -13.409 -16.010  31.032  1.00  0.00     0.136 C 
ATOM      2  O   UNL     1     -14.000 -14.957  31.218  1.00  0.00    -0.299 OA
ENDROOT
BRANCH   1   3
ATOM      3  C   UNL     1     -13.856 -17.258  31.807  1.00  0.00     0.053 C 
ATOM      4  C   UNL     1     -14.375 -16.902  33.204  1.00  0.00     0.016 C 
BRANCH   3   5
ATOM      5  C   UNL     1     -12.620 -18.127  31.839  1.00  0.00     0.015 C 
BRANCH   5   6
ATOM      6  C   UNL     1     -12.492 -19.608  31.657  1.00  0.00     0.028 C 
BRANCH   6   7
ATOM      7  C   UNL     1     -13.247 -19.987  30.374  1.00  0.00    -0.028 C 
ATOM      8  C   UNL     1     -12.904 -19.784  29.047  1.00  0.00    -0.070 CG0
ATOM      9  C   UNL     1     -13.954 -20.183  28.035  1.00  0.00     0.039 C 
ATOM     10  G   UNL     1     -11.566 -19.230  28.475  1.00  0.00     0.000 G0
ENDBRANCH   6   7
ENDBRANCH   5   6
ENDBRANCH   3   5
ENDBRANCH   1   3
BRANCH   1  11
ATOM     11  C   UNL     1     -12.261 -16.047  30.009  1.00  0.00     0.087 C 
BRANCH  11  12
ATOM     12  C   UNL     1     -12.590 -16.689  28.603  1.00  0.00     0.066 C 
BRANCH  12  13
ATOM     13  C   UNL     1     -11.574 -17.729  28.068  1.00  0.00     0.140 C 
ATOM     14  O   UNL     1     -10.664 -17.323  27.359  1.00  0.00    -0.299 OA
BRANCH  13  15
ATOM     15  C   UNL     1     -11.562 -19.214  28.474  1.00  0.00     0.106 CG0
ATOM     16  G   UNL     1     -12.907 -19.758  29.039  1.00  0.00     0.000 G0
ENDBRANCH  13  15
ENDBRANCH  12  13
BRANCH  12  17
ATOM     17  C   UNL     1     -12.847 -15.605  27.501  1.00  0.00    -0.006 C 
ATOM     18  C   UNL     1     -13.615 -16.199  26.302  1.00  0.00     0.008 C 
ATOM     19  C   UNL     1     -13.629 -14.384  28.022  1.00  0.00     0.008 C 
ENDBRANCH  12  17
ENDBRANCH  11  12
ENDBRANCH   1  11
TORSDOF 1
ENDMDL
