MODEL 1
REMARK VINA RESULT:    -7.968      0.000      0.000
REMARK INTER + INTRA:         -12.146
REMARK INTER:                 -10.996
REMARK INTRA:                  -1.150
REMARK UNBOUND:                -1.150
REMARK SMILES O=C([O-])[C@H]1O[C@H](Oc2cc3oc(-c4ccccc4)cc(=O)c3c(O)c2O)[C@@H](O)[C@@H](O)[C@H]1O
REMARK SMILES IDX 7 1 6 2 4 3 31 4 5 5 29 6 27 7 2 8 1 9 3 10 32 11 30 13
REMARK SMILES IDX 28 15 8 17 25 18 9 19 23 20 10 21 22 22 11 23 20 24 12 25
REMARK SMILES IDX 19 26 21 27 26 28 24 30 13 32 14 33 18 34 15 35 17 36 16 37
REMARK H PARENT 32 12 30 14 28 16 26 29 24 31
REMARK Flexibility Score: inf
ROOT
ATOM      1  O   UNL     1       4.608  -5.974  36.955  1.00  0.00    -0.458 OA
ENDROOT
BRANCH   1   2
ATOM      2  C   UNL     1       3.889  -6.809  36.038  1.00  0.00     0.339 C 
ATOM      3  C   UNL     1       5.759  -7.123  34.648  1.00  0.00     0.199 C 
ATOM      4  C   UNL     1       5.887  -8.627  34.968  1.00  0.00     0.180 C 
ATOM      5  O   UNL     1       4.408  -6.695  34.717  1.00  0.00    -0.328 OA
ATOM      6  C   UNL     1       5.305  -8.903  36.365  1.00  0.00     0.181 C 
ATOM      7  C   UNL     1       3.906  -8.272  36.533  1.00  0.00     0.214 C 
BRANCH   3   8
ATOM      8  C   UNL     1       6.297  -6.823  33.279  1.00  0.00     0.073 C 
ATOM      9  O   UNL     1       7.470  -6.373  33.144  1.00  0.00    -0.547 OA
ATOM     10  O   UNL     1       5.511  -7.046  32.151  1.00  0.00    -0.547 OA
ENDBRANCH   3   8
BRANCH   4  11
ATOM     11  O   UNL     1       5.215  -9.399  34.002  1.00  0.00    -0.387 OA
ATOM     12  H   UNL     1       5.812  -9.462  33.209  1.00  0.00     0.211 HD
ENDBRANCH   4  11
BRANCH   6  13
ATOM     13  O   UNL     1       5.256 -10.286  36.597  1.00  0.00    -0.387 OA
ATOM     14  H   UNL     1       5.972 -10.695  36.042  1.00  0.00     0.211 HD
ENDBRANCH   6  13
BRANCH   7  15
ATOM     15  O   UNL     1       2.913  -9.043  35.897  1.00  0.00    -0.384 OA
ATOM     16  H   UNL     1       2.915  -8.820  34.930  1.00  0.00     0.211 HD
ENDBRANCH   7  15
ENDBRANCH   1   2
BRANCH   1  17
ATOM     17  C   UNL     1       4.533  -4.573  36.996  1.00  0.00     0.172 A 
ATOM     18  C   UNL     1       3.432  -3.880  37.541  1.00  0.00     0.201 A 
ATOM     19  C   UNL     1       5.622  -3.861  36.495  1.00  0.00     0.098 A 
ATOM     20  C   UNL     1       3.405  -2.461  37.508  1.00  0.00     0.176 A 
ATOM     21  C   UNL     1       5.618  -2.470  36.471  1.00  0.00     0.146 A 
ATOM     22  C   UNL     1       4.513  -1.753  36.977  1.00  0.00     0.111 A 
ATOM     23  O   UNL     1       6.666  -1.832  35.960  1.00  0.00    -0.456 OA
ATOM     24  C   UNL     1       4.571  -0.343  36.914  1.00  0.00     0.197 A 
ATOM     25  C   UNL     1       6.755  -0.507  35.888  1.00  0.00     0.138 A 
ATOM     26  C   UNL     1       5.694   0.278  36.366  1.00  0.00     0.100 A 
ATOM     27  O   UNL     1       3.626   0.376  37.340  1.00  0.00    -0.289 OA
BRANCH  18  28
ATOM     28  O   UNL     1       2.410  -4.617  38.144  1.00  0.00    -0.502 OA
ATOM     29  H   UNL     1       1.773  -4.253  38.839  1.00  0.00     0.293 HD
ENDBRANCH  18  28
BRANCH  20  30
ATOM     30  O   UNL     1       2.300  -1.742  37.983  1.00  0.00    -0.504 OA
ATOM     31  H   UNL     1       2.039  -0.816  37.670  1.00  0.00     0.293 HD
ENDBRANCH  20  30
BRANCH  25  32
ATOM     32  C   UNL     1       7.975   0.093  35.287  1.00  0.00     0.017 A 
ATOM     33  C   UNL     1       8.523  -0.387  34.079  1.00  0.00     0.012 A 
ATOM     34  C   UNL     1       8.588   1.194  35.919  1.00  0.00     0.012 A 
ATOM     35  C   UNL     1       9.662   0.215  33.531  1.00  0.00     0.001 A 
ATOM     36  C   UNL     1       9.727   1.790  35.365  1.00  0.00     0.001 A 
ATOM     37  C   UNL     1      10.264   1.301  34.172  1.00  0.00     0.000 A 
ENDBRANCH  25  32
ENDBRANCH   1  17
TORSDOF 9
ENDMDL
MODEL 2
REMARK VINA RESULT:    -7.856      1.211      2.577
REMARK INTER + INTRA:         -11.991
REMARK INTER:                 -11.058
REMARK INTRA:                  -0.934
REMARK UNBOUND:                -1.150
REMARK SMILES O=C([O-])[C@H]1O[C@H](Oc2cc3oc(-c4ccccc4)cc(=O)c3c(O)c2O)[C@@H](O)[C@@H](O)[C@H]1O
REMARK SMILES IDX 7 1 6 2 4 3 31 4 5 5 29 6 27 7 2 8 1 9 3 10 32 11 30 13
REMARK SMILES IDX 28 15 8 17 25 18 9 19 23 20 10 21 22 22 11 23 20 24 12 25
REMARK SMILES IDX 19 26 21 27 26 28 24 30 13 32 14 33 18 34 15 35 17 36 16 37
REMARK H PARENT 32 12 30 14 28 16 26 29 24 31
REMARK Flexibility Score: inf
ROOT
ATOM      1  O   UNL     1       5.586  -5.946  36.006  1.00  0.00    -0.458 OA
ENDROOT
BRANCH   1   2
ATOM      2  C   UNL     1       6.518  -6.448  35.038  1.00  0.00     0.339 C 
ATOM      3  C   UNL     1       5.590  -8.608  35.066  1.00  0.00     0.199 C 
ATOM      4  C   UNL     1       5.066  -8.525  33.617  1.00  0.00     0.180 C 
ATOM      5  O   UNL     1       6.769  -7.836  35.231  1.00  0.00    -0.328 OA
ATOM      6  C   UNL     1       4.801  -7.053  33.254  1.00  0.00     0.181 C 
ATOM      7  C   UNL     1       6.005  -6.154  33.612  1.00  0.00     0.214 C 
BRANCH   3   8
ATOM      8  C   UNL     1       5.881 -10.031  35.444  1.00  0.00     0.073 C 
ATOM      9  O   UNL     1       4.978 -10.745  35.965  1.00  0.00    -0.547 OA
ATOM     10  O   UNL     1       7.143 -10.574  35.218  1.00  0.00    -0.547 OA
ENDBRANCH   3   8
BRANCH   4  11
ATOM     11  O   UNL     1       5.993  -9.086  32.720  1.00  0.00    -0.387 OA
ATOM     12  H   UNL     1       6.584  -8.349  32.410  1.00  0.00     0.211 HD
ENDBRANCH   4  11
BRANCH   6  13
ATOM     13  O   UNL     1       4.492  -6.946  31.889  1.00  0.00    -0.387 OA
ATOM     14  H   UNL     1       3.984  -7.765  31.647  1.00  0.00     0.211 HD
ENDBRANCH   6  13
BRANCH   7  15
ATOM     15  O   UNL     1       7.036  -6.271  32.659  1.00  0.00    -0.384 OA
ATOM     16  H   UNL     1       7.438  -5.374  32.521  1.00  0.00     0.211 HD
ENDBRANCH   7  15
ENDBRANCH   1   2
BRANCH   1  17
ATOM     17  C   UNL     1       5.339  -4.588  36.256  1.00  0.00     0.172 A 
ATOM     18  C   UNL     1       4.138  -4.120  36.830  1.00  0.00     0.201 A 
ATOM     19  C   UNL     1       6.352  -3.684  35.937  1.00  0.00     0.098 A 
ATOM     20  C   UNL     1       3.939  -2.726  37.013  1.00  0.00     0.176 A 
ATOM     21  C   UNL     1       6.179  -2.317  36.126  1.00  0.00     0.146 A 
ATOM     22  C   UNL     1       4.973  -1.821  36.666  1.00  0.00     0.111 A 
ATOM     23  O   UNL     1       7.162  -1.490  35.784  1.00  0.00    -0.456 OA
ATOM     24  C   UNL     1       4.860  -0.422  36.823  1.00  0.00     0.197 A 
ATOM     25  C   UNL     1       7.090  -0.169  35.921  1.00  0.00     0.138 A 
ATOM     26  C   UNL     1       5.921   0.403  36.448  1.00  0.00     0.100 A 
ATOM     27  O   UNL     1       3.816   0.107  37.294  1.00  0.00    -0.289 OA
BRANCH  18  28
ATOM     28  O   UNL     1       3.190  -5.056  37.249  1.00  0.00    -0.502 OA
ATOM     29  H   UNL     1       2.239  -4.832  37.511  1.00  0.00     0.293 HD
ENDBRANCH  18  28
BRANCH  20  30
ATOM     30  O   UNL     1       2.734  -2.224  37.523  1.00  0.00    -0.504 OA
ATOM     31  H   UNL     1       1.857  -2.213  37.020  1.00  0.00     0.293 HD
ENDBRANCH  20  30
BRANCH  25  32
ATOM     32  C   UNL     1       8.252   0.654  35.496  1.00  0.00     0.017 A 
ATOM     33  C   UNL     1       8.461   1.007  34.146  1.00  0.00     0.012 A 
ATOM     34  C   UNL     1       9.157   1.128  36.467  1.00  0.00     0.012 A 
ATOM     35  C   UNL     1       9.555   1.801  33.783  1.00  0.00     0.001 A 
ATOM     36  C   UNL     1      10.249   1.922  36.097  1.00  0.00     0.001 A 
ATOM     37  C   UNL     1      10.449   2.257  34.756  1.00  0.00     0.000 A 
ENDBRANCH  25  32
ENDBRANCH   1  17
TORSDOF 9
ENDMDL
MODEL 3
REMARK VINA RESULT:    -7.761      1.328      2.790
REMARK INTER + INTRA:         -11.859
REMARK INTER:                 -10.532
REMARK INTRA:                  -1.328
REMARK UNBOUND:                -1.150
REMARK SMILES O=C([O-])[C@H]1O[C@H](Oc2cc3oc(-c4ccccc4)cc(=O)c3c(O)c2O)[C@@H](O)[C@@H](O)[C@H]1O
REMARK SMILES IDX 7 1 6 2 4 3 31 4 5 5 29 6 27 7 2 8 1 9 3 10 32 11 30 13
REMARK SMILES IDX 28 15 8 17 25 18 9 19 23 20 10 21 22 22 11 23 20 24 12 25
REMARK SMILES IDX 19 26 21 27 26 28 24 30 13 32 14 33 18 34 15 35 17 36 16 37
REMARK H PARENT 32 12 30 14 28 16 26 29 24 31
REMARK Flexibility Score: inf
ROOT
ATOM      1  O   UNL     1       5.129  -6.195  35.268  1.00  0.00    -0.458 OA
ENDROOT
BRANCH   1   2
ATOM      2  C   UNL     1       5.738  -7.265  36.004  1.00  0.00     0.339 C 
ATOM      3  C   UNL     1       3.677  -8.287  36.488  1.00  0.00     0.199 C 
ATOM      4  C   UNL     1       3.962  -9.533  35.624  1.00  0.00     0.180 C 
ATOM      5  O   UNL     1       4.874  -7.748  37.027  1.00  0.00    -0.328 OA
ATOM      6  C   UNL     1       4.941  -9.159  34.497  1.00  0.00     0.181 C 
ATOM      7  C   UNL     1       6.166  -8.391  35.039  1.00  0.00     0.214 C 
BRANCH   3   8
ATOM      8  C   UNL     1       2.742  -8.623  37.613  1.00  0.00     0.073 C 
ATOM      9  O   UNL     1       2.704  -7.893  38.643  1.00  0.00    -0.547 OA
ATOM     10  O   UNL     1       1.910  -9.736  37.526  1.00  0.00    -0.547 OA
ENDBRANCH   3   8
BRANCH   4  11
ATOM     11  O   UNL     1       4.502 -10.569  36.409  1.00  0.00    -0.387 OA
ATOM     12  H   UNL     1       3.940 -10.640  37.227  1.00  0.00     0.211 HD
ENDBRANCH   4  11
BRANCH   6  13
ATOM     13  O   UNL     1       5.344 -10.316  33.812  1.00  0.00    -0.387 OA
ATOM     14  H   UNL     1       5.270 -11.069  34.455  1.00  0.00     0.211 HD
ENDBRANCH   6  13
BRANCH   7  15
ATOM     15  O   UNL     1       7.094  -9.262  35.642  1.00  0.00    -0.384 OA
ATOM     16  H   UNL     1       7.676  -8.731  36.246  1.00  0.00     0.211 HD
ENDBRANCH   7  15
ENDBRANCH   1   2
BRANCH   1  17
ATOM     17  C   UNL     1       5.064  -4.860  35.693  1.00  0.00     0.172 A 
ATOM     18  C   UNL     1       4.005  -4.355  36.475  1.00  0.00     0.201 A 
ATOM     19  C   UNL     1       6.121  -4.023  35.335  1.00  0.00     0.098 A 
ATOM     20  C   UNL     1       3.982  -2.981  36.832  1.00  0.00     0.176 A 
ATOM     21  C   UNL     1       6.122  -2.678  35.690  1.00  0.00     0.146 A 
ATOM     22  C   UNL     1       5.056  -2.141  36.443  1.00  0.00     0.111 A 
ATOM     23  O   UNL     1       7.137  -1.911  35.305  1.00  0.00    -0.456 OA
ATOM     24  C   UNL     1       5.116  -0.766  36.762  1.00  0.00     0.197 A 
ATOM     25  C   UNL     1       7.228  -0.616  35.591  1.00  0.00     0.138 A 
ATOM     26  C   UNL     1       6.204  -0.005  36.333  1.00  0.00     0.100 A 
ATOM     27  O   UNL     1       4.205  -0.203  37.428  1.00  0.00    -0.289 OA
BRANCH  18  28
ATOM     28  O   UNL     1       3.021  -5.242  36.920  1.00  0.00    -0.502 OA
ATOM     29  H   UNL     1       2.933  -5.573  37.871  1.00  0.00     0.293 HD
ENDBRANCH  18  28
BRANCH  20  30
ATOM     30  O   UNL     1       2.914  -2.433  37.555  1.00  0.00    -0.504 OA
ATOM     31  H   UNL     1       2.997  -2.009  38.469  1.00  0.00     0.293 HD
ENDBRANCH  20  30
BRANCH  25  32
ATOM     32  C   UNL     1       8.407   0.141  35.099  1.00  0.00     0.017 A 
ATOM     33  C   UNL     1       8.978   1.197  35.840  1.00  0.00     0.012 A 
ATOM     34  C   UNL     1       9.001  -0.222  33.872  1.00  0.00     0.012 A 
ATOM     35  C   UNL     1      10.102   1.876  35.355  1.00  0.00     0.001 A 
ATOM     36  C   UNL     1      10.124   0.461  33.394  1.00  0.00     0.001 A 
ATOM     37  C   UNL     1      10.674   1.510  34.134  1.00  0.00     0.000 A 
ENDBRANCH  25  32
ENDBRANCH   1  17
TORSDOF 9
ENDMDL
MODEL 4
REMARK VINA RESULT:    -7.685      1.397      3.010
REMARK INTER + INTRA:         -11.756
REMARK INTER:                 -10.744
REMARK INTRA:                  -1.012
REMARK UNBOUND:                -1.150
REMARK SMILES O=C([O-])[C@H]1O[C@H](Oc2cc3oc(-c4ccccc4)cc(=O)c3c(O)c2O)[C@@H](O)[C@@H](O)[C@H]1O
REMARK SMILES IDX 7 1 6 2 4 3 31 4 5 5 29 6 27 7 2 8 1 9 3 10 32 11 30 13
REMARK SMILES IDX 28 15 8 17 25 18 9 19 23 20 10 21 22 22 11 23 20 24 12 25
REMARK SMILES IDX 19 26 21 27 26 28 24 30 13 32 14 33 18 34 15 35 17 36 16 37
REMARK H PARENT 32 12 30 14 28 16 26 29 24 31
REMARK Flexibility Score: inf
ROOT
ATOM      1  O   UNL     1       3.417  -5.710  36.851  1.00  0.00    -0.458 OA
ENDROOT
BRANCH   1   2
ATOM      2  C   UNL     1       4.280  -6.678  37.463  1.00  0.00     0.339 C 
ATOM      3  C   UNL     1       2.801  -8.458  37.051  1.00  0.00     0.199 C 
ATOM      4  C   UNL     1       3.740  -9.156  36.046  1.00  0.00     0.180 C 
ATOM      5  O   UNL     1       3.536  -7.749  38.035  1.00  0.00    -0.328 OA
ATOM      6  C   UNL     1       4.652  -8.107  35.385  1.00  0.00     0.181 C 
ATOM      7  C   UNL     1       5.313  -7.187  36.435  1.00  0.00     0.214 C 
BRANCH   3   8
ATOM      8  C   UNL     1       1.913  -9.459  37.731  1.00  0.00     0.073 C 
ATOM      9  O   UNL     1       1.718 -10.592  37.206  1.00  0.00    -0.547 OA
ATOM     10  O   UNL     1       1.307  -9.149  38.945  1.00  0.00    -0.547 OA
ENDBRANCH   3   8
BRANCH   4  11
ATOM     11  O   UNL     1       4.519 -10.136  36.690  1.00  0.00    -0.387 OA
ATOM     12  H   UNL     1       4.986 -10.653  35.981  1.00  0.00     0.211 HD
ENDBRANCH   4  11
BRANCH   6  13
ATOM     13  O   UNL     1       5.625  -8.745  34.602  1.00  0.00    -0.387 OA
ATOM     14  H   UNL     1       5.849  -8.123  33.860  1.00  0.00     0.211 HD
ENDBRANCH   6  13
BRANCH   7  15
ATOM     15  O   UNL     1       6.399  -7.825  37.067  1.00  0.00    -0.384 OA
ATOM     16  H   UNL     1       7.147  -7.176  37.136  1.00  0.00     0.211 HD
ENDBRANCH   7  15
ENDBRANCH   1   2
BRANCH   1  17
ATOM     17  C   UNL     1       3.518  -4.321  37.019  1.00  0.00     0.172 A 
ATOM     18  C   UNL     1       2.533  -3.555  37.676  1.00  0.00     0.201 A 
ATOM     19  C   UNL     1       4.667  -3.700  36.528  1.00  0.00     0.098 A 
ATOM     20  C   UNL     1       2.681  -2.145  37.769  1.00  0.00     0.176 A 
ATOM     21  C   UNL     1       4.834  -2.323  36.627  1.00  0.00     0.146 A 
ATOM     22  C   UNL     1       3.847  -1.529  37.248  1.00  0.00     0.111 A 
ATOM     23  O   UNL     1       5.933  -1.770  36.122  1.00  0.00    -0.456 OA
ATOM     24  C   UNL     1       4.076  -0.136  37.307  1.00  0.00     0.197 A 
ATOM     25  C   UNL     1       6.182  -0.465  36.163  1.00  0.00     0.138 A 
ATOM     26  C   UNL     1       5.246   0.394  36.761  1.00  0.00     0.100 A 
ATOM     27  O   UNL     1       3.245   0.647  37.840  1.00  0.00    -0.289 OA
BRANCH  18  28
ATOM     28  O   UNL     1       1.452  -4.217  38.261  1.00  0.00    -0.502 OA
ATOM     29  H   UNL     1       0.609  -3.764  38.588  1.00  0.00     0.293 HD
ENDBRANCH  18  28
BRANCH  20  30
ATOM     30  O   UNL     1       1.692  -1.347  38.360  1.00  0.00    -0.504 OA
ATOM     31  H   UNL     1       0.732  -1.298  38.049  1.00  0.00     0.293 HD
ENDBRANCH  20  30
BRANCH  25  32
ATOM     32  C   UNL     1       7.443   0.038  35.558  1.00  0.00     0.017 A 
ATOM     33  C   UNL     1       8.138   1.143  36.093  1.00  0.00     0.012 A 
ATOM     34  C   UNL     1       7.984  -0.622  34.436  1.00  0.00     0.012 A 
ATOM     35  C   UNL     1       9.333   1.578  35.510  1.00  0.00     0.001 A 
ATOM     36  C   UNL     1       9.179  -0.181  33.857  1.00  0.00     0.001 A 
ATOM     37  C   UNL     1       9.853   0.918  34.393  1.00  0.00     0.000 A 
ENDBRANCH  25  32
ENDBRANCH   1  17
TORSDOF 9
ENDMDL
MODEL 5
REMARK VINA RESULT:    -7.558      2.456      6.098
REMARK INTER + INTRA:         -11.579
REMARK INTER:                 -10.713
REMARK INTRA:                  -0.867
REMARK UNBOUND:                -1.150
REMARK SMILES O=C([O-])[C@H]1O[C@H](Oc2cc3oc(-c4ccccc4)cc(=O)c3c(O)c2O)[C@@H](O)[C@@H](O)[C@H]1O
REMARK SMILES IDX 7 1 6 2 4 3 31 4 5 5 29 6 27 7 2 8 1 9 3 10 32 11 30 13
REMARK SMILES IDX 28 15 8 17 25 18 9 19 23 20 10 21 22 22 11 23 20 24 12 25
REMARK SMILES IDX 19 26 21 27 26 28 24 30 13 32 14 33 18 34 15 35 17 36 16 37
REMARK H PARENT 32 12 30 14 28 16 26 29 24 31
REMARK Flexibility Score: inf
ROOT
ATOM      1  O   UNL     1       1.954  -4.326  38.263  1.00  0.00    -0.458 OA
ENDROOT
BRANCH   1   2
ATOM      2  C   UNL     1       2.206  -4.286  39.675  1.00  0.00     0.339 C 
ATOM      3  C   UNL     1       1.991  -1.948  39.785  1.00  0.00     0.199 C 
ATOM      4  C   UNL     1       0.703  -1.992  40.633  1.00  0.00     0.180 C 
ATOM      5  O   UNL     1       2.825  -3.063  40.057  1.00  0.00    -0.328 OA
ATOM      6  C   UNL     1      -0.047  -3.307  40.354  1.00  0.00     0.181 C 
ATOM      7  C   UNL     1       0.893  -4.528  40.451  1.00  0.00     0.214 C 
BRANCH   3   8
ATOM      8  C   UNL     1       2.759  -0.686  40.051  1.00  0.00     0.073 C 
ATOM      9  O   UNL     1       2.942  -0.296  41.239  1.00  0.00    -0.547 OA
ATOM     10  O   UNL     1       3.279   0.057  38.994  1.00  0.00    -0.547 OA
ENDBRANCH   3   8
BRANCH   4  11
ATOM     11  O   UNL     1       1.006  -1.889  42.003  1.00  0.00    -0.387 OA
ATOM     12  H   UNL     1       1.881  -2.340  42.145  1.00  0.00     0.211 HD
ENDBRANCH   4  11
BRANCH   6  13
ATOM     13  O   UNL     1      -1.124  -3.439  41.244  1.00  0.00    -0.387 OA
ATOM     14  H   UNL     1      -0.968  -4.273  41.761  1.00  0.00     0.211 HD
ENDBRANCH   6  13
BRANCH   7  15
ATOM     15  O   UNL     1       1.144  -4.881  41.791  1.00  0.00    -0.384 OA
ATOM     16  H   UNL     1       1.754  -4.203  42.184  1.00  0.00     0.211 HD
ENDBRANCH   7  15
ENDBRANCH   1   2
BRANCH   1  17
ATOM     17  C   UNL     1       2.940  -4.448  37.273  1.00  0.00     0.172 A 
ATOM     18  C   UNL     1       3.098  -5.609  36.488  1.00  0.00     0.201 A 
ATOM     19  C   UNL     1       3.771  -3.348  37.058  1.00  0.00     0.098 A 
ATOM     20  C   UNL     1       4.147  -5.680  35.534  1.00  0.00     0.176 A 
ATOM     21  C   UNL     1       4.793  -3.396  36.116  1.00  0.00     0.146 A 
ATOM     22  C   UNL     1       4.993  -4.559  35.342  1.00  0.00     0.111 A 
ATOM     23  O   UNL     1       5.576  -2.333  35.962  1.00  0.00    -0.456 OA
ATOM     24  C   UNL     1       6.055  -4.542  34.410  1.00  0.00     0.197 A 
ATOM     25  C   UNL     1       6.581  -2.281  35.093  1.00  0.00     0.138 A 
ATOM     26  C   UNL     1       6.849  -3.401  34.288  1.00  0.00     0.100 A 
ATOM     27  O   UNL     1       6.307  -5.539  33.681  1.00  0.00    -0.289 OA
BRANCH  18  28
ATOM     28  O   UNL     1       2.179  -6.649  36.641  1.00  0.00    -0.502 OA
ATOM     29  H   UNL     1       1.214  -6.528  36.919  1.00  0.00     0.293 HD
ENDBRANCH  18  28
BRANCH  20  30
ATOM     30  O   UNL     1       4.371  -6.841  34.781  1.00  0.00    -0.504 OA
ATOM     31  H   UNL     1       5.277  -7.146  34.451  1.00  0.00     0.293 HD
ENDBRANCH  20  30
BRANCH  25  32
ATOM     32  C   UNL     1       7.394  -1.040  35.017  1.00  0.00     0.017 A 
ATOM     33  C   UNL     1       8.247  -0.774  33.925  1.00  0.00     0.012 A 
ATOM     34  C   UNL     1       7.290  -0.080  36.044  1.00  0.00     0.012 A 
ATOM     35  C   UNL     1       8.984   0.415  33.876  1.00  0.00     0.001 A 
ATOM     36  C   UNL     1       8.030   1.106  35.989  1.00  0.00     0.001 A 
ATOM     37  C   UNL     1       8.877   1.354  34.906  1.00  0.00     0.000 A 
ENDBRANCH  25  32
ENDBRANCH   1  17
TORSDOF 9
ENDMDL
MODEL 6
REMARK VINA RESULT:    -7.406      2.649      6.037
REMARK INTER + INTRA:         -11.370
REMARK INTER:                 -10.311
REMARK INTRA:                  -1.058
REMARK UNBOUND:                -1.150
REMARK SMILES O=C([O-])[C@H]1O[C@H](Oc2cc3oc(-c4ccccc4)cc(=O)c3c(O)c2O)[C@@H](O)[C@@H](O)[C@H]1O
REMARK SMILES IDX 7 1 6 2 4 3 31 4 5 5 29 6 27 7 2 8 1 9 3 10 32 11 30 13
REMARK SMILES IDX 28 15 8 17 25 18 9 19 23 20 10 21 22 22 11 23 20 24 12 25
REMARK SMILES IDX 19 26 21 27 26 28 24 30 13 32 14 33 18 34 15 35 17 36 16 37
REMARK H PARENT 32 12 30 14 28 16 26 29 24 31
REMARK Flexibility Score: inf
ROOT
ATOM      1  O   UNL     1       2.787  -4.128  38.632  1.00  0.00    -0.458 OA
ENDROOT
BRANCH   1   2
ATOM      2  C   UNL     1       1.464  -3.577  38.670  1.00  0.00     0.339 C 
ATOM      3  C   UNL     1       0.692  -5.182  40.204  1.00  0.00     0.199 C 
ATOM      4  C   UNL     1       0.491  -4.162  41.344  1.00  0.00     0.180 C 
ATOM      5  O   UNL     1       0.490  -4.581  38.934  1.00  0.00    -0.328 OA
ATOM      6  C   UNL     1       1.457  -2.981  41.148  1.00  0.00     0.181 C 
ATOM      7  C   UNL     1       1.400  -2.433  39.705  1.00  0.00     0.214 C 
BRANCH   3   8
ATOM      8  C   UNL     1      -0.254  -6.338  40.353  1.00  0.00     0.073 C 
ATOM      9  O   UNL     1      -1.044  -6.386  41.337  1.00  0.00    -0.547 OA
ATOM     10  O   UNL     1      -0.271  -7.358  39.405  1.00  0.00    -0.547 OA
ENDBRANCH   3   8
BRANCH   4  11
ATOM     11  O   UNL     1      -0.838  -3.701  41.370  1.00  0.00    -0.387 OA
ATOM     12  H   UNL     1      -0.892  -2.924  40.752  1.00  0.00     0.211 HD
ENDBRANCH   4  11
BRANCH   6  13
ATOM     13  O   UNL     1       1.166  -1.967  42.074  1.00  0.00    -0.387 OA
ATOM     14  H   UNL     1       0.423  -1.432  41.689  1.00  0.00     0.211 HD
ENDBRANCH   6  13
BRANCH   7  15
ATOM     15  O   UNL     1       0.265  -1.621  39.507  1.00  0.00    -0.384 OA
ATOM     16  H   UNL     1       0.571  -0.696  39.318  1.00  0.00     0.211 HD
ENDBRANCH   7  15
ENDBRANCH   1   2
BRANCH   1  17
ATOM     17  C   UNL     1       3.621  -4.144  37.504  1.00  0.00     0.172 A 
ATOM     18  C   UNL     1       3.639  -5.207  36.578  1.00  0.00     0.201 A 
ATOM     19  C   UNL     1       4.440  -3.033  37.300  1.00  0.00     0.098 A 
ATOM     20  C   UNL     1       4.542  -5.175  35.483  1.00  0.00     0.176 A 
ATOM     21  C   UNL     1       5.319  -2.979  36.223  1.00  0.00     0.146 A 
ATOM     22  C   UNL     1       5.380  -4.046  35.301  1.00  0.00     0.111 A 
ATOM     23  O   UNL     1       6.099  -1.912  36.081  1.00  0.00    -0.456 OA
ATOM     24  C   UNL     1       6.301  -3.930  34.236  1.00  0.00     0.197 A 
ATOM     25  C   UNL     1       6.972  -1.769  35.089  1.00  0.00     0.138 A 
ATOM     26  C   UNL     1       7.097  -2.789  34.133  1.00  0.00     0.100 A 
ATOM     27  O   UNL     1       6.424  -4.838  33.370  1.00  0.00    -0.289 OA
BRANCH  18  28
ATOM     28  O   UNL     1       2.725  -6.250  36.742  1.00  0.00    -0.502 OA
ATOM     29  H   UNL     1       2.214  -6.691  35.988  1.00  0.00     0.293 HD
ENDBRANCH  18  28
BRANCH  20  30
ATOM     30  O   UNL     1       4.630  -6.243  34.579  1.00  0.00    -0.504 OA
ATOM     31  H   UNL     1       5.472  -6.512  34.089  1.00  0.00     0.293 HD
ENDBRANCH  20  30
BRANCH  25  32
ATOM     32  C   UNL     1       7.797  -0.534  35.040  1.00  0.00     0.017 A 
ATOM     33  C   UNL     1       7.833   0.381  36.113  1.00  0.00     0.012 A 
ATOM     34  C   UNL     1       8.594  -0.277  33.905  1.00  0.00     0.012 A 
ATOM     35  C   UNL     1       8.637   1.525  36.041  1.00  0.00     0.001 A 
ATOM     36  C   UNL     1       9.394   0.869  33.840  1.00  0.00     0.001 A 
ATOM     37  C   UNL     1       9.415   1.770  34.907  1.00  0.00     0.000 A 
ENDBRANCH  25  32
ENDBRANCH   1  17
TORSDOF 9
ENDMDL
MODEL 7
REMARK VINA RESULT:    -7.349      2.527      5.867
REMARK INTER + INTRA:         -11.291
REMARK INTER:                 -10.171
REMARK INTRA:                  -1.121
REMARK UNBOUND:                -1.150
REMARK SMILES O=C([O-])[C@H]1O[C@H](Oc2cc3oc(-c4ccccc4)cc(=O)c3c(O)c2O)[C@@H](O)[C@@H](O)[C@H]1O
REMARK SMILES IDX 7 1 6 2 4 3 31 4 5 5 29 6 27 7 2 8 1 9 3 10 32 11 30 13
REMARK SMILES IDX 28 15 8 17 25 18 9 19 23 20 10 21 22 22 11 23 20 24 12 25
REMARK SMILES IDX 19 26 21 27 26 28 24 30 13 32 14 33 18 34 15 35 17 36 16 37
REMARK H PARENT 32 12 30 14 28 16 26 29 24 31
REMARK Flexibility Score: inf
ROOT
ATOM      1  O   UNL     1       3.056  -4.084  38.951  1.00  0.00    -0.458 OA
ENDROOT
BRANCH   1   2
ATOM      2  C   UNL     1       2.497  -2.917  39.570  1.00  0.00     0.339 C 
ATOM      3  C   UNL     1       0.356  -3.302  38.678  1.00  0.00     0.199 C 
ATOM      4  C   UNL     1      -0.288  -3.592  40.050  1.00  0.00     0.180 C 
ATOM      5  O   UNL     1       1.429  -2.381  38.797  1.00  0.00    -0.328 OA
ATOM      6  C   UNL     1       0.784  -4.133  41.013  1.00  0.00     0.181 C 
ATOM      7  C   UNL     1       2.049  -3.248  41.010  1.00  0.00     0.214 C 
BRANCH   3   8
ATOM      8  C   UNL     1      -0.659  -2.750  37.721  1.00  0.00     0.073 C 
ATOM      9  O   UNL     1      -1.114  -3.475  36.792  1.00  0.00    -0.547 OA
ATOM     10  O   UNL     1      -1.110  -1.439  37.855  1.00  0.00    -0.547 OA
ENDBRANCH   3   8
BRANCH   4  11
ATOM     11  O   UNL     1      -0.871  -2.427  40.581  1.00  0.00    -0.387 OA
ATOM     12  H   UNL     1      -1.798  -2.661  40.854  1.00  0.00     0.211 HD
ENDBRANCH   4  11
BRANCH   6  13
ATOM     13  O   UNL     1       0.253  -4.236  42.308  1.00  0.00    -0.387 OA
ATOM     14  H   UNL     1      -0.227  -5.104  42.352  1.00  0.00     0.211 HD
ENDBRANCH   6  13
BRANCH   7  15
ATOM     15  O   UNL     1       1.862  -2.079  41.774  1.00  0.00    -0.384 OA
ATOM     16  H   UNL     1       2.677  -1.928  42.320  1.00  0.00     0.211 HD
ENDBRANCH   7  15
ENDBRANCH   1   2
BRANCH   1  17
ATOM     17  C   UNL     1       3.813  -4.084  37.770  1.00  0.00     0.172 A 
ATOM     18  C   UNL     1       3.747  -5.121  36.817  1.00  0.00     0.201 A 
ATOM     19  C   UNL     1       4.640  -2.984  37.541  1.00  0.00     0.098 A 
ATOM     20  C   UNL     1       4.577  -5.077  35.666  1.00  0.00     0.176 A 
ATOM     21  C   UNL     1       5.447  -2.917  36.410  1.00  0.00     0.146 A 
ATOM     22  C   UNL     1       5.425  -3.959  35.459  1.00  0.00     0.111 A 
ATOM     23  O   UNL     1       6.238  -1.862  36.245  1.00  0.00    -0.456 OA
ATOM     24  C   UNL     1       6.275  -3.832  34.338  1.00  0.00     0.197 A 
ATOM     25  C   UNL     1       7.048  -1.708  35.202  1.00  0.00     0.138 A 
ATOM     26  C   UNL     1       7.088  -2.704  34.213  1.00  0.00     0.100 A 
ATOM     27  O   UNL     1       6.323  -4.718  33.442  1.00  0.00    -0.289 OA
BRANCH  18  28
ATOM     28  O   UNL     1       2.824  -6.151  37.013  1.00  0.00    -0.502 OA
ATOM     29  H   UNL     1       1.916  -6.201  36.572  1.00  0.00     0.293 HD
ENDBRANCH  18  28
BRANCH  20  30
ATOM     30  O   UNL     1       4.582  -6.120  34.730  1.00  0.00    -0.504 OA
ATOM     31  H   UNL     1       5.181  -6.159  33.917  1.00  0.00     0.293 HD
ENDBRANCH  20  30
BRANCH  25  32
ATOM     32  C   UNL     1       7.893  -0.489  35.130  1.00  0.00     0.017 A 
ATOM     33  C   UNL     1       8.210   0.128  33.901  1.00  0.00     0.012 A 
ATOM     34  C   UNL     1       8.368   0.095  36.322  1.00  0.00     0.012 A 
ATOM     35  C   UNL     1       8.992   1.288  33.872  1.00  0.00     0.001 A 
ATOM     36  C   UNL     1       9.151   1.255  36.285  1.00  0.00     0.001 A 
ATOM     37  C   UNL     1       9.464   1.851  35.062  1.00  0.00     0.000 A 
ENDBRANCH  25  32
ENDBRANCH   1  17
TORSDOF 9
ENDMDL
MODEL 8
REMARK VINA RESULT:    -7.182      3.328      8.599
REMARK INTER + INTRA:         -11.061
REMARK INTER:                 -10.114
REMARK INTRA:                  -0.946
REMARK UNBOUND:                -1.150
REMARK SMILES O=C([O-])[C@H]1O[C@H](Oc2cc3oc(-c4ccccc4)cc(=O)c3c(O)c2O)[C@@H](O)[C@@H](O)[C@H]1O
REMARK SMILES IDX 7 1 6 2 4 3 31 4 5 5 29 6 27 7 2 8 1 9 3 10 32 11 30 13
REMARK SMILES IDX 28 15 8 17 25 18 9 19 23 20 10 21 22 22 11 23 20 24 12 25
REMARK SMILES IDX 19 26 21 27 26 28 24 30 13 32 14 33 18 34 15 35 17 36 16 37
REMARK H PARENT 32 12 30 14 28 16 26 29 24 31
REMARK Flexibility Score: inf
ROOT
ATOM      1  O   UNL     1       3.743  -3.949  38.561  1.00  0.00    -0.458 OA
ENDROOT
BRANCH   1   2
ATOM      2  C   UNL     1       2.503  -3.242  38.420  1.00  0.00     0.339 C 
ATOM      3  C   UNL     1       1.511  -4.345  40.244  1.00  0.00     0.199 C 
ATOM      4  C   UNL     1       1.434  -3.074  41.116  1.00  0.00     0.180 C 
ATOM      5  O   UNL     1       1.404  -4.030  38.865  1.00  0.00    -0.328 OA
ATOM      6  C   UNL     1       2.548  -2.099  40.697  1.00  0.00     0.181 C 
ATOM      7  C   UNL     1       2.578  -1.893  39.167  1.00  0.00     0.214 C 
BRANCH   3   8
ATOM      8  C   UNL     1       0.420  -5.308  40.612  1.00  0.00     0.073 C 
ATOM      9  O   UNL     1       0.304  -6.400  39.987  1.00  0.00    -0.547 OA
ATOM     10  O   UNL     1      -0.464  -5.007  41.644  1.00  0.00    -0.547 OA
ENDBRANCH   3   8
BRANCH   4  11
ATOM     11  O   UNL     1       0.176  -2.456  40.984  1.00  0.00    -0.387 OA
ATOM     12  H   UNL     1      -0.335  -2.651  41.814  1.00  0.00     0.211 HD
ENDBRANCH   4  11
BRANCH   6  13
ATOM     13  O   UNL     1       2.383  -0.873  41.359  1.00  0.00    -0.387 OA
ATOM     14  H   UNL     1       1.410  -0.671  41.348  1.00  0.00     0.211 HD
ENDBRANCH   6  13
BRANCH   7  15
ATOM     15  O   UNL     1       1.563  -1.013  38.746  1.00  0.00    -0.384 OA
ATOM     16  H   UNL     1       1.374  -0.376  39.483  1.00  0.00     0.211 HD
ENDBRANCH   7  15
ENDBRANCH   1   2
BRANCH   1  17
ATOM     17  C   UNL     1       4.458  -4.539  37.507  1.00  0.00     0.172 A 
ATOM     18  C   UNL     1       5.070  -3.788  36.482  1.00  0.00     0.201 A 
ATOM     19  C   UNL     1       4.576  -5.928  37.514  1.00  0.00     0.098 A 
ATOM     20  C   UNL     1       5.740  -4.455  35.422  1.00  0.00     0.176 A 
ATOM     21  C   UNL     1       5.244  -6.595  36.492  1.00  0.00     0.146 A 
ATOM     22  C   UNL     1       5.835  -5.869  35.435  1.00  0.00     0.111 A 
ATOM     23  O   UNL     1       5.310  -7.922  36.525  1.00  0.00    -0.456 OA
ATOM     24  C   UNL     1       6.489  -6.609  34.426  1.00  0.00     0.197 A 
ATOM     25  C   UNL     1       5.921  -8.650  35.595  1.00  0.00     0.138 A 
ATOM     26  C   UNL     1       6.529  -8.002  34.508  1.00  0.00     0.100 A 
ATOM     27  O   UNL     1       7.040  -6.042  33.444  1.00  0.00    -0.289 OA
BRANCH  18  28
ATOM     28  O   UNL     1       5.038  -2.394  36.564  1.00  0.00    -0.502 OA
ATOM     29  H   UNL     1       4.235  -1.854  36.857  1.00  0.00     0.293 HD
ENDBRANCH  18  28
BRANCH  20  30
ATOM     30  O   UNL     1       6.305  -3.743  34.355  1.00  0.00    -0.504 OA
ATOM     31  H   UNL     1       6.004  -2.826  34.053  1.00  0.00     0.293 HD
ENDBRANCH  20  30
BRANCH  25  32
ATOM     32  C   UNL     1       5.922 -10.129  35.735  1.00  0.00     0.017 A 
ATOM     33  C   UNL     1       4.731 -10.861  35.924  1.00  0.00     0.012 A 
ATOM     34  C   UNL     1       7.141 -10.832  35.645  1.00  0.00     0.012 A 
ATOM     35  C   UNL     1       4.767 -12.256  36.033  1.00  0.00     0.001 A 
ATOM     36  C   UNL     1       7.169 -12.227  35.755  1.00  0.00     0.001 A 
ATOM     37  C   UNL     1       5.983 -12.939  35.950  1.00  0.00     0.000 A 
ENDBRANCH  25  32
ENDBRANCH   1  17
TORSDOF 9
ENDMDL
