MODEL 1
REMARK VINA RESULT:    -3.732      0.000      0.000
REMARK INTER + INTRA:          -9.124
REMARK INTER:                  -6.787
REMARK INTRA:                  -2.338
REMARK UNBOUND:                -2.338
REMARK SMILES CCCCCCCCCCCCCC[C@@H](C)C(=O)[O-]
REMARK SMILES IDX 9 1 10 2 11 3 12 4 13 5 14 6 15 7 16 8 17 9 18 10 19 11 8 12
REMARK SMILES IDX 7 13 6 14 5 15 4 16 3 17 2 18 1 19
REMARK H PARENT
REMARK Flexibility Score: inf
ROOT
ATOM      1  C   UNL     1      -5.759  -3.973  10.100  1.00  0.00     0.000 C 
ENDROOT
BRANCH   1   2
ATOM      2  C   UNL     1      -6.859  -2.902  10.110  1.00  0.00     0.000 C 
BRANCH   2   3
ATOM      3  C   UNL     1      -6.587  -1.785  11.130  1.00  0.00     0.000 C 
BRANCH   3   4
ATOM      4  C   UNL     1      -5.339  -2.058  11.988  1.00  0.00     0.000 C 
BRANCH   4   5
ATOM      5  C   UNL     1      -4.243  -1.000  11.794  1.00  0.00     0.001 C 
BRANCH   5   6
ATOM      6  C   UNL     1      -3.053  -1.525  10.969  1.00  0.00     0.009 C 
BRANCH   6   7
ATOM      7  C   UNL     1      -2.791  -0.666   9.714  1.00  0.00     0.032 C 
ATOM      8  C   UNL     1      -4.033   0.154   9.350  1.00  0.00     0.014 C 
BRANCH   7   9
ATOM      9  C   UNL     1      -1.612   0.251   9.908  1.00  0.00     0.044 C 
ATOM     10  O   UNL     1      -1.298   0.656  11.059  1.00  0.00    -0.550 OA
ATOM     11  O   UNL     1      -0.863   0.656   8.811  1.00  0.00    -0.550 OA
ENDBRANCH   7   9
ENDBRANCH   6   7
ENDBRANCH   5   6
ENDBRANCH   4   5
ENDBRANCH   3   4
ENDBRANCH   2   3
ENDBRANCH   1   2
BRANCH   1  12
ATOM     12  C   UNL     1      -5.254  -4.228   8.675  1.00  0.00     0.000 C 
BRANCH  12  13
ATOM     13  C   UNL     1      -5.275  -2.939   7.843  1.00  0.00    -0.000 C 
BRANCH  13  14
ATOM     14  C   UNL     1      -4.303  -2.979   6.653  1.00  0.00    -0.000 C 
BRANCH  14  15
ATOM     15  C   UNL     1      -3.139  -3.978   6.836  1.00  0.00    -0.000 C 
BRANCH  15  16
ATOM     16  C   UNL     1      -1.832  -3.280   7.251  1.00  0.00    -0.000 C 
BRANCH  16  17
ATOM     17  C   UNL     1      -1.600  -1.965   6.476  1.00  0.00    -0.000 C 
BRANCH  17  18
ATOM     18  C   UNL     1      -0.407  -2.023   5.507  1.00  0.00    -0.003 C 
ATOM     19  C   UNL     1      -0.775  -1.616   4.081  1.00  0.00     0.004 C 
ENDBRANCH  17  18
ENDBRANCH  16  17
ENDBRANCH  15  16
ENDBRANCH  14  15
ENDBRANCH  13  14
ENDBRANCH  12  13
ENDBRANCH   1  12
TORSDOF 14
ENDMDL
MODEL 2
REMARK VINA RESULT:    -3.672      2.469      5.188
REMARK INTER + INTRA:          -9.016
REMARK INTER:                  -6.731
REMARK INTRA:                  -2.285
REMARK UNBOUND:                -2.338
REMARK SMILES CCCCCCCCCCCCCC[C@@H](C)C(=O)[O-]
REMARK SMILES IDX 9 1 10 2 11 3 12 4 13 5 14 6 15 7 16 8 17 9 18 10 19 11 8 12
REMARK SMILES IDX 7 13 6 14 5 15 4 16 3 17 2 18 1 19
REMARK H PARENT
REMARK Flexibility Score: inf
ROOT
ATOM      1  C   UNL     1      -5.249  -3.281   7.621  1.00  0.00     0.000 C 
ENDROOT
BRANCH   1   2
ATOM      2  C   UNL     1      -4.699  -4.712   7.711  1.00  0.00     0.000 C 
BRANCH   2   3
ATOM      3  C   UNL     1      -3.398  -4.897   6.915  1.00  0.00     0.000 C 
BRANCH   3   4
ATOM      4  C   UNL     1      -2.902  -3.586   6.279  1.00  0.00     0.000 C 
BRANCH   4   5
ATOM      5  C   UNL     1      -1.525  -3.156   6.806  1.00  0.00     0.001 C 
BRANCH   5   6
ATOM      6  C   UNL     1      -0.989  -1.895   6.104  1.00  0.00     0.009 C 
BRANCH   6   7
ATOM      7  C   UNL     1      -1.857  -1.489   4.895  1.00  0.00     0.032 C 
ATOM      8  C   UNL     1      -2.545  -0.144   5.150  1.00  0.00     0.014 C 
BRANCH   7   9
ATOM      9  C   UNL     1      -1.044  -1.417   3.630  1.00  0.00     0.044 C 
ATOM     10  O   UNL     1      -1.536  -0.926   2.579  1.00  0.00    -0.550 OA
ATOM     11  O   UNL     1       0.260  -1.897   3.616  1.00  0.00    -0.550 OA
ENDBRANCH   7   9
ENDBRANCH   6   7
ENDBRANCH   5   6
ENDBRANCH   4   5
ENDBRANCH   3   4
ENDBRANCH   2   3
ENDBRANCH   1   2
BRANCH   1  12
ATOM     12  C   UNL     1      -6.148  -2.961   8.821  1.00  0.00     0.000 C 
BRANCH  12  13
ATOM     13  C   UNL     1      -5.805  -3.855  10.021  1.00  0.00    -0.000 C 
BRANCH  13  14
ATOM     14  C   UNL     1      -5.617  -3.061  11.324  1.00  0.00    -0.000 C 
BRANCH  14  15
ATOM     15  C   UNL     1      -4.140  -2.748  11.653  1.00  0.00    -0.000 C 
BRANCH  15  16
ATOM     16  C   UNL     1      -3.717  -1.354  11.159  1.00  0.00    -0.000 C 
BRANCH  16  17
ATOM     17  C   UNL     1      -2.513  -1.415  10.195  1.00  0.00    -0.000 C 
BRANCH  17  18
ATOM     18  C   UNL     1      -2.644  -0.474   8.985  1.00  0.00    -0.003 C 
ATOM     19  C   UNL     1      -4.049   0.106   8.828  1.00  0.00     0.004 C 
ENDBRANCH  17  18
ENDBRANCH  16  17
ENDBRANCH  15  16
ENDBRANCH  14  15
ENDBRANCH  13  14
ENDBRANCH  12  13
ENDBRANCH   1  12
TORSDOF 14
ENDMDL
MODEL 3
REMARK VINA RESULT:    -3.652      3.017      4.842
REMARK INTER + INTRA:          -8.979
REMARK INTER:                  -6.876
REMARK INTRA:                  -2.103
REMARK UNBOUND:                -2.338
REMARK SMILES CCCCCCCCCCCCCC[C@@H](C)C(=O)[O-]
REMARK SMILES IDX 9 1 10 2 11 3 12 4 13 5 14 6 15 7 16 8 17 9 18 10 19 11 8 12
REMARK SMILES IDX 7 13 6 14 5 15 4 16 3 17 2 18 1 19
REMARK H PARENT
REMARK Flexibility Score: inf
ROOT
ATOM      1  C   UNL     1      -4.009  -0.080   8.724  1.00  0.00     0.000 C 
ENDROOT
BRANCH   1   2
ATOM      2  C   UNL     1      -2.580  -0.353   9.216  1.00  0.00     0.000 C 
BRANCH   2   3
ATOM      3  C   UNL     1      -2.510  -1.530  10.202  1.00  0.00     0.000 C 
BRANCH   3   4
ATOM      4  C   UNL     1      -3.336  -1.283  11.477  1.00  0.00     0.000 C 
BRANCH   4   5
ATOM      5  C   UNL     1      -4.258  -2.462  11.822  1.00  0.00     0.001 C 
BRANCH   5   6
ATOM      6  C   UNL     1      -5.748  -2.076  11.797  1.00  0.00     0.009 C 
BRANCH   6   7
ATOM      7  C   UNL     1      -6.513  -2.781  10.658  1.00  0.00     0.032 C 
ATOM      8  C   UNL     1      -5.645  -3.865  10.011  1.00  0.00     0.014 C 
BRANCH   7   9
ATOM      9  C   UNL     1      -7.803  -3.383  11.148  1.00  0.00     0.044 C 
ATOM     10  O   UNL     1      -8.644  -3.849  10.334  1.00  0.00    -0.550 OA
ATOM     11  O   UNL     1      -8.073  -3.426  12.511  1.00  0.00    -0.550 OA
ENDBRANCH   7   9
ENDBRANCH   6   7
ENDBRANCH   5   6
ENDBRANCH   4   5
ENDBRANCH   3   4
ENDBRANCH   2   3
ENDBRANCH   1   2
BRANCH   1  12
ATOM     12  C   UNL     1      -4.201  -0.585   7.289  1.00  0.00     0.000 C 
BRANCH  12  13
ATOM     13  C   UNL     1      -2.893  -0.493   6.491  1.00  0.00    -0.000 C 
BRANCH  13  14
ATOM     14  C   UNL     1      -2.582  -1.774   5.701  1.00  0.00    -0.000 C 
BRANCH  14  15
ATOM     15  C   UNL     1      -1.609  -2.729   6.428  1.00  0.00    -0.000 C 
BRANCH  15  16
ATOM     16  C   UNL     1      -2.349  -3.787   7.264  1.00  0.00    -0.000 C 
BRANCH  16  17
ATOM     17  C   UNL     1      -3.670  -4.236   6.604  1.00  0.00    -0.000 C 
BRANCH  17  18
ATOM     18  C   UNL     1      -4.166  -5.610   7.088  1.00  0.00    -0.003 C 
ATOM     19  C   UNL     1      -3.817  -6.744   6.125  1.00  0.00     0.004 C 
ENDBRANCH  17  18
ENDBRANCH  16  17
ENDBRANCH  15  16
ENDBRANCH  14  15
ENDBRANCH  13  14
ENDBRANCH  12  13
ENDBRANCH   1  12
TORSDOF 14
ENDMDL
MODEL 4
REMARK VINA RESULT:    -3.581      2.334      5.978
REMARK INTER + INTRA:          -8.850
REMARK INTER:                  -6.483
REMARK INTRA:                  -2.367
REMARK UNBOUND:                -2.338
REMARK SMILES CCCCCCCCCCCCCC[C@@H](C)C(=O)[O-]
REMARK SMILES IDX 9 1 10 2 11 3 12 4 13 5 14 6 15 7 16 8 17 9 18 10 19 11 8 12
REMARK SMILES IDX 7 13 6 14 5 15 4 16 3 17 2 18 1 19
REMARK H PARENT
REMARK Flexibility Score: inf
ROOT
ATOM      1  C   UNL     1      -5.005  -1.834   7.938  1.00  0.00     0.000 C 
ENDROOT
BRANCH   1   2
ATOM      2  C   UNL     1      -4.427  -3.222   8.251  1.00  0.00     0.000 C 
BRANCH   2   3
ATOM      3  C   UNL     1      -4.442  -4.156   7.031  1.00  0.00     0.000 C 
BRANCH   3   4
ATOM      4  C   UNL     1      -3.121  -4.121   6.242  1.00  0.00     0.000 C 
BRANCH   4   5
ATOM      5  C   UNL     1      -1.934  -3.651   7.096  1.00  0.00     0.001 C 
BRANCH   5   6
ATOM      6  C   UNL     1      -1.151  -2.500   6.439  1.00  0.00     0.009 C 
BRANCH   6   7
ATOM      7  C   UNL     1      -1.903  -1.897   5.235  1.00  0.00     0.032 C 
ATOM      8  C   UNL     1      -2.406  -0.487   5.561  1.00  0.00     0.014 C 
BRANCH   7   9
ATOM      9  C   UNL     1      -1.037  -1.860   4.004  1.00  0.00     0.044 C 
ATOM     10  O   UNL     1       0.165  -1.488   4.077  1.00  0.00    -0.550 OA
ATOM     11  O   UNL     1      -1.564  -2.237   2.775  1.00  0.00    -0.550 OA
ENDBRANCH   7   9
ENDBRANCH   6   7
ENDBRANCH   5   6
ENDBRANCH   4   5
ENDBRANCH   3   4
ENDBRANCH   2   3
ENDBRANCH   1   2
BRANCH   1  12
ATOM     12  C   UNL     1      -4.241  -0.739   8.693  1.00  0.00     0.000 C 
BRANCH  12  13
ATOM     13  C   UNL     1      -3.046  -1.325   9.457  1.00  0.00    -0.000 C 
BRANCH  13  14
ATOM     14  C   UNL     1      -3.101  -1.040  10.966  1.00  0.00    -0.000 C 
BRANCH  14  15
ATOM     15  C   UNL     1      -3.817  -2.140  11.780  1.00  0.00    -0.000 C 
BRANCH  15  16
ATOM     16  C   UNL     1      -5.133  -1.641  12.402  1.00  0.00    -0.000 C 
BRANCH  16  17
ATOM     17  C   UNL     1      -6.344  -1.876  11.475  1.00  0.00    -0.000 C 
BRANCH  17  18
ATOM     18  C   UNL     1      -6.643  -3.363  11.215  1.00  0.00    -0.003 C 
ATOM     19  C   UNL     1      -8.062  -3.765  11.614  1.00  0.00     0.004 C 
ENDBRANCH  17  18
ENDBRANCH  16  17
ENDBRANCH  15  16
ENDBRANCH  14  15
ENDBRANCH  13  14
ENDBRANCH  12  13
ENDBRANCH   1  12
TORSDOF 14
ENDMDL
MODEL 5
REMARK VINA RESULT:    -3.572      2.093      4.766
REMARK INTER + INTRA:          -8.834
REMARK INTER:                  -6.557
REMARK INTRA:                  -2.276
REMARK UNBOUND:                -2.338
REMARK SMILES CCCCCCCCCCCCCC[C@@H](C)C(=O)[O-]
REMARK SMILES IDX 9 1 10 2 11 3 12 4 13 5 14 6 15 7 16 8 17 9 18 10 19 11 8 12
REMARK SMILES IDX 7 13 6 14 5 15 4 16 3 17 2 18 1 19
REMARK H PARENT
REMARK Flexibility Score: inf
ROOT
ATOM      1  C   UNL     1      -6.076  -2.509   8.818  1.00  0.00     0.000 C 
ENDROOT
BRANCH   1   2
ATOM      2  C   UNL     1      -5.186  -3.719   8.498  1.00  0.00     0.000 C 
BRANCH   2   3
ATOM      3  C   UNL     1      -4.531  -3.620   7.112  1.00  0.00     0.000 C 
BRANCH   3   4
ATOM      4  C   UNL     1      -3.170  -4.336   7.048  1.00  0.00     0.000 C 
BRANCH   4   5
ATOM      5  C   UNL     1      -1.987  -3.382   7.270  1.00  0.00     0.001 C 
BRANCH   5   6
ATOM      6  C   UNL     1      -2.394  -1.900   7.167  1.00  0.00     0.009 C 
BRANCH   6   7
ATOM      7  C   UNL     1      -1.618  -1.160   6.057  1.00  0.00     0.032 C 
ATOM      8  C   UNL     1      -0.442  -2.008   5.561  1.00  0.00     0.014 C 
BRANCH   7   9
ATOM      9  C   UNL     1      -2.515  -0.801   4.901  1.00  0.00     0.044 C 
ATOM     10  O   UNL     1      -2.994  -1.699   4.160  1.00  0.00    -0.550 OA
ATOM     11  O   UNL     1      -2.816   0.531   4.646  1.00  0.00    -0.550 OA
ENDBRANCH   7   9
ENDBRANCH   6   7
ENDBRANCH   5   6
ENDBRANCH   4   5
ENDBRANCH   3   4
ENDBRANCH   2   3
ENDBRANCH   1   2
BRANCH   1  12
ATOM     12  C   UNL     1      -6.036  -2.179  10.316  1.00  0.00     0.000 C 
BRANCH  12  13
ATOM     13  C   UNL     1      -5.017  -3.062  11.048  1.00  0.00    -0.000 C 
BRANCH  13  14
ATOM     14  C   UNL     1      -3.903  -2.251  11.730  1.00  0.00    -0.000 C 
BRANCH  14  15
ATOM     15  C   UNL     1      -2.773  -1.821  10.769  1.00  0.00    -0.000 C 
BRANCH  15  16
ATOM     16  C   UNL     1      -2.434  -0.326  10.901  1.00  0.00    -0.000 C 
BRANCH  16  17
ATOM     17  C   UNL     1      -3.219   0.543   9.895  1.00  0.00    -0.000 C 
BRANCH  17  18
ATOM     18  C   UNL     1      -2.320   1.317   8.915  1.00  0.00    -0.003 C 
ATOM     19  C   UNL     1      -0.834   1.022   9.108  1.00  0.00     0.004 C 
ENDBRANCH  17  18
ENDBRANCH  16  17
ENDBRANCH  15  16
ENDBRANCH  14  15
ENDBRANCH  13  14
ENDBRANCH  12  13
ENDBRANCH   1  12
TORSDOF 14
ENDMDL
MODEL 6
REMARK VINA RESULT:    -3.560      2.931      5.030
REMARK INTER + INTRA:          -8.811
REMARK INTER:                  -6.998
REMARK INTRA:                  -1.813
REMARK UNBOUND:                -2.338
REMARK SMILES CCCCCCCCCCCCCC[C@@H](C)C(=O)[O-]
REMARK SMILES IDX 9 1 10 2 11 3 12 4 13 5 14 6 15 7 16 8 17 9 18 10 19 11 8 12
REMARK SMILES IDX 7 13 6 14 5 15 4 16 3 17 2 18 1 19
REMARK H PARENT
REMARK Flexibility Score: inf
ROOT
ATOM      1  C   UNL     1      -4.280  -2.585  11.752  1.00  0.00     0.000 C 
ENDROOT
BRANCH   1   2
ATOM      2  C   UNL     1      -5.706  -2.886  11.267  1.00  0.00     0.000 C 
BRANCH   2   3
ATOM      3  C   UNL     1      -5.735  -3.894  10.108  1.00  0.00     0.000 C 
BRANCH   3   4
ATOM      4  C   UNL     1      -5.765  -3.211   8.729  1.00  0.00     0.000 C 
BRANCH   4   5
ATOM      5  C   UNL     1      -4.585  -3.625   7.837  1.00  0.00     0.001 C 
BRANCH   5   6
ATOM      6  C   UNL     1      -4.532  -5.144   7.594  1.00  0.00     0.009 C 
BRANCH   6   7
ATOM      7  C   UNL     1      -3.838  -5.496   6.261  1.00  0.00     0.032 C 
ATOM      8  C   UNL     1      -3.763  -7.014   6.073  1.00  0.00     0.014 C 
BRANCH   7   9
ATOM      9  C   UNL     1      -4.544  -4.869   5.088  1.00  0.00     0.044 C 
ATOM     10  O   UNL     1      -5.767  -5.091   4.883  1.00  0.00    -0.550 OA
ATOM     11  O   UNL     1      -3.844  -4.040   4.220  1.00  0.00    -0.550 OA
ENDBRANCH   7   9
ENDBRANCH   6   7
ENDBRANCH   5   6
ENDBRANCH   4   5
ENDBRANCH   3   4
ENDBRANCH   2   3
ENDBRANCH   1   2
BRANCH   1  12
ATOM     12  C   UNL     1      -3.791  -1.234  11.214  1.00  0.00     0.000 C 
BRANCH  12  13
ATOM     13  C   UNL     1      -2.557  -1.411  10.318  1.00  0.00    -0.000 C 
BRANCH  13  14
ATOM     14  C   UNL     1      -1.799  -0.096  10.076  1.00  0.00    -0.000 C 
BRANCH  14  15
ATOM     15  C   UNL     1      -1.681   0.286   8.584  1.00  0.00    -0.000 C 
BRANCH  15  16
ATOM     16  C   UNL     1      -2.617  -0.550   7.694  1.00  0.00    -0.000 C 
BRANCH  16  17
ATOM     17  C   UNL     1      -2.327  -0.350   6.191  1.00  0.00    -0.000 C 
BRANCH  17  18
ATOM     18  C   UNL     1      -1.639  -1.556   5.530  1.00  0.00    -0.003 C 
ATOM     19  C   UNL     1      -1.385  -2.707   6.502  1.00  0.00     0.004 C 
ENDBRANCH  17  18
ENDBRANCH  16  17
ENDBRANCH  15  16
ENDBRANCH  14  15
ENDBRANCH  13  14
ENDBRANCH  12  13
ENDBRANCH   1  12
TORSDOF 14
ENDMDL
MODEL 7
REMARK VINA RESULT:    -3.524      2.530      4.842
REMARK INTER + INTRA:          -8.745
REMARK INTER:                  -6.568
REMARK INTRA:                  -2.177
REMARK UNBOUND:                -2.338
REMARK SMILES CCCCCCCCCCCCCC[C@@H](C)C(=O)[O-]
REMARK SMILES IDX 9 1 10 2 11 3 12 4 13 5 14 6 15 7 16 8 17 9 18 10 19 11 8 12
REMARK SMILES IDX 7 13 6 14 5 15 4 16 3 17 2 18 1 19
REMARK H PARENT
REMARK Flexibility Score: inf
ROOT
ATOM      1  C   UNL     1      -5.615  -2.756  11.307  1.00  0.00     0.000 C 
ENDROOT
BRANCH   1   2
ATOM      2  C   UNL     1      -5.641  -3.787  10.170  1.00  0.00     0.000 C 
BRANCH   2   3
ATOM      3  C   UNL     1      -5.754  -3.134   8.783  1.00  0.00     0.000 C 
BRANCH   3   4
ATOM      4  C   UNL     1      -4.631  -3.576   7.828  1.00  0.00     0.000 C 
BRANCH   4   5
ATOM      5  C   UNL     1      -3.354  -2.738   7.988  1.00  0.00     0.001 C 
BRANCH   5   6
ATOM      6  C   UNL     1      -2.226  -3.190   7.043  1.00  0.00     0.009 C 
BRANCH   6   7
ATOM      7  C   UNL     1      -1.978  -2.177   5.906  1.00  0.00     0.032 C 
ATOM      8  C   UNL     1      -0.477  -1.993   5.662  1.00  0.00     0.014 C 
BRANCH   7   9
ATOM      9  C   UNL     1      -2.655  -2.601   4.630  1.00  0.00     0.044 C 
ATOM     10  O   UNL     1      -3.195  -3.735   4.536  1.00  0.00    -0.550 OA
ATOM     11  O   UNL     1      -2.686  -1.736   3.542  1.00  0.00    -0.550 OA
ENDBRANCH   7   9
ENDBRANCH   6   7
ENDBRANCH   5   6
ENDBRANCH   4   5
ENDBRANCH   3   4
ENDBRANCH   2   3
ENDBRANCH   1   2
BRANCH   1  12
ATOM     12  C   UNL     1      -4.176  -2.460  11.748  1.00  0.00     0.000 C 
BRANCH  12  13
ATOM     13  C   UNL     1      -3.783  -1.014  11.414  1.00  0.00    -0.000 C 
BRANCH  13  14
ATOM     14  C   UNL     1      -2.354  -0.895  10.861  1.00  0.00    -0.000 C 
BRANCH  14  15
ATOM     15  C   UNL     1      -1.675   0.454  11.185  1.00  0.00    -0.000 C 
BRANCH  15  16
ATOM     16  C   UNL     1      -1.306   1.240   9.915  1.00  0.00    -0.000 C 
BRANCH  16  17
ATOM     17  C   UNL     1      -1.494   0.401   8.633  1.00  0.00    -0.000 C 
BRANCH  17  18
ATOM     18  C   UNL     1      -2.456   1.038   7.615  1.00  0.00    -0.003 C 
ATOM     19  C   UNL     1      -3.919   0.960   8.046  1.00  0.00     0.004 C 
ENDBRANCH  17  18
ENDBRANCH  16  17
ENDBRANCH  15  16
ENDBRANCH  14  15
ENDBRANCH  13  14
ENDBRANCH  12  13
ENDBRANCH   1  12
TORSDOF 14
ENDMDL
MODEL 8
REMARK VINA RESULT:    -3.496      3.452      6.632
REMARK INTER + INTRA:          -8.695
REMARK INTER:                  -6.501
REMARK INTRA:                  -2.194
REMARK UNBOUND:                -2.338
REMARK SMILES CCCCCCCCCCCCCC[C@@H](C)C(=O)[O-]
REMARK SMILES IDX 9 1 10 2 11 3 12 4 13 5 14 6 15 7 16 8 17 9 18 10 19 11 8 12
REMARK SMILES IDX 7 13 6 14 5 15 4 16 3 17 2 18 1 19
REMARK H PARENT
REMARK Flexibility Score: inf
ROOT
ATOM      1  C   UNL     1      -2.565  -0.625   9.553  1.00  0.00     0.000 C 
ENDROOT
BRANCH   1   2
ATOM      2  C   UNL     1      -2.471  -1.850   8.633  1.00  0.00     0.000 C 
BRANCH   2   3
ATOM      3  C   UNL     1      -2.113  -1.476   7.186  1.00  0.00     0.000 C 
BRANCH   3   4
ATOM      4  C   UNL     1      -1.791  -2.706   6.319  1.00  0.00     0.000 C 
BRANCH   4   5
ATOM      5  C   UNL     1      -2.590  -3.950   6.736  1.00  0.00     0.001 C 
BRANCH   5   6
ATOM      6  C   UNL     1      -3.679  -4.325   5.715  1.00  0.00     0.009 C 
BRANCH   6   7
ATOM      7  C   UNL     1      -3.972  -5.840   5.706  1.00  0.00     0.032 C 
ATOM      8  C   UNL     1      -4.308  -6.335   7.117  1.00  0.00     0.014 C 
BRANCH   7   9
ATOM      9  C   UNL     1      -5.095  -6.181   4.763  1.00  0.00     0.044 C 
ATOM     10  O   UNL     1      -5.392  -5.407   3.814  1.00  0.00    -0.550 OA
ATOM     11  O   UNL     1      -5.813  -7.358   4.938  1.00  0.00    -0.550 OA
ENDBRANCH   7   9
ENDBRANCH   6   7
ENDBRANCH   5   6
ENDBRANCH   4   5
ENDBRANCH   3   4
ENDBRANCH   2   3
ENDBRANCH   1   2
BRANCH   1  12
ATOM     12  C   UNL     1      -2.665  -1.048  11.024  1.00  0.00     0.000 C 
BRANCH  12  13
ATOM     13  C   UNL     1      -3.818  -0.323  11.731  1.00  0.00    -0.000 C 
BRANCH  13  14
ATOM     14  C   UNL     1      -4.943  -1.274  12.170  1.00  0.00    -0.000 C 
BRANCH  14  15
ATOM     15  C   UNL     1      -4.721  -2.740  11.736  1.00  0.00    -0.000 C 
BRANCH  15  16
ATOM     16  C   UNL     1      -5.898  -3.287  10.911  1.00  0.00    -0.000 C 
BRANCH  16  17
ATOM     17  C   UNL     1      -5.453  -3.800   9.525  1.00  0.00    -0.000 C 
BRANCH  17  18
ATOM     18  C   UNL     1      -6.017  -2.979   8.353  1.00  0.00    -0.003 C 
ATOM     19  C   UNL     1      -6.182  -1.497   8.687  1.00  0.00     0.004 C 
ENDBRANCH  17  18
ENDBRANCH  16  17
ENDBRANCH  15  16
ENDBRANCH  14  15
ENDBRANCH  13  14
ENDBRANCH  12  13
ENDBRANCH   1  12
TORSDOF 14
ENDMDL
MODEL 9
REMARK VINA RESULT:    -3.492      2.102      4.251
REMARK INTER + INTRA:          -8.688
REMARK INTER:                  -6.784
REMARK INTRA:                  -1.904
REMARK UNBOUND:                -2.338
REMARK SMILES CCCCCCCCCCCCCC[C@@H](C)C(=O)[O-]
REMARK SMILES IDX 9 1 10 2 11 3 12 4 13 5 14 6 15 7 16 8 17 9 18 10 19 11 8 12
REMARK SMILES IDX 7 13 6 14 5 15 4 16 3 17 2 18 1 19
REMARK H PARENT
REMARK Flexibility Score: inf
ROOT
ATOM      1  C   UNL     1      -4.886  -1.497  11.900  1.00  0.00     0.000 C 
ENDROOT
BRANCH   1   2
ATOM      2  C   UNL     1      -3.449  -1.963  11.626  1.00  0.00     0.000 C 
BRANCH   2   3
ATOM      3  C   UNL     1      -2.983  -1.632  10.199  1.00  0.00     0.000 C 
BRANCH   3   4
ATOM      4  C   UNL     1      -2.081  -0.386  10.145  1.00  0.00     0.000 C 
BRANCH   4   5
ATOM      5  C   UNL     1      -1.738   0.035   8.708  1.00  0.00     0.001 C 
BRANCH   5   6
ATOM      6  C   UNL     1      -2.538  -0.753   7.654  1.00  0.00     0.009 C 
BRANCH   6   7
ATOM      7  C   UNL     1      -1.639  -1.278   6.515  1.00  0.00     0.032 C 
ATOM      8  C   UNL     1      -1.369  -2.777   6.686  1.00  0.00     0.014 C 
BRANCH   7   9
ATOM      9  C   UNL     1      -2.250  -1.019   5.164  1.00  0.00     0.044 C 
ATOM     10  O   UNL     1      -2.362  -1.949   4.322  1.00  0.00    -0.550 OA
ATOM     11  O   UNL     1      -2.693   0.257   4.838  1.00  0.00    -0.550 OA
ENDBRANCH   7   9
ENDBRANCH   6   7
ENDBRANCH   5   6
ENDBRANCH   4   5
ENDBRANCH   3   4
ENDBRANCH   2   3
ENDBRANCH   1   2
BRANCH   1  12
ATOM     12  C   UNL     1      -5.831  -1.939  10.775  1.00  0.00     0.000 C 
BRANCH  12  13
ATOM     13  C   UNL     1      -6.194  -3.424  10.911  1.00  0.00    -0.000 C 
BRANCH  13  14
ATOM     14  C   UNL     1      -5.742  -4.263   9.705  1.00  0.00    -0.000 C 
BRANCH  14  15
ATOM     15  C   UNL     1      -5.588  -3.445   8.403  1.00  0.00    -0.000 C 
BRANCH  15  16
ATOM     16  C   UNL     1      -4.543  -4.056   7.453  1.00  0.00    -0.000 C 
BRANCH  16  17
ATOM     17  C   UNL     1      -4.537  -5.598   7.503  1.00  0.00    -0.000 C 
BRANCH  17  18
ATOM     18  C   UNL     1      -3.957  -6.255   6.239  1.00  0.00    -0.003 C 
ATOM     19  C   UNL     1      -3.707  -5.257   5.109  1.00  0.00     0.004 C 
ENDBRANCH  17  18
ENDBRANCH  16  17
ENDBRANCH  15  16
ENDBRANCH  14  15
ENDBRANCH  13  14
ENDBRANCH  12  13
ENDBRANCH   1  12
TORSDOF 14
ENDMDL
