MODEL 1
REMARK VINA RESULT:    -7.035      0.000      0.000
REMARK INTER + INTRA:         -10.767
REMARK INTER:                  -9.709
REMARK INTRA:                  -1.058
REMARK UNBOUND:                -1.058
REMARK SMILES O=C([O-])[C@@H]1O[C@@H](Oc2cc3oc(-c4ccccc4)cc(=O)c3c(O)c2O)[C@H](O)[C@@H](O)[C@@H]1O
REMARK SMILES IDX 7 1 6 2 4 3 31 4 5 5 29 6 27 7 2 8 1 9 3 10 32 11 30 13
REMARK SMILES IDX 28 15 8 17 25 18 9 19 23 20 10 21 22 22 11 23 20 24 12 25
REMARK SMILES IDX 19 26 21 27 26 28 24 30 13 32 14 33 18 34 15 35 17 36 16 37
REMARK H PARENT 32 12 30 14 28 16 26 29 24 31
REMARK Flexibility Score: inf
ROOT
ATOM      1  O   UNL     1      -8.816  -0.551  -6.142  1.00  0.00    -0.458 OA
ENDROOT
BRANCH   1   2
ATOM      2  C   UNL     1      -9.171  -0.461  -4.755  1.00  0.00     0.339 C 
ATOM      3  C   UNL     1      -8.928   1.874  -4.750  1.00  0.00     0.199 C 
ATOM      4  C   UNL     1      -7.733   1.870  -3.776  1.00  0.00     0.180 C 
ATOM      5  O   UNL     1      -9.800   0.784  -4.494  1.00  0.00    -0.328 OA
ATOM      6  C   UNL     1      -6.974   0.533  -3.882  1.00  0.00     0.181 C 
ATOM      7  C   UNL     1      -7.942  -0.671  -3.826  1.00  0.00     0.214 C 
BRANCH   3   8
ATOM      8  C   UNL     1      -9.694   3.160  -4.629  1.00  0.00     0.073 C 
ATOM      9  O   UNL     1     -10.125   3.747  -5.657  1.00  0.00    -0.547 OA
ATOM     10  O   UNL     1      -9.976   3.683  -3.373  1.00  0.00    -0.547 OA
ENDBRANCH   3   8
BRANCH   4  11
ATOM     11  O   UNL     1      -8.182   2.075  -2.459  1.00  0.00    -0.387 OA
ATOM     12  H   UNL     1      -7.679   1.443  -1.881  1.00  0.00     0.211 HD
ENDBRANCH   4  11
BRANCH   6  13
ATOM     13  O   UNL     1      -6.253   0.514  -5.089  1.00  0.00    -0.387 OA
ATOM     14  H   UNL     1      -5.584  -0.215  -5.015  1.00  0.00     0.211 HD
ENDBRANCH   6  13
BRANCH   7  15
ATOM     15  O   UNL     1      -8.340  -0.932  -2.502  1.00  0.00    -0.384 OA
ATOM     16  H   UNL     1      -8.689  -0.092  -2.106  1.00  0.00     0.211 HD
ENDBRANCH   7  15
ENDBRANCH   1   2
BRANCH   1  17
ATOM     17  C   UNL     1      -8.268  -1.655  -6.823  1.00  0.00     0.172 A 
ATOM     18  C   UNL     1      -7.283  -1.557  -7.835  1.00  0.00     0.201 A 
ATOM     19  C   UNL     1      -8.732  -2.913  -6.435  1.00  0.00     0.098 A 
ATOM     20  C   UNL     1      -6.838  -2.730  -8.501  1.00  0.00     0.176 A 
ATOM     21  C   UNL     1      -8.273  -4.072  -7.052  1.00  0.00     0.146 A 
ATOM     22  C   UNL     1      -7.324  -3.997  -8.094  1.00  0.00     0.111 A 
ATOM     23  O   UNL     1      -8.746  -5.247  -6.648  1.00  0.00    -0.456 OA
ATOM     24  C   UNL     1      -6.914  -5.210  -8.689  1.00  0.00     0.197 A 
ATOM     25  C   UNL     1      -8.372  -6.409  -7.179  1.00  0.00     0.138 A 
ATOM     26  C   UNL     1      -7.442  -6.417  -8.230  1.00  0.00     0.100 A 
ATOM     27  O   UNL     1      -6.080  -5.233  -9.633  1.00  0.00    -0.289 OA
BRANCH  18  28
ATOM     28  O   UNL     1      -6.739  -0.307  -8.137  1.00  0.00    -0.502 OA
ATOM     29  H   UNL     1      -5.882  -0.163  -8.649  1.00  0.00     0.293 HD
ENDBRANCH  18  28
BRANCH  20  30
ATOM     30  O   UNL     1      -5.931  -2.661  -9.565  1.00  0.00    -0.504 OA
ATOM     31  H   UNL     1      -4.987  -3.016  -9.535  1.00  0.00     0.293 HD
ENDBRANCH  20  30
BRANCH  25  32
ATOM     32  C   UNL     1      -8.968  -7.661  -6.648  1.00  0.00     0.017 A 
ATOM     33  C   UNL     1      -9.364  -8.673  -7.543  1.00  0.00     0.012 A 
ATOM     34  C   UNL     1      -9.177  -7.856  -5.268  1.00  0.00     0.012 A 
ATOM     35  C   UNL     1      -9.934  -9.858  -7.068  1.00  0.00     0.001 A 
ATOM     36  C   UNL     1      -9.749  -9.043  -4.799  1.00  0.00     0.001 A 
ATOM     37  C   UNL     1     -10.125 -10.044  -5.698  1.00  0.00     0.000 A 
ENDBRANCH  25  32
ENDBRANCH   1  17
TORSDOF 9
ENDMDL
MODEL 2
REMARK VINA RESULT:    -6.088     12.424     15.719
REMARK INTER + INTRA:          -9.460
REMARK INTER:                  -8.688
REMARK INTRA:                  -0.772
REMARK UNBOUND:                -1.058
REMARK SMILES O=C([O-])[C@@H]1O[C@@H](Oc2cc3oc(-c4ccccc4)cc(=O)c3c(O)c2O)[C@H](O)[C@@H](O)[C@@H]1O
REMARK SMILES IDX 7 1 6 2 4 3 31 4 5 5 29 6 27 7 2 8 1 9 3 10 32 11 30 13
REMARK SMILES IDX 28 15 8 17 25 18 9 19 23 20 10 21 22 22 11 23 20 24 12 25
REMARK SMILES IDX 19 26 21 27 26 28 24 30 13 32 14 33 18 34 15 35 17 36 16 37
REMARK H PARENT 32 12 30 14 28 16 26 29 24 31
REMARK Flexibility Score: inf
ROOT
ATOM      1  O   UNL     1      -2.438  -7.306   3.699  1.00  0.00    -0.458 OA
ENDROOT
BRANCH   1   2
ATOM      2  C   UNL     1      -3.492  -7.124   2.742  1.00  0.00     0.339 C 
ATOM      3  C   UNL     1      -4.885  -8.656   3.847  1.00  0.00     0.199 C 
ATOM      4  C   UNL     1      -4.889  -9.673   2.687  1.00  0.00     0.180 C 
ATOM      5  O   UNL     1      -4.752  -7.330   3.362  1.00  0.00    -0.328 OA
ATOM      6  C   UNL     1      -3.600  -9.528   1.857  1.00  0.00     0.181 C 
ATOM      7  C   UNL     1      -3.319  -8.049   1.505  1.00  0.00     0.214 C 
BRANCH   3   8
ATOM      8  C   UNL     1      -6.154  -8.769   4.642  1.00  0.00     0.073 C 
ATOM      9  O   UNL     1      -6.940  -9.736   4.458  1.00  0.00    -0.547 OA
ATOM     10  O   UNL     1      -6.440  -7.829   5.625  1.00  0.00    -0.547 OA
ENDBRANCH   3   8
BRANCH   4  11
ATOM     11  O   UNL     1      -6.020  -9.475   1.875  1.00  0.00    -0.387 OA
ATOM     12  H   UNL     1      -5.947 -10.115   1.119  1.00  0.00     0.211 HD
ENDBRANCH   4  11
BRANCH   6  13
ATOM     13  O   UNL     1      -2.524 -10.059   2.590  1.00  0.00    -0.387 OA
ATOM     14  H   UNL     1      -2.676 -11.037   2.660  1.00  0.00     0.211 HD
ENDBRANCH   6  13
BRANCH   7  15
ATOM     15  O   UNL     1      -4.130  -7.627   0.434  1.00  0.00    -0.384 OA
ATOM     16  H   UNL     1      -4.316  -6.659   0.542  1.00  0.00     0.211 HD
ENDBRANCH   7  15
ENDBRANCH   1   2
BRANCH   1  17
ATOM     17  C   UNL     1      -2.534  -7.284   5.103  1.00  0.00     0.172 A 
ATOM     18  C   UNL     1      -2.062  -8.317   5.950  1.00  0.00     0.201 A 
ATOM     19  C   UNL     1      -3.117  -6.147   5.665  1.00  0.00     0.098 A 
ATOM     20  C   UNL     1      -2.261  -8.223   7.353  1.00  0.00     0.176 A 
ATOM     21  C   UNL     1      -3.279  -6.026   7.041  1.00  0.00     0.146 A 
ATOM     22  C   UNL     1      -2.858  -7.061   7.903  1.00  0.00     0.111 A 
ATOM     23  O   UNL     1      -3.842  -4.924   7.528  1.00  0.00    -0.456 OA
ATOM     24  C   UNL     1      -3.069  -6.881   9.287  1.00  0.00     0.197 A 
ATOM     25  C   UNL     1      -4.044  -4.718   8.827  1.00  0.00     0.138 A 
ATOM     26  C   UNL     1      -3.664  -5.706   9.748  1.00  0.00     0.100 A 
ATOM     27  O   UNL     1      -2.733  -7.761  10.125  1.00  0.00    -0.289 OA
BRANCH  18  28
ATOM     28  O   UNL     1      -1.377  -9.396   5.390  1.00  0.00    -0.502 OA
ATOM     29  H   UNL     1      -0.796  -9.342   4.567  1.00  0.00     0.293 HD
ENDBRANCH  18  28
BRANCH  20  30
ATOM     30  O   UNL     1      -1.886  -9.263   8.210  1.00  0.00    -0.504 OA
ATOM     31  H   UNL     1      -1.225  -9.987   7.976  1.00  0.00     0.293 HD
ENDBRANCH  20  30
BRANCH  25  32
ATOM     32  C   UNL     1      -4.681  -3.448   9.258  1.00  0.00     0.017 A 
ATOM     33  C   UNL     1      -6.080  -3.392   9.413  1.00  0.00     0.012 A 
ATOM     34  C   UNL     1      -3.927  -2.280   9.489  1.00  0.00     0.012 A 
ATOM     35  C   UNL     1      -6.704  -2.206   9.809  1.00  0.00     0.001 A 
ATOM     36  C   UNL     1      -4.558  -1.096   9.886  1.00  0.00     0.001 A 
ATOM     37  C   UNL     1      -5.945  -1.060  10.047  1.00  0.00     0.000 A 
ENDBRANCH  25  32
ENDBRANCH   1  17
TORSDOF 9
ENDMDL
MODEL 3
REMARK VINA RESULT:    -5.583     16.964     18.489
REMARK INTER + INTRA:          -8.763
REMARK INTER:                  -8.196
REMARK INTRA:                  -0.566
REMARK UNBOUND:                -1.058
REMARK SMILES O=C([O-])[C@@H]1O[C@@H](Oc2cc3oc(-c4ccccc4)cc(=O)c3c(O)c2O)[C@H](O)[C@@H](O)[C@@H]1O
REMARK SMILES IDX 7 1 6 2 4 3 31 4 5 5 29 6 27 7 2 8 1 9 3 10 32 11 30 13
REMARK SMILES IDX 28 15 8 17 25 18 9 19 23 20 10 21 22 22 11 23 20 24 12 25
REMARK SMILES IDX 19 26 21 27 26 28 24 30 13 32 14 33 18 34 15 35 17 36 16 37
REMARK H PARENT 32 12 30 14 28 16 26 29 24 31
REMARK Flexibility Score: inf
ROOT
ATOM      1  O   UNL     1       0.391   6.584   7.349  1.00  0.00    -0.458 OA
ENDROOT
BRANCH   1   2
ATOM      2  C   UNL     1       0.772   5.200   7.355  1.00  0.00     0.339 C 
ATOM      3  C   UNL     1      -0.690   4.711   9.126  1.00  0.00     0.199 C 
ATOM      4  C   UNL     1       0.437   4.355  10.118  1.00  0.00     0.180 C 
ATOM      5  O   UNL     1      -0.314   4.399   7.794  1.00  0.00    -0.328 OA
ATOM      6  C   UNL     1       1.730   5.098   9.732  1.00  0.00     0.181 C 
ATOM      7  C   UNL     1       2.037   4.950   8.224  1.00  0.00     0.214 C 
BRANCH   3   8
ATOM      8  C   UNL     1      -1.945   3.965   9.475  1.00  0.00     0.073 C 
ATOM      9  O   UNL     1      -1.907   2.731   9.726  1.00  0.00    -0.547 OA
ATOM     10  O   UNL     1      -3.151   4.648   9.575  1.00  0.00    -0.547 OA
ENDBRANCH   3   8
BRANCH   4  11
ATOM     11  O   UNL     1       0.653   2.966  10.125  1.00  0.00    -0.387 OA
ATOM     12  H   UNL     1       0.022   2.573   9.467  1.00  0.00     0.211 HD
ENDBRANCH   4  11
BRANCH   6  13
ATOM     13  O   UNL     1       1.590   6.458  10.061  1.00  0.00    -0.387 OA
ATOM     14  H   UNL     1       1.316   6.931   9.232  1.00  0.00     0.211 HD
ENDBRANCH   6  13
BRANCH   7  15
ATOM     15  O   UNL     1       2.605   3.692   7.950  1.00  0.00    -0.384 OA
ATOM     16  H   UNL     1       2.396   3.081   8.703  1.00  0.00     0.211 HD
ENDBRANCH   7  15
ENDBRANCH   1   2
BRANCH   1  17
ATOM     17  C   UNL     1      -0.693   7.177   6.674  1.00  0.00     0.172 A 
ATOM     18  C   UNL     1      -0.569   7.949   5.494  1.00  0.00     0.201 A 
ATOM     19  C   UNL     1      -1.958   6.953   7.219  1.00  0.00     0.098 A 
ATOM     20  C   UNL     1      -1.721   8.553   4.923  1.00  0.00     0.176 A 
ATOM     21  C   UNL     1      -3.098   7.505   6.645  1.00  0.00     0.146 A 
ATOM     22  C   UNL     1      -2.996   8.315   5.494  1.00  0.00     0.111 A 
ATOM     23  O   UNL     1      -4.281   7.263   7.203  1.00  0.00    -0.456 OA
ATOM     24  C   UNL     1      -4.190   8.859   4.974  1.00  0.00     0.197 A 
ATOM     25  C   UNL     1      -5.426   7.750   6.731  1.00  0.00     0.138 A 
ATOM     26  C   UNL     1      -5.407   8.576   5.596  1.00  0.00     0.100 A 
ATOM     27  O   UNL     1      -4.188   9.602   3.956  1.00  0.00    -0.289 OA
BRANCH  18  28
ATOM     28  O   UNL     1       0.683   8.073   4.889  1.00  0.00    -0.502 OA
ATOM     29  H   UNL     1       1.291   7.300   4.666  1.00  0.00     0.293 HD
ENDBRANCH  18  28
BRANCH  20  30
ATOM     30  O   UNL     1      -1.624   9.393   3.808  1.00  0.00    -0.504 OA
ATOM     31  H   UNL     1      -1.200   9.132   2.931  1.00  0.00     0.293 HD
ENDBRANCH  20  30
BRANCH  25  32
ATOM     32  C   UNL     1      -6.689   7.414   7.435  1.00  0.00     0.017 A 
ATOM     33  C   UNL     1      -6.739   6.275   8.262  1.00  0.00     0.012 A 
ATOM     34  C   UNL     1      -7.856   8.188   7.276  1.00  0.00     0.012 A 
ATOM     35  C   UNL     1      -7.919   5.933   8.929  1.00  0.00     0.001 A 
ATOM     36  C   UNL     1      -9.034   7.840   7.945  1.00  0.00     0.001 A 
ATOM     37  C   UNL     1      -9.064   6.715   8.772  1.00  0.00     0.000 A 
ENDBRANCH  25  32
ENDBRANCH   1  17
TORSDOF 9
ENDMDL
MODEL 4
REMARK VINA RESULT:    -5.549     14.929     17.451
REMARK INTER + INTRA:          -8.716
REMARK INTER:                  -7.867
REMARK INTRA:                  -0.848
REMARK UNBOUND:                -1.058
REMARK SMILES O=C([O-])[C@@H]1O[C@@H](Oc2cc3oc(-c4ccccc4)cc(=O)c3c(O)c2O)[C@H](O)[C@@H](O)[C@@H]1O
REMARK SMILES IDX 7 1 6 2 4 3 31 4 5 5 29 6 27 7 2 8 1 9 3 10 32 11 30 13
REMARK SMILES IDX 28 15 8 17 25 18 9 19 23 20 10 21 22 22 11 23 20 24 12 25
REMARK SMILES IDX 19 26 21 27 26 28 24 30 13 32 14 33 18 34 15 35 17 36 16 37
REMARK H PARENT 32 12 30 14 28 16 26 29 24 31
REMARK Flexibility Score: inf
ROOT
ATOM      1  O   UNL     1      -1.647   5.510   9.308  1.00  0.00    -0.458 OA
ENDROOT
BRANCH   1   2
ATOM      2  C   UNL     1      -1.154   6.721   8.716  1.00  0.00     0.339 C 
ATOM      3  C   UNL     1      -1.294   5.828   6.549  1.00  0.00     0.199 C 
ATOM      4  C   UNL     1       0.229   5.856   6.308  1.00  0.00     0.180 C 
ATOM      5  O   UNL     1      -1.694   6.881   7.413  1.00  0.00    -0.328 OA
ATOM      6  C   UNL     1       0.975   5.765   7.653  1.00  0.00     0.181 C 
ATOM      7  C   UNL     1       0.400   6.762   8.686  1.00  0.00     0.214 C 
BRANCH   3   8
ATOM      8  C   UNL     1      -2.030   5.950   5.246  1.00  0.00     0.073 C 
ATOM      9  O   UNL     1      -2.204   7.078   4.713  1.00  0.00    -0.547 OA
ATOM     10  O   UNL     1      -2.477   4.808   4.594  1.00  0.00    -0.547 OA
ENDBRANCH   3   8
BRANCH   4  11
ATOM     11  O   UNL     1       0.589   7.033   5.627  1.00  0.00    -0.387 OA
ATOM     12  H   UNL     1      -0.223   7.604   5.591  1.00  0.00     0.211 HD
ENDBRANCH   4  11
BRANCH   6  13
ATOM     13  O   UNL     1       0.870   4.452   8.144  1.00  0.00    -0.387 OA
ATOM     14  H   UNL     1       1.412   4.409   8.975  1.00  0.00     0.211 HD
ENDBRANCH   6  13
BRANCH   7  15
ATOM     15  O   UNL     1       0.873   8.064   8.441  1.00  0.00    -0.384 OA
ATOM     16  H   UNL     1       0.123   8.612   8.094  1.00  0.00     0.211 HD
ENDBRANCH   7  15
ENDBRANCH   1   2
BRANCH   1  17
ATOM     17  C   UNL     1      -2.987   5.099   9.443  1.00  0.00     0.172 A 
ATOM     18  C   UNL     1      -4.075   5.985   9.635  1.00  0.00     0.201 A 
ATOM     19  C   UNL     1      -3.225   3.727   9.358  1.00  0.00     0.098 A 
ATOM     20  C   UNL     1      -5.383   5.464   9.819  1.00  0.00     0.176 A 
ATOM     21  C   UNL     1      -4.508   3.208   9.496  1.00  0.00     0.146 A 
ATOM     22  C   UNL     1      -5.603   4.067   9.732  1.00  0.00     0.111 A 
ATOM     23  O   UNL     1      -4.683   1.892   9.407  1.00  0.00    -0.456 OA
ATOM     24  C   UNL     1      -6.875   3.472   9.879  1.00  0.00     0.197 A 
ATOM     25  C   UNL     1      -5.869   1.302   9.530  1.00  0.00     0.138 A 
ATOM     26  C   UNL     1      -7.006   2.087   9.779  1.00  0.00     0.100 A 
ATOM     27  O   UNL     1      -7.904   4.164  10.103  1.00  0.00    -0.289 OA
BRANCH  18  28
ATOM     28  O   UNL     1      -3.847   7.362   9.603  1.00  0.00    -0.502 OA
ATOM     29  H   UNL     1      -3.266   7.831   8.924  1.00  0.00     0.293 HD
ENDBRANCH  18  28
BRANCH  20  30
ATOM     30  O   UNL     1      -6.467   6.304  10.097  1.00  0.00    -0.504 OA
ATOM     31  H   UNL     1      -6.809   7.021   9.475  1.00  0.00     0.293 HD
ENDBRANCH  20  30
BRANCH  25  32
ATOM     32  C   UNL     1      -5.946  -0.176   9.414  1.00  0.00     0.017 A 
ATOM     33  C   UNL     1      -4.792  -0.950   9.638  1.00  0.00     0.012 A 
ATOM     34  C   UNL     1      -7.142  -0.830   9.053  1.00  0.00     0.012 A 
ATOM     35  C   UNL     1      -4.837  -2.343   9.527  1.00  0.00     0.001 A 
ATOM     36  C   UNL     1      -7.180  -2.224   8.943  1.00  0.00     0.001 A 
ATOM     37  C   UNL     1      -6.030  -2.979   9.181  1.00  0.00     0.000 A 
ENDBRANCH  25  32
ENDBRANCH   1  17
TORSDOF 9
ENDMDL
MODEL 5
REMARK VINA RESULT:    -5.242     16.170     17.710
REMARK INTER + INTRA:          -8.292
REMARK INTER:                  -8.044
REMARK INTRA:                  -0.248
REMARK UNBOUND:                -1.058
REMARK SMILES O=C([O-])[C@@H]1O[C@@H](Oc2cc3oc(-c4ccccc4)cc(=O)c3c(O)c2O)[C@H](O)[C@@H](O)[C@@H]1O
REMARK SMILES IDX 7 1 6 2 4 3 31 4 5 5 29 6 27 7 2 8 1 9 3 10 32 11 30 13
REMARK SMILES IDX 28 15 8 17 25 18 9 19 23 20 10 21 22 22 11 23 20 24 12 25
REMARK SMILES IDX 19 26 21 27 26 28 24 30 13 32 14 33 18 34 15 35 17 36 16 37
REMARK H PARENT 32 12 30 14 28 16 26 29 24 31
REMARK Flexibility Score: inf
ROOT
ATOM      1  O   UNL     1      -1.595   6.625   5.198  1.00  0.00    -0.458 OA
ENDROOT
BRANCH   1   2
ATOM      2  C   UNL     1      -1.362   5.265   5.594  1.00  0.00     0.339 C 
ATOM      3  C   UNL     1      -1.405   5.825   7.874  1.00  0.00     0.199 C 
ATOM      4  C   UNL     1       0.076   5.466   8.114  1.00  0.00     0.180 C 
ATOM      5  O   UNL     1      -1.967   5.015   6.853  1.00  0.00    -0.328 OA
ATOM      6  C   UNL     1       0.871   5.616   6.804  1.00  0.00     0.181 C 
ATOM      7  C   UNL     1       0.153   4.920   5.624  1.00  0.00     0.214 C 
BRANCH   3   8
ATOM      8  C   UNL     1      -2.195   5.649   9.138  1.00  0.00     0.073 C 
ATOM      9  O   UNL     1      -2.862   4.599   9.335  1.00  0.00    -0.547 OA
ATOM     10  O   UNL     1      -2.151   6.628  10.124  1.00  0.00    -0.547 OA
ENDBRANCH   3   8
BRANCH   4  11
ATOM     11  O   UNL     1       0.181   4.152   8.603  1.00  0.00    -0.387 OA
ATOM     12  H   UNL     1      -0.564   4.024   9.248  1.00  0.00     0.211 HD
ENDBRANCH   4  11
BRANCH   6  13
ATOM     13  O   UNL     1       1.036   6.985   6.525  1.00  0.00    -0.387 OA
ATOM     14  H   UNL     1       0.530   7.484   7.217  1.00  0.00     0.211 HD
ENDBRANCH   6  13
BRANCH   7  15
ATOM     15  O   UNL     1       0.361   3.529   5.663  1.00  0.00    -0.384 OA
ATOM     16  H   UNL     1      -0.454   3.098   6.030  1.00  0.00     0.211 HD
ENDBRANCH   7  15
ENDBRANCH   1   2
BRANCH   1  17
ATOM     17  C   UNL     1      -2.825   7.306   5.135  1.00  0.00     0.172 A 
ATOM     18  C   UNL     1      -3.122   8.327   4.199  1.00  0.00     0.201 A 
ATOM     19  C   UNL     1      -3.798   6.913   6.054  1.00  0.00     0.098 A 
ATOM     20  C   UNL     1      -4.375   8.993   4.258  1.00  0.00     0.176 A 
ATOM     21  C   UNL     1      -5.044   7.531   6.094  1.00  0.00     0.146 A 
ATOM     22  C   UNL     1      -5.348   8.580   5.201  1.00  0.00     0.111 A 
ATOM     23  O   UNL     1      -5.937   7.120   6.990  1.00  0.00    -0.456 OA
ATOM     24  C   UNL     1      -6.624   9.175   5.308  1.00  0.00     0.197 A 
ATOM     25  C   UNL     1      -7.151   7.651   7.109  1.00  0.00     0.138 A 
ATOM     26  C   UNL     1      -7.526   8.709   6.265  1.00  0.00     0.100 A 
ATOM     27  O   UNL     1      -6.973  10.125   4.557  1.00  0.00    -0.289 OA
BRANCH  18  28
ATOM     28  O   UNL     1      -2.188   8.635   3.208  1.00  0.00    -0.502 OA
ATOM     29  H   UNL     1      -1.353   8.101   3.021  1.00  0.00     0.293 HD
ENDBRANCH  18  28
BRANCH  20  30
ATOM     30  O   UNL     1      -4.669  10.063   3.405  1.00  0.00    -0.504 OA
ATOM     31  H   UNL     1      -4.007  10.772   3.128  1.00  0.00     0.293 HD
ENDBRANCH  20  30
BRANCH  25  32
ATOM     32  C   UNL     1      -8.068   7.113   8.146  1.00  0.00     0.017 A 
ATOM     33  C   UNL     1      -7.741   5.912   8.804  1.00  0.00     0.012 A 
ATOM     34  C   UNL     1      -9.278   7.757   8.473  1.00  0.00     0.012 A 
ATOM     35  C   UNL     1      -8.591   5.381   9.778  1.00  0.00     0.001 A 
ATOM     36  C   UNL     1     -10.125   7.220   9.448  1.00  0.00     0.001 A 
ATOM     37  C   UNL     1      -9.780   6.034  10.101  1.00  0.00     0.000 A 
ENDBRANCH  25  32
ENDBRANCH   1  17
TORSDOF 9
ENDMDL
MODEL 6
REMARK VINA RESULT:    -4.899     16.751     18.214
REMARK INTER + INTRA:          -7.818
REMARK INTER:                  -7.840
REMARK INTRA:                   0.022
REMARK UNBOUND:                -1.058
REMARK SMILES O=C([O-])[C@@H]1O[C@@H](Oc2cc3oc(-c4ccccc4)cc(=O)c3c(O)c2O)[C@H](O)[C@@H](O)[C@@H]1O
REMARK SMILES IDX 7 1 6 2 4 3 31 4 5 5 29 6 27 7 2 8 1 9 3 10 32 11 30 13
REMARK SMILES IDX 28 15 8 17 25 18 9 19 23 20 10 21 22 22 11 23 20 24 12 25
REMARK SMILES IDX 19 26 21 27 26 28 24 30 13 32 14 33 18 34 15 35 17 36 16 37
REMARK H PARENT 32 12 30 14 28 16 26 29 24 31
REMARK Flexibility Score: inf
ROOT
ATOM      1  O   UNL     1      -1.302   6.369   5.725  1.00  0.00    -0.458 OA
ENDROOT
BRANCH   1   2
ATOM      2  C   UNL     1      -0.022   6.861   6.151  1.00  0.00     0.339 C 
ATOM      3  C   UNL     1       0.274   5.070   7.640  1.00  0.00     0.199 C 
ATOM      4  C   UNL     1       0.239   5.955   8.902  1.00  0.00     0.180 C 
ATOM      5  O   UNL     1       0.812   5.778   6.534  1.00  0.00    -0.328 OA
ATOM      6  C   UNL     1      -0.580   7.230   8.626  1.00  0.00     0.181 C 
ATOM      7  C   UNL     1      -0.153   7.900   7.300  1.00  0.00     0.214 C 
BRANCH   3   8
ATOM      8  C   UNL     1       1.099   3.840   7.889  1.00  0.00     0.073 C 
ATOM      9  O   UNL     1       0.743   2.726   7.421  1.00  0.00    -0.547 OA
ATOM     10  O   UNL     1       2.291   3.937   8.596  1.00  0.00    -0.547 OA
ENDBRANCH   3   8
BRANCH   4  11
ATOM     11  O   UNL     1       1.547   6.288   9.295  1.00  0.00    -0.387 OA
ATOM     12  H   UNL     1       2.048   6.515   8.467  1.00  0.00     0.211 HD
ENDBRANCH   4  11
BRANCH   6  13
ATOM     13  O   UNL     1      -1.945   6.893   8.576  1.00  0.00    -0.387 OA
ATOM     14  H   UNL     1      -2.267   6.849   9.513  1.00  0.00     0.211 HD
ENDBRANCH   6  13
BRANCH   7  15
ATOM     15  O   UNL     1       1.039   8.628   7.469  1.00  0.00    -0.384 OA
ATOM     16  H   UNL     1       1.318   8.561   8.419  1.00  0.00     0.211 HD
ENDBRANCH   7  15
ENDBRANCH   1   2
BRANCH   1  17
ATOM     17  C   UNL     1      -2.509   7.084   5.616  1.00  0.00     0.172 A 
ATOM     18  C   UNL     1      -2.715   8.166   4.726  1.00  0.00     0.201 A 
ATOM     19  C   UNL     1      -3.555   6.662   6.437  1.00  0.00     0.098 A 
ATOM     20  C   UNL     1      -3.954   8.859   4.735  1.00  0.00     0.176 A 
ATOM     21  C   UNL     1      -4.787   7.308   6.426  1.00  0.00     0.146 A 
ATOM     22  C   UNL     1      -5.002   8.416   5.579  1.00  0.00     0.111 A 
ATOM     23  O   UNL     1      -5.751   6.867   7.228  1.00  0.00    -0.456 OA
ATOM     24  C   UNL     1      -6.269   9.036   5.630  1.00  0.00     0.197 A 
ATOM     25  C   UNL     1      -6.960   7.421   7.292  1.00  0.00     0.138 A 
ATOM     26  C   UNL     1      -7.249   8.537   6.490  1.00  0.00     0.100 A 
ATOM     27  O   UNL     1      -6.542  10.038   4.917  1.00  0.00    -0.289 OA
BRANCH  18  28
ATOM     28  O   UNL     1      -1.704   8.509   3.826  1.00  0.00    -0.502 OA
ATOM     29  H   UNL     1      -1.496   9.451   3.530  1.00  0.00     0.293 HD
ENDBRANCH  18  28
BRANCH  20  30
ATOM     30  O   UNL     1      -4.161   9.986   3.931  1.00  0.00    -0.504 OA
ATOM     31  H   UNL     1      -3.787  10.103   3.002  1.00  0.00     0.293 HD
ENDBRANCH  20  30
BRANCH  25  32
ATOM     32  C   UNL     1      -7.961   6.846   8.225  1.00  0.00     0.017 A 
ATOM     33  C   UNL     1      -7.687   5.624   8.867  1.00  0.00     0.012 A 
ATOM     34  C   UNL     1      -9.198   7.476   8.466  1.00  0.00     0.012 A 
ATOM     35  C   UNL     1      -8.616   5.057   9.744  1.00  0.00     0.001 A 
ATOM     36  C   UNL     1     -10.125   6.904   9.344  1.00  0.00     0.001 A 
ATOM     37  C   UNL     1      -9.833   5.697   9.984  1.00  0.00     0.000 A 
ENDBRANCH  25  32
ENDBRANCH   1  17
TORSDOF 9
ENDMDL
MODEL 7
REMARK VINA RESULT:    -4.861     14.829     17.775
REMARK INTER + INTRA:          -7.766
REMARK INTER:                  -6.946
REMARK INTRA:                  -0.821
REMARK UNBOUND:                -1.058
REMARK SMILES O=C([O-])[C@@H]1O[C@@H](Oc2cc3oc(-c4ccccc4)cc(=O)c3c(O)c2O)[C@H](O)[C@@H](O)[C@@H]1O
REMARK SMILES IDX 7 1 6 2 4 3 31 4 5 5 29 6 27 7 2 8 1 9 3 10 32 11 30 13
REMARK SMILES IDX 28 15 8 17 25 18 9 19 23 20 10 21 22 22 11 23 20 24 12 25
REMARK SMILES IDX 19 26 21 27 26 28 24 30 13 32 14 33 18 34 15 35 17 36 16 37
REMARK H PARENT 32 12 30 14 28 16 26 29 24 31
REMARK Flexibility Score: inf
ROOT
ATOM      1  O   UNL     1      -3.698  -5.287   8.761  1.00  0.00    -0.458 OA
ENDROOT
BRANCH   1   2
ATOM      2  C   UNL     1      -3.403  -5.844   7.472  1.00  0.00     0.339 C 
ATOM      3  C   UNL     1      -4.837  -7.668   7.830  1.00  0.00     0.199 C 
ATOM      4  C   UNL     1      -3.704  -8.715   7.823  1.00  0.00     0.180 C 
ATOM      5  O   UNL     1      -4.522  -6.570   6.988  1.00  0.00    -0.328 OA
ATOM      6  C   UNL     1      -2.381  -8.060   8.260  1.00  0.00     0.181 C 
ATOM      7  C   UNL     1      -2.129  -6.736   7.503  1.00  0.00     0.214 C 
BRANCH   3   8
ATOM      8  C   UNL     1      -6.124  -8.290   7.373  1.00  0.00     0.073 C 
ATOM      9  O   UNL     1      -6.214  -8.805   6.227  1.00  0.00    -0.547 OA
ATOM     10  O   UNL     1      -7.211  -8.348   8.237  1.00  0.00    -0.547 OA
ENDBRANCH   3   8
BRANCH   4  11
ATOM     11  O   UNL     1      -3.574  -9.276   6.540  1.00  0.00    -0.387 OA
ATOM     12  H   UNL     1      -4.490  -9.359   6.167  1.00  0.00     0.211 HD
ENDBRANCH   4  11
BRANCH   6  13
ATOM     13  O   UNL     1      -2.427  -7.820   9.645  1.00  0.00    -0.387 OA
ATOM     14  H   UNL     1      -3.216  -7.241   9.812  1.00  0.00     0.211 HD
ENDBRANCH   6  13
BRANCH   7  15
ATOM     15  O   UNL     1      -1.648  -6.986   6.204  1.00  0.00    -0.384 OA
ATOM     16  H   UNL     1      -0.995  -7.731   6.248  1.00  0.00     0.211 HD
ENDBRANCH   7  15
ENDBRANCH   1   2
BRANCH   1  17
ATOM     17  C   UNL     1      -4.650  -4.299   9.076  1.00  0.00     0.172 A 
ATOM     18  C   UNL     1      -6.014  -4.567   9.348  1.00  0.00     0.201 A 
ATOM     19  C   UNL     1      -4.183  -2.986   9.137  1.00  0.00     0.098 A 
ATOM     20  C   UNL     1      -6.907  -3.491   9.599  1.00  0.00     0.176 A 
ATOM     21  C   UNL     1      -5.040  -1.928   9.423  1.00  0.00     0.146 A 
ATOM     22  C   UNL     1      -6.412  -2.165   9.653  1.00  0.00     0.111 A 
ATOM     23  O   UNL     1      -4.546  -0.694   9.468  1.00  0.00    -0.456 OA
ATOM     24  C   UNL     1      -7.229  -1.045   9.919  1.00  0.00     0.197 A 
ATOM     25  C   UNL     1      -5.286   0.381   9.728  1.00  0.00     0.138 A 
ATOM     26  C   UNL     1      -6.663   0.230   9.955  1.00  0.00     0.100 A 
ATOM     27  O   UNL     1      -8.467  -1.165  10.125  1.00  0.00    -0.289 OA
BRANCH  18  28
ATOM     28  O   UNL     1      -6.451  -5.892   9.400  1.00  0.00    -0.502 OA
ATOM     29  H   UNL     1      -7.309  -6.197   9.835  1.00  0.00     0.293 HD
ENDBRANCH  18  28
BRANCH  20  30
ATOM     30  O   UNL     1      -8.276  -3.713   9.784  1.00  0.00    -0.504 OA
ATOM     31  H   UNL     1      -8.970  -3.649   9.055  1.00  0.00     0.293 HD
ENDBRANCH  20  30
BRANCH  25  32
ATOM     32  C   UNL     1      -4.628   1.711   9.753  1.00  0.00     0.017 A 
ATOM     33  C   UNL     1      -5.364   2.856   9.392  1.00  0.00     0.012 A 
ATOM     34  C   UNL     1      -3.270   1.861  10.102  1.00  0.00     0.012 A 
ATOM     35  C   UNL     1      -4.765   4.119   9.400  1.00  0.00     0.001 A 
ATOM     36  C   UNL     1      -2.677   3.127  10.107  1.00  0.00     0.001 A 
ATOM     37  C   UNL     1      -3.424   4.255   9.759  1.00  0.00     0.000 A 
ENDBRANCH  25  32
ENDBRANCH   1  17
TORSDOF 9
ENDMDL
MODEL 8
REMARK VINA RESULT:    -4.813     15.957     17.242
REMARK INTER + INTRA:          -7.700
REMARK INTER:                  -6.717
REMARK INTRA:                  -0.983
REMARK UNBOUND:                -1.058
REMARK SMILES O=C([O-])[C@@H]1O[C@@H](Oc2cc3oc(-c4ccccc4)cc(=O)c3c(O)c2O)[C@H](O)[C@@H](O)[C@@H]1O
REMARK SMILES IDX 7 1 6 2 4 3 31 4 5 5 29 6 27 7 2 8 1 9 3 10 32 11 30 13
REMARK SMILES IDX 28 15 8 17 25 18 9 19 23 20 10 21 22 22 11 23 20 24 12 25
REMARK SMILES IDX 19 26 21 27 26 28 24 30 13 32 14 33 18 34 15 35 17 36 16 37
REMARK H PARENT 32 12 30 14 28 16 26 29 24 31
REMARK Flexibility Score: inf
ROOT
ATOM      1  O   UNL     1      -3.673   7.089   7.007  1.00  0.00    -0.458 OA
ENDROOT
BRANCH   1   2
ATOM      2  C   UNL     1      -2.354   7.327   7.519  1.00  0.00     0.339 C 
ATOM      3  C   UNL     1      -1.560   8.001   5.415  1.00  0.00     0.199 C 
ATOM      4  C   UNL     1      -0.585   6.815   5.268  1.00  0.00     0.180 C 
ATOM      5  O   UNL     1      -1.725   8.361   6.778  1.00  0.00    -0.328 OA
ATOM      6  C   UNL     1      -1.093   5.614   6.088  1.00  0.00     0.181 C 
ATOM      7  C   UNL     1      -1.489   6.035   7.521  1.00  0.00     0.214 C 
BRANCH   3   8
ATOM      8  C   UNL     1      -1.055   9.188   4.646  1.00  0.00     0.073 C 
ATOM      9  O   UNL     1      -0.206   9.966   5.156  1.00  0.00    -0.547 OA
ATOM     10  O   UNL     1      -1.486   9.403   3.342  1.00  0.00    -0.547 OA
ENDBRANCH   3   8
BRANCH   4  11
ATOM     11  O   UNL     1       0.701   7.191   5.695  1.00  0.00    -0.387 OA
ATOM     12  H   UNL     1       1.116   7.698   4.949  1.00  0.00     0.211 HD
ENDBRANCH   4  11
BRANCH   6  13
ATOM     13  O   UNL     1      -2.201   5.049   5.430  1.00  0.00    -0.387 OA
ATOM     14  H   UNL     1      -3.012   5.357   5.913  1.00  0.00     0.211 HD
ENDBRANCH   6  13
BRANCH   7  15
ATOM     15  O   UNL     1      -0.349   6.185   8.332  1.00  0.00    -0.384 OA
ATOM     16  H   UNL     1      -0.599   5.983   9.270  1.00  0.00     0.211 HD
ENDBRANCH   7  15
ENDBRANCH   1   2
BRANCH   1  17
ATOM     17  C   UNL     1      -4.758   6.480   7.667  1.00  0.00     0.172 A 
ATOM     18  C   UNL     1      -5.946   7.157   8.035  1.00  0.00     0.201 A 
ATOM     19  C   UNL     1      -4.629   5.119   7.943  1.00  0.00     0.098 A 
ATOM     20  C   UNL     1      -6.958   6.464   8.751  1.00  0.00     0.176 A 
ATOM     21  C   UNL     1      -5.632   4.420   8.608  1.00  0.00     0.146 A 
ATOM     22  C   UNL     1      -6.806   5.082   9.024  1.00  0.00     0.111 A 
ATOM     23  O   UNL     1      -5.461   3.123   8.848  1.00  0.00    -0.456 OA
ATOM     24  C   UNL     1      -7.775   4.318   9.709  1.00  0.00     0.197 A 
ATOM     25  C   UNL     1      -6.359   2.372   9.480  1.00  0.00     0.138 A 
ATOM     26  C   UNL     1      -7.549   2.960   9.938  1.00  0.00     0.100 A 
ATOM     27  O   UNL     1      -8.848   4.832  10.125  1.00  0.00    -0.289 OA
BRANCH  18  28
ATOM     28  O   UNL     1      -6.117   8.489   7.654  1.00  0.00    -0.502 OA
ATOM     29  H   UNL     1      -5.404   9.059   7.224  1.00  0.00     0.293 HD
ENDBRANCH  18  28
BRANCH  20  30
ATOM     30  O   UNL     1      -8.106   7.123   9.206  1.00  0.00    -0.504 OA
ATOM     31  H   UNL     1      -8.320   8.092   9.024  1.00  0.00     0.293 HD
ENDBRANCH  20  30
BRANCH  25  32
ATOM     32  C   UNL     1      -6.063   0.933   9.694  1.00  0.00     0.017 A 
ATOM     33  C   UNL     1      -7.125   0.014   9.791  1.00  0.00     0.012 A 
ATOM     34  C   UNL     1      -4.742   0.460   9.834  1.00  0.00     0.012 A 
ATOM     35  C   UNL     1      -6.872  -1.345  10.000  1.00  0.00     0.001 A 
ATOM     36  C   UNL     1      -4.496  -0.900  10.044  1.00  0.00     0.001 A 
ATOM     37  C   UNL     1      -5.560  -1.802  10.125  1.00  0.00     0.000 A 
ENDBRANCH  25  32
ENDBRANCH   1  17
TORSDOF 9
ENDMDL
MODEL 9
REMARK VINA RESULT:    -4.674     15.498     18.062
REMARK INTER + INTRA:          -7.507
REMARK INTER:                  -6.880
REMARK INTRA:                  -0.627
REMARK UNBOUND:                -1.058
REMARK SMILES O=C([O-])[C@@H]1O[C@@H](Oc2cc3oc(-c4ccccc4)cc(=O)c3c(O)c2O)[C@H](O)[C@@H](O)[C@@H]1O
REMARK SMILES IDX 7 1 6 2 4 3 31 4 5 5 29 6 27 7 2 8 1 9 3 10 32 11 30 13
REMARK SMILES IDX 28 15 8 17 25 18 9 19 23 20 10 21 22 22 11 23 20 24 12 25
REMARK SMILES IDX 19 26 21 27 26 28 24 30 13 32 14 33 18 34 15 35 17 36 16 37
REMARK H PARENT 32 12 30 14 28 16 26 29 24 31
REMARK Flexibility Score: inf
ROOT
ATOM      1  O   UNL     1      -5.915   9.501   7.710  1.00  0.00    -0.458 OA
ENDROOT
BRANCH   1   2
ATOM      2  C   UNL     1      -6.651   9.334   8.931  1.00  0.00     0.339 C 
ATOM      3  C   UNL     1      -7.431   7.218   8.278  1.00  0.00     0.199 C 
ATOM      4  C   UNL     1      -8.909   7.650   8.206  1.00  0.00     0.180 C 
ATOM      5  O   UNL     1      -6.730   7.957   9.266  1.00  0.00    -0.328 OA
ATOM      6  C   UNL     1      -9.001   9.161   7.918  1.00  0.00     0.181 C 
ATOM      7  C   UNL     1      -8.067   9.970   8.847  1.00  0.00     0.214 C 
BRANCH   3   8
ATOM      8  C   UNL     1      -7.332   5.753   8.592  1.00  0.00     0.073 C 
ATOM      9  O   UNL     1      -8.091   5.230   9.451  1.00  0.00    -0.547 OA
ATOM     10  O   UNL     1      -6.433   4.954   7.895  1.00  0.00    -0.547 OA
ENDBRANCH   3   8
BRANCH   4  11
ATOM     11  O   UNL     1      -9.562   7.341   9.412  1.00  0.00    -0.387 OA
ATOM     12  H   UNL     1     -10.041   8.163   9.699  1.00  0.00     0.211 HD
ENDBRANCH   4  11
BRANCH   6  13
ATOM     13  O   UNL     1      -8.655   9.389   6.574  1.00  0.00    -0.387 OA
ATOM     14  H   UNL     1      -7.941  10.079   6.571  1.00  0.00     0.211 HD
ENDBRANCH   6  13
BRANCH   7  15
ATOM     15  O   UNL     1      -8.639  10.117  10.125  1.00  0.00    -0.384 OA
ATOM     16  H   UNL     1      -9.480  10.635  10.036  1.00  0.00     0.211 HD
ENDBRANCH   7  15
ENDBRANCH   1   2
BRANCH   1  17
ATOM     17  C   UNL     1      -5.123   8.548   7.043  1.00  0.00     0.172 A 
ATOM     18  C   UNL     1      -5.392   8.062   5.740  1.00  0.00     0.201 A 
ATOM     19  C   UNL     1      -3.998   8.090   7.729  1.00  0.00     0.098 A 
ATOM     20  C   UNL     1      -4.561   7.056   5.179  1.00  0.00     0.176 A 
ATOM     21  C   UNL     1      -3.154   7.134   7.172  1.00  0.00     0.146 A 
ATOM     22  C   UNL     1      -3.426   6.602   5.894  1.00  0.00     0.111 A 
ATOM     23  O   UNL     1      -2.095   6.728   7.866  1.00  0.00    -0.456 OA
ATOM     24  C   UNL     1      -2.539   5.623   5.396  1.00  0.00     0.197 A 
ATOM     25  C   UNL     1      -1.234   5.817   7.421  1.00  0.00     0.138 A 
ATOM     26  C   UNL     1      -1.441   5.230   6.163  1.00  0.00     0.100 A 
ATOM     27  O   UNL     1      -2.713   5.087   4.268  1.00  0.00    -0.289 OA
BRANCH  18  28
ATOM     28  O   UNL     1      -6.451   8.610   5.014  1.00  0.00    -0.502 OA
ATOM     29  H   UNL     1      -7.425   8.405   5.179  1.00  0.00     0.293 HD
ENDBRANCH  18  28
BRANCH  20  30
ATOM     30  O   UNL     1      -4.848   6.491   3.931  1.00  0.00    -0.504 OA
ATOM     31  H   UNL     1      -5.077   5.521   3.781  1.00  0.00     0.293 HD
ENDBRANCH  20  30
BRANCH  25  32
ATOM     32  C   UNL     1      -0.085   5.439   8.282  1.00  0.00     0.017 A 
ATOM     33  C   UNL     1       0.557   4.203   8.078  1.00  0.00     0.012 A 
ATOM     34  C   UNL     1       0.367   6.274   9.325  1.00  0.00     0.012 A 
ATOM     35  C   UNL     1       1.636   3.821   8.881  1.00  0.00     0.001 A 
ATOM     36  C   UNL     1       1.446   5.886  10.125  1.00  0.00     0.001 A 
ATOM     37  C   UNL     1       2.081   4.662   9.902  1.00  0.00     0.000 A 
ENDBRANCH  25  32
ENDBRANCH   1  17
TORSDOF 9
ENDMDL
