MODEL 1
REMARK VINA RESULT:    -5.078      0.000      0.000
REMARK INTER + INTRA:          -8.767
REMARK INTER:                  -7.453
REMARK INTRA:                  -1.314
REMARK UNBOUND:                -1.314
REMARK SMILES CC(C)COC(=O)c1ccccc1C(=O)OCC(C)C
REMARK SMILES IDX 8 1 9 2 10 3 11 4 12 5 13 6 6 7 7 8 5 9 4 10 2 11 1 12 3 13
REMARK SMILES IDX 14 14 15 15 16 16 17 17 18 18 19 19 20 20
REMARK H PARENT
REMARK Flexibility Score: inf
ROOT
ATOM      1  C   UNL     1     -29.896  28.883   5.579  1.00  0.00     0.074 A 
ATOM      2  C   UNL     1     -29.360  29.997   6.252  1.00  0.00     0.016 A 
ATOM      3  C   UNL     1     -29.285  31.242   5.626  1.00  0.00     0.001 A 
ATOM      4  C   UNL     1     -29.745  31.395   4.320  1.00  0.00     0.001 A 
ATOM      5  C   UNL     1     -30.261  30.301   3.627  1.00  0.00     0.016 A 
ATOM      6  C   UNL     1     -30.325  29.032   4.231  1.00  0.00     0.074 A 
ENDROOT
BRANCH   1   7
ATOM      7  C   UNL     1     -30.063  27.621   6.334  1.00  0.00     0.339 C 
ATOM      8  O   UNL     1     -29.054  27.052   6.835  1.00  0.00    -0.246 OA
BRANCH   7   9
ATOM      9  O   UNL     1     -31.343  27.089   6.534  1.00  0.00    -0.462 OA
BRANCH   9  10
ATOM     10  C   UNL     1     -31.597  25.702   6.749  1.00  0.00     0.236 C 
BRANCH  10  11
ATOM     11  C   UNL     1     -31.914  24.983   5.424  1.00  0.00     0.021 C 
ATOM     12  C   UNL     1     -33.313  25.367   4.933  1.00  0.00     0.011 C 
ATOM     13  C   UNL     1     -31.803  23.461   5.584  1.00  0.00     0.011 C 
ENDBRANCH  10  11
ENDBRANCH   9  10
ENDBRANCH   7   9
ENDBRANCH   1   7
BRANCH   6  14
ATOM     14  C   UNL     1     -30.779  27.893   3.402  1.00  0.00     0.339 C 
ATOM     15  O   UNL     1     -31.966  27.847   2.978  1.00  0.00    -0.246 OA
BRANCH  14  16
ATOM     16  O   UNL     1     -29.898  26.839   3.139  1.00  0.00    -0.462 OA
BRANCH  16  17
ATOM     17  C   UNL     1     -30.233  25.750   2.284  1.00  0.00     0.236 C 
BRANCH  17  18
ATOM     18  C   UNL     1     -29.254  24.588   2.509  1.00  0.00     0.021 C 
ATOM     19  C   UNL     1     -29.970  23.244   2.333  1.00  0.00     0.011 C 
ATOM     20  C   UNL     1     -28.609  24.671   3.898  1.00  0.00     0.011 C 
ENDBRANCH  17  18
ENDBRANCH  16  17
ENDBRANCH  14  16
ENDBRANCH   6  14
TORSDOF 8
ENDMDL
MODEL 2
REMARK VINA RESULT:    -5.018      1.934      4.698
REMARK INTER + INTRA:          -8.680
REMARK INTER:                  -7.035
REMARK INTRA:                  -1.645
REMARK UNBOUND:                -1.314
REMARK SMILES CC(C)COC(=O)c1ccccc1C(=O)OCC(C)C
REMARK SMILES IDX 8 1 9 2 10 3 11 4 12 5 13 6 6 7 7 8 5 9 4 10 2 11 1 12 3 13
REMARK SMILES IDX 14 14 15 15 16 16 17 17 18 18 19 19 20 20
REMARK H PARENT
REMARK Flexibility Score: inf
ROOT
ATOM      1  C   UNL     1     -30.486  24.965   4.180  1.00  0.00     0.074 A 
ATOM      2  C   UNL     1     -29.092  24.767   4.180  1.00  0.00     0.016 A 
ATOM      3  C   UNL     1     -28.331  25.052   3.046  1.00  0.00     0.001 A 
ATOM      4  C   UNL     1     -28.946  25.541   1.896  1.00  0.00     0.001 A 
ATOM      5  C   UNL     1     -30.328  25.725   1.867  1.00  0.00     0.016 A 
ATOM      6  C   UNL     1     -31.118  25.422   2.991  1.00  0.00     0.074 A 
ENDROOT
BRANCH   1   7
ATOM      7  C   UNL     1     -31.223  24.762   5.448  1.00  0.00     0.339 C 
ATOM      8  O   UNL     1     -31.632  23.610   5.758  1.00  0.00    -0.246 OA
BRANCH   7   9
ATOM      9  O   UNL     1     -31.420  25.839   6.322  1.00  0.00    -0.462 OA
BRANCH   9  10
ATOM     10  C   UNL     1     -30.584  26.107   7.447  1.00  0.00     0.236 C 
BRANCH  10  11
ATOM     11  C   UNL     1     -29.301  26.844   7.021  1.00  0.00     0.021 C 
ATOM     12  C   UNL     1     -28.324  26.933   8.198  1.00  0.00     0.011 C 
ATOM     13  C   UNL     1     -29.623  28.246   6.487  1.00  0.00     0.011 C 
ENDBRANCH  10  11
ENDBRANCH   9  10
ENDBRANCH   7   9
ENDBRANCH   1   7
BRANCH   6  14
ATOM     14  C   UNL     1     -32.588  25.534   2.854  1.00  0.00     0.339 C 
ATOM     15  O   UNL     1     -33.245  24.626   2.276  1.00  0.00    -0.246 OA
BRANCH  14  16
ATOM     16  O   UNL     1     -33.236  26.683   3.321  1.00  0.00    -0.462 OA
BRANCH  16  17
ATOM     17  C   UNL     1     -33.219  27.918   2.612  1.00  0.00     0.236 C 
BRANCH  17  18
ATOM     18  C   UNL     1     -32.671  29.033   3.515  1.00  0.00     0.021 C 
ATOM     19  C   UNL     1     -31.167  29.217   3.283  1.00  0.00     0.011 C 
ATOM     20  C   UNL     1     -32.950  28.733   4.993  1.00  0.00     0.011 C 
ENDBRANCH  17  18
ENDBRANCH  16  17
ENDBRANCH  14  16
ENDBRANCH   6  14
TORSDOF 8
ENDMDL
MODEL 3
REMARK VINA RESULT:    -4.993      1.484      4.846
REMARK INTER + INTRA:          -8.642
REMARK INTER:                  -7.059
REMARK INTRA:                  -1.582
REMARK UNBOUND:                -1.314
REMARK SMILES CC(C)COC(=O)c1ccccc1C(=O)OCC(C)C
REMARK SMILES IDX 8 1 9 2 10 3 11 4 12 5 13 6 6 7 7 8 5 9 4 10 2 11 1 12 3 13
REMARK SMILES IDX 14 14 15 15 16 16 17 17 18 18 19 19 20 20
REMARK H PARENT
REMARK Flexibility Score: inf
ROOT
ATOM      1  C   UNL     1     -31.112  26.257   3.646  1.00  0.00     0.074 A 
ATOM      2  C   UNL     1     -30.567  25.853   2.412  1.00  0.00     0.016 A 
ATOM      3  C   UNL     1     -29.302  25.267   2.349  1.00  0.00     0.001 A 
ATOM      4  C   UNL     1     -28.563  25.073   3.513  1.00  0.00     0.001 A 
ATOM      5  C   UNL     1     -29.075  25.484   4.744  1.00  0.00     0.016 A 
ATOM      6  C   UNL     1     -30.338  26.098   4.828  1.00  0.00     0.074 A 
ENDROOT
BRANCH   1   7
ATOM      7  C   UNL     1     -32.505  26.758   3.666  1.00  0.00     0.339 C 
ATOM      8  O   UNL     1     -32.756  27.928   3.263  1.00  0.00    -0.246 OA
BRANCH   7   9
ATOM      9  O   UNL     1     -33.545  25.919   4.084  1.00  0.00    -0.462 OA
BRANCH   9  10
ATOM     10  C   UNL     1     -33.644  24.543   3.722  1.00  0.00     0.236 C 
BRANCH  10  11
ATOM     11  C   UNL     1     -33.522  23.633   4.959  1.00  0.00     0.021 C 
ATOM     12  C   UNL     1     -32.123  23.012   5.026  1.00  0.00     0.011 C 
ATOM     13  C   UNL     1     -34.593  22.535   4.941  1.00  0.00     0.011 C 
ENDBRANCH  10  11
ENDBRANCH   9  10
ENDBRANCH   7   9
ENDBRANCH   1   7
BRANCH   6  14
ATOM     14  C   UNL     1     -30.771  26.611   6.148  1.00  0.00     0.339 C 
ATOM     15  O   UNL     1     -31.607  25.966   6.838  1.00  0.00    -0.246 OA
BRANCH  14  16
ATOM     16  O   UNL     1     -30.289  27.844   6.598  1.00  0.00    -0.462 OA
BRANCH  16  17
ATOM     17  C   UNL     1     -30.796  29.088   6.126  1.00  0.00     0.236 C 
BRANCH  17  18
ATOM     18  C   UNL     1     -29.719  29.817   5.309  1.00  0.00     0.021 C 
ATOM     19  C   UNL     1     -29.115  30.966   6.125  1.00  0.00     0.011 C 
ATOM     20  C   UNL     1     -30.290  30.344   3.988  1.00  0.00     0.011 C 
ENDBRANCH  17  18
ENDBRANCH  16  17
ENDBRANCH  14  16
ENDBRANCH   6  14
TORSDOF 8
ENDMDL
MODEL 4
REMARK VINA RESULT:    -4.926      1.641      4.505
REMARK INTER + INTRA:          -8.544
REMARK INTER:                  -6.799
REMARK INTRA:                  -1.744
REMARK UNBOUND:                -1.314
REMARK SMILES CC(C)COC(=O)c1ccccc1C(=O)OCC(C)C
REMARK SMILES IDX 8 1 9 2 10 3 11 4 12 5 13 6 6 7 7 8 5 9 4 10 2 11 1 12 3 13
REMARK SMILES IDX 14 14 15 15 16 16 17 17 18 18 19 19 20 20
REMARK H PARENT
REMARK Flexibility Score: inf
ROOT
ATOM      1  C   UNL     1     -30.469  26.089   4.779  1.00  0.00     0.074 A 
ATOM      2  C   UNL     1     -29.218  25.629   4.328  1.00  0.00     0.016 A 
ATOM      3  C   UNL     1     -28.979  25.429   2.967  1.00  0.00     0.001 A 
ATOM      4  C   UNL     1     -29.983  25.687   2.037  1.00  0.00     0.001 A 
ATOM      5  C   UNL     1     -31.237  26.123   2.463  1.00  0.00     0.016 A 
ATOM      6  C   UNL     1     -31.507  26.309   3.832  1.00  0.00     0.074 A 
ENDROOT
BRANCH   1   7
ATOM      7  C   UNL     1     -30.624  26.400   6.218  1.00  0.00     0.339 C 
ATOM      8  O   UNL     1     -31.084  25.524   7.003  1.00  0.00    -0.246 OA
BRANCH   7   9
ATOM      9  O   UNL     1     -30.214  27.644   6.714  1.00  0.00    -0.462 OA
BRANCH   9  10
ATOM     10  C   UNL     1     -30.754  28.887   6.270  1.00  0.00     0.236 C 
BRANCH  10  11
ATOM     11  C   UNL     1     -29.781  29.606   5.316  1.00  0.00     0.021 C 
ATOM     12  C   UNL     1     -29.192  30.847   5.994  1.00  0.00     0.011 C 
ATOM     13  C   UNL     1     -30.481  29.994   4.007  1.00  0.00     0.011 C 
ENDBRANCH  10  11
ENDBRANCH   9  10
ENDBRANCH   7   9
ENDBRANCH   1   7
BRANCH   6  14
ATOM     14  C   UNL     1     -32.890  26.665   4.222  1.00  0.00     0.339 C 
ATOM     15  O   UNL     1     -33.334  27.826   4.005  1.00  0.00    -0.246 OA
BRANCH  14  16
ATOM     16  O   UNL     1     -33.681  25.722   4.885  1.00  0.00    -0.462 OA
BRANCH  16  17
ATOM     17  C   UNL     1     -34.680  24.953   4.223  1.00  0.00     0.236 C 
BRANCH  17  18
ATOM     18  C   UNL     1     -34.159  23.532   3.962  1.00  0.00     0.021 C 
ATOM     19  C   UNL     1     -33.093  23.154   4.997  1.00  0.00     0.011 C 
ATOM     20  C   UNL     1     -33.593  23.404   2.542  1.00  0.00     0.011 C 
ENDBRANCH  17  18
ENDBRANCH  16  17
ENDBRANCH  14  16
ENDBRANCH   6  14
TORSDOF 8
ENDMDL
MODEL 5
REMARK VINA RESULT:    -4.914      2.102      5.256
REMARK INTER + INTRA:          -8.527
REMARK INTER:                  -7.016
REMARK INTRA:                  -1.511
REMARK UNBOUND:                -1.314
REMARK SMILES CC(C)COC(=O)c1ccccc1C(=O)OCC(C)C
REMARK SMILES IDX 8 1 9 2 10 3 11 4 12 5 13 6 6 7 7 8 5 9 4 10 2 11 1 12 3 13
REMARK SMILES IDX 14 14 15 15 16 16 17 17 18 18 19 19 20 20
REMARK H PARENT
REMARK Flexibility Score: inf
ROOT
ATOM      1  C   UNL     1     -31.366  25.980   4.099  1.00  0.00     0.074 A 
ATOM      2  C   UNL     1     -31.074  25.577   2.782  1.00  0.00     0.016 A 
ATOM      3  C   UNL     1     -29.805  25.103   2.446  1.00  0.00     0.001 A 
ATOM      4  C   UNL     1     -28.809  25.021   3.417  1.00  0.00     0.001 A 
ATOM      5  C   UNL     1     -29.071  25.435   4.723  1.00  0.00     0.016 A 
ATOM      6  C   UNL     1     -30.336  25.938   5.079  1.00  0.00     0.074 A 
ENDROOT
BRANCH   1   7
ATOM      7  C   UNL     1     -32.760  26.356   4.423  1.00  0.00     0.339 C 
ATOM      8  O   UNL     1     -33.554  25.487   4.879  1.00  0.00    -0.246 OA
BRANCH   7   9
ATOM      9  O   UNL     1     -33.181  27.683   4.271  1.00  0.00    -0.462 OA
BRANCH   9  10
ATOM     10  C   UNL     1     -34.241  28.082   3.403  1.00  0.00     0.236 C 
BRANCH  10  11
ATOM     11  C   UNL     1     -34.027  27.535   1.979  1.00  0.00     0.021 C 
ATOM     12  C   UNL     1     -32.993  28.385   1.233  1.00  0.00     0.011 C 
ATOM     13  C   UNL     1     -35.349  27.498   1.201  1.00  0.00     0.011 C 
ENDBRANCH  10  11
ENDBRANCH   9  10
ENDBRANCH   7   9
ENDBRANCH   1   7
BRANCH   6  14
ATOM     14  C   UNL     1     -30.511  26.462   6.452  1.00  0.00     0.339 C 
ATOM     15  O   UNL     1     -31.110  25.776   7.325  1.00  0.00    -0.246 OA
BRANCH  14  16
ATOM     16  O   UNL     1     -30.057  27.748   6.759  1.00  0.00    -0.462 OA
BRANCH  16  17
ATOM     17  C   UNL     1     -30.692  28.927   6.271  1.00  0.00     0.236 C 
BRANCH  17  18
ATOM     18  C   UNL     1     -29.773  29.639   5.267  1.00  0.00     0.021 C 
ATOM     19  C   UNL     1     -29.194  30.917   5.885  1.00  0.00     0.011 C 
ATOM     20  C   UNL     1     -30.522  29.965   3.969  1.00  0.00     0.011 C 
ENDBRANCH  17  18
ENDBRANCH  16  17
ENDBRANCH  14  16
ENDBRANCH   6  14
TORSDOF 8
ENDMDL
MODEL 6
REMARK VINA RESULT:    -4.908      1.890      3.542
REMARK INTER + INTRA:          -8.518
REMARK INTER:                  -7.252
REMARK INTRA:                  -1.265
REMARK UNBOUND:                -1.314
REMARK SMILES CC(C)COC(=O)c1ccccc1C(=O)OCC(C)C
REMARK SMILES IDX 8 1 9 2 10 3 11 4 12 5 13 6 6 7 7 8 5 9 4 10 2 11 1 12 3 13
REMARK SMILES IDX 14 14 15 15 16 16 17 17 18 18 19 19 20 20
REMARK H PARENT
REMARK Flexibility Score: inf
ROOT
ATOM      1  C   UNL     1     -30.635  28.778   5.525  1.00  0.00     0.074 A 
ATOM      2  C   UNL     1     -29.993  30.030   5.516  1.00  0.00     0.016 A 
ATOM      3  C   UNL     1     -28.810  30.231   6.230  1.00  0.00     0.001 A 
ATOM      4  C   UNL     1     -28.251  29.186   6.962  1.00  0.00     0.001 A 
ATOM      5  C   UNL     1     -28.882  27.943   7.002  1.00  0.00     0.016 A 
ATOM      6  C   UNL     1     -30.087  27.726   6.308  1.00  0.00     0.074 A 
ENDROOT
BRANCH   1   7
ATOM      7  C   UNL     1     -31.816  28.590   4.652  1.00  0.00     0.339 C 
ATOM      8  O   UNL     1     -32.974  28.789   5.112  1.00  0.00    -0.246 OA
BRANCH   7   9
ATOM      9  O   UNL     1     -31.643  28.241   3.306  1.00  0.00    -0.462 OA
BRANCH   9  10
ATOM     10  C   UNL     1     -32.420  28.788   2.242  1.00  0.00     0.236 C 
BRANCH  10  11
ATOM     11  C   UNL     1     -32.762  27.713   1.194  1.00  0.00     0.021 C 
ATOM     12  C   UNL     1     -33.826  28.236   0.223  1.00  0.00     0.011 C 
ATOM     13  C   UNL     1     -33.244  26.422   1.869  1.00  0.00     0.011 C 
ENDBRANCH  10  11
ENDBRANCH   9  10
ENDBRANCH   7   9
ENDBRANCH   1   7
BRANCH   6  14
ATOM     14  C   UNL     1     -30.760  26.419   6.484  1.00  0.00     0.339 C 
ATOM     15  O   UNL     1     -31.728  26.304   7.285  1.00  0.00    -0.246 OA
BRANCH  14  16
ATOM     16  O   UNL     1     -30.279  25.300   5.798  1.00  0.00    -0.462 OA
BRANCH  16  17
ATOM     17  C   UNL     1     -30.417  25.141   4.390  1.00  0.00     0.236 C 
BRANCH  17  18
ATOM     18  C   UNL     1     -29.083  25.450   3.694  1.00  0.00     0.021 C 
ATOM     19  C   UNL     1     -29.319  25.825   2.226  1.00  0.00     0.011 C 
ATOM     20  C   UNL     1     -28.121  24.259   3.792  1.00  0.00     0.011 C 
ENDBRANCH  17  18
ENDBRANCH  16  17
ENDBRANCH  14  16
ENDBRANCH   6  14
TORSDOF 8
ENDMDL
MODEL 7
REMARK VINA RESULT:    -4.844      2.255      5.026
REMARK INTER + INTRA:          -8.424
REMARK INTER:                  -6.707
REMARK INTRA:                  -1.717
REMARK UNBOUND:                -1.314
REMARK SMILES CC(C)COC(=O)c1ccccc1C(=O)OCC(C)C
REMARK SMILES IDX 8 1 9 2 10 3 11 4 12 5 13 6 6 7 7 8 5 9 4 10 2 11 1 12 3 13
REMARK SMILES IDX 14 14 15 15 16 16 17 17 18 18 19 19 20 20
REMARK H PARENT
REMARK Flexibility Score: inf
ROOT
ATOM      1  C   UNL     1     -31.098  26.179   4.374  1.00  0.00     0.074 A 
ATOM      2  C   UNL     1     -29.753  26.190   3.961  1.00  0.00     0.016 A 
ATOM      3  C   UNL     1     -29.378  25.639   2.734  1.00  0.00     0.001 A 
ATOM      4  C   UNL     1     -30.339  25.072   1.901  1.00  0.00     0.001 A 
ATOM      5  C   UNL     1     -31.675  25.032   2.300  1.00  0.00     0.016 A 
ATOM      6  C   UNL     1     -32.071  25.561   3.542  1.00  0.00     0.074 A 
ENDROOT
BRANCH   1   7
ATOM      7  C   UNL     1     -31.453  26.887   5.625  1.00  0.00     0.339 C 
ATOM      8  O   UNL     1     -31.515  26.247   6.711  1.00  0.00    -0.246 OA
BRANCH   7   9
ATOM      9  O   UNL     1     -31.669  28.270   5.610  1.00  0.00    -0.462 OA
BRANCH   9  10
ATOM     10  C   UNL     1     -30.820  29.210   6.267  1.00  0.00     0.236 C 
BRANCH  10  11
ATOM     11  C   UNL     1     -29.788  29.803   5.290  1.00  0.00     0.021 C 
ATOM     12  C   UNL     1     -29.093  31.014   5.921  1.00  0.00     0.011 C 
ATOM     13  C   UNL     1     -30.450  30.199   3.964  1.00  0.00     0.011 C 
ENDBRANCH  10  11
ENDBRANCH   9  10
ENDBRANCH   7   9
ENDBRANCH   1   7
BRANCH   6  14
ATOM     14  C   UNL     1     -33.483  25.385   3.950  1.00  0.00     0.339 C 
ATOM     15  O   UNL     1     -33.805  24.469   4.755  1.00  0.00    -0.246 OA
BRANCH  14  16
ATOM     16  O   UNL     1     -34.467  26.207   3.391  1.00  0.00    -0.462 OA
BRANCH  16  17
ATOM     17  C   UNL     1     -34.318  27.619   3.277  1.00  0.00     0.236 C 
BRANCH  17  18
ATOM     18  C   UNL     1     -34.271  28.022   1.796  1.00  0.00     0.021 C 
ATOM     19  C   UNL     1     -34.762  26.870   0.911  1.00  0.00     0.011 C 
ATOM     20  C   UNL     1     -32.856  28.446   1.384  1.00  0.00     0.011 C 
ENDBRANCH  17  18
ENDBRANCH  16  17
ENDBRANCH  14  16
ENDBRANCH   6  14
TORSDOF 8
ENDMDL
MODEL 8
REMARK VINA RESULT:    -4.831      2.195      4.646
REMARK INTER + INTRA:          -8.404
REMARK INTER:                  -6.838
REMARK INTRA:                  -1.566
REMARK UNBOUND:                -1.314
REMARK SMILES CC(C)COC(=O)c1ccccc1C(=O)OCC(C)C
REMARK SMILES IDX 8 1 9 2 10 3 11 4 12 5 13 6 6 7 7 8 5 9 4 10 2 11 1 12 3 13
REMARK SMILES IDX 14 14 15 15 16 16 17 17 18 18 19 19 20 20
REMARK H PARENT
REMARK Flexibility Score: inf
ROOT
ATOM      1  C   UNL     1     -32.902  26.459   3.020  1.00  0.00     0.074 A 
ATOM      2  C   UNL     1     -33.437  26.085   1.773  1.00  0.00     0.016 A 
ATOM      3  C   UNL     1     -33.530  27.009   0.731  1.00  0.00     0.001 A 
ATOM      4  C   UNL     1     -33.089  28.317   0.915  1.00  0.00     0.001 A 
ATOM      5  C   UNL     1     -32.576  28.715   2.149  1.00  0.00     0.016 A 
ATOM      6  C   UNL     1     -32.494  27.806   3.221  1.00  0.00     0.074 A 
ENDROOT
BRANCH   1   7
ATOM      7  C   UNL     1     -32.715  25.408   4.046  1.00  0.00     0.339 C 
ATOM      8  O   UNL     1     -33.686  25.064   4.776  1.00  0.00    -0.246 OA
BRANCH   7   9
ATOM      9  O   UNL     1     -31.478  24.764   4.171  1.00  0.00    -0.462 OA
BRANCH   9  10
ATOM     10  C   UNL     1     -30.817  24.106   3.091  1.00  0.00     0.236 C 
BRANCH  10  11
ATOM     11  C   UNL     1     -29.373  24.614   2.930  1.00  0.00     0.021 C 
ATOM     12  C   UNL     1     -28.608  24.470   4.251  1.00  0.00     0.011 C 
ATOM     13  C   UNL     1     -29.353  26.074   2.459  1.00  0.00     0.011 C 
ENDBRANCH  10  11
ENDBRANCH   9  10
ENDBRANCH   7   9
ENDBRANCH   1   7
BRANCH   6  14
ATOM     14  C   UNL     1     -32.044  28.324   4.533  1.00  0.00     0.339 C 
ATOM     15  O   UNL     1     -32.868  28.859   5.324  1.00  0.00    -0.246 OA
BRANCH  14  16
ATOM     16  O   UNL     1     -30.687  28.265   4.866  1.00  0.00    -0.462 OA
BRANCH  16  17
ATOM     17  C   UNL     1     -30.220  28.319   6.211  1.00  0.00     0.236 C 
BRANCH  17  18
ATOM     18  C   UNL     1     -29.842  26.910   6.691  1.00  0.00     0.021 C 
ATOM     19  C   UNL     1     -31.061  26.207   7.300  1.00  0.00     0.011 C 
ATOM     20  C   UNL     1     -28.693  26.962   7.705  1.00  0.00     0.011 C 
ENDBRANCH  17  18
ENDBRANCH  16  17
ENDBRANCH  14  16
ENDBRANCH   6  14
TORSDOF 8
ENDMDL
MODEL 9
REMARK VINA RESULT:    -4.806      2.271      4.737
REMARK INTER + INTRA:          -8.368
REMARK INTER:                  -6.382
REMARK INTRA:                  -1.985
REMARK UNBOUND:                -1.314
REMARK SMILES CC(C)COC(=O)c1ccccc1C(=O)OCC(C)C
REMARK SMILES IDX 8 1 9 2 10 3 11 4 12 5 13 6 6 7 7 8 5 9 4 10 2 11 1 12 3 13
REMARK SMILES IDX 14 14 15 15 16 16 17 17 18 18 19 19 20 20
REMARK H PARENT
REMARK Flexibility Score: inf
ROOT
ATOM      1  C   UNL     1     -30.485  24.648   4.074  1.00  0.00     0.074 A 
ATOM      2  C   UNL     1     -29.080  24.732   4.080  1.00  0.00     0.016 A 
ATOM      3  C   UNL     1     -28.389  25.193   2.958  1.00  0.00     0.001 A 
ATOM      4  C   UNL     1     -29.088  25.579   1.816  1.00  0.00     0.001 A 
ATOM      5  C   UNL     1     -30.479  25.484   1.782  1.00  0.00     0.016 A 
ATOM      6  C   UNL     1     -31.194  25.000   2.894  1.00  0.00     0.074 A 
ENDROOT
BRANCH   1   7
ATOM      7  C   UNL     1     -31.169  24.270   5.332  1.00  0.00     0.339 C 
ATOM      8  O   UNL     1     -31.657  23.113   5.457  1.00  0.00    -0.246 OA
BRANCH   7   9
ATOM      9  O   UNL     1     -31.229  25.178   6.396  1.00  0.00    -0.462 OA
BRANCH   9  10
ATOM     10  C   UNL     1     -31.814  26.475   6.295  1.00  0.00     0.236 C 
BRANCH  10  11
ATOM     11  C   UNL     1     -30.740  27.576   6.372  1.00  0.00     0.021 C 
ATOM     12  C   UNL     1     -30.450  28.134   4.975  1.00  0.00     0.011 C 
ATOM     13  C   UNL     1     -29.451  27.044   7.012  1.00  0.00     0.011 C 
ENDBRANCH  10  11
ENDBRANCH   9  10
ENDBRANCH   7   9
ENDBRANCH   1   7
BRANCH   6  14
ATOM     14  C   UNL     1     -32.657  24.821   2.749  1.00  0.00     0.339 C 
ATOM     15  O   UNL     1     -33.120  23.787   2.195  1.00  0.00    -0.246 OA
BRANCH  14  16
ATOM     16  O   UNL     1     -33.519  25.833   3.181  1.00  0.00    -0.462 OA
BRANCH  16  17
ATOM     17  C   UNL     1     -34.315  26.602   2.285  1.00  0.00     0.236 C 
BRANCH  17  18
ATOM     18  C   UNL     1     -34.036  28.098   2.487  1.00  0.00     0.021 C 
ATOM     19  C   UNL     1     -32.686  28.479   1.867  1.00  0.00     0.011 C 
ATOM     20  C   UNL     1     -34.063  28.469   3.974  1.00  0.00     0.011 C 
ENDBRANCH  17  18
ENDBRANCH  16  17
ENDBRANCH  14  16
ENDBRANCH   6  14
TORSDOF 8
ENDMDL
