MODEL 1
REMARK VINA RESULT:    -4.912      0.000      0.000
REMARK INTER + INTRA:          -6.090
REMARK INTER:                  -5.773
REMARK INTRA:                  -0.317
REMARK UNBOUND:                -0.317
REMARK SMILES Oc1ccc(-c2[o+]c3cc(O)cc(O)c3cc2O)cc1.[Cl-]
REMARK SMILES IDX 6 1 7 2 8 3 9 4 10 5 12 6 13 7 15 8 16 9 17 10 5 11 4 12
REMARK SMILES IDX 3 13 2 14 19 15 20 16 1 17 18 19 11 21 14 23
REMARK H PARENT 1 18 18 20 11 22 14 24
REMARK Flexibility Score: inf
ROOT
ATOM      1  C   UNL     1      44.770  30.361  25.224  1.00  0.00     0.401 A 
ATOM      2  O   UNL     1      45.927  30.065  25.811  1.00  0.00    -0.202 OA
ATOM      3  C   UNL     1      46.012  29.480  27.002  1.00  0.00     0.368 A 
ATOM      4  C   UNL     1      47.274  29.206  27.535  1.00  0.00     0.162 A 
ATOM      5  C   UNL     1      47.394  28.590  28.781  1.00  0.00     0.128 A 
ATOM      6  C   UNL     1      46.245  28.244  29.501  1.00  0.00     0.093 A 
ATOM      7  C   UNL     1      44.969  28.508  28.989  1.00  0.00     0.136 A 
ATOM      8  C   UNL     1      44.843  29.137  27.723  1.00  0.00     0.125 A 
ATOM      9  C   UNL     1      43.606  29.451  27.137  1.00  0.00     0.078 A 
ATOM     10  C   UNL     1      43.561  30.076  25.886  1.00  0.00     0.223 A 
ENDROOT
BRANCH   1  11
ATOM     11  C   UNL     1      44.806  31.004  23.890  1.00  0.00     0.084 A 
ATOM     12  C   UNL     1      44.817  32.405  23.751  1.00  0.00     0.022 A 
ATOM     13  C   UNL     1      44.827  32.988  22.481  1.00  0.00     0.047 A 
ATOM     14  C   UNL     1      44.813  32.182  21.335  1.00  0.00     0.115 A 
ATOM     15  C   UNL     1      44.770  30.204  22.736  1.00  0.00     0.022 A 
ATOM     16  C   UNL     1      44.782  30.791  21.467  1.00  0.00     0.047 A 
BRANCH  14  17
ATOM     17  O   UNL     1      44.824  32.753  20.064  1.00  0.00    -0.508 OA
ATOM     18  H   UNL     1      44.066  32.605  19.410  1.00  0.00     0.293 HD
ENDBRANCH  14  17
ENDBRANCH   1  11
BRANCH  10  19
ATOM     19  O   UNL     1      42.334  30.435  25.327  1.00  0.00    -0.500 OA
ATOM     20  H   UNL     1      42.147  31.381  25.017  1.00  0.00     0.294 HD
ENDBRANCH  10  19
BRANCH   5  21
ATOM     21  O   UNL     1      48.662  28.325  29.296  1.00  0.00    -0.507 OA
ATOM     22  H   UNL     1      49.469  28.227  28.691  1.00  0.00     0.293 HD
ENDBRANCH   5  21
BRANCH   7  23
ATOM     23  O   UNL     1      43.872  28.129  29.766  1.00  0.00    -0.507 OA
ATOM     24  H   UNL     1      43.912  27.942  30.758  1.00  0.00     0.293 HD
ENDBRANCH   7  23
TORSDOF 5
ENDMDL
MODEL 2
REMARK VINA RESULT:    -4.818     12.606     14.434
REMARK INTER + INTRA:          -5.981
REMARK INTER:                  -5.707
REMARK INTRA:                  -0.274
REMARK UNBOUND:                -0.317
REMARK SMILES Oc1ccc(-c2[o+]c3cc(O)cc(O)c3cc2O)cc1.[Cl-]
REMARK SMILES IDX 6 1 7 2 8 3 9 4 10 5 12 6 13 7 15 8 16 9 17 10 5 11 4 12
REMARK SMILES IDX 3 13 2 14 19 15 20 16 1 17 18 19 11 21 14 23
REMARK H PARENT 1 18 18 20 11 22 14 24
REMARK Flexibility Score: inf
ROOT
ATOM      1  C   UNL     1      31.429  28.822  27.145  1.00  0.00     0.401 A 
ATOM      2  O   UNL     1      30.665  27.820  27.572  1.00  0.00    -0.202 OA
ATOM      3  C   UNL     1      31.110  26.848  28.362  1.00  0.00     0.368 A 
ATOM      4  C   UNL     1      30.230  25.839  28.760  1.00  0.00     0.162 A 
ATOM      5  C   UNL     1      30.669  24.808  29.591  1.00  0.00     0.128 A 
ATOM      6  C   UNL     1      31.998  24.783  30.028  1.00  0.00     0.093 A 
ATOM      7  C   UNL     1      32.900  25.782  29.643  1.00  0.00     0.136 A 
ATOM      8  C   UNL     1      32.458  26.832  28.796  1.00  0.00     0.125 A 
ATOM      9  C   UNL     1      33.294  27.867  28.349  1.00  0.00     0.078 A 
ATOM     10  C   UNL     1      32.787  28.866  27.510  1.00  0.00     0.223 A 
ENDROOT
BRANCH   1  11
ATOM     11  C   UNL     1      30.813  29.851  26.277  1.00  0.00     0.084 A 
ATOM     12  C   UNL     1      29.978  30.854  26.805  1.00  0.00     0.022 A 
ATOM     13  C   UNL     1      29.389  31.801  25.962  1.00  0.00     0.047 A 
ATOM     14  C   UNL     1      29.614  31.749  24.580  1.00  0.00     0.115 A 
ATOM     15  C   UNL     1      31.015  29.795  24.888  1.00  0.00     0.022 A 
ATOM     16  C   UNL     1      30.426  30.744  24.047  1.00  0.00     0.047 A 
BRANCH  14  17
ATOM     17  O   UNL     1      29.033  32.688  23.730  1.00  0.00    -0.508 OA
ATOM     18  H   UNL     1      28.320  32.427  23.060  1.00  0.00     0.293 HD
ENDBRANCH  14  17
ENDBRANCH   1  11
BRANCH  10  19
ATOM     19  O   UNL     1      33.629  29.866  27.025  1.00  0.00    -0.500 OA
ATOM     20  H   UNL     1      34.442  30.177  27.545  1.00  0.00     0.294 HD
ENDBRANCH  10  19
BRANCH   5  21
ATOM     21  O   UNL     1      29.775  23.811  29.978  1.00  0.00    -0.507 OA
ATOM     22  H   UNL     1      29.990  22.829  29.849  1.00  0.00     0.293 HD
ENDBRANCH   5  21
BRANCH   7  23
ATOM     23  O   UNL     1      34.208  25.689  30.124  1.00  0.00    -0.507 OA
ATOM     24  H   UNL     1      34.457  25.662  31.103  1.00  0.00     0.293 HD
ENDBRANCH   7  23
TORSDOF 5
ENDMDL
MODEL 3
REMARK VINA RESULT:    -4.681      1.940      7.102
REMARK INTER + INTRA:          -5.820
REMARK INTER:                  -5.573
REMARK INTRA:                  -0.246
REMARK UNBOUND:                -0.317
REMARK SMILES Oc1ccc(-c2[o+]c3cc(O)cc(O)c3cc2O)cc1.[Cl-]
REMARK SMILES IDX 6 1 7 2 8 3 9 4 10 5 12 6 13 7 15 8 16 9 17 10 5 11 4 12
REMARK SMILES IDX 3 13 2 14 19 15 20 16 1 17 18 19 11 21 14 23
REMARK H PARENT 1 18 18 20 11 22 14 24
REMARK Flexibility Score: inf
ROOT
ATOM      1  C   UNL     1      44.795  30.277  25.647  1.00  0.00     0.401 A 
ATOM      2  O   UNL     1      43.927  30.493  24.662  1.00  0.00    -0.202 OA
ATOM      3  C   UNL     1      44.218  31.203  23.576  1.00  0.00     0.368 A 
ATOM      4  C   UNL     1      43.240  31.371  22.592  1.00  0.00     0.162 A 
ATOM      5  C   UNL     1      43.519  32.108  21.441  1.00  0.00     0.128 A 
ATOM      6  C   UNL     1      44.784  32.680  21.269  1.00  0.00     0.093 A 
ATOM      7  C   UNL     1      45.781  32.526  22.239  1.00  0.00     0.136 A 
ATOM      8  C   UNL     1      45.501  31.779  23.413  1.00  0.00     0.125 A 
ATOM      9  C   UNL     1      46.434  31.583  24.444  1.00  0.00     0.078 A 
ATOM     10  C   UNL     1      46.083  30.838  25.575  1.00  0.00     0.223 A 
ENDROOT
BRANCH   1  11
ATOM     11  C   UNL     1      44.354  29.461  26.802  1.00  0.00     0.084 A 
ATOM     12  C   UNL     1      44.189  28.067  26.695  1.00  0.00     0.022 A 
ATOM     13  C   UNL     1      43.749  27.322  27.793  1.00  0.00     0.047 A 
ATOM     14  C   UNL     1      43.455  27.960  29.005  1.00  0.00     0.115 A 
ATOM     15  C   UNL     1      44.037  30.095  28.015  1.00  0.00     0.022 A 
ATOM     16  C   UNL     1      43.598  29.346  29.111  1.00  0.00     0.047 A 
BRANCH  14  17
ATOM     17  O   UNL     1      43.018  27.226  30.106  1.00  0.00    -0.508 OA
ATOM     18  H   UNL     1      42.967  26.215  30.082  1.00  0.00     0.293 HD
ENDBRANCH  14  17
ENDBRANCH   1  11
BRANCH  10  19
ATOM     19  O   UNL     1      46.993  30.686  26.622  1.00  0.00    -0.500 OA
ATOM     20  H   UNL     1      46.823  31.087  27.537  1.00  0.00     0.294 HD
ENDBRANCH  10  19
BRANCH   5  21
ATOM     21  O   UNL     1      42.530  32.265  20.471  1.00  0.00    -0.507 OA
ATOM     22  H   UNL     1      42.666  32.869  19.669  1.00  0.00     0.293 HD
ENDBRANCH   5  21
BRANCH   7  23
ATOM     23  O   UNL     1      47.019  33.125  21.992  1.00  0.00    -0.507 OA
ATOM     24  H   UNL     1      47.377  33.923  22.495  1.00  0.00     0.293 HD
ENDBRANCH   7  23
TORSDOF 5
ENDMDL
MODEL 4
REMARK VINA RESULT:    -4.648     10.424     12.708
REMARK INTER + INTRA:          -5.781
REMARK INTER:                  -5.466
REMARK INTRA:                  -0.315
REMARK UNBOUND:                -0.317
REMARK SMILES Oc1ccc(-c2[o+]c3cc(O)cc(O)c3cc2O)cc1.[Cl-]
REMARK SMILES IDX 6 1 7 2 8 3 9 4 10 5 12 6 13 7 15 8 16 9 17 10 5 11 4 12
REMARK SMILES IDX 3 13 2 14 19 15 20 16 1 17 18 19 11 21 14 23
REMARK H PARENT 1 18 18 20 11 22 14 24
REMARK Flexibility Score: inf
ROOT
ATOM      1  C   UNL     1      34.275  32.043  23.946  1.00  0.00     0.401 A 
ATOM      2  O   UNL     1      33.593  31.892  25.078  1.00  0.00    -0.202 OA
ATOM      3  C   UNL     1      32.266  31.932  25.142  1.00  0.00     0.368 A 
ATOM      4  C   UNL     1      31.640  31.758  26.379  1.00  0.00     0.162 A 
ATOM      5  C   UNL     1      30.248  31.792  26.475  1.00  0.00     0.128 A 
ATOM      6  C   UNL     1      29.475  32.002  25.327  1.00  0.00     0.093 A 
ATOM      7  C   UNL     1      30.079  32.178  24.076  1.00  0.00     0.136 A 
ATOM      8  C   UNL     1      31.494  32.146  23.975  1.00  0.00     0.125 A 
ATOM      9  C   UNL     1      32.186  32.327  22.765  1.00  0.00     0.078 A 
ATOM     10  C   UNL     1      33.584  32.287  22.745  1.00  0.00     0.223 A 
ENDROOT
BRANCH   1  11
ATOM     11  C   UNL     1      35.753  31.968  24.004  1.00  0.00     0.084 A 
ATOM     12  C   UNL     1      36.541  33.123  24.173  1.00  0.00     0.022 A 
ATOM     13  C   UNL     1      37.935  33.029  24.201  1.00  0.00     0.047 A 
ATOM     14  C   UNL     1      38.560  31.785  24.046  1.00  0.00     0.115 A 
ATOM     15  C   UNL     1      36.390  30.728  23.828  1.00  0.00     0.022 A 
ATOM     16  C   UNL     1      37.785  30.638  23.858  1.00  0.00     0.047 A 
BRANCH  14  17
ATOM     17  O   UNL     1      39.950  31.679  24.074  1.00  0.00    -0.508 OA
ATOM     18  H   UNL     1      40.517  31.940  23.276  1.00  0.00     0.293 HD
ENDBRANCH  14  17
ENDBRANCH   1  11
BRANCH  10  19
ATOM     19  O   UNL     1      34.273  32.517  21.554  1.00  0.00    -0.500 OA
ATOM     20  H   UNL     1      35.284  32.574  21.527  1.00  0.00     0.294 HD
ENDBRANCH  10  19
BRANCH   5  21
ATOM     21  O   UNL     1      29.642  31.617  27.717  1.00  0.00    -0.507 OA
ATOM     22  H   UNL     1      30.155  31.249  28.509  1.00  0.00     0.293 HD
ENDBRANCH   5  21
BRANCH   7  23
ATOM     23  O   UNL     1      29.239  32.378  22.978  1.00  0.00    -0.507 OA
ATOM     24  H   UNL     1      28.309  31.994  22.893  1.00  0.00     0.293 HD
ENDBRANCH   7  23
TORSDOF 5
ENDMDL
MODEL 5
REMARK VINA RESULT:    -4.626      1.433      2.727
REMARK INTER + INTRA:          -5.755
REMARK INTER:                  -5.820
REMARK INTRA:                   0.065
REMARK UNBOUND:                -0.317
REMARK SMILES Oc1ccc(-c2[o+]c3cc(O)cc(O)c3cc2O)cc1.[Cl-]
REMARK SMILES IDX 6 1 7 2 8 3 9 4 10 5 12 6 13 7 15 8 16 9 17 10 5 11 4 12
REMARK SMILES IDX 3 13 2 14 19 15 20 16 1 17 18 19 11 21 14 23
REMARK H PARENT 1 18 18 20 11 22 14 24
REMARK Flexibility Score: inf
ROOT
ATOM      1  C   UNL     1      45.004  30.407  25.613  1.00  0.00     0.401 A 
ATOM      2  O   UNL     1      44.211  29.695  26.410  1.00  0.00    -0.202 OA
ATOM      3  C   UNL     1      44.654  29.019  27.465  1.00  0.00     0.368 A 
ATOM      4  C   UNL     1      43.742  28.303  28.245  1.00  0.00     0.162 A 
ATOM      5  C   UNL     1      44.178  27.588  29.360  1.00  0.00     0.128 A 
ATOM      6  C   UNL     1      45.535  27.588  29.701  1.00  0.00     0.093 A 
ATOM      7  C   UNL     1      46.469  28.298  28.937  1.00  0.00     0.136 A 
ATOM      8  C   UNL     1      46.030  29.025  27.800  1.00  0.00     0.125 A 
ATOM      9  C   UNL     1      46.896  29.754  26.968  1.00  0.00     0.078 A 
ATOM     10  C   UNL     1      46.389  30.443  25.861  1.00  0.00     0.223 A 
ENDROOT
BRANCH   1  11
ATOM     11  C   UNL     1      44.389  31.125  24.473  1.00  0.00     0.084 A 
ATOM     12  C   UNL     1      44.778  32.434  24.134  1.00  0.00     0.022 A 
ATOM     13  C   UNL     1      44.166  33.100  23.067  1.00  0.00     0.047 A 
ATOM     14  C   UNL     1      43.150  32.472  22.336  1.00  0.00     0.115 A 
ATOM     15  C   UNL     1      43.355  30.511  23.747  1.00  0.00     0.022 A 
ATOM     16  C   UNL     1      42.745  31.179  22.680  1.00  0.00     0.047 A 
BRANCH  14  17
ATOM     17  O   UNL     1      42.534  33.125  21.270  1.00  0.00    -0.508 OA
ATOM     18  H   UNL     1      42.416  34.131  21.262  1.00  0.00     0.293 HD
ENDBRANCH  14  17
ENDBRANCH   1  11
BRANCH  10  19
ATOM     19  O   UNL     1      47.254  31.125  25.006  1.00  0.00    -0.500 OA
ATOM     20  H   UNL     1      47.601  32.051  25.228  1.00  0.00     0.294 HD
ENDBRANCH  10  19
BRANCH   5  21
ATOM     21  O   UNL     1      43.254  26.879  30.125  1.00  0.00    -0.507 OA
ATOM     22  H   UNL     1      42.569  26.268  29.695  1.00  0.00     0.293 HD
ENDBRANCH   5  21
BRANCH   7  23
ATOM     23  O   UNL     1      47.804  28.251  29.345  1.00  0.00    -0.507 OA
ATOM     24  H   UNL     1      48.270  27.421  29.682  1.00  0.00     0.293 HD
ENDBRANCH   7  23
TORSDOF 5
ENDMDL
MODEL 6
REMARK VINA RESULT:    -4.602      4.952      7.019
REMARK INTER + INTRA:          -5.726
REMARK INTER:                  -5.536
REMARK INTRA:                  -0.190
REMARK UNBOUND:                -0.317
REMARK SMILES Oc1ccc(-c2[o+]c3cc(O)cc(O)c3cc2O)cc1.[Cl-]
REMARK SMILES IDX 6 1 7 2 8 3 9 4 10 5 12 6 13 7 15 8 16 9 17 10 5 11 4 12
REMARK SMILES IDX 3 13 2 14 19 15 20 16 1 17 18 19 11 21 14 23
REMARK H PARENT 1 18 18 20 11 22 14 24
REMARK Flexibility Score: inf
ROOT
ATOM      1  C   UNL     1      42.232  26.629  29.127  1.00  0.00     0.401 A 
ATOM      2  O   UNL     1      42.933  27.759  29.084  1.00  0.00    -0.202 OA
ATOM      3  C   UNL     1      44.258  27.800  29.186  1.00  0.00     0.368 A 
ATOM      4  C   UNL     1      44.906  29.036  29.125  1.00  0.00     0.162 A 
ATOM      5  C   UNL     1      46.295  29.109  29.226  1.00  0.00     0.128 A 
ATOM      6  C   UNL     1      47.045  27.939  29.389  1.00  0.00     0.093 A 
ATOM      7  C   UNL     1      46.419  26.688  29.452  1.00  0.00     0.136 A 
ATOM      8  C   UNL     1      45.006  26.609  29.352  1.00  0.00     0.125 A 
ATOM      9  C   UNL     1      44.293  25.401  29.419  1.00  0.00     0.078 A 
ATOM     10  C   UNL     1      42.898  25.404  29.317  1.00  0.00     0.223 A 
ENDROOT
BRANCH   1  11
ATOM     11  C   UNL     1      40.759  26.713  28.992  1.00  0.00     0.084 A 
ATOM     12  C   UNL     1      40.155  27.112  27.785  1.00  0.00     0.022 A 
ATOM     13  C   UNL     1      38.763  27.206  27.689  1.00  0.00     0.047 A 
ATOM     14  C   UNL     1      37.960  26.918  28.800  1.00  0.00     0.115 A 
ATOM     15  C   UNL     1      39.946  26.446  30.106  1.00  0.00     0.022 A 
ATOM     16  C   UNL     1      38.555  26.541  30.007  1.00  0.00     0.047 A 
BRANCH  14  17
ATOM     17  O   UNL     1      36.572  27.007  28.715  1.00  0.00    -0.508 OA
ATOM     18  H   UNL     1      35.996  26.187  28.568  1.00  0.00     0.293 HD
ENDBRANCH  14  17
ENDBRANCH   1  11
BRANCH  10  19
ATOM     19  O   UNL     1      42.185  24.210  29.434  1.00  0.00    -0.500 OA
ATOM     20  H   UNL     1      42.160  23.688  30.303  1.00  0.00     0.294 HD
ENDBRANCH  10  19
BRANCH   5  21
ATOM     21  O   UNL     1      46.923  30.352  29.163  1.00  0.00    -0.507 OA
ATOM     22  H   UNL     1      46.543  31.162  29.639  1.00  0.00     0.293 HD
ENDBRANCH   5  21
BRANCH   7  23
ATOM     23  O   UNL     1      47.237  25.566  29.612  1.00  0.00    -0.507 OA
ATOM     24  H   UNL     1      48.077  25.391  29.079  1.00  0.00     0.293 HD
ENDBRANCH   7  23
TORSDOF 5
ENDMDL
MODEL 7
REMARK VINA RESULT:    -4.583     12.565     15.625
REMARK INTER + INTRA:          -5.704
REMARK INTER:                  -5.406
REMARK INTRA:                  -0.298
REMARK UNBOUND:                -0.317
REMARK SMILES Oc1ccc(-c2[o+]c3cc(O)cc(O)c3cc2O)cc1.[Cl-]
REMARK SMILES IDX 6 1 7 2 8 3 9 4 10 5 12 6 13 7 15 8 16 9 17 10 5 11 4 12
REMARK SMILES IDX 3 13 2 14 19 15 20 16 1 17 18 19 11 21 14 23
REMARK H PARENT 1 18 18 20 11 22 14 24
REMARK Flexibility Score: inf
ROOT
ATOM      1  C   UNL     1      31.503  28.279  27.449  1.00  0.00     0.401 A 
ATOM      2  O   UNL     1      30.560  28.950  26.793  1.00  0.00    -0.202 OA
ATOM      3  C   UNL     1      30.787  30.094  26.155  1.00  0.00     0.368 A 
ATOM      4  C   UNL     1      29.731  30.722  25.491  1.00  0.00     0.162 A 
ATOM      5  C   UNL     1      29.941  31.922  24.811  1.00  0.00     0.128 A 
ATOM      6  C   UNL     1      31.216  32.500  24.793  1.00  0.00     0.093 A 
ATOM      7  C   UNL     1      32.290  31.889  25.451  1.00  0.00     0.136 A 
ATOM      8  C   UNL     1      32.080  30.670  26.146  1.00  0.00     0.125 A 
ATOM      9  C   UNL     1      33.095  29.995  26.844  1.00  0.00     0.078 A 
ATOM     10  C   UNL     1      32.810  28.798  27.510  1.00  0.00     0.223 A 
ENDROOT
BRANCH   1  11
ATOM     11  C   UNL     1      31.127  27.010  28.112  1.00  0.00     0.084 A 
ATOM     12  C   UNL     1      31.040  25.803  27.392  1.00  0.00     0.022 A 
ATOM     13  C   UNL     1      30.660  24.622  28.035  1.00  0.00     0.047 A 
ATOM     14  C   UNL     1      30.350  24.633  29.401  1.00  0.00     0.115 A 
ATOM     15  C   UNL     1      30.794  27.014  29.477  1.00  0.00     0.022 A 
ATOM     16  C   UNL     1      30.415  25.831  30.118  1.00  0.00     0.047 A 
BRANCH  14  17
ATOM     17  O   UNL     1      29.971  23.461  30.053  1.00  0.00    -0.508 OA
ATOM     18  H   UNL     1      30.537  23.059  30.791  1.00  0.00     0.293 HD
ENDBRANCH  14  17
ENDBRANCH   1  11
BRANCH  10  19
ATOM     19  O   UNL     1      33.805  28.153  28.246  1.00  0.00    -0.500 OA
ATOM     20  H   UNL     1      33.632  27.802  29.181  1.00  0.00     0.294 HD
ENDBRANCH  10  19
BRANCH   5  21
ATOM     21  O   UNL     1      28.875  32.534  24.154  1.00  0.00    -0.507 OA
ATOM     22  H   UNL     1      28.389  33.327  24.558  1.00  0.00     0.293 HD
ENDBRANCH   5  21
BRANCH   7  23
ATOM     23  O   UNL     1      33.532  32.526  25.384  1.00  0.00    -0.507 OA
ATOM     24  H   UNL     1      33.661  33.527  25.386  1.00  0.00     0.293 HD
ENDBRANCH   7  23
TORSDOF 5
ENDMDL
MODEL 8
REMARK VINA RESULT:    -4.580      2.010      6.804
REMARK INTER + INTRA:          -5.701
REMARK INTER:                  -5.414
REMARK INTRA:                  -0.287
REMARK UNBOUND:                -0.317
REMARK SMILES Oc1ccc(-c2[o+]c3cc(O)cc(O)c3cc2O)cc1.[Cl-]
REMARK SMILES IDX 6 1 7 2 8 3 9 4 10 5 12 6 13 7 15 8 16 9 17 10 5 11 4 12
REMARK SMILES IDX 3 13 2 14 19 15 20 16 1 17 18 19 11 21 14 23
REMARK H PARENT 1 18 18 20 11 22 14 24
REMARK Flexibility Score: inf
ROOT
ATOM      1  C   UNL     1      46.308  29.665  25.607  1.00  0.00     0.401 A 
ATOM      2  O   UNL     1      46.974  29.402  24.486  1.00  0.00    -0.202 OA
ATOM      3  C   UNL     1      46.855  30.127  23.378  1.00  0.00     0.368 A 
ATOM      4  C   UNL     1      47.600  29.773  22.251  1.00  0.00     0.162 A 
ATOM      5  C   UNL     1      47.498  30.519  21.076  1.00  0.00     0.128 A 
ATOM      6  C   UNL     1      46.645  31.628  21.026  1.00  0.00     0.093 A 
ATOM      7  C   UNL     1      45.889  32.003  22.143  1.00  0.00     0.136 A 
ATOM      8  C   UNL     1      45.988  31.246  23.339  1.00  0.00     0.125 A 
ATOM      9  C   UNL     1      45.258  31.541  24.502  1.00  0.00     0.078 A 
ATOM     10  C   UNL     1      45.406  30.744  25.643  1.00  0.00     0.223 A 
ENDROOT
BRANCH   1  11
ATOM     11  C   UNL     1      46.534  28.787  26.778  1.00  0.00     0.084 A 
ATOM     12  C   UNL     1      47.329  29.202  27.864  1.00  0.00     0.022 A 
ATOM     13  C   UNL     1      47.547  28.346  28.947  1.00  0.00     0.047 A 
ATOM     14  C   UNL     1      46.986  27.063  28.955  1.00  0.00     0.115 A 
ATOM     15  C   UNL     1      45.992  27.491  26.786  1.00  0.00     0.022 A 
ATOM     16  C   UNL     1      46.211  26.638  27.872  1.00  0.00     0.047 A 
BRANCH  14  17
ATOM     17  O   UNL     1      47.195  26.202  30.031  1.00  0.00    -0.508 OA
ATOM     18  H   UNL     1      48.028  26.262  30.603  1.00  0.00     0.293 HD
ENDBRANCH  14  17
ENDBRANCH   1  11
BRANCH  10  19
ATOM     19  O   UNL     1      44.643  31.006  26.782  1.00  0.00    -0.500 OA
ATOM     20  H   UNL     1      44.999  30.824  27.713  1.00  0.00     0.294 HD
ENDBRANCH  10  19
BRANCH   5  21
ATOM     21  O   UNL     1      48.249  30.150  19.962  1.00  0.00    -0.507 OA
ATOM     22  H   UNL     1      49.261  30.187  19.970  1.00  0.00     0.293 HD
ENDBRANCH   5  21
BRANCH   7  23
ATOM     23  O   UNL     1      45.064  33.124  22.015  1.00  0.00    -0.507 OA
ATOM     24  H   UNL     1      44.430  33.451  22.729  1.00  0.00     0.293 HD
ENDBRANCH   7  23
TORSDOF 5
ENDMDL
MODEL 9
REMARK VINA RESULT:    -4.580      1.997      6.902
REMARK INTER + INTRA:          -5.700
REMARK INTER:                  -5.388
REMARK INTRA:                  -0.312
REMARK UNBOUND:                -0.317
REMARK SMILES Oc1ccc(-c2[o+]c3cc(O)cc(O)c3cc2O)cc1.[Cl-]
REMARK SMILES IDX 6 1 7 2 8 3 9 4 10 5 12 6 13 7 15 8 16 9 17 10 5 11 4 12
REMARK SMILES IDX 3 13 2 14 19 15 20 16 1 17 18 19 11 21 14 23
REMARK H PARENT 1 18 18 20 11 22 14 24
REMARK Flexibility Score: inf
ROOT
ATOM      1  C   UNL     1      44.877  29.930  25.945  1.00  0.00     0.401 A 
ATOM      2  O   UNL     1      43.628  29.632  25.595  1.00  0.00    -0.202 OA
ATOM      3  C   UNL     1      42.957  30.290  24.655  1.00  0.00     0.368 A 
ATOM      4  C   UNL     1      41.650  29.900  24.355  1.00  0.00     0.162 A 
ATOM      5  C   UNL     1      40.922  30.570  23.371  1.00  0.00     0.128 A 
ATOM      6  C   UNL     1      41.504  31.639  22.681  1.00  0.00     0.093 A 
ATOM      7  C   UNL     1      42.813  32.050  22.963  1.00  0.00     0.136 A 
ATOM      8  C   UNL     1      43.555  31.372  23.964  1.00  0.00     0.125 A 
ATOM      9  C   UNL     1      44.867  31.722  24.323  1.00  0.00     0.078 A 
ATOM     10  C   UNL     1      45.534  31.009  25.325  1.00  0.00     0.223 A 
ENDROOT
BRANCH   1  11
ATOM     11  C   UNL     1      45.522  29.115  27.000  1.00  0.00     0.084 A 
ATOM     12  C   UNL     1      45.358  29.420  28.365  1.00  0.00     0.022 A 
ATOM     13  C   UNL     1      45.996  28.650  29.342  1.00  0.00     0.047 A 
ATOM     14  C   UNL     1      46.815  27.576  28.969  1.00  0.00     0.115 A 
ATOM     15  C   UNL     1      46.362  28.050  26.635  1.00  0.00     0.022 A 
ATOM     16  C   UNL     1      46.997  27.281  27.615  1.00  0.00     0.047 A 
BRANCH  14  17
ATOM     17  O   UNL     1      47.454  26.801  29.934  1.00  0.00    -0.508 OA
ATOM     18  H   UNL     1      46.966  26.068  30.433  1.00  0.00     0.293 HD
ENDBRANCH  14  17
ENDBRANCH   1  11
BRANCH  10  19
ATOM     19  O   UNL     1      46.819  31.388  25.717  1.00  0.00    -0.500 OA
ATOM     20  H   UNL     1      47.264  30.992  26.536  1.00  0.00     0.294 HD
ENDBRANCH  10  19
BRANCH   5  21
ATOM     21  O   UNL     1      39.619  30.166  23.087  1.00  0.00    -0.507 OA
ATOM     22  H   UNL     1      39.255  29.281  23.417  1.00  0.00     0.293 HD
ENDBRANCH   5  21
BRANCH   7  23
ATOM     23  O   UNL     1      43.324  33.122  22.228  1.00  0.00    -0.507 OA
ATOM     24  H   UNL     1      42.762  33.761  21.683  1.00  0.00     0.293 HD
ENDBRANCH   7  23
TORSDOF 5
ENDMDL
