MODEL 1
REMARK VINA RESULT:    -3.861      0.000      0.000
REMARK INTER + INTRA:          -5.429
REMARK INTER:                  -5.102
REMARK INTRA:                  -0.327
REMARK UNBOUND:                -0.327
REMARK SMILES C=CCC[C@@H](O)CCC
REMARK SMILES IDX 4 1 5 2 7 3 8 4 9 5 6 6 3 8 2 9 1 10
REMARK H PARENT 6 7
REMARK Flexibility Score: inf
ROOT
ATOM      1  C   UNL     1     114.022 120.208 132.201  1.00  0.00     0.036 C 
ENDROOT
BRANCH   1   2
ATOM      2  C   UNL     1     114.855 120.850 133.331  1.00  0.00     0.114 C 
BRANCH   2   3
ATOM      3  C   UNL     1     115.762 119.819 134.036  1.00  0.00     0.031 C 
BRANCH   3   4
ATOM      4  C   UNL     1     117.259 120.165 133.950  1.00  0.00    -0.001 C 
ATOM      5  C   UNL     1     117.637 120.880 132.653  1.00  0.00     0.004 C 
ENDBRANCH   3   4
ENDBRANCH   2   3
BRANCH   2   6
ATOM      6  O   UNL     1     114.004 121.455 134.272  1.00  0.00    -0.393 OA
ATOM      7  H   UNL     1     114.557 122.098 134.788  1.00  0.00     0.210 HD
ENDBRANCH   2   6
ENDBRANCH   1   2
BRANCH   1   8
ATOM      8  C   UNL     1     114.252 120.863 130.828  1.00  0.00     0.029 C 
BRANCH   8   9
ATOM      9  C   UNL     1     114.664 119.842 129.803  1.00  0.00    -0.035 C 
ATOM     10  C   UNL     1     114.320 119.959 128.517  1.00  0.00     0.004 C 
ENDBRANCH   8   9
ENDBRANCH   1   8
TORSDOF 6
ENDMDL
MODEL 2
REMARK VINA RESULT:    -3.838     16.994     18.425
REMARK INTER + INTRA:          -5.399
REMARK INTER:                  -4.807
REMARK INTRA:                  -0.592
REMARK UNBOUND:                -0.327
REMARK SMILES C=CCC[C@@H](O)CCC
REMARK SMILES IDX 4 1 5 2 7 3 8 4 9 5 6 6 3 8 2 9 1 10
REMARK H PARENT 6 7
REMARK Flexibility Score: inf
ROOT
ATOM      1  C   UNL     1     129.020 118.914 119.926  1.00  0.00     0.036 C 
ENDROOT
BRANCH   1   2
ATOM      2  C   UNL     1     127.905 118.801 118.864  1.00  0.00     0.114 C 
BRANCH   2   3
ATOM      3  C   UNL     1     126.539 118.458 119.496  1.00  0.00     0.031 C 
BRANCH   3   4
ATOM      4  C   UNL     1     125.702 119.700 119.849  1.00  0.00    -0.001 C 
ATOM      5  C   UNL     1     125.250 120.489 118.621  1.00  0.00     0.004 C 
ENDBRANCH   3   4
ENDBRANCH   2   3
BRANCH   2   6
ATOM      6  O   UNL     1     128.246 117.827 117.910  1.00  0.00    -0.393 OA
ATOM      7  H   UNL     1     128.656 118.306 117.143  1.00  0.00     0.210 HD
ENDBRANCH   2   6
ENDBRANCH   1   2
BRANCH   1   8
ATOM      8  C   UNL     1     129.532 120.351 120.120  1.00  0.00     0.029 C 
BRANCH   8   9
ATOM      9  C   UNL     1     128.985 121.270 119.062  1.00  0.00    -0.035 C 
ATOM     10  C   UNL     1     128.304 122.376 119.376  1.00  0.00     0.004 C 
ENDBRANCH   8   9
ENDBRANCH   1   8
TORSDOF 6
ENDMDL
MODEL 3
REMARK VINA RESULT:    -3.811      1.297      3.868
REMARK INTER + INTRA:          -5.363
REMARK INTER:                  -4.864
REMARK INTRA:                  -0.499
REMARK UNBOUND:                -0.327
REMARK SMILES C=CCC[C@@H](O)CCC
REMARK SMILES IDX 4 1 5 2 7 3 8 4 9 5 6 6 3 8 2 9 1 10
REMARK H PARENT 6 7
REMARK Flexibility Score: inf
ROOT
ATOM      1  C   UNL     1     113.929 120.445 132.127  1.00  0.00     0.036 C 
ENDROOT
BRANCH   1   2
ATOM      2  C   UNL     1     113.848 121.647 131.161  1.00  0.00     0.114 C 
BRANCH   2   3
ATOM      3  C   UNL     1     114.236 121.255 129.719  1.00  0.00     0.031 C 
BRANCH   3   4
ATOM      4  C   UNL     1     114.604 119.768 129.570  1.00  0.00    -0.001 C 
ATOM      5  C   UNL     1     116.059 119.549 129.158  1.00  0.00     0.004 C 
ENDBRANCH   3   4
ENDBRANCH   2   3
BRANCH   2   6
ATOM      6  O   UNL     1     114.682 122.684 131.613  1.00  0.00    -0.393 OA
ATOM      7  H   UNL     1     115.296 122.906 130.864  1.00  0.00     0.210 HD
ENDBRANCH   2   6
ENDBRANCH   1   2
BRANCH   1   8
ATOM      8  C   UNL     1     114.370 120.835 133.548  1.00  0.00     0.029 C 
BRANCH   8   9
ATOM      9  C   UNL     1     115.639 120.126 133.935  1.00  0.00    -0.035 C 
ATOM     10  C   UNL     1     116.744 120.203 133.186  1.00  0.00     0.004 C 
ENDBRANCH   8   9
ENDBRANCH   1   8
TORSDOF 6
ENDMDL
MODEL 4
REMARK VINA RESULT:    -3.799      1.869      4.768
REMARK INTER + INTRA:          -5.348
REMARK INTER:                  -5.142
REMARK INTRA:                  -0.206
REMARK UNBOUND:                -0.327
REMARK SMILES C=CCC[C@@H](O)CCC
REMARK SMILES IDX 4 1 5 2 7 3 8 4 9 5 6 6 3 8 2 9 1 10
REMARK H PARENT 6 7
REMARK Flexibility Score: inf
ROOT
ATOM      1  C   UNL     1     114.509 121.264 131.040  1.00  0.00     0.036 C 
ENDROOT
BRANCH   1   2
ATOM      2  C   UNL     1     113.609 122.402 130.514  1.00  0.00     0.114 C 
BRANCH   2   3
ATOM      3  C   UNL     1     113.622 122.483 128.972  1.00  0.00     0.031 C 
BRANCH   3   4
ATOM      4  C   UNL     1     114.283 121.264 128.304  1.00  0.00    -0.001 C 
ATOM      5  C   UNL     1     113.973 121.156 126.812  1.00  0.00     0.004 C 
ENDBRANCH   3   4
ENDBRANCH   2   3
BRANCH   2   6
ATOM      6  O   UNL     1     114.021 123.631 131.058  1.00  0.00    -0.393 OA
ATOM      7  H   UNL     1     115.005 123.576 131.181  1.00  0.00     0.210 HD
ENDBRANCH   2   6
ENDBRANCH   1   2
BRANCH   1   8
ATOM      8  C   UNL     1     113.845 120.423 132.144  1.00  0.00     0.029 C 
BRANCH   8   9
ATOM      9  C   UNL     1     114.393 120.778 133.499  1.00  0.00    -0.035 C 
ATOM     10  C   UNL     1     115.485 120.185 133.992  1.00  0.00     0.004 C 
ENDBRANCH   8   9
ENDBRANCH   1   8
TORSDOF 6
ENDMDL
MODEL 5
REMARK VINA RESULT:    -3.737      2.045      2.850
REMARK INTER + INTRA:          -5.265
REMARK INTER:                  -4.841
REMARK INTRA:                  -0.424
REMARK UNBOUND:                -0.327
REMARK SMILES C=CCC[C@@H](O)CCC
REMARK SMILES IDX 4 1 5 2 7 3 8 4 9 5 6 6 3 8 2 9 1 10
REMARK H PARENT 6 7
REMARK Flexibility Score: inf
ROOT
ATOM      1  C   UNL     1     113.976 121.778 130.051  1.00  0.00     0.036 C 
ENDROOT
BRANCH   1   2
ATOM      2  C   UNL     1     115.049 122.705 130.662  1.00  0.00     0.114 C 
BRANCH   2   3
ATOM      3  C   UNL     1     115.751 122.054 131.874  1.00  0.00     0.031 C 
BRANCH   3   4
ATOM      4  C   UNL     1     115.068 120.761 132.352  1.00  0.00    -0.001 C 
ATOM      5  C   UNL     1     114.404 120.903 133.721  1.00  0.00     0.004 C 
ENDBRANCH   3   4
ENDBRANCH   2   3
BRANCH   2   6
ATOM      6  O   UNL     1     114.467 123.925 131.048  1.00  0.00    -0.393 OA
ATOM      7  H   UNL     1     113.753 124.125 130.388  1.00  0.00     0.210 HD
ENDBRANCH   2   6
ENDBRANCH   1   2
BRANCH   1   8
ATOM      8  C   UNL     1     114.127 121.591 128.532  1.00  0.00     0.029 C 
BRANCH   8   9
ATOM      9  C   UNL     1     114.229 120.134 128.172  1.00  0.00    -0.035 C 
ATOM     10  C   UNL     1     114.863 119.259 128.959  1.00  0.00     0.004 C 
ENDBRANCH   8   9
ENDBRANCH   1   8
TORSDOF 6
ENDMDL
MODEL 6
REMARK VINA RESULT:    -3.630     15.415     16.919
REMARK INTER + INTRA:          -5.123
REMARK INTER:                  -4.713
REMARK INTRA:                  -0.411
REMARK UNBOUND:                -0.327
REMARK SMILES C=CCC[C@@H](O)CCC
REMARK SMILES IDX 4 1 5 2 7 3 8 4 9 5 6 6 3 8 2 9 1 10
REMARK H PARENT 6 7
REMARK Flexibility Score: inf
ROOT
ATOM      1  C   UNL     1     126.872 119.476 119.001  1.00  0.00     0.036 C 
ENDROOT
BRANCH   1   2
ATOM      2  C   UNL     1     125.459 120.096 119.015  1.00  0.00     0.114 C 
BRANCH   2   3
ATOM      3  C   UNL     1     124.405 119.118 119.578  1.00  0.00     0.031 C 
BRANCH   3   4
ATOM      4  C   UNL     1     124.017 119.414 121.038  1.00  0.00    -0.001 C 
ATOM      5  C   UNL     1     124.658 118.452 122.036  1.00  0.00     0.004 C 
ENDBRANCH   3   4
ENDBRANCH   2   3
BRANCH   2   6
ATOM      6  O   UNL     1     125.094 120.492 117.717  1.00  0.00    -0.393 OA
ATOM      7  H   UNL     1     125.132 119.679 117.147  1.00  0.00     0.210 HD
ENDBRANCH   2   6
ENDBRANCH   1   2
BRANCH   1   8
ATOM      8  C   UNL     1     127.784 120.014 120.117  1.00  0.00     0.029 C 
BRANCH   8   9
ATOM      9  C   UNL     1     127.763 121.518 120.157  1.00  0.00    -0.035 C 
ATOM     10  C   UNL     1     128.389 122.254 119.233  1.00  0.00     0.004 C 
ENDBRANCH   8   9
ENDBRANCH   1   8
TORSDOF 6
ENDMDL
MODEL 7
REMARK VINA RESULT:    -3.616     10.568     11.696
REMARK INTER + INTRA:          -5.106
REMARK INTER:                  -4.863
REMARK INTRA:                  -0.243
REMARK UNBOUND:                -0.327
REMARK SMILES C=CCC[C@@H](O)CCC
REMARK SMILES IDX 4 1 5 2 7 3 8 4 9 5 6 6 3 8 2 9 1 10
REMARK H PARENT 6 7
REMARK Flexibility Score: inf
ROOT
ATOM      1  C   UNL     1     119.488 131.219 129.108  1.00  0.00     0.036 C 
ENDROOT
BRANCH   1   2
ATOM      2  C   UNL     1     120.085 129.967 129.785  1.00  0.00     0.114 C 
BRANCH   2   3
ATOM      3  C   UNL     1     119.200 128.719 129.573  1.00  0.00     0.031 C 
BRANCH   3   4
ATOM      4  C   UNL     1     117.829 128.820 130.266  1.00  0.00    -0.001 C 
ATOM      5  C   UNL     1     117.412 127.525 130.961  1.00  0.00     0.004 C 
ENDBRANCH   3   4
ENDBRANCH   2   3
BRANCH   2   6
ATOM      6  O   UNL     1     120.257 130.199 131.160  1.00  0.00    -0.393 OA
ATOM      7  H   UNL     1     119.436 130.659 131.479  1.00  0.00     0.210 HD
ENDBRANCH   2   6
ENDBRANCH   1   2
BRANCH   1   8
ATOM      8  C   UNL     1     120.469 131.923 128.155  1.00  0.00     0.029 C 
BRANCH   8   9
ATOM      9  C   UNL     1     121.848 131.332 128.264  1.00  0.00    -0.035 C 
ATOM     10  C   UNL     1     122.945 132.063 128.042  1.00  0.00     0.004 C 
ENDBRANCH   8   9
ENDBRANCH   1   8
TORSDOF 6
ENDMDL
MODEL 8
REMARK VINA RESULT:    -3.511      2.595      3.902
REMARK INTER + INTRA:          -4.966
REMARK INTER:                  -4.560
REMARK INTRA:                  -0.406
REMARK UNBOUND:                -0.327
REMARK SMILES C=CCC[C@@H](O)CCC
REMARK SMILES IDX 4 1 5 2 7 3 8 4 9 5 6 6 3 8 2 9 1 10
REMARK H PARENT 6 7
REMARK Flexibility Score: inf
ROOT
ATOM      1  C   UNL     1     115.120 123.289 128.787  1.00  0.00     0.036 C 
ENDROOT
BRANCH   1   2
ATOM      2  C   UNL     1     115.025 123.042 130.308  1.00  0.00     0.114 C 
BRANCH   2   3
ATOM      3  C   UNL     1     113.835 122.127 130.670  1.00  0.00     0.031 C 
BRANCH   3   4
ATOM      4  C   UNL     1     114.249 120.671 130.950  1.00  0.00    -0.001 C 
ATOM      5  C   UNL     1     113.923 120.217 132.372  1.00  0.00     0.004 C 
ENDBRANCH   3   4
ENDBRANCH   2   3
BRANCH   2   6
ATOM      6  O   UNL     1     114.907 124.266 130.988  1.00  0.00    -0.393 OA
ATOM      7  H   UNL     1     113.947 124.376 131.218  1.00  0.00     0.210 HD
ENDBRANCH   2   6
ENDBRANCH   1   2
BRANCH   1   8
ATOM      8  C   UNL     1     113.813 122.983 128.037  1.00  0.00     0.029 C 
BRANCH   8   9
ATOM      9  C   UNL     1     114.045 121.998 126.924  1.00  0.00    -0.035 C 
ATOM     10  C   UNL     1     114.176 120.689 127.160  1.00  0.00     0.004 C 
ENDBRANCH   8   9
ENDBRANCH   1   8
TORSDOF 6
ENDMDL
MODEL 9
REMARK VINA RESULT:    -3.499      1.626      4.069
REMARK INTER + INTRA:          -4.951
REMARK INTER:                  -4.601
REMARK INTRA:                  -0.350
REMARK UNBOUND:                -0.327
REMARK SMILES C=CCC[C@@H](O)CCC
REMARK SMILES IDX 4 1 5 2 7 3 8 4 9 5 6 6 3 8 2 9 1 10
REMARK H PARENT 6 7
REMARK Flexibility Score: inf
ROOT
ATOM      1  C   UNL     1     114.845 121.164 133.600  1.00  0.00     0.036 C 
ENDROOT
BRANCH   1   2
ATOM      2  C   UNL     1     114.562 120.268 132.375  1.00  0.00     0.114 C 
BRANCH   2   3
ATOM      3  C   UNL     1     114.796 121.017 131.046  1.00  0.00     0.031 C 
BRANCH   3   4
ATOM      4  C   UNL     1     114.084 122.380 130.981  1.00  0.00    -0.001 C 
ATOM      5  C   UNL     1     115.024 123.533 130.636  1.00  0.00     0.004 C 
ENDBRANCH   3   4
ENDBRANCH   2   3
BRANCH   2   6
ATOM      6  O   UNL     1     113.242 119.788 132.424  1.00  0.00    -0.393 OA
ATOM      7  H   UNL     1     113.024 119.644 133.382  1.00  0.00     0.210 HD
ENDBRANCH   2   6
ENDBRANCH   1   2
BRANCH   1   8
ATOM      8  C   UNL     1     116.315 121.135 134.049  1.00  0.00     0.029 C 
BRANCH   8   9
ATOM      9  C   UNL     1     116.762 119.731 134.352  1.00  0.00    -0.035 C 
ATOM     10  C   UNL     1     117.991 119.303 134.047  1.00  0.00     0.004 C 
ENDBRANCH   8   9
ENDBRANCH   1   8
TORSDOF 6
ENDMDL
