MODEL 1
REMARK VINA RESULT:     0.822      0.000      0.000
REMARK INTER + INTRA:           1.932
REMARK INTER:                   1.255
REMARK INTRA:                   0.677
REMARK UNBOUND:                 0.677
REMARK SMILES O=C([O-])CCCCCCCCC(=O)[O-]
REMARK SMILES IDX 7 1 6 2 5 3 4 4 2 5 1 6 3 7 8 8 9 9 10 10 11 11 12 12 13 13
REMARK SMILES IDX 14 14
REMARK H PARENT
REMARK Flexibility Score: inf
ROOT
ATOM      1  C   UNL     1     -17.305  26.704  -3.726  1.00  0.00     0.000 C 
ENDROOT
BRANCH   1   2
ATOM      2  C   UNL     1     -17.028  28.018  -2.981  1.00  0.00     0.000 C 
BRANCH   2   3
ATOM      3  C   UNL     1     -18.272  28.915  -2.973  1.00  0.00     0.006 C 
BRANCH   3   4
ATOM      4  C   UNL     1     -19.055  28.781  -4.282  1.00  0.00     0.053 C 
BRANCH   4   5
ATOM      5  C   UNL     1     -20.389  29.447  -4.165  1.00  0.00     0.041 C 
ATOM      6  O   UNL     1     -21.063  29.703  -5.198  1.00  0.00    -0.550 OA
ATOM      7  O   UNL     1     -20.869  29.830  -2.919  1.00  0.00    -0.550 OA
ENDBRANCH   4   5
ENDBRANCH   3   4
ENDBRANCH   2   3
ENDBRANCH   1   2
BRANCH   1   8
ATOM      8  C   UNL     1     -18.345  25.825  -3.012  1.00  0.00     0.000 C 
BRANCH   8   9
ATOM      9  C   UNL     1     -19.746  25.947  -3.628  1.00  0.00     0.000 C 
BRANCH   9  10
ATOM     10  C   UNL     1     -19.967  24.877  -4.704  1.00  0.00     0.006 C 
BRANCH  10  11
ATOM     11  C   UNL     1     -21.124  25.261  -5.633  1.00  0.00     0.053 C 
BRANCH  11  12
ATOM     12  C   UNL     1     -20.610  25.978  -6.841  1.00  0.00     0.041 C 
ATOM     13  O   UNL     1     -20.672  25.433  -7.975  1.00  0.00    -0.550 OA
ATOM     14  O   UNL     1     -20.017  27.227  -6.710  1.00  0.00    -0.550 OA
ENDBRANCH  11  12
ENDBRANCH  10  11
ENDBRANCH   9  10
ENDBRANCH   8   9
ENDBRANCH   1   8
TORSDOF 9
ENDMDL
MODEL 2
REMARK VINA RESULT:     3.246      1.314      4.060
REMARK INTER + INTRA:           5.630
REMARK INTER:                   4.388
REMARK INTRA:                   1.242
REMARK UNBOUND:                 0.677
REMARK SMILES O=C([O-])CCCCCCCCC(=O)[O-]
REMARK SMILES IDX 7 1 6 2 5 3 4 4 2 5 1 6 3 7 8 8 9 9 10 10 11 11 12 12 13 13
REMARK SMILES IDX 14 14
REMARK H PARENT
REMARK Flexibility Score: inf
ROOT
ATOM      1  C   UNL     1     -18.500  26.585  -4.076  1.00  0.00     0.000 C 
ENDROOT
BRANCH   1   2
ATOM      2  C   UNL     1     -19.229  25.374  -3.474  1.00  0.00     0.000 C 
BRANCH   2   3
ATOM      3  C   UNL     1     -20.336  24.879  -4.413  1.00  0.00     0.006 C 
BRANCH   3   4
ATOM      4  C   UNL     1     -21.029  26.052  -5.113  1.00  0.00     0.053 C 
BRANCH   4   5
ATOM      5  C   UNL     1     -20.615  26.122  -6.549  1.00  0.00     0.041 C 
ATOM      6  O   UNL     1     -20.878  25.171  -7.331  1.00  0.00    -0.550 OA
ATOM      7  O   UNL     1     -19.897  27.216  -7.014  1.00  0.00    -0.550 OA
ENDBRANCH   4   5
ENDBRANCH   3   4
ENDBRANCH   2   3
ENDBRANCH   1   2
BRANCH   1   8
ATOM      8  C   UNL     1     -18.701  27.866  -3.251  1.00  0.00     0.000 C 
BRANCH   8   9
ATOM      9  C   UNL     1     -20.168  28.320  -3.210  1.00  0.00     0.000 C 
BRANCH   9  10
ATOM     10  C   UNL     1     -20.271  29.813  -2.877  1.00  0.00     0.006 C 
BRANCH  10  11
ATOM     11  C   UNL     1     -20.728  30.619  -4.097  1.00  0.00     0.053 C 
BRANCH  11  12
ATOM     12  C   UNL     1     -20.289  29.951  -5.362  1.00  0.00     0.041 C 
ATOM     13  O   UNL     1     -21.122  29.328  -6.071  1.00  0.00    -0.550 OA
ATOM     14  O   UNL     1     -18.951  29.973  -5.732  1.00  0.00    -0.550 OA
ENDBRANCH  11  12
ENDBRANCH  10  11
ENDBRANCH   9  10
ENDBRANCH   8   9
ENDBRANCH   1   8
TORSDOF 9
ENDMDL
