MODEL 1
REMARK VINA RESULT:    -4.378      0.000      0.000
REMARK INTER + INTRA:         -10.425
REMARK INTER:                  -7.962
REMARK INTRA:                  -2.463
REMARK UNBOUND:                -2.463
REMARK SMILES CCCCCCCCCCCCCC[C@@H](C)C(=O)[O-]
REMARK SMILES IDX 9 1 10 2 11 3 12 4 13 5 14 6 15 7 16 8 17 9 18 10 19 11 8 12
REMARK SMILES IDX 7 13 6 14 5 15 4 16 3 17 2 18 1 19
REMARK H PARENT
REMARK Flexibility Score: inf
ROOT
ATOM      1  C   UNL     1       9.224 -19.070  22.373  1.00  0.00     0.000 C 
ENDROOT
BRANCH   1   2
ATOM      2  C   UNL     1      10.736 -18.838  22.520  1.00  0.00     0.000 C 
BRANCH   2   3
ATOM      3  C   UNL     1      11.316 -19.486  23.788  1.00  0.00     0.000 C 
BRANCH   3   4
ATOM      4  C   UNL     1      12.357 -18.593  24.484  1.00  0.00     0.000 C 
BRANCH   4   5
ATOM      5  C   UNL     1      11.863 -17.150  24.675  1.00  0.00     0.001 C 
BRANCH   5   6
ATOM      6  C   UNL     1      10.631 -17.060  25.597  1.00  0.00     0.009 C 
BRANCH   6   7
ATOM      7  C   UNL     1       9.644 -15.966  25.139  1.00  0.00     0.032 C 
ATOM      8  C   UNL     1      10.087 -15.367  23.801  1.00  0.00     0.014 C 
BRANCH   7   9
ATOM      9  C   UNL     1       8.246 -16.509  25.014  1.00  0.00     0.044 C 
ATOM     10  O   UNL     1       7.771 -17.245  25.919  1.00  0.00    -0.550 OA
ATOM     11  O   UNL     1       7.469 -16.202  23.903  1.00  0.00    -0.550 OA
ENDBRANCH   7   9
ENDBRANCH   6   7
ENDBRANCH   5   6
ENDBRANCH   4   5
ENDBRANCH   3   4
ENDBRANCH   2   3
ENDBRANCH   1   2
BRANCH   1  12
ATOM     12  C   UNL     1       8.645 -19.731  23.630  1.00  0.00     0.000 C 
BRANCH  12  13
ATOM     13  C   UNL     1       7.582 -20.777  23.261  1.00  0.00    -0.000 C 
BRANCH  13  14
ATOM     14  C   UNL     1       7.144 -20.685  21.790  1.00  0.00    -0.000 C 
BRANCH  14  15
ATOM     15  C   UNL     1       7.377 -21.997  21.021  1.00  0.00    -0.000 C 
BRANCH  15  16
ATOM     16  C   UNL     1       8.259 -22.988  21.798  1.00  0.00    -0.000 C 
BRANCH  16  17
ATOM     17  C   UNL     1       9.651 -23.164  21.164  1.00  0.00    -0.000 C 
BRANCH  17  18
ATOM     18  C   UNL     1      10.783 -22.701  22.093  1.00  0.00    -0.003 C 
ATOM     19  C   UNL     1      11.935 -22.035  21.339  1.00  0.00     0.004 C 
ENDBRANCH  17  18
ENDBRANCH  16  17
ENDBRANCH  15  16
ENDBRANCH  14  15
ENDBRANCH  13  14
ENDBRANCH  12  13
ENDBRANCH   1  12
TORSDOF 14
ENDMDL
MODEL 2
REMARK VINA RESULT:    -4.372      2.265      3.792
REMARK INTER + INTRA:         -10.414
REMARK INTER:                  -8.173
REMARK INTRA:                  -2.241
REMARK UNBOUND:                -2.463
REMARK SMILES CCCCCCCCCCCCCC[C@@H](C)C(=O)[O-]
REMARK SMILES IDX 9 1 10 2 11 3 12 4 13 5 14 6 15 7 16 8 17 9 18 10 19 11 8 12
REMARK SMILES IDX 7 13 6 14 5 15 4 16 3 17 2 18 1 19
REMARK H PARENT
REMARK Flexibility Score: inf
ROOT
ATOM      1  C   UNL     1       9.070 -17.409  20.075  1.00  0.00     0.000 C 
ENDROOT
BRANCH   1   2
ATOM      2  C   UNL     1       7.646 -17.319  20.644  1.00  0.00     0.000 C 
BRANCH   2   3
ATOM      3  C   UNL     1       6.982 -15.960  20.369  1.00  0.00     0.000 C 
BRANCH   3   4
ATOM      4  C   UNL     1       6.713 -15.163  21.657  1.00  0.00     0.000 C 
BRANCH   4   5
ATOM      5  C   UNL     1       7.101 -15.942  22.924  1.00  0.00     0.001 C 
BRANCH   5   6
ATOM      6  C   UNL     1       8.186 -15.227  23.752  1.00  0.00     0.009 C 
BRANCH   6   7
ATOM      7  C   UNL     1       9.382 -16.151  24.061  1.00  0.00     0.032 C 
ATOM      8  C   UNL     1      10.697 -15.494  23.632  1.00  0.00     0.014 C 
BRANCH   7   9
ATOM      9  C   UNL     1       9.442 -16.497  25.525  1.00  0.00     0.044 C 
ATOM     10  O   UNL     1       8.441 -16.296  26.263  1.00  0.00    -0.550 OA
ATOM     11  O   UNL     1      10.598 -17.041  26.072  1.00  0.00    -0.550 OA
ENDBRANCH   7   9
ENDBRANCH   6   7
ENDBRANCH   5   6
ENDBRANCH   4   5
ENDBRANCH   3   4
ENDBRANCH   2   3
ENDBRANCH   1   2
BRANCH   1  12
ATOM     12  C   UNL     1       9.482 -18.870  19.857  1.00  0.00     0.000 C 
BRANCH  12  13
ATOM     13  C   UNL     1       8.334 -19.677  19.232  1.00  0.00    -0.000 C 
BRANCH  13  14
ATOM     14  C   UNL     1       8.705 -21.150  18.994  1.00  0.00    -0.000 C 
BRANCH  14  15
ATOM     15  C   UNL     1       8.476 -22.026  20.239  1.00  0.00    -0.000 C 
BRANCH  15  16
ATOM     16  C   UNL     1       7.226 -21.607  21.032  1.00  0.00    -0.000 C 
BRANCH  16  17
ATOM     17  C   UNL     1       7.498 -21.482  22.541  1.00  0.00    -0.000 C 
BRANCH  17  18
ATOM     18  C   UNL     1       7.634 -20.021  22.995  1.00  0.00    -0.003 C 
ATOM     19  C   UNL     1       9.043 -19.678  23.479  1.00  0.00     0.004 C 
ENDBRANCH  17  18
ENDBRANCH  16  17
ENDBRANCH  15  16
ENDBRANCH  14  15
ENDBRANCH  13  14
ENDBRANCH  12  13
ENDBRANCH   1  12
TORSDOF 14
ENDMDL
MODEL 3
REMARK VINA RESULT:    -4.363      1.204      2.010
REMARK INTER + INTRA:         -10.398
REMARK INTER:                  -8.430
REMARK INTRA:                  -1.968
REMARK UNBOUND:                -2.463
REMARK SMILES CCCCCCCCCCCCCC[C@@H](C)C(=O)[O-]
REMARK SMILES IDX 9 1 10 2 11 3 12 4 13 5 14 6 15 7 16 8 17 9 18 10 19 11 8 12
REMARK SMILES IDX 7 13 6 14 5 15 4 16 3 17 2 18 1 19
REMARK H PARENT
REMARK Flexibility Score: inf
ROOT
ATOM      1  C   UNL     1       7.792 -19.498  23.559  1.00  0.00     0.000 C 
ENDROOT
BRANCH   1   2
ATOM      2  C   UNL     1       8.588 -18.815  22.437  1.00  0.00     0.000 C 
BRANCH   2   3
ATOM      3  C   UNL     1      10.080 -19.185  22.456  1.00  0.00     0.000 C 
BRANCH   3   4
ATOM      4  C   UNL     1      10.979 -17.995  22.833  1.00  0.00     0.000 C 
BRANCH   4   5
ATOM      5  C   UNL     1      10.310 -16.639  22.555  1.00  0.00     0.001 C 
BRANCH   5   6
ATOM      6  C   UNL     1      10.530 -15.623  23.692  1.00  0.00     0.009 C 
BRANCH   6   7
ATOM      7  C   UNL     1       9.254 -15.412  24.533  1.00  0.00     0.032 C 
ATOM      8  C   UNL     1       8.003 -15.544  23.659  1.00  0.00     0.014 C 
BRANCH   7   9
ATOM      9  C   UNL     1       9.182 -16.391  25.674  1.00  0.00     0.044 C 
ATOM     10  O   UNL     1       8.077 -16.636  26.228  1.00  0.00    -0.550 OA
ATOM     11  O   UNL     1      10.330 -17.033  26.122  1.00  0.00    -0.550 OA
ENDBRANCH   7   9
ENDBRANCH   6   7
ENDBRANCH   5   6
ENDBRANCH   4   5
ENDBRANCH   3   4
ENDBRANCH   2   3
ENDBRANCH   1   2
BRANCH   1  12
ATOM     12  C   UNL     1       7.205 -20.832  23.081  1.00  0.00     0.000 C 
BRANCH  12  13
ATOM     13  C   UNL     1       7.117 -20.876  21.547  1.00  0.00    -0.000 C 
BRANCH  13  14
ATOM     14  C   UNL     1       7.354 -22.284  20.979  1.00  0.00    -0.000 C 
BRANCH  14  15
ATOM     15  C   UNL     1       8.480 -23.035  21.712  1.00  0.00    -0.000 C 
BRANCH  15  16
ATOM     16  C   UNL     1       9.877 -22.662  21.188  1.00  0.00    -0.000 C 
BRANCH  16  17
ATOM     17  C   UNL     1      10.974 -22.831  22.254  1.00  0.00    -0.000 C 
BRANCH  17  18
ATOM     18  C   UNL     1      12.226 -21.995  21.949  1.00  0.00    -0.003 C 
ATOM     19  C   UNL     1      13.058 -21.695  23.196  1.00  0.00     0.004 C 
ENDBRANCH  17  18
ENDBRANCH  16  17
ENDBRANCH  15  16
ENDBRANCH  14  15
ENDBRANCH  13  14
ENDBRANCH  12  13
ENDBRANCH   1  12
TORSDOF 14
ENDMDL
MODEL 4
REMARK VINA RESULT:    -4.360      2.763      6.334
REMARK INTER + INTRA:         -10.391
REMARK INTER:                  -8.298
REMARK INTRA:                  -2.093
REMARK UNBOUND:                -2.463
REMARK SMILES CCCCCCCCCCCCCC[C@@H](C)C(=O)[O-]
REMARK SMILES IDX 9 1 10 2 11 3 12 4 13 5 14 6 15 7 16 8 17 9 18 10 19 11 8 12
REMARK SMILES IDX 7 13 6 14 5 15 4 16 3 17 2 18 1 19
REMARK H PARENT
REMARK Flexibility Score: inf
ROOT
ATOM      1  C   UNL     1       8.358 -18.689  22.132  1.00  0.00     0.000 C 
ENDROOT
BRANCH   1   2
ATOM      2  C   UNL     1       7.658 -19.290  23.360  1.00  0.00     0.000 C 
BRANCH   2   3
ATOM      3  C   UNL     1       7.172 -20.729  23.122  1.00  0.00     0.000 C 
BRANCH   3   4
ATOM      4  C   UNL     1       7.672 -21.308  21.788  1.00  0.00     0.000 C 
BRANCH   4   5
ATOM      5  C   UNL     1       8.052 -22.794  21.896  1.00  0.00     0.001 C 
BRANCH   5   6
ATOM      6  C   UNL     1       9.387 -23.119  21.200  1.00  0.00     0.009 C 
BRANCH   6   7
ATOM      7  C   UNL     1      10.481 -22.084  21.536  1.00  0.00     0.032 C 
ATOM      8  C   UNL     1      11.511 -22.681  22.500  1.00  0.00     0.014 C 
BRANCH   7   9
ATOM      9  C   UNL     1      11.174 -21.597  20.291  1.00  0.00     0.044 C 
ATOM     10  O   UNL     1      12.430 -21.515  20.258  1.00  0.00    -0.550 OA
ATOM     11  O   UNL     1      10.434 -21.237  19.170  1.00  0.00    -0.550 OA
ENDBRANCH   7   9
ENDBRANCH   6   7
ENDBRANCH   5   6
ENDBRANCH   4   5
ENDBRANCH   3   4
ENDBRANCH   2   3
ENDBRANCH   1   2
BRANCH   1  12
ATOM     12  C   UNL     1       7.921 -17.236  21.907  1.00  0.00     0.000 C 
BRANCH  12  13
ATOM     13  C   UNL     1       7.382 -16.617  23.206  1.00  0.00    -0.000 C 
BRANCH  13  14
ATOM     14  C   UNL     1       8.058 -15.281  23.552  1.00  0.00    -0.000 C 
BRANCH  14  15
ATOM     15  C   UNL     1       9.325 -15.463  24.407  1.00  0.00    -0.000 C 
BRANCH  15  16
ATOM     16  C   UNL     1       9.099 -16.402  25.604  1.00  0.00    -0.000 C 
BRANCH  16  17
ATOM     17  C   UNL     1      10.352 -17.221  25.958  1.00  0.00    -0.000 C 
BRANCH  17  18
ATOM     18  C   UNL     1      11.295 -17.403  24.759  1.00  0.00    -0.003 C 
ATOM     19  C   UNL     1      11.330 -18.842  24.243  1.00  0.00     0.004 C 
ENDBRANCH  17  18
ENDBRANCH  16  17
ENDBRANCH  15  16
ENDBRANCH  14  15
ENDBRANCH  13  14
ENDBRANCH  12  13
ENDBRANCH   1  12
TORSDOF 14
ENDMDL
MODEL 5
REMARK VINA RESULT:    -4.273      1.741      3.355
REMARK INTER + INTRA:         -10.234
REMARK INTER:                  -7.781
REMARK INTRA:                  -2.453
REMARK UNBOUND:                -2.463
REMARK SMILES CCCCCCCCCCCCCC[C@@H](C)C(=O)[O-]
REMARK SMILES IDX 9 1 10 2 11 3 12 4 13 5 14 6 15 7 16 8 17 9 18 10 19 11 8 12
REMARK SMILES IDX 7 13 6 14 5 15 4 16 3 17 2 18 1 19
REMARK H PARENT
REMARK Flexibility Score: inf
ROOT
ATOM      1  C   UNL     1       7.386 -20.765  21.002  1.00  0.00     0.000 C 
ENDROOT
BRANCH   1   2
ATOM      2  C   UNL     1       7.414 -20.526  22.520  1.00  0.00     0.000 C 
BRANCH   2   3
ATOM      3  C   UNL     1       7.738 -19.068  22.886  1.00  0.00     0.000 C 
BRANCH   3   4
ATOM      4  C   UNL     1       7.960 -18.183  21.648  1.00  0.00     0.000 C 
BRANCH   4   5
ATOM      5  C   UNL     1       8.648 -16.852  21.991  1.00  0.00     0.001 C 
BRANCH   5   6
ATOM      6  C   UNL     1       9.750 -17.009  23.056  1.00  0.00     0.009 C 
BRANCH   6   7
ATOM      7  C   UNL     1       9.650 -15.932  24.156  1.00  0.00     0.032 C 
ATOM      8  C   UNL     1       8.466 -14.997  23.889  1.00  0.00     0.014 C 
BRANCH   7   9
ATOM      9  C   UNL     1       9.508 -16.554  25.519  1.00  0.00     0.044 C 
ATOM     10  O   UNL     1      10.497 -17.108  26.067  1.00  0.00    -0.550 OA
ATOM     11  O   UNL     1       8.287 -16.522  26.182  1.00  0.00    -0.550 OA
ENDBRANCH   7   9
ENDBRANCH   6   7
ENDBRANCH   5   6
ENDBRANCH   4   5
ENDBRANCH   3   4
ENDBRANCH   2   3
ENDBRANCH   1   2
BRANCH   1  12
ATOM     12  C   UNL     1       7.550 -22.255  20.678  1.00  0.00     0.000 C 
BRANCH  12  13
ATOM     13  C   UNL     1       8.319 -22.979  21.794  1.00  0.00    -0.000 C 
BRANCH  13  14
ATOM     14  C   UNL     1       9.765 -23.317  21.395  1.00  0.00    -0.000 C 
BRANCH  14  15
ATOM     15  C   UNL     1      10.775 -22.266  21.888  1.00  0.00    -0.000 C 
BRANCH  15  16
ATOM     16  C   UNL     1      11.448 -21.507  20.733  1.00  0.00    -0.000 C 
BRANCH  16  17
ATOM     17  C   UNL     1      11.048 -20.022  20.689  1.00  0.00    -0.000 C 
BRANCH  17  18
ATOM     18  C   UNL     1      10.568 -19.582  19.298  1.00  0.00    -0.003 C 
ATOM     19  C   UNL     1      10.180 -20.760  18.404  1.00  0.00     0.004 C 
ENDBRANCH  17  18
ENDBRANCH  16  17
ENDBRANCH  15  16
ENDBRANCH  14  15
ENDBRANCH  13  14
ENDBRANCH  12  13
ENDBRANCH   1  12
TORSDOF 14
ENDMDL
MODEL 6
REMARK VINA RESULT:    -4.268      2.778      5.962
REMARK INTER + INTRA:         -10.224
REMARK INTER:                  -7.867
REMARK INTRA:                  -2.357
REMARK UNBOUND:                -2.463
REMARK SMILES CCCCCCCCCCCCCC[C@@H](C)C(=O)[O-]
REMARK SMILES IDX 9 1 10 2 11 3 12 4 13 5 14 6 15 7 16 8 17 9 18 10 19 11 8 12
REMARK SMILES IDX 7 13 6 14 5 15 4 16 3 17 2 18 1 19
REMARK H PARENT
REMARK Flexibility Score: inf
ROOT
ATOM      1  C   UNL     1       9.156 -18.123  24.835  1.00  0.00     0.000 C 
ENDROOT
BRANCH   1   2
ATOM      2  C   UNL     1       8.033 -18.126  25.884  1.00  0.00     0.000 C 
BRANCH   2   3
ATOM      3  C   UNL     1       6.750 -18.805  25.378  1.00  0.00     0.000 C 
BRANCH   3   4
ATOM      4  C   UNL     1       6.819 -19.161  23.884  1.00  0.00     0.000 C 
BRANCH   4   5
ATOM      5  C   UNL     1       6.692 -20.672  23.631  1.00  0.00     0.001 C 
BRANCH   5   6
ATOM      6  C   UNL     1       7.013 -21.061  22.175  1.00  0.00     0.009 C 
BRANCH   6   7
ATOM      7  C   UNL     1       8.322 -21.871  22.067  1.00  0.00     0.032 C 
ATOM      8  C   UNL     1       8.088 -23.173  21.294  1.00  0.00     0.014 C 
BRANCH   7   9
ATOM      9  C   UNL     1       9.407 -21.071  21.397  1.00  0.00     0.044 C 
ATOM     10  O   UNL     1       9.930 -20.093  21.994  1.00  0.00    -0.550 OA
ATOM     11  O   UNL     1       9.839 -21.405  20.119  1.00  0.00    -0.550 OA
ENDBRANCH   7   9
ENDBRANCH   6   7
ENDBRANCH   5   6
ENDBRANCH   4   5
ENDBRANCH   3   4
ENDBRANCH   2   3
ENDBRANCH   1   2
BRANCH   1  12
ATOM     12  C   UNL     1       9.806 -16.738  24.732  1.00  0.00     0.000 C 
BRANCH  12  13
ATOM     13  C   UNL     1       8.758 -15.626  24.890  1.00  0.00    -0.000 C 
BRANCH  13  14
ATOM     14  C   UNL     1       8.346 -15.002  23.547  1.00  0.00    -0.000 C 
BRANCH  14  15
ATOM     15  C   UNL     1       7.058 -15.624  22.978  1.00  0.00    -0.000 C 
BRANCH  15  16
ATOM     16  C   UNL     1       7.209 -16.053  21.509  1.00  0.00    -0.000 C 
BRANCH  16  17
ATOM     17  C   UNL     1       8.341 -17.075  21.305  1.00  0.00    -0.000 C 
BRANCH  17  18
ATOM     18  C   UNL     1       8.400 -17.610  19.866  1.00  0.00    -0.003 C 
ATOM     19  C   UNL     1       7.251 -18.565  19.541  1.00  0.00     0.004 C 
ENDBRANCH  17  18
ENDBRANCH  16  17
ENDBRANCH  15  16
ENDBRANCH  14  15
ENDBRANCH  13  14
ENDBRANCH  12  13
ENDBRANCH   1  12
TORSDOF 14
ENDMDL
MODEL 7
REMARK VINA RESULT:    -4.260      2.539      4.072
REMARK INTER + INTRA:         -10.210
REMARK INTER:                  -7.513
REMARK INTRA:                  -2.697
REMARK UNBOUND:                -2.463
REMARK SMILES CCCCCCCCCCCCCC[C@@H](C)C(=O)[O-]
REMARK SMILES IDX 9 1 10 2 11 3 12 4 13 5 14 6 15 7 16 8 17 9 18 10 19 11 8 12
REMARK SMILES IDX 7 13 6 14 5 15 4 16 3 17 2 18 1 19
REMARK H PARENT
REMARK Flexibility Score: inf
ROOT
ATOM      1  C   UNL     1       7.753 -15.711  23.377  1.00  0.00     0.000 C 
ENDROOT
BRANCH   1   2
ATOM      2  C   UNL     1       8.907 -15.492  24.367  1.00  0.00     0.000 C 
BRANCH   2   3
ATOM      3  C   UNL     1      10.289 -15.604  23.702  1.00  0.00     0.000 C 
BRANCH   3   4
ATOM      4  C   UNL     1      11.210 -16.605  24.418  1.00  0.00     0.000 C 
BRANCH   4   5
ATOM      5  C   UNL     1      11.676 -17.743  23.494  1.00  0.00     0.001 C 
BRANCH   5   6
ATOM      6  C   UNL     1      10.775 -18.989  23.584  1.00  0.00     0.009 C 
BRANCH   6   7
ATOM      7  C   UNL     1      10.426 -19.552  22.190  1.00  0.00     0.032 C 
ATOM      8  C   UNL     1       9.758 -18.477  21.327  1.00  0.00     0.014 C 
BRANCH   7   9
ATOM      9  C   UNL     1      11.650 -20.077  21.491  1.00  0.00     0.044 C 
ATOM     10  O   UNL     1      12.243 -21.096  21.934  1.00  0.00    -0.550 OA
ATOM     11  O   UNL     1      12.134 -19.445  20.351  1.00  0.00    -0.550 OA
ENDBRANCH   7   9
ENDBRANCH   6   7
ENDBRANCH   5   6
ENDBRANCH   4   5
ENDBRANCH   3   4
ENDBRANCH   2   3
ENDBRANCH   1   2
BRANCH   1  12
ATOM     12  C   UNL     1       7.215 -17.144  23.470  1.00  0.00     0.000 C 
BRANCH  12  13
ATOM     13  C   UNL     1       7.518 -17.757  24.846  1.00  0.00    -0.000 C 
BRANCH  13  14
ATOM     14  C   UNL     1       7.344 -19.284  24.867  1.00  0.00    -0.000 C 
BRANCH  14  15
ATOM     15  C   UNL     1       6.588 -19.810  23.634  1.00  0.00    -0.000 C 
BRANCH  15  16
ATOM     16  C   UNL     1       7.190 -21.114  23.085  1.00  0.00    -0.000 C 
BRANCH  16  17
ATOM     17  C   UNL     1       7.153 -21.181  21.548  1.00  0.00    -0.000 C 
BRANCH  17  18
ATOM     18  C   UNL     1       7.702 -22.508  21.003  1.00  0.00    -0.003 C 
ATOM     19  C   UNL     1       8.973 -22.965  21.720  1.00  0.00     0.004 C 
ENDBRANCH  17  18
ENDBRANCH  16  17
ENDBRANCH  15  16
ENDBRANCH  14  15
ENDBRANCH  13  14
ENDBRANCH  12  13
ENDBRANCH   1  12
TORSDOF 14
ENDMDL
MODEL 8
REMARK VINA RESULT:    -4.249      1.798      4.314
REMARK INTER + INTRA:         -10.191
REMARK INTER:                  -7.976
REMARK INTRA:                  -2.214
REMARK UNBOUND:                -2.463
REMARK SMILES CCCCCCCCCCCCCC[C@@H](C)C(=O)[O-]
REMARK SMILES IDX 9 1 10 2 11 3 12 4 13 5 14 6 15 7 16 8 17 9 18 10 19 11 8 12
REMARK SMILES IDX 7 13 6 14 5 15 4 16 3 17 2 18 1 19
REMARK H PARENT
REMARK Flexibility Score: inf
ROOT
ATOM      1  C   UNL     1       8.634 -22.959  21.750  1.00  0.00     0.000 C 
ENDROOT
BRANCH   1   2
ATOM      2  C   UNL     1      10.043 -22.669  21.212  1.00  0.00     0.000 C 
BRANCH   2   3
ATOM      3  C   UNL     1      11.002 -22.159  22.300  1.00  0.00     0.000 C 
BRANCH   3   4
ATOM      4  C   UNL     1      11.288 -20.653  22.176  1.00  0.00     0.000 C 
BRANCH   4   5
ATOM      5  C   UNL     1      10.640 -19.834  23.305  1.00  0.00     0.001 C 
BRANCH   5   6
ATOM      6  C   UNL     1      10.510 -18.339  22.956  1.00  0.00     0.009 C 
BRANCH   6   7
ATOM      7  C   UNL     1      11.578 -17.484  23.669  1.00  0.00     0.032 C 
ATOM      8  C   UNL     1      11.227 -15.996  23.574  1.00  0.00     0.014 C 
BRANCH   7   9
ATOM      9  C   UNL     1      11.722 -17.881  25.113  1.00  0.00     0.044 C 
ATOM     10  O   UNL     1      12.750 -18.497  25.499  1.00  0.00    -0.550 OA
ATOM     11  O   UNL     1      10.724 -17.571  26.030  1.00  0.00    -0.550 OA
ENDBRANCH   7   9
ENDBRANCH   6   7
ENDBRANCH   5   6
ENDBRANCH   4   5
ENDBRANCH   3   4
ENDBRANCH   2   3
ENDBRANCH   1   2
BRANCH   1  12
ATOM     12  C   UNL     1       7.571 -22.209  20.937  1.00  0.00     0.000 C 
BRANCH  12  13
ATOM     13  C   UNL     1       7.088 -20.958  21.688  1.00  0.00    -0.000 C 
BRANCH  13  14
ATOM     14  C   UNL     1       7.211 -21.096  23.214  1.00  0.00    -0.000 C 
BRANCH  14  15
ATOM     15  C   UNL     1       6.503 -19.958  23.969  1.00  0.00    -0.000 C 
BRANCH  15  16
ATOM     16  C   UNL     1       7.415 -19.282  25.007  1.00  0.00    -0.000 C 
BRANCH  16  17
ATOM     17  C   UNL     1       7.371 -17.746  24.923  1.00  0.00    -0.000 C 
BRANCH  17  18
ATOM     18  C   UNL     1       7.020 -17.244  23.514  1.00  0.00    -0.003 C 
ATOM     19  C   UNL     1       7.534 -15.830  23.243  1.00  0.00     0.004 C 
ENDBRANCH  17  18
ENDBRANCH  16  17
ENDBRANCH  15  16
ENDBRANCH  14  15
ENDBRANCH  13  14
ENDBRANCH  12  13
ENDBRANCH   1  12
TORSDOF 14
ENDMDL
MODEL 9
REMARK VINA RESULT:    -4.234      1.656      4.231
REMARK INTER + INTRA:         -10.163
REMARK INTER:                  -7.590
REMARK INTRA:                  -2.574
REMARK UNBOUND:                -2.463
REMARK SMILES CCCCCCCCCCCCCC[C@@H](C)C(=O)[O-]
REMARK SMILES IDX 9 1 10 2 11 3 12 4 13 5 14 6 15 7 16 8 17 9 18 10 19 11 8 12
REMARK SMILES IDX 7 13 6 14 5 15 4 16 3 17 2 18 1 19
REMARK H PARENT
REMARK Flexibility Score: inf
ROOT
ATOM      1  C   UNL     1       8.121 -22.632  21.986  1.00  0.00     0.000 C 
ENDROOT
BRANCH   1   2
ATOM      2  C   UNL     1       7.471 -21.531  21.134  1.00  0.00     0.000 C 
BRANCH   2   3
ATOM      3  C   UNL     1       7.085 -20.293  21.958  1.00  0.00     0.000 C 
BRANCH   3   4
ATOM      4  C   UNL     1       6.848 -20.621  23.442  1.00  0.00     0.000 C 
BRANCH   4   5
ATOM      5  C   UNL     1       7.568 -19.642  24.385  1.00  0.00     0.001 C 
BRANCH   5   6
ATOM      6  C   UNL     1       6.903 -18.253  24.419  1.00  0.00     0.009 C 
BRANCH   6   7
ATOM      7  C   UNL     1       7.837 -17.151  23.876  1.00  0.00     0.032 C 
ATOM      8  C   UNL     1       7.100 -16.274  22.859  1.00  0.00     0.014 C 
BRANCH   7   9
ATOM      9  C   UNL     1       8.377 -16.294  24.989  1.00  0.00     0.044 C 
ATOM     10  O   UNL     1       8.232 -16.650  26.188  1.00  0.00    -0.550 OA
ATOM     11  O   UNL     1       9.040 -15.106  24.703  1.00  0.00    -0.550 OA
ENDBRANCH   7   9
ENDBRANCH   6   7
ENDBRANCH   5   6
ENDBRANCH   4   5
ENDBRANCH   3   4
ENDBRANCH   2   3
ENDBRANCH   1   2
BRANCH   1  12
ATOM     12  C   UNL     1       9.409 -23.145  21.330  1.00  0.00     0.000 C 
BRANCH  12  13
ATOM     13  C   UNL     1      10.417 -22.003  21.132  1.00  0.00    -0.000 C 
BRANCH  13  14
ATOM     14  C   UNL     1      10.925 -21.422  22.462  1.00  0.00    -0.000 C 
BRANCH  14  15
ATOM     15  C   UNL     1      10.724 -19.899  22.557  1.00  0.00    -0.000 C 
BRANCH  15  16
ATOM     16  C   UNL     1      10.565 -19.239  21.177  1.00  0.00    -0.000 C 
BRANCH  16  17
ATOM     17  C   UNL     1      10.177 -17.753  21.275  1.00  0.00    -0.000 C 
BRANCH  17  18
ATOM     18  C   UNL     1       9.610 -17.204  19.957  1.00  0.00    -0.003 C 
ATOM     19  C   UNL     1       8.219 -17.754  19.635  1.00  0.00     0.004 C 
ENDBRANCH  17  18
ENDBRANCH  16  17
ENDBRANCH  15  16
ENDBRANCH  14  15
ENDBRANCH  13  14
ENDBRANCH  12  13
ENDBRANCH   1  12
TORSDOF 14
ENDMDL
