MODEL 1
REMARK VINA RESULT:    -0.303      0.000      0.000
REMARK INTER + INTRA:           0.147
REMARK INTER:                  -0.374
REMARK INTRA:                   0.521
REMARK UNBOUND:                 0.521
REMARK SMILES C=C1[C@H]2CC[C@@H]3[C@@H]2C(C)(C)CCC[C@]13C
REMARK SMILES IDX 14 1 6 2 7 3 3 4 2 5 1 6 4 7 5 8 15 9 8 10 9 11 10 12 11 13
REMARK SMILES IDX 13 15 12 16
REMARK H PARENT
REMARK Flexibility Score: 80.00
ROOT
ATOM      1  C   UNL     1       6.390   6.326  13.440  1.00  0.00    -0.008 C 
ATOM      2  C   UNL     1       4.875   6.469  13.489  1.00  0.00     0.003 C 
ATOM      3  C   UNL     1       4.740   7.835  12.792  1.00  0.00     0.006 C 
ATOM      4  C   UNL     1       5.267   7.333  11.458  1.00  0.00     0.019 C 
ATOM      5  C   UNL     1       6.606   6.764  11.983  1.00  0.00    -0.068 C 
ATOM      6  C   UNL     1       7.757   6.733  11.304  1.00  0.00     0.009 C 
ATOM      7  C   UNL     1       4.360   6.151  11.142  1.00  0.00     0.008 C 
ATOM      8  C   UNL     1       4.104   5.539  12.521  1.00  0.00     0.005 C 
ATOM      9  C   UNL     1       6.873   4.876  13.658  1.00  0.00     0.016 C 
ENDROOT
BRANCH   3  10
ATOM     10  C   UNL     1       3.966   8.826  13.688  1.00  0.00    -0.032 C 
ATOM     11  C   UNL     1       3.902  10.244  13.054  1.00  0.00     0.011 C 
ATOM     12  C   UNL     1       2.511   8.356  13.909  1.00  0.00     0.011 C 
BRANCH  10  13
ATOM     13  C   UNL     1       4.764   8.869  15.071  1.00  0.00     0.007 CG0
ATOM     14  G   UNL     1       6.341   8.678  14.995  1.00  0.00     0.000 G0
ENDBRANCH  10  13
ENDBRANCH   3  10
BRANCH   1  15
ATOM     15  C   UNL     1       6.979   7.266  14.589  1.00  0.00     0.011 C 
BRANCH  15  16
ATOM     16  C   UNL     1       6.340   8.673  14.992  1.00  0.00     0.001 CG0
ATOM     17  G   UNL     1       4.763   8.866  15.072  1.00  0.00     0.000 G0
ENDBRANCH  15  16
ENDBRANCH   1  15
TORSDOF 0
ENDMDL
MODEL 2
REMARK VINA RESULT:     1.732      0.959      3.743
REMARK INTER + INTRA:           2.658
REMARK INTER:                   2.137
REMARK INTRA:                   0.521
REMARK UNBOUND:                 0.521
REMARK SMILES C=C1[C@H]2CC[C@@H]3[C@@H]2C(C)(C)CCC[C@]13C
REMARK SMILES IDX 14 1 6 2 7 3 3 4 2 5 1 6 4 7 5 8 15 9 8 10 9 11 10 12 11 13
REMARK SMILES IDX 13 15 12 16
REMARK H PARENT
REMARK Flexibility Score: 80.00
ROOT
ATOM      1  C   UNL     1       4.561   8.703  13.372  1.00  0.00    -0.008 C 
ATOM      2  C   UNL     1       5.434   8.107  12.276  1.00  0.00     0.003 C 
ATOM      3  C   UNL     1       5.560   6.673  12.822  1.00  0.00     0.006 C 
ATOM      4  C   UNL     1       4.081   6.362  12.667  1.00  0.00     0.019 C 
ATOM      5  C   UNL     1       3.547   7.555  13.495  1.00  0.00    -0.068 C 
ATOM      6  C   UNL     1       2.438   7.549  14.241  1.00  0.00     0.009 C 
ATOM      7  C   UNL     1       3.808   6.666  11.200  1.00  0.00     0.008 C 
ATOM      8  C   UNL     1       4.711   7.872  10.927  1.00  0.00     0.005 C 
ATOM      9  C   UNL     1       3.863  10.013  12.949  1.00  0.00     0.016 C 
ENDROOT
BRANCH   3  10
ATOM     10  C   UNL     1       7.047   6.282  12.978  1.00  0.00    -0.032 C 
ATOM     11  C   UNL     1       7.206   4.877  13.623  1.00  0.00     0.011 C 
ATOM     12  C   UNL     1       7.757   6.242  11.607  1.00  0.00     0.011 C 
BRANCH  10  13
ATOM     13  C   UNL     1       7.689   7.403  13.917  1.00  0.00     0.007 CG0
ATOM     14  G   UNL     1       6.740   8.045  15.020  1.00  0.00     0.000 G0
ENDBRANCH  10  13
ENDBRANCH   3  10
BRANCH   1  15
ATOM     15  C   UNL     1       5.516   8.983  14.620  1.00  0.00     0.011 C 
BRANCH  15  16
ATOM     16  C   UNL     1       6.744   8.042  15.020  1.00  0.00     0.001 CG0
ATOM     17  G   UNL     1       7.696   7.417  13.910  1.00  0.00     0.000 G0
ENDBRANCH  15  16
ENDBRANCH   1  15
TORSDOF 0
ENDMDL
MODEL 3
REMARK VINA RESULT:     2.112      1.853      3.442
REMARK INTER + INTRA:           3.127
REMARK INTER:                   2.590
REMARK INTRA:                   0.537
REMARK UNBOUND:                 0.521
REMARK SMILES C=C1[C@H]2CC[C@@H]3[C@@H]2C(C)(C)CCC[C@]13C
REMARK SMILES IDX 14 1 6 2 7 3 3 4 2 5 1 6 4 7 5 8 15 9 8 10 9 11 10 12 11 13
REMARK SMILES IDX 13 15 12 16
REMARK H PARENT
REMARK Flexibility Score: 80.00
ROOT
ATOM      1  C   UNL     1       5.268   7.682  12.207  1.00  0.00    -0.008 C 
ATOM      2  C   UNL     1       5.250   8.742  13.299  1.00  0.00     0.003 C 
ATOM      3  C   UNL     1       3.743   8.738  13.613  1.00  0.00     0.006 C 
ATOM      4  C   UNL     1       3.741   7.313  14.140  1.00  0.00     0.019 C 
ATOM      5  C   UNL     1       4.361   6.646  12.890  1.00  0.00    -0.068 C 
ATOM      6  C   UNL     1       4.090   5.413  12.451  1.00  0.00     0.009 C 
ATOM      7  C   UNL     1       4.810   7.336  15.224  1.00  0.00     0.008 C 
ATOM      8  C   UNL     1       5.858   8.292  14.650  1.00  0.00     0.005 C 
ATOM      9  C   UNL     1       6.673   7.099  11.947  1.00  0.00     0.016 C 
ENDROOT
BRANCH   3  10
ATOM     10  C   UNL     1       3.155  10.160  13.468  1.00  0.00    -0.032 C 
ATOM     11  C   UNL     1       1.608  10.159  13.612  1.00  0.00     0.011 C 
ATOM     12  C   UNL     1       3.717  11.106  14.553  1.00  0.00     0.011 C 
BRANCH  10  13
ATOM     13  C   UNL     1       3.580  10.653  12.010  1.00  0.00     0.007 CG0
ATOM     14  G   UNL     1       3.645   9.547  10.869  1.00  0.00     0.000 G0
ENDBRANCH  10  13
ENDBRANCH   3  10
BRANCH   1  15
ATOM     15  C   UNL     1       4.722   8.380  10.878  1.00  0.00     0.011 C 
BRANCH  15  16
ATOM     16  C   UNL     1       3.615   9.532  10.878  1.00  0.00     0.001 CG0
ATOM     17  G   UNL     1       3.596  10.654  12.005  1.00  0.00     0.000 G0
ENDBRANCH  15  16
ENDBRANCH   1  15
TORSDOF 0
ENDMDL
MODEL 4
REMARK VINA RESULT:     2.431      1.839      4.526
REMARK INTER + INTRA:           3.521
REMARK INTER:                   3.014
REMARK INTRA:                   0.507
REMARK UNBOUND:                 0.521
REMARK SMILES C=C1[C@H]2CC[C@@H]3[C@@H]2C(C)(C)CCC[C@]13C
REMARK SMILES IDX 14 1 6 2 7 3 3 4 2 5 1 6 4 7 5 8 15 9 8 10 9 11 10 12 11 13
REMARK SMILES IDX 13 15 12 16
REMARK H PARENT
REMARK Flexibility Score: 80.00
ROOT
ATOM      1  C   UNL     1       3.045   9.607  12.978  1.00  0.00    -0.008 C 
ATOM      2  C   UNL     1       3.266   8.182  13.467  1.00  0.00     0.003 C 
ATOM      3  C   UNL     1       4.793   8.226  13.653  1.00  0.00     0.006 C 
ATOM      4  C   UNL     1       4.742   9.256  14.769  1.00  0.00     0.019 C 
ATOM      5  C   UNL     1       3.938  10.330  13.999  1.00  0.00    -0.068 C 
ATOM      6  C   UNL     1       4.062  11.652  14.153  1.00  0.00     0.009 C 
ATOM      7  C   UNL     1       3.803   8.625  15.788  1.00  0.00     0.008 C 
ATOM      8  C   UNL     1       2.776   7.907  14.909  1.00  0.00     0.005 C 
ATOM      9  C   UNL     1       1.579  10.072  13.100  1.00  0.00     0.016 C 
ENDROOT
BRANCH   3  10
ATOM     10  C   UNL     1       5.471   7.099  12.842  1.00  0.00    -0.032 C 
ATOM     11  C   UNL     1       7.019   7.147  12.974  1.00  0.00     0.011 C 
ATOM     12  C   UNL     1       5.010   5.708  13.332  1.00  0.00     0.011 C 
BRANCH  10  13
ATOM     13  C   UNL     1       5.033   7.339  11.325  1.00  0.00     0.007 CG0
ATOM     14  G   UNL     1       4.751   8.842  10.889  1.00  0.00     0.000 G0
ENDBRANCH  10  13
ENDBRANCH   3  10
BRANCH   1  15
ATOM     15  C   UNL     1       3.495   9.644  11.447  1.00  0.00     0.011 C 
BRANCH  15  16
ATOM     16  C   UNL     1       4.749   8.837  10.875  1.00  0.00     0.001 CG0
ATOM     17  G   UNL     1       5.028   7.334  11.314  1.00  0.00     0.000 G0
ENDBRANCH  15  16
ENDBRANCH   1  15
TORSDOF 0
ENDMDL
MODEL 5
REMARK VINA RESULT:     2.653      1.975      4.695
REMARK INTER + INTRA:           3.794
REMARK INTER:                   3.290
REMARK INTRA:                   0.504
REMARK UNBOUND:                 0.521
REMARK SMILES C=C1[C@H]2CC[C@@H]3[C@@H]2C(C)(C)CCC[C@]13C
REMARK SMILES IDX 14 1 6 2 7 3 3 4 2 5 1 6 4 7 5 8 15 9 8 10 9 11 10 12 11 13
REMARK SMILES IDX 13 15 12 16
REMARK H PARENT
REMARK Flexibility Score: 80.00
ROOT
ATOM      1  C   UNL     1       2.871  10.117  11.725  1.00  0.00    -0.008 C 
ATOM      2  C   UNL     1       2.675   9.548  13.123  1.00  0.00     0.003 C 
ATOM      3  C   UNL     1       4.103   9.746  13.666  1.00  0.00     0.006 C 
ATOM      4  C   UNL     1       4.037  11.263  13.605  1.00  0.00     0.019 C 
ATOM      5  C   UNL     1       3.661  11.379  12.109  1.00  0.00    -0.068 C 
ATOM      6  C   UNL     1       4.028  12.368  11.290  1.00  0.00     0.009 C 
ATOM      7  C   UNL     1       2.791  11.594  14.416  1.00  0.00     0.008 C 
ATOM      8  C   UNL     1       1.845  10.441  14.077  1.00  0.00     0.005 C 
ATOM      9  C   UNL     1       1.546  10.487  11.027  1.00  0.00     0.016 C 
ENDROOT
BRANCH   3  10
ATOM     10  C   UNL     1       4.681   8.406  14.173  1.00  0.00    -0.032 C 
ATOM     11  C   UNL     1       6.144   8.565  14.673  1.00  0.00     0.011 C 
ATOM     12  C   UNL     1       3.849   7.854  15.352  1.00  0.00     0.011 C 
BRANCH  10  13
ATOM     13  C   UNL     1       4.623   7.413  12.924  1.00  0.00     0.007 CG0
ATOM     14  G   UNL     1       4.769   8.066  11.481  1.00  0.00     0.000 G0
ENDBRANCH  10  13
ENDBRANCH   3  10
BRANCH   1  15
ATOM     15  C   UNL     1       3.632   8.999  10.875  1.00  0.00     0.011 C 
BRANCH  15  16
ATOM     16  C   UNL     1       4.762   8.047  11.481  1.00  0.00     0.001 CG0
ATOM     17  G   UNL     1       4.604   7.401  12.926  1.00  0.00     0.000 G0
ENDBRANCH  15  16
ENDBRANCH   1  15
TORSDOF 0
ENDMDL
