MODEL 1
REMARK VINA RESULT:     1.336      0.000      0.000
REMARK INTER + INTRA:           1.236
REMARK INTER:                   1.609
REMARK INTRA:                  -0.373
REMARK UNBOUND:                -0.373
REMARK SMILES Oc1cc(O)c2c(c1)O[C@H](c1ccc(O)c(O)c1)[C@@H](O)C2
REMARK SMILES IDX 21 1 19 2 10 3 9 4 7 5 8 6 2 7 3 8 4 9 6 10 20 11 11 13
REMARK SMILES IDX 18 14 12 15 16 16 13 17 14 18 17 19 15 21 5 23 1 25
REMARK H PARENT 20 12 17 20 15 22 5 24 1 26
REMARK Flexibility Score: inf
ROOT
ATOM      1  C   UNL     1      -3.255  -1.284  19.488  1.00  0.00     0.079 C 
ATOM      2  C   UNL     1      -3.855  -0.441  18.345  1.00  0.00     0.164 C 
ATOM      3  C   UNL     1      -3.154   0.930  18.269  1.00  0.00     0.232 C 
ATOM      4  O   UNL     1      -3.257   1.592  19.528  1.00  0.00    -0.482 OA
ATOM      5  C   UNL     1      -3.151   0.908  20.745  1.00  0.00     0.131 A 
ATOM      6  C   UNL     1      -3.071   1.643  21.930  1.00  0.00     0.093 A 
ATOM      7  C   UNL     1      -2.951   0.992  23.158  1.00  0.00     0.122 A 
ATOM      8  C   UNL     1      -2.899  -0.406  23.202  1.00  0.00     0.092 A 
ATOM      9  C   UNL     1      -2.977  -1.159  22.025  1.00  0.00     0.126 A 
ATOM     10  C   UNL     1      -3.143  -0.505  20.781  1.00  0.00     0.039 A 
ENDROOT
BRANCH   2  11
ATOM     11  O   UNL     1      -3.768  -1.132  17.123  1.00  0.00    -0.389 OA
ATOM     12  H   UNL     1      -4.116  -2.051  17.271  1.00  0.00     0.211 HD
ENDBRANCH   2  11
BRANCH   3  13
ATOM     13  C   UNL     1      -3.762   1.793  17.189  1.00  0.00    -0.001 A 
ATOM     14  C   UNL     1      -5.109   2.188  17.263  1.00  0.00     0.057 A 
ATOM     15  C   UNL     1      -2.998   2.171  16.073  1.00  0.00     0.012 A 
ATOM     16  C   UNL     1      -5.680   2.967  16.246  1.00  0.00     0.157 A 
ATOM     17  C   UNL     1      -3.565   2.947  15.059  1.00  0.00     0.050 A 
ATOM     18  C   UNL     1      -4.902   3.349  15.139  1.00  0.00     0.157 A 
BRANCH  16  19
ATOM     19  O   UNL     1      -7.015   3.359  16.330  1.00  0.00    -0.504 OA
ATOM     20  H   UNL     1      -7.320   4.066  16.989  1.00  0.00     0.293 HD
ENDBRANCH  16  19
BRANCH  18  21
ATOM     21  O   UNL     1      -5.440   4.123  14.112  1.00  0.00    -0.504 OA
ATOM     22  H   UNL     1      -6.426   4.357  14.074  1.00  0.00     0.293 HD
ENDBRANCH  18  21
ENDBRANCH   3  13
BRANCH   9  23
ATOM     23  O   UNL     1      -2.875  -2.549  22.128  1.00  0.00    -0.507 OA
ATOM     24  H   UNL     1      -2.872  -3.043  23.010  1.00  0.00     0.293 HD
ENDBRANCH   9  23
BRANCH   7  25
ATOM     25  O   UNL     1      -2.875   1.742  24.330  1.00  0.00    -0.508 OA
ATOM     26  H   UNL     1      -2.763   2.749  24.309  1.00  0.00     0.293 HD
ENDBRANCH   7  25
TORSDOF 6
ENDMDL
MODEL 2
REMARK VINA RESULT:     1.694      1.649      7.183
REMARK INTER + INTRA:           1.668
REMARK INTER:                   1.240
REMARK INTRA:                   0.428
REMARK UNBOUND:                -0.373
REMARK SMILES Oc1cc(O)c2c(c1)O[C@H](c1ccc(O)c(O)c1)[C@@H](O)C2
REMARK SMILES IDX 21 1 19 2 10 3 9 4 7 5 8 6 2 7 3 8 4 9 6 10 20 11 11 13
REMARK SMILES IDX 18 14 12 15 16 16 13 17 14 18 17 19 15 21 5 23 1 25
REMARK H PARENT 20 12 17 20 15 22 5 24 1 26
REMARK Flexibility Score: inf
ROOT
ATOM      1  C   UNL     1      -3.698   3.409  17.617  1.00  0.00     0.079 C 
ATOM      2  C   UNL     1      -3.627   2.836  19.046  1.00  0.00     0.164 C 
ATOM      3  C   UNL     1      -2.924   1.464  19.036  1.00  0.00     0.232 C 
ATOM      4  O   UNL     1      -3.605   0.583  18.144  1.00  0.00    -0.482 OA
ATOM      5  C   UNL     1      -4.136   1.016  16.925  1.00  0.00     0.131 A 
ATOM      6  C   UNL     1      -4.620   0.066  16.021  1.00  0.00     0.093 A 
ATOM      7  C   UNL     1      -5.143   0.464  14.790  1.00  0.00     0.122 A 
ATOM      8  C   UNL     1      -5.175   1.823  14.455  1.00  0.00     0.092 A 
ATOM      9  C   UNL     1      -4.696   2.789  15.347  1.00  0.00     0.126 A 
ATOM     10  C   UNL     1      -4.204   2.393  16.614  1.00  0.00     0.039 A 
ENDROOT
BRANCH   2  11
ATOM     11  O   UNL     1      -2.979   3.740  19.908  1.00  0.00    -0.389 OA
ATOM     12  H   UNL     1      -2.335   3.222  20.459  1.00  0.00     0.211 HD
ENDBRANCH   2  11
BRANCH   3  13
ATOM     13  C   UNL     1      -2.889   0.859  20.420  1.00  0.00    -0.001 A 
ATOM     14  C   UNL     1      -2.911  -0.536  20.592  1.00  0.00     0.057 A 
ATOM     15  C   UNL     1      -2.882   1.689  21.553  1.00  0.00     0.012 A 
ATOM     16  C   UNL     1      -2.907  -1.096  21.877  1.00  0.00     0.157 A 
ATOM     17  C   UNL     1      -2.877   1.132  22.835  1.00  0.00     0.050 A 
ATOM     18  C   UNL     1      -2.887  -0.256  23.004  1.00  0.00     0.157 A 
BRANCH  16  19
ATOM     19  O   UNL     1      -2.923  -2.480  22.039  1.00  0.00    -0.504 OA
ATOM     20  H   UNL     1      -3.793  -2.999  22.082  1.00  0.00     0.293 HD
ENDBRANCH  16  19
BRANCH  18  21
ATOM     21  O   UNL     1      -2.882  -0.781  24.296  1.00  0.00    -0.504 OA
ATOM     22  H   UNL     1      -2.738  -0.199  25.112  1.00  0.00     0.293 HD
ENDBRANCH  18  21
ENDBRANCH   3  13
BRANCH   9  23
ATOM     23  O   UNL     1      -4.713   4.125  14.939  1.00  0.00    -0.507 OA
ATOM     24  H   UNL     1      -5.455   4.527  14.381  1.00  0.00     0.293 HD
ENDBRANCH   9  23
BRANCH   7  25
ATOM     25  O   UNL     1      -5.622  -0.497  13.903  1.00  0.00    -0.508 OA
ATOM     26  H   UNL     1      -5.101  -1.343  13.705  1.00  0.00     0.293 HD
ENDBRANCH   7  25
TORSDOF 6
ENDMDL
