MODEL 1
REMARK VINA RESULT:    -5.151      0.000      0.000
REMARK INTER + INTRA:         -13.269
REMARK INTER:                 -11.173
REMARK INTRA:                  -2.096
REMARK UNBOUND:                -2.096
REMARK SMILES CCCCCCCCCCCCCCCCCCCCCC(=O)[O-]
REMARK SMILES IDX 12 1 11 2 10 3 9 4 8 5 7 6 6 7 5 8 4 9 3 10 2 11 1 12 13 13
REMARK SMILES IDX 14 14 15 15 16 16 17 17 18 18 19 19 20 20 21 21 22 22 23 23
REMARK SMILES IDX 24 24
REMARK H PARENT
REMARK Flexibility Score: inf
ROOT
ATOM      1  C   UNL     1      41.304 117.901  10.537  1.00  0.00     0.000 C 
ENDROOT
BRANCH   1   2
ATOM      2  C   UNL     1      40.345 117.483  11.673  1.00  0.00     0.000 C 
BRANCH   2   3
ATOM      3  C   UNL     1      41.027 116.592  12.728  1.00  0.00     0.000 C 
BRANCH   3   4
ATOM      4  C   UNL     1      40.834 117.120  14.160  1.00  0.00    -0.000 C 
BRANCH   4   5
ATOM      5  C   UNL     1      39.822 118.274  14.236  1.00  0.00    -0.000 C 
BRANCH   5   6
ATOM      6  C   UNL     1      38.655 117.922  15.171  1.00  0.00    -0.000 C 
BRANCH   6   7
ATOM      7  C   UNL     1      37.528 117.152  14.456  1.00  0.00    -0.000 C 
BRANCH   7   8
ATOM      8  C   UNL     1      36.283 117.993  14.098  1.00  0.00    -0.000 C 
BRANCH   8   9
ATOM      9  C   UNL     1      36.193 119.365  14.795  1.00  0.00    -0.000 C 
BRANCH   9  10
ATOM     10  C   UNL     1      36.745 120.510  13.928  1.00  0.00    -0.000 C 
BRANCH  10  11
ATOM     11  C   UNL     1      37.140 121.740  14.758  1.00  0.00    -0.003 C 
ATOM     12  C   UNL     1      36.599 121.691  16.187  1.00  0.00     0.004 C 
ENDBRANCH  10  11
ENDBRANCH   9  10
ENDBRANCH   8   9
ENDBRANCH   7   8
ENDBRANCH   6   7
ENDBRANCH   5   6
ENDBRANCH   4   5
ENDBRANCH   3   4
ENDBRANCH   2   3
ENDBRANCH   1   2
BRANCH   1  13
ATOM     13  C   UNL     1      42.558 117.010  10.417  1.00  0.00     0.000 C 
BRANCH  13  14
ATOM     14  C   UNL     1      43.031 116.735   8.976  1.00  0.00     0.000 C 
BRANCH  14  15
ATOM     15  C   UNL     1      44.428 116.095   8.862  1.00  0.00     0.000 C 
BRANCH  15  16
ATOM     16  C   UNL     1      44.372 114.592   8.547  1.00  0.00     0.000 C 
BRANCH  16  17
ATOM     17  C   UNL     1      44.962 113.769   9.701  1.00  0.00     0.000 C 
BRANCH  17  18
ATOM     18  C   UNL     1      44.031 113.707  10.923  1.00  0.00     0.000 C 
BRANCH  18  19
ATOM     19  C   UNL     1      44.695 113.040  12.141  1.00  0.00     0.000 C 
BRANCH  19  20
ATOM     20  C   UNL     1      45.355 114.063  13.081  1.00  0.00     0.006 C 
BRANCH  20  21
ATOM     21  C   UNL     1      44.678 115.443  13.009  1.00  0.00     0.053 C 
BRANCH  21  22
ATOM     22  C   UNL     1      45.683 116.556  12.948  1.00  0.00     0.041 C 
ATOM     23  O   UNL     1      46.417 116.814  13.940  1.00  0.00    -0.550 OA
ATOM     24  O   UNL     1      45.756 117.356  11.815  1.00  0.00    -0.550 OA
ENDBRANCH  21  22
ENDBRANCH  20  21
ENDBRANCH  19  20
ENDBRANCH  18  19
ENDBRANCH  17  18
ENDBRANCH  16  17
ENDBRANCH  15  16
ENDBRANCH  14  15
ENDBRANCH  13  14
ENDBRANCH   1  13
TORSDOF 20
ENDMDL
MODEL 2
REMARK VINA RESULT:    -5.031      3.031      8.247
REMARK INTER + INTRA:         -13.010
REMARK INTER:                 -10.391
REMARK INTRA:                  -2.619
REMARK UNBOUND:                -2.096
REMARK SMILES CCCCCCCCCCCCCCCCCCCCCC(=O)[O-]
REMARK SMILES IDX 12 1 11 2 10 3 9 4 8 5 7 6 6 7 5 8 4 9 3 10 2 11 1 12 13 13
REMARK SMILES IDX 14 14 15 15 16 16 17 17 18 18 19 19 20 20 21 21 22 22 23 23
REMARK SMILES IDX 24 24
REMARK H PARENT
REMARK Flexibility Score: inf
ROOT
ATOM      1  C   UNL     1      41.395 117.865  10.507  1.00  0.00     0.000 C 
ENDROOT
BRANCH   1   2
ATOM      2  C   UNL     1      42.610 116.915  10.553  1.00  0.00     0.000 C 
BRANCH   2   3
ATOM      3  C   UNL     1      43.309 116.778   9.187  1.00  0.00     0.000 C 
BRANCH   3   4
ATOM      4  C   UNL     1      43.840 115.356   8.934  1.00  0.00    -0.000 C 
BRANCH   4   5
ATOM      5  C   UNL     1      43.754 114.460  10.180  1.00  0.00    -0.000 C 
BRANCH   5   6
ATOM      6  C   UNL     1      45.108 113.798  10.476  1.00  0.00    -0.000 C 
BRANCH   6   7
ATOM      7  C   UNL     1      45.142 113.094  11.846  1.00  0.00    -0.000 C 
BRANCH   7   8
ATOM      8  C   UNL     1      44.157 113.653  12.896  1.00  0.00    -0.000 C 
BRANCH   8   9
ATOM      9  C   UNL     1      44.752 113.883  14.299  1.00  0.00    -0.000 C 
BRANCH   9  10
ATOM     10  C   UNL     1      45.125 115.353  14.553  1.00  0.00    -0.000 C 
BRANCH  10  11
ATOM     11  C   UNL     1      44.537 116.302  13.498  1.00  0.00    -0.003 C 
ATOM     12  C   UNL     1      45.610 116.995  12.659  1.00  0.00     0.004 C 
ENDBRANCH  10  11
ENDBRANCH   9  10
ENDBRANCH   8   9
ENDBRANCH   7   8
ENDBRANCH   6   7
ENDBRANCH   5   6
ENDBRANCH   4   5
ENDBRANCH   3   4
ENDBRANCH   2   3
ENDBRANCH   1   2
BRANCH   1  13
ATOM     13  C   UNL     1      40.432 117.708  11.702  1.00  0.00     0.000 C 
BRANCH  13  14
ATOM     14  C   UNL     1      40.883 116.701  12.779  1.00  0.00     0.000 C 
BRANCH  14  15
ATOM     15  C   UNL     1      40.841 117.233  14.225  1.00  0.00     0.000 C 
BRANCH  15  16
ATOM     16  C   UNL     1      39.434 117.671  14.660  1.00  0.00     0.000 C 
BRANCH  16  17
ATOM     17  C   UNL     1      38.526 116.453  14.879  1.00  0.00     0.000 C 
BRANCH  17  18
ATOM     18  C   UNL     1      37.079 116.701  14.422  1.00  0.00     0.000 C 
BRANCH  18  19
ATOM     19  C   UNL     1      36.998 117.293  13.003  1.00  0.00     0.000 C 
BRANCH  19  20
ATOM     20  C   UNL     1      35.912 118.375  12.881  1.00  0.00     0.006 C 
BRANCH  20  21
ATOM     21  C   UNL     1      35.506 118.952  14.250  1.00  0.00     0.053 C 
BRANCH  21  22
ATOM     22  C   UNL     1      36.410 120.072  14.674  1.00  0.00     0.041 C 
ATOM     23  O   UNL     1      36.513 120.389  15.890  1.00  0.00    -0.550 OA
ATOM     24  O   UNL     1      37.084 120.815  13.713  1.00  0.00    -0.550 OA
ENDBRANCH  21  22
ENDBRANCH  20  21
ENDBRANCH  19  20
ENDBRANCH  18  19
ENDBRANCH  17  18
ENDBRANCH  16  17
ENDBRANCH  15  16
ENDBRANCH  14  15
ENDBRANCH  13  14
ENDBRANCH   1  13
TORSDOF 20
ENDMDL
MODEL 3
REMARK VINA RESULT:    -4.910      2.816      8.644
REMARK INTER + INTRA:         -12.746
REMARK INTER:                 -10.269
REMARK INTRA:                  -2.476
REMARK UNBOUND:                -2.096
REMARK SMILES CCCCCCCCCCCCCCCCCCCCCC(=O)[O-]
REMARK SMILES IDX 12 1 11 2 10 3 9 4 8 5 7 6 6 7 5 8 4 9 3 10 2 11 1 12 13 13
REMARK SMILES IDX 14 14 15 15 16 16 17 17 18 18 19 19 20 20 21 21 22 22 23 23
REMARK SMILES IDX 24 24
REMARK H PARENT
REMARK Flexibility Score: inf
ROOT
ATOM      1  C   UNL     1      40.749 117.474  11.335  1.00  0.00     0.000 C 
ENDROOT
BRANCH   1   2
ATOM      2  C   UNL     1      42.050 116.705  11.651  1.00  0.00     0.000 C 
BRANCH   2   3
ATOM      3  C   UNL     1      43.181 117.016  10.653  1.00  0.00     0.000 C 
BRANCH   3   4
ATOM      4  C   UNL     1      42.667 117.198   9.215  1.00  0.00    -0.000 C 
BRANCH   4   5
ATOM      5  C   UNL     1      43.540 116.476   8.176  1.00  0.00    -0.000 C 
BRANCH   5   6
ATOM      6  C   UNL     1      44.751 115.808   8.844  1.00  0.00    -0.000 C 
BRANCH   6   7
ATOM      7  C   UNL     1      44.897 114.322   8.467  1.00  0.00    -0.000 C 
BRANCH   7   8
ATOM      8  C   UNL     1      45.375 113.398   9.608  1.00  0.00    -0.000 C 
BRANCH   8   9
ATOM      9  C   UNL     1      45.132 113.933  11.033  1.00  0.00    -0.000 C 
BRANCH   9  10
ATOM     10  C   UNL     1      43.872 113.337  11.685  1.00  0.00    -0.000 C 
BRANCH  10  11
ATOM     11  C   UNL     1      43.716 113.753  13.155  1.00  0.00    -0.003 C 
ATOM     12  C   UNL     1      44.739 114.805  13.586  1.00  0.00     0.004 C 
ENDBRANCH  10  11
ENDBRANCH   9  10
ENDBRANCH   8   9
ENDBRANCH   7   8
ENDBRANCH   6   7
ENDBRANCH   5   6
ENDBRANCH   4   5
ENDBRANCH   3   4
ENDBRANCH   2   3
ENDBRANCH   1   2
BRANCH   1  13
ATOM     13  C   UNL     1      39.750 117.523  12.508  1.00  0.00     0.000 C 
BRANCH  13  14
ATOM     14  C   UNL     1      40.334 117.146  13.883  1.00  0.00     0.000 C 
BRANCH  14  15
ATOM     15  C   UNL     1      39.505 117.617  15.094  1.00  0.00     0.000 C 
BRANCH  15  16
ATOM     16  C   UNL     1      38.893 116.453  15.888  1.00  0.00     0.000 C 
BRANCH  16  17
ATOM     17  C   UNL     1      37.534 116.046  15.304  1.00  0.00     0.000 C 
BRANCH  17  18
ATOM     18  C   UNL     1      36.653 117.256  14.950  1.00  0.00     0.000 C 
BRANCH  18  19
ATOM     19  C   UNL     1      36.293 117.311  13.454  1.00  0.00     0.000 C 
BRANCH  19  20
ATOM     20  C   UNL     1      36.056 118.748  12.962  1.00  0.00     0.006 C 
BRANCH  20  21
ATOM     21  C   UNL     1      36.059 119.768  14.114  1.00  0.00     0.053 C 
BRANCH  21  22
ATOM     22  C   UNL     1      37.208 120.727  14.008  1.00  0.00     0.041 C 
ATOM     23  O   UNL     1      37.211 121.803  14.666  1.00  0.00    -0.550 OA
ATOM     24  O   UNL     1      38.246 120.464  13.123  1.00  0.00    -0.550 OA
ENDBRANCH  21  22
ENDBRANCH  20  21
ENDBRANCH  19  20
ENDBRANCH  18  19
ENDBRANCH  17  18
ENDBRANCH  16  17
ENDBRANCH  15  16
ENDBRANCH  14  15
ENDBRANCH  13  14
ENDBRANCH   1  13
TORSDOF 20
ENDMDL
MODEL 4
REMARK VINA RESULT:    -4.892      3.053      4.528
REMARK INTER + INTRA:         -12.708
REMARK INTER:                 -11.006
REMARK INTRA:                  -1.701
REMARK UNBOUND:                -2.096
REMARK SMILES CCCCCCCCCCCCCCCCCCCCCC(=O)[O-]
REMARK SMILES IDX 12 1 11 2 10 3 9 4 8 5 7 6 6 7 5 8 4 9 3 10 2 11 1 12 13 13
REMARK SMILES IDX 14 14 15 15 16 16 17 17 18 18 19 19 20 20 21 21 22 22 23 23
REMARK SMILES IDX 24 24
REMARK H PARENT
REMARK Flexibility Score: inf
ROOT
ATOM      1  C   UNL     1      42.923 116.276   8.562  1.00  0.00     0.000 C 
ENDROOT
BRANCH   1   2
ATOM      2  C   UNL     1      42.653 117.605   9.300  1.00  0.00     0.000 C 
BRANCH   2   3
ATOM      3  C   UNL     1      41.503 117.497  10.318  1.00  0.00     0.000 C 
BRANCH   3   4
ATOM      4  C   UNL     1      41.926 116.783  11.614  1.00  0.00    -0.000 C 
BRANCH   4   5
ATOM      5  C   UNL     1      40.779 116.669  12.630  1.00  0.00    -0.000 C 
BRANCH   5   6
ATOM      6  C   UNL     1      39.537 117.433  12.147  1.00  0.00    -0.000 C 
BRANCH   6   7
ATOM      7  C   UNL     1      38.506 117.667  13.267  1.00  0.00    -0.000 C 
BRANCH   7   8
ATOM      8  C   UNL     1      37.039 117.377  12.882  1.00  0.00    -0.000 C 
BRANCH   8   9
ATOM      9  C   UNL     1      36.101 118.600  12.894  1.00  0.00    -0.000 C 
BRANCH   9  10
ATOM     10  C   UNL     1      35.499 118.874  14.282  1.00  0.00    -0.000 C 
BRANCH  10  11
ATOM     11  C   UNL     1      36.397 119.771  15.148  1.00  0.00    -0.003 C 
ATOM     12  C   UNL     1      36.988 120.946  14.369  1.00  0.00     0.004 C 
ENDBRANCH  10  11
ENDBRANCH   9  10
ENDBRANCH   8   9
ENDBRANCH   7   8
ENDBRANCH   6   7
ENDBRANCH   5   6
ENDBRANCH   4   5
ENDBRANCH   3   4
ENDBRANCH   2   3
ENDBRANCH   1   2
BRANCH   1  13
ATOM     13  C   UNL     1      44.419 115.970   8.350  1.00  0.00     0.000 C 
BRANCH  13  14
ATOM     14  C   UNL     1      45.272 115.953   9.633  1.00  0.00     0.000 C 
BRANCH  14  15
ATOM     15  C   UNL     1      45.163 114.664  10.470  1.00  0.00     0.000 C 
BRANCH  15  16
ATOM     16  C   UNL     1      44.859 113.423   9.618  1.00  0.00     0.000 C 
BRANCH  16  17
ATOM     17  C   UNL     1      46.152 112.680   9.252  1.00  0.00     0.000 C 
BRANCH  17  18
ATOM     18  C   UNL     1      45.948 111.652   8.128  1.00  0.00     0.000 C 
BRANCH  18  19
ATOM     19  C   UNL     1      45.731 112.310   6.753  1.00  0.00     0.000 C 
BRANCH  19  20
ATOM     20  C   UNL     1      46.926 113.178   6.325  1.00  0.00     0.006 C 
BRANCH  20  21
ATOM     21  C   UNL     1      46.515 114.304   5.359  1.00  0.00     0.053 C 
BRANCH  21  22
ATOM     22  C   UNL     1      47.705 114.944   4.708  1.00  0.00     0.041 C 
ATOM     23  O   UNL     1      48.825 114.366   4.705  1.00  0.00    -0.550 OA
ATOM     24  O   UNL     1      47.591 116.218   4.166  1.00  0.00    -0.550 OA
ENDBRANCH  21  22
ENDBRANCH  20  21
ENDBRANCH  19  20
ENDBRANCH  18  19
ENDBRANCH  17  18
ENDBRANCH  16  17
ENDBRANCH  15  16
ENDBRANCH  14  15
ENDBRANCH  13  14
ENDBRANCH   1  13
TORSDOF 20
ENDMDL
MODEL 5
REMARK VINA RESULT:    -4.878      1.405      1.848
REMARK INTER + INTRA:         -12.678
REMARK INTER:                 -10.686
REMARK INTRA:                  -1.992
REMARK UNBOUND:                -2.096
REMARK SMILES CCCCCCCCCCCCCCCCCCCCCC(=O)[O-]
REMARK SMILES IDX 12 1 11 2 10 3 9 4 8 5 7 6 6 7 5 8 4 9 3 10 2 11 1 12 13 13
REMARK SMILES IDX 14 14 15 15 16 16 17 17 18 18 19 19 20 20 21 21 22 22 23 23
REMARK SMILES IDX 24 24
REMARK H PARENT
REMARK Flexibility Score: inf
ROOT
ATOM      1  C   UNL     1      40.695 117.997  11.560  1.00  0.00     0.000 C 
ENDROOT
BRANCH   1   2
ATOM      2  C   UNL     1      40.789 116.751  12.467  1.00  0.00     0.000 C 
BRANCH   2   3
ATOM      3  C   UNL     1      40.843 117.110  13.964  1.00  0.00     0.000 C 
BRANCH   3   4
ATOM      4  C   UNL     1      39.660 117.988  14.405  1.00  0.00    -0.000 C 
BRANCH   4   5
ATOM      5  C   UNL     1      38.663 117.236  15.300  1.00  0.00    -0.000 C 
BRANCH   5   6
ATOM      6  C   UNL     1      37.548 116.592  14.462  1.00  0.00    -0.000 C 
BRANCH   6   7
ATOM      7  C   UNL     1      37.045 117.509  13.331  1.00  0.00    -0.000 C 
BRANCH   7   8
ATOM      8  C   UNL     1      35.732 118.264  13.633  1.00  0.00    -0.000 C 
BRANCH   8   9
ATOM      9  C   UNL     1      35.888 119.548  14.471  1.00  0.00    -0.000 C 
BRANCH   9  10
ATOM     10  C   UNL     1      36.939 120.511  13.893  1.00  0.00    -0.000 C 
BRANCH  10  11
ATOM     11  C   UNL     1      37.207 121.712  14.813  1.00  0.00    -0.003 C 
ATOM     12  C   UNL     1      36.504 121.592  16.165  1.00  0.00     0.004 C 
ENDBRANCH  10  11
ENDBRANCH   9  10
ENDBRANCH   8   9
ENDBRANCH   7   8
ENDBRANCH   6   7
ENDBRANCH   5   6
ENDBRANCH   4   5
ENDBRANCH   3   4
ENDBRANCH   2   3
ENDBRANCH   1   2
BRANCH   1  13
ATOM     13  C   UNL     1      41.621 117.944  10.327  1.00  0.00     0.000 C 
BRANCH  13  14
ATOM     14  C   UNL     1      42.646 116.794  10.326  1.00  0.00     0.000 C 
BRANCH  14  15
ATOM     15  C   UNL     1      43.223 116.439   8.942  1.00  0.00     0.000 C 
BRANCH  15  16
ATOM     16  C   UNL     1      44.698 116.014   9.000  1.00  0.00     0.000 C 
BRANCH  16  17
ATOM     17  C   UNL     1      45.064 115.498  10.398  1.00  0.00     0.000 C 
BRANCH  17  18
ATOM     18  C   UNL     1      44.999 113.965  10.501  1.00  0.00     0.000 C 
BRANCH  18  19
ATOM     19  C   UNL     1      43.851 113.479  11.405  1.00  0.00     0.000 C 
BRANCH  19  20
ATOM     20  C   UNL     1      44.258 113.420  12.887  1.00  0.00     0.006 C 
BRANCH  20  21
ATOM     21  C   UNL     1      45.743 113.060  13.071  1.00  0.00     0.053 C 
BRANCH  21  22
ATOM     22  C   UNL     1      46.346 113.762  14.252  1.00  0.00     0.041 C 
ATOM     23  O   UNL     1      47.526 114.204  14.204  1.00  0.00    -0.550 OA
ATOM     24  O   UNL     1      45.624 113.863  15.435  1.00  0.00    -0.550 OA
ENDBRANCH  21  22
ENDBRANCH  20  21
ENDBRANCH  19  20
ENDBRANCH  18  19
ENDBRANCH  17  18
ENDBRANCH  16  17
ENDBRANCH  15  16
ENDBRANCH  14  15
ENDBRANCH  13  14
ENDBRANCH   1  13
TORSDOF 20
ENDMDL
MODEL 6
REMARK VINA RESULT:    -4.852      5.001      8.317
REMARK INTER + INTRA:         -12.621
REMARK INTER:                  -9.886
REMARK INTRA:                  -2.735
REMARK UNBOUND:                -2.096
REMARK SMILES CCCCCCCCCCCCCCCCCCCCCC(=O)[O-]
REMARK SMILES IDX 12 1 11 2 10 3 9 4 8 5 7 6 6 7 5 8 4 9 3 10 2 11 1 12 13 13
REMARK SMILES IDX 14 14 15 15 16 16 17 17 18 18 19 19 20 20 21 21 22 22 23 23
REMARK SMILES IDX 24 24
REMARK H PARENT
REMARK Flexibility Score: inf
ROOT
ATOM      1  C   UNL     1      45.606 113.586   7.324  1.00  0.00     0.000 C 
ENDROOT
BRANCH   1   2
ATOM      2  C   UNL     1      45.584 113.684   8.865  1.00  0.00     0.000 C 
BRANCH   2   3
ATOM      3  C   UNL     1      44.262 114.260   9.405  1.00  0.00     0.000 C 
BRANCH   3   4
ATOM      4  C   UNL     1      43.716 115.405   8.535  1.00  0.00    -0.000 C 
BRANCH   4   5
ATOM      5  C   UNL     1      43.215 116.596   9.367  1.00  0.00    -0.000 C 
BRANCH   5   6
ATOM      6  C   UNL     1      43.973 116.695  10.699  1.00  0.00    -0.000 C 
BRANCH   6   7
ATOM      7  C   UNL     1      43.097 116.333  11.914  1.00  0.00    -0.000 C 
BRANCH   7   8
ATOM      8  C   UNL     1      43.863 115.773  13.133  1.00  0.00    -0.000 C 
BRANCH   8   9
ATOM      9  C   UNL     1      45.354 115.469  12.890  1.00  0.00    -0.000 C 
BRANCH   9  10
ATOM     10  C   UNL     1      45.737 114.028  13.270  1.00  0.00    -0.000 C 
BRANCH  10  11
ATOM     11  C   UNL     1      44.646 113.012  12.904  1.00  0.00    -0.003 C 
ATOM     12  C   UNL     1      45.182 111.831  12.094  1.00  0.00     0.004 C 
ENDBRANCH  10  11
ENDBRANCH   9  10
ENDBRANCH   8   9
ENDBRANCH   7   8
ENDBRANCH   6   7
ENDBRANCH   5   6
ENDBRANCH   4   5
ENDBRANCH   3   4
ENDBRANCH   2   3
ENDBRANCH   1   2
BRANCH   1  13
ATOM     13  C   UNL     1      45.480 112.146   6.787  1.00  0.00     0.000 C 
BRANCH  13  14
ATOM     14  C   UNL     1      46.025 111.048   7.720  1.00  0.00     0.000 C 
BRANCH  14  15
ATOM     15  C   UNL     1      47.452 110.567   7.396  1.00  0.00     0.000 C 
BRANCH  15  16
ATOM     16  C   UNL     1      48.537 111.413   8.079  1.00  0.00     0.000 C 
BRANCH  16  17
ATOM     17  C   UNL     1      49.137 112.430   7.098  1.00  0.00     0.000 C 
BRANCH  17  18
ATOM     18  C   UNL     1      49.599 111.784   5.781  1.00  0.00     0.000 C 
BRANCH  18  19
ATOM     19  C   UNL     1      49.357 112.688   4.559  1.00  0.00     0.000 C 
BRANCH  19  20
ATOM     20  C   UNL     1      48.471 113.900   4.894  1.00  0.00     0.006 C 
BRANCH  20  21
ATOM     21  C   UNL     1      48.020 114.660   3.634  1.00  0.00     0.053 C 
BRANCH  21  22
ATOM     22  C   UNL     1      46.789 115.480   3.887  1.00  0.00     0.041 C 
ATOM     23  O   UNL     1      45.976 115.723   2.954  1.00  0.00    -0.550 OA
ATOM     24  O   UNL     1      46.578 116.037   5.142  1.00  0.00    -0.550 OA
ENDBRANCH  21  22
ENDBRANCH  20  21
ENDBRANCH  19  20
ENDBRANCH  18  19
ENDBRANCH  17  18
ENDBRANCH  16  17
ENDBRANCH  15  16
ENDBRANCH  14  15
ENDBRANCH  13  14
ENDBRANCH   1  13
TORSDOF 20
ENDMDL
MODEL 7
REMARK VINA RESULT:    -4.842      3.475      6.219
REMARK INTER + INTRA:         -12.599
REMARK INTER:                  -9.791
REMARK INTRA:                  -2.808
REMARK UNBOUND:                -2.096
REMARK SMILES CCCCCCCCCCCCCCCCCCCCCC(=O)[O-]
REMARK SMILES IDX 12 1 11 2 10 3 9 4 8 5 7 6 6 7 5 8 4 9 3 10 2 11 1 12 13 13
REMARK SMILES IDX 14 14 15 15 16 16 17 17 18 18 19 19 20 20 21 21 22 22 23 23
REMARK SMILES IDX 24 24
REMARK H PARENT
REMARK Flexibility Score: inf
ROOT
ATOM      1  C   UNL     1      41.071 117.858  10.967  1.00  0.00     0.000 C 
ENDROOT
BRANCH   1   2
ATOM      2  C   UNL     1      40.146 117.117  11.957  1.00  0.00     0.000 C 
BRANCH   2   3
ATOM      3  C   UNL     1      39.852 117.941  13.225  1.00  0.00     0.000 C 
BRANCH   3   4
ATOM      4  C   UNL     1      40.328 117.240  14.509  1.00  0.00    -0.000 C 
BRANCH   4   5
ATOM      5  C   UNL     1      41.812 116.845  14.454  1.00  0.00    -0.000 C 
BRANCH   5   6
ATOM      6  C   UNL     1      42.000 115.361  14.801  1.00  0.00    -0.000 C 
BRANCH   6   7
ATOM      7  C   UNL     1      41.897 114.441  13.569  1.00  0.00    -0.000 C 
BRANCH   7   8
ATOM      8  C   UNL     1      43.237 114.131  12.867  1.00  0.00    -0.000 C 
BRANCH   8   9
ATOM      9  C   UNL     1      44.461 114.036  13.798  1.00  0.00    -0.000 C 
BRANCH   9  10
ATOM     10  C   UNL     1      45.635 114.913  13.330  1.00  0.00    -0.000 C 
BRANCH  10  11
ATOM     11  C   UNL     1      45.302 116.413  13.370  1.00  0.00    -0.003 C 
ATOM     12  C   UNL     1      45.682 117.139  12.080  1.00  0.00     0.004 C 
ENDBRANCH  10  11
ENDBRANCH   9  10
ENDBRANCH   8   9
ENDBRANCH   7   8
ENDBRANCH   6   7
ENDBRANCH   5   6
ENDBRANCH   4   5
ENDBRANCH   3   4
ENDBRANCH   2   3
ENDBRANCH   1   2
BRANCH   1  13
ATOM     13  C   UNL     1      42.381 117.107  10.653  1.00  0.00     0.000 C 
BRANCH  13  14
ATOM     14  C   UNL     1      42.810 117.128   9.173  1.00  0.00     0.000 C 
BRANCH  14  15
ATOM     15  C   UNL     1      44.073 116.306   8.850  1.00  0.00     0.000 C 
BRANCH  15  16
ATOM     16  C   UNL     1      43.838 114.790   8.938  1.00  0.00     0.000 C 
BRANCH  16  17
ATOM     17  C   UNL     1      44.955 114.108   9.740  1.00  0.00     0.000 C 
BRANCH  17  18
ATOM     18  C   UNL     1      45.866 113.234   8.864  1.00  0.00     0.000 C 
BRANCH  18  19
ATOM     19  C   UNL     1      45.318 113.048   7.437  1.00  0.00     0.000 C 
BRANCH  19  20
ATOM     20  C   UNL     1      46.433 112.791   6.410  1.00  0.00     0.006 C 
BRANCH  20  21
ATOM     21  C   UNL     1      46.737 114.033   5.555  1.00  0.00     0.053 C 
BRANCH  21  22
ATOM     22  C   UNL     1      48.137 114.011   5.014  1.00  0.00     0.041 C 
ATOM     23  O   UNL     1      48.785 112.931   4.953  1.00  0.00    -0.550 OA
ATOM     24  O   UNL     1      48.752 115.201   4.645  1.00  0.00    -0.550 OA
ENDBRANCH  21  22
ENDBRANCH  20  21
ENDBRANCH  19  20
ENDBRANCH  18  19
ENDBRANCH  17  18
ENDBRANCH  16  17
ENDBRANCH  15  16
ENDBRANCH  14  15
ENDBRANCH  13  14
ENDBRANCH   1  13
TORSDOF 20
ENDMDL
MODEL 8
REMARK VINA RESULT:    -4.788      2.583      3.057
REMARK INTER + INTRA:         -12.483
REMARK INTER:                  -9.614
REMARK INTRA:                  -2.869
REMARK UNBOUND:                -2.096
REMARK SMILES CCCCCCCCCCCCCCCCCCCCCC(=O)[O-]
REMARK SMILES IDX 12 1 11 2 10 3 9 4 8 5 7 6 6 7 5 8 4 9 3 10 2 11 1 12 13 13
REMARK SMILES IDX 14 14 15 15 16 16 17 17 18 18 19 19 20 20 21 21 22 22 23 23
REMARK SMILES IDX 24 24
REMARK H PARENT
REMARK Flexibility Score: inf
ROOT
ATOM      1  C   UNL     1      40.896 117.807  10.480  1.00  0.00     0.000 C 
ENDROOT
BRANCH   1   2
ATOM      2  C   UNL     1      40.733 117.205  11.892  1.00  0.00     0.000 C 
BRANCH   2   3
ATOM      3  C   UNL     1      39.523 117.782  12.649  1.00  0.00     0.000 C 
BRANCH   3   4
ATOM      4  C   UNL     1      39.927 118.514  13.941  1.00  0.00    -0.000 C 
BRANCH   4   5
ATOM      5  C   UNL     1      40.226 117.550  15.100  1.00  0.00    -0.000 C 
BRANCH   5   6
ATOM      6  C   UNL     1      39.021 117.436  16.045  1.00  0.00    -0.000 C 
BRANCH   6   7
ATOM      7  C   UNL     1      38.111 116.239  15.710  1.00  0.00    -0.000 C 
BRANCH   7   8
ATOM      8  C   UNL     1      36.802 116.596  14.972  1.00  0.00    -0.000 C 
BRANCH   8   9
ATOM      9  C   UNL     1      36.333 118.055  15.131  1.00  0.00    -0.000 C 
BRANCH   9  10
ATOM     10  C   UNL     1      35.751 118.638  13.832  1.00  0.00    -0.000 C 
BRANCH  10  11
ATOM     11  C   UNL     1      36.542 119.853  13.324  1.00  0.00    -0.003 C 
ATOM     12  C   UNL     1      36.967 120.797  14.449  1.00  0.00     0.004 C 
ENDBRANCH  10  11
ENDBRANCH   9  10
ENDBRANCH   8   9
ENDBRANCH   7   8
ENDBRANCH   6   7
ENDBRANCH   5   6
ENDBRANCH   4   5
ENDBRANCH   3   4
ENDBRANCH   2   3
ENDBRANCH   1   2
BRANCH   1  13
ATOM     13  C   UNL     1      42.354 117.842   9.978  1.00  0.00     0.000 C 
BRANCH  13  14
ATOM     14  C   UNL     1      42.635 116.995   8.722  1.00  0.00     0.000 C 
BRANCH  14  15
ATOM     15  C   UNL     1      43.873 116.083   8.817  1.00  0.00     0.000 C 
BRANCH  15  16
ATOM     16  C   UNL     1      43.763 115.040   9.939  1.00  0.00     0.000 C 
BRANCH  16  17
ATOM     17  C   UNL     1      44.703 115.387  11.102  1.00  0.00     0.000 C 
BRANCH  17  18
ATOM     18  C   UNL     1      43.974 115.460  12.454  1.00  0.00     0.000 C 
BRANCH  18  19
ATOM     19  C   UNL     1      43.011 114.279  12.673  1.00  0.00     0.000 C 
BRANCH  19  20
ATOM     20  C   UNL     1      42.057 114.515  13.856  1.00  0.00     0.006 C 
BRANCH  20  21
ATOM     21  C   UNL     1      42.497 113.755  15.121  1.00  0.00     0.053 C 
BRANCH  21  22
ATOM     22  C   UNL     1      41.359 113.561  16.080  1.00  0.00     0.041 C 
ATOM     23  O   UNL     1      40.980 114.503  16.827  1.00  0.00    -0.550 OA
ATOM     24  O   UNL     1      40.765 112.311  16.200  1.00  0.00    -0.550 OA
ENDBRANCH  21  22
ENDBRANCH  20  21
ENDBRANCH  19  20
ENDBRANCH  18  19
ENDBRANCH  17  18
ENDBRANCH  16  17
ENDBRANCH  15  16
ENDBRANCH  14  15
ENDBRANCH  13  14
ENDBRANCH   1  13
TORSDOF 20
ENDMDL
MODEL 9
REMARK VINA RESULT:    -4.784      3.383      7.639
REMARK INTER + INTRA:         -12.474
REMARK INTER:                  -9.863
REMARK INTRA:                  -2.611
REMARK UNBOUND:                -2.096
REMARK SMILES CCCCCCCCCCCCCCCCCCCCCC(=O)[O-]
REMARK SMILES IDX 12 1 11 2 10 3 9 4 8 5 7 6 6 7 5 8 4 9 3 10 2 11 1 12 13 13
REMARK SMILES IDX 14 14 15 15 16 16 17 17 18 18 19 19 20 20 21 21 22 22 23 23
REMARK SMILES IDX 24 24
REMARK H PARENT
REMARK Flexibility Score: inf
ROOT
ATOM      1  C   UNL     1      44.671 114.233   9.894  1.00  0.00     0.000 C 
ENDROOT
BRANCH   1   2
ATOM      2  C   UNL     1      43.653 113.955  11.021  1.00  0.00     0.000 C 
BRANCH   2   3
ATOM      3  C   UNL     1      44.143 112.882  12.012  1.00  0.00     0.000 C 
BRANCH   3   4
ATOM      4  C   UNL     1      45.675 112.750  12.031  1.00  0.00    -0.000 C 
BRANCH   4   5
ATOM      5  C   UNL     1      46.274 112.983  13.427  1.00  0.00    -0.000 C 
BRANCH   5   6
ATOM      6  C   UNL     1      45.668 112.013  14.454  1.00  0.00    -0.000 C 
BRANCH   6   7
ATOM      7  C   UNL     1      44.865 112.733  15.553  1.00  0.00    -0.000 C 
BRANCH   7   8
ATOM      8  C   UNL     1      44.883 114.275  15.478  1.00  0.00    -0.000 C 
BRANCH   8   9
ATOM      9  C   UNL     1      43.609 114.921  14.901  1.00  0.00    -0.000 C 
BRANCH   9  10
ATOM     10  C   UNL     1      43.834 116.372  14.440  1.00  0.00    -0.000 C 
BRANCH  10  11
ATOM     11  C   UNL     1      45.289 116.641  14.028  1.00  0.00    -0.003 C 
ATOM     12  C   UNL     1      45.443 116.895  12.528  1.00  0.00     0.004 C 
ENDBRANCH  10  11
ENDBRANCH   9  10
ENDBRANCH   8   9
ENDBRANCH   7   8
ENDBRANCH   6   7
ENDBRANCH   5   6
ENDBRANCH   4   5
ENDBRANCH   3   4
ENDBRANCH   2   3
ENDBRANCH   1   2
BRANCH   1  13
ATOM     13  C   UNL     1      44.171 115.235   8.833  1.00  0.00     0.000 C 
BRANCH  13  14
ATOM     14  C   UNL     1      43.811 116.633   9.370  1.00  0.00     0.000 C 
BRANCH  14  15
ATOM     15  C   UNL     1      42.385 117.112   9.032  1.00  0.00     0.000 C 
BRANCH  15  16
ATOM     16  C   UNL     1      41.783 118.011  10.122  1.00  0.00     0.000 C 
BRANCH  16  17
ATOM     17  C   UNL     1      41.465 117.200  11.386  1.00  0.00     0.000 C 
BRANCH  17  18
ATOM     18  C   UNL     1      40.079 117.524  11.968  1.00  0.00     0.000 C 
BRANCH  18  19
ATOM     19  C   UNL     1      40.052 118.864  12.725  1.00  0.00     0.000 C 
BRANCH  19  20
ATOM     20  C   UNL     1      38.881 118.951  13.718  1.00  0.00     0.006 C 
BRANCH  20  21
ATOM     21  C   UNL     1      37.917 120.104  13.384  1.00  0.00     0.053 C 
BRANCH  21  22
ATOM     22  C   UNL     1      36.483 119.708  13.584  1.00  0.00     0.041 C 
ATOM     23  O   UNL     1      35.769 119.365  12.603  1.00  0.00    -0.550 OA
ATOM     24  O   UNL     1      35.916 119.790  14.849  1.00  0.00    -0.550 OA
ENDBRANCH  21  22
ENDBRANCH  20  21
ENDBRANCH  19  20
ENDBRANCH  18  19
ENDBRANCH  17  18
ENDBRANCH  16  17
ENDBRANCH  15  16
ENDBRANCH  14  15
ENDBRANCH  13  14
ENDBRANCH   1  13
TORSDOF 20
ENDMDL
