MODEL 1
REMARK VINA RESULT:    -3.262      0.000      0.000
REMARK INTER + INTRA:          -7.750
REMARK INTER:                  -5.741
REMARK INTRA:                  -2.009
REMARK UNBOUND:                -2.009
REMARK SMILES CCCCCCC=CCCCCCCCC(=O)[O-]
REMARK SMILES IDX 10 1 11 2 12 3 13 4 14 5 15 6 16 7 17 8 18 9 9 10 8 11 7 12
REMARK SMILES IDX 6 13 5 14 4 15 3 16 2 17 1 18
REMARK H PARENT
REMARK Flexibility Score: inf
ROOT
ATOM      1  C   UNL     1      -9.369  27.298 -21.559  1.00  0.00     0.004 C 
ENDROOT
BRANCH   1   2
ATOM      2  C   UNL     1      -8.315  28.418 -21.535  1.00  0.00     0.000 C 
BRANCH   2   3
ATOM      3  C   UNL     1      -7.380  28.383 -22.757  1.00  0.00     0.000 C 
BRANCH   3   4
ATOM      4  C   UNL     1      -6.095  29.224 -22.624  1.00  0.00     0.000 C 
BRANCH   4   5
ATOM      5  C   UNL     1      -5.669  29.975 -23.902  1.00  0.00     0.006 C 
BRANCH   5   6
ATOM      6  C   UNL     1      -6.471  31.255 -24.183  1.00  0.00     0.053 C 
BRANCH   6   7
ATOM      7  C   UNL     1      -7.344  31.112 -25.392  1.00  0.00     0.041 C 
ATOM      8  O   UNL     1      -8.010  32.095 -25.813  1.00  0.00    -0.550 OA
ATOM      9  O   UNL     1      -7.395  29.903 -26.075  1.00  0.00    -0.550 OA
ENDBRANCH   6   7
ENDBRANCH   5   6
ENDBRANCH   4   5
ENDBRANCH   3   4
ENDBRANCH   2   3
ENDBRANCH   1   2
BRANCH   1  10
ATOM     10  C   UNL     1      -8.766  25.929 -21.209  1.00  0.00     0.027 C 
BRANCH  10  11
ATOM     11  C   UNL     1      -8.865  24.951 -22.349  1.00  0.00    -0.031 C 
ATOM     12  C   UNL     1      -9.283  25.331 -23.566  1.00  0.00    -0.031 C 
BRANCH  12  13
ATOM     13  C   UNL     1      -9.367  24.356 -24.706  1.00  0.00     0.027 C 
BRANCH  13  14
ATOM     14  C   UNL     1      -8.763  24.948 -25.985  1.00  0.00     0.004 C 
BRANCH  14  15
ATOM     15  C   UNL     1      -8.306  26.394 -25.761  1.00  0.00     0.000 C 
BRANCH  15  16
ATOM     16  C   UNL     1      -6.801  26.542 -26.031  1.00  0.00    -0.000 C 
BRANCH  16  17
ATOM     17  C   UNL     1      -5.939  25.818 -24.985  1.00  0.00    -0.003 C 
ATOM     18  C   UNL     1      -4.600  26.512 -24.740  1.00  0.00     0.004 C 
ENDBRANCH  16  17
ENDBRANCH  15  16
ENDBRANCH  14  15
ENDBRANCH  13  14
ENDBRANCH  12  13
ENDBRANCH  10  11
ENDBRANCH   1  10
TORSDOF 13
ENDMDL
MODEL 2
REMARK VINA RESULT:    -3.243      3.987      6.568
REMARK INTER + INTRA:          -7.717
REMARK INTER:                  -5.758
REMARK INTRA:                  -1.960
REMARK UNBOUND:                -2.009
REMARK SMILES CCCCCCC=CCCCCCCCC(=O)[O-]
REMARK SMILES IDX 10 1 11 2 12 3 13 4 14 5 15 6 16 7 17 8 18 9 9 10 8 11 7 12
REMARK SMILES IDX 6 13 5 14 4 15 3 16 2 17 1 18
REMARK H PARENT
REMARK Flexibility Score: inf
ROOT
ATOM      1  C   UNL     1      -8.281  23.427 -24.908  1.00  0.00     0.004 C 
ENDROOT
BRANCH   1   2
ATOM      2  C   UNL     1      -8.008  22.721 -23.569  1.00  0.00     0.000 C 
BRANCH   2   3
ATOM      3  C   UNL     1      -9.285  22.163 -22.918  1.00  0.00     0.000 C 
BRANCH   3   4
ATOM      4  C   UNL     1      -9.488  22.547 -21.439  1.00  0.00     0.000 C 
BRANCH   4   5
ATOM      5  C   UNL     1      -8.214  23.006 -20.701  1.00  0.00     0.006 C 
BRANCH   5   6
ATOM      6  C   UNL     1      -8.425  24.197 -19.753  1.00  0.00     0.053 C 
BRANCH   6   7
ATOM      7  C   UNL     1      -8.483  23.767 -18.320  1.00  0.00     0.041 C 
ATOM      8  O   UNL     1      -8.069  22.627 -17.982  1.00  0.00    -0.550 OA
ATOM      9  O   UNL     1      -8.962  24.640 -17.351  1.00  0.00    -0.550 OA
ENDBRANCH   6   7
ENDBRANCH   5   6
ENDBRANCH   4   5
ENDBRANCH   3   4
ENDBRANCH   2   3
ENDBRANCH   1   2
BRANCH   1  10
ATOM     10  C   UNL     1      -9.213  24.638 -24.745  1.00  0.00     0.027 C 
BRANCH  10  11
ATOM     11  C   UNL     1      -8.643  25.677 -23.817  1.00  0.00    -0.031 C 
ATOM     12  C   UNL     1      -9.358  26.179 -22.799  1.00  0.00    -0.031 C 
BRANCH  12  13
ATOM     13  C   UNL     1      -8.781  27.206 -21.865  1.00  0.00     0.027 C 
BRANCH  13  14
ATOM     14  C   UNL     1      -7.352  27.582 -22.274  1.00  0.00     0.004 C 
BRANCH  14  15
ATOM     15  C   UNL     1      -7.189  29.103 -22.375  1.00  0.00     0.000 C 
BRANCH  15  16
ATOM     16  C   UNL     1      -6.385  29.487 -23.627  1.00  0.00    -0.000 C 
BRANCH  16  17
ATOM     17  C   UNL     1      -6.319  28.350 -24.658  1.00  0.00    -0.003 C 
ATOM     18  C   UNL     1      -7.247  28.579 -25.850  1.00  0.00     0.004 C 
ENDBRANCH  16  17
ENDBRANCH  15  16
ENDBRANCH  14  15
ENDBRANCH  13  14
ENDBRANCH  12  13
ENDBRANCH  10  11
ENDBRANCH   1  10
TORSDOF 13
ENDMDL
MODEL 3
REMARK VINA RESULT:    -3.240      4.054      6.524
REMARK INTER + INTRA:          -7.712
REMARK INTER:                  -6.607
REMARK INTRA:                  -1.105
REMARK UNBOUND:                -2.009
REMARK SMILES CCCCCCC=CCCCCCCCC(=O)[O-]
REMARK SMILES IDX 10 1 11 2 12 3 13 4 14 5 15 6 16 7 17 8 18 9 9 10 8 11 7 12
REMARK SMILES IDX 6 13 5 14 4 15 3 16 2 17 1 18
REMARK H PARENT
REMARK Flexibility Score: inf
ROOT
ATOM      1  C   UNL     1      -9.163  27.153 -21.332  1.00  0.00     0.004 C 
ENDROOT
BRANCH   1   2
ATOM      2  C   UNL     1      -9.300  26.276 -22.589  1.00  0.00     0.000 C 
BRANCH   2   3
ATOM      3  C   UNL     1      -8.920  24.807 -22.335  1.00  0.00     0.000 C 
BRANCH   3   4
ATOM      4  C   UNL     1      -8.575  24.462 -20.872  1.00  0.00     0.000 C 
BRANCH   4   5
ATOM      5  C   UNL     1      -7.347  23.547 -20.688  1.00  0.00     0.006 C 
BRANCH   5   6
ATOM      6  C   UNL     1      -6.889  23.387 -19.231  1.00  0.00     0.053 C 
BRANCH   6   7
ATOM      7  C   UNL     1      -8.046  23.187 -18.300  1.00  0.00     0.041 C 
ATOM      8  O   UNL     1      -8.648  22.081 -18.266  1.00  0.00    -0.550 OA
ATOM      9  O   UNL     1      -8.437  24.210 -17.446  1.00  0.00    -0.550 OA
ENDBRANCH   6   7
ENDBRANCH   5   6
ENDBRANCH   4   5
ENDBRANCH   3   4
ENDBRANCH   2   3
ENDBRANCH   1   2
BRANCH   1  10
ATOM     10  C   UNL     1      -8.260  28.372 -21.573  1.00  0.00     0.027 C 
BRANCH  10  11
ATOM     11  C   UNL     1      -7.229  28.119 -22.640  1.00  0.00    -0.031 C 
ATOM     12  C   UNL     1      -7.063  28.960 -23.672  1.00  0.00    -0.031 C 
BRANCH  12  13
ATOM     13  C   UNL     1      -6.024  28.712 -24.728  1.00  0.00     0.027 C 
BRANCH  13  14
ATOM     14  C   UNL     1      -6.669  28.248 -26.039  1.00  0.00     0.004 C 
BRANCH  14  15
ATOM     15  C   UNL     1      -6.628  29.358 -27.097  1.00  0.00     0.000 C 
BRANCH  15  16
ATOM     16  C   UNL     1      -7.978  30.085 -27.182  1.00  0.00    -0.000 C 
BRANCH  16  17
ATOM     17  C   UNL     1      -7.844  31.604 -26.989  1.00  0.00    -0.003 C 
ATOM     18  C   UNL     1      -7.533  31.991 -25.544  1.00  0.00     0.004 C 
ENDBRANCH  16  17
ENDBRANCH  15  16
ENDBRANCH  14  15
ENDBRANCH  13  14
ENDBRANCH  12  13
ENDBRANCH  10  11
ENDBRANCH   1  10
TORSDOF 13
ENDMDL
MODEL 4
REMARK VINA RESULT:    -3.235      4.173      6.417
REMARK INTER + INTRA:          -7.702
REMARK INTER:                  -5.016
REMARK INTRA:                  -2.686
REMARK UNBOUND:                -2.009
REMARK SMILES CCCCCCC=CCCCCCCCC(=O)[O-]
REMARK SMILES IDX 10 1 11 2 12 3 13 4 14 5 15 6 16 7 17 8 18 9 9 10 8 11 7 12
REMARK SMILES IDX 6 13 5 14 4 15 3 16 2 17 1 18
REMARK H PARENT
REMARK Flexibility Score: inf
ROOT
ATOM      1  C   UNL     1      -9.763  24.061 -24.143  1.00  0.00     0.004 C 
ENDROOT
BRANCH   1   2
ATOM      2  C   UNL     1      -9.134  22.669 -24.323  1.00  0.00     0.000 C 
BRANCH   2   3
ATOM      3  C   UNL     1      -8.676  22.045 -22.993  1.00  0.00     0.000 C 
BRANCH   3   4
ATOM      4  C   UNL     1      -9.212  22.739 -21.724  1.00  0.00     0.000 C 
BRANCH   4   5
ATOM      5  C   UNL     1      -8.133  23.349 -20.807  1.00  0.00     0.006 C 
BRANCH   5   6
ATOM      6  C   UNL     1      -8.657  24.421 -19.838  1.00  0.00     0.053 C 
BRANCH   6   7
ATOM      7  C   UNL     1      -8.684  23.930 -18.423  1.00  0.00     0.041 C 
ATOM      8  O   UNL     1      -9.095  24.680 -17.499  1.00  0.00    -0.550 OA
ATOM      9  O   UNL     1      -8.288  22.631 -18.130  1.00  0.00    -0.550 OA
ENDBRANCH   6   7
ENDBRANCH   5   6
ENDBRANCH   4   5
ENDBRANCH   3   4
ENDBRANCH   2   3
ENDBRANCH   1   2
BRANCH   1  10
ATOM     10  C   UNL     1      -9.163  25.096 -25.107  1.00  0.00     0.027 C 
BRANCH  10  11
ATOM     11  C   UNL     1      -8.516  26.245 -24.381  1.00  0.00    -0.031 C 
ATOM     12  C   UNL     1      -8.549  26.340 -23.043  1.00  0.00    -0.031 C 
BRANCH  12  13
ATOM     13  C   UNL     1      -7.889  27.481 -22.321  1.00  0.00     0.027 C 
BRANCH  13  14
ATOM     14  C   UNL     1      -6.363  27.407 -22.450  1.00  0.00     0.004 C 
BRANCH  14  15
ATOM     15  C   UNL     1      -5.831  26.061 -21.945  1.00  0.00     0.000 C 
BRANCH  15  16
ATOM     16  C   UNL     1      -4.986  25.365 -23.023  1.00  0.00    -0.000 C 
BRANCH  16  17
ATOM     17  C   UNL     1      -5.588  24.025 -23.473  1.00  0.00    -0.003 C 
ATOM     18  C   UNL     1      -5.655  23.889 -24.994  1.00  0.00     0.004 C 
ENDBRANCH  16  17
ENDBRANCH  15  16
ENDBRANCH  14  15
ENDBRANCH  13  14
ENDBRANCH  12  13
ENDBRANCH  10  11
ENDBRANCH   1  10
TORSDOF 13
ENDMDL
MODEL 5
REMARK VINA RESULT:    -3.200      3.921      5.964
REMARK INTER + INTRA:          -7.641
REMARK INTER:                  -5.646
REMARK INTRA:                  -1.994
REMARK UNBOUND:                -2.009
REMARK SMILES CCCCCCC=CCCCCCCCC(=O)[O-]
REMARK SMILES IDX 10 1 11 2 12 3 13 4 14 5 15 6 16 7 17 8 18 9 9 10 8 11 7 12
REMARK SMILES IDX 6 13 5 14 4 15 3 16 2 17 1 18
REMARK H PARENT
REMARK Flexibility Score: inf
ROOT
ATOM      1  C   UNL     1      -5.099  28.988 -23.164  1.00  0.00     0.004 C 
ENDROOT
BRANCH   1   2
ATOM      2  C   UNL     1      -4.900  27.484 -22.911  1.00  0.00     0.000 C 
BRANCH   2   3
ATOM      3  C   UNL     1      -4.167  27.193 -21.590  1.00  0.00     0.000 C 
BRANCH   3   4
ATOM      4  C   UNL     1      -3.954  25.699 -21.274  1.00  0.00     0.000 C 
BRANCH   4   5
ATOM      5  C   UNL     1      -5.247  24.878 -21.089  1.00  0.00     0.006 C 
BRANCH   5   6
ATOM      6  C   UNL     1      -5.077  23.611 -20.236  1.00  0.00     0.053 C 
BRANCH   6   7
ATOM      7  C   UNL     1      -4.996  22.377 -21.080  1.00  0.00     0.041 C 
ATOM      8  O   UNL     1      -4.015  21.595 -20.968  1.00  0.00    -0.550 OA
ATOM      9  O   UNL     1      -6.020  22.071 -21.967  1.00  0.00    -0.550 OA
ENDBRANCH   6   7
ENDBRANCH   5   6
ENDBRANCH   4   5
ENDBRANCH   3   4
ENDBRANCH   2   3
ENDBRANCH   1   2
BRANCH   1  10
ATOM     10  C   UNL     1      -6.407  29.509 -22.549  1.00  0.00     0.027 C 
BRANCH  10  11
ATOM     11  C   UNL     1      -7.515  28.493 -22.614  1.00  0.00    -0.031 C 
ATOM     12  C   UNL     1      -8.288  28.226 -21.551  1.00  0.00    -0.031 C 
BRANCH  12  13
ATOM     13  C   UNL     1      -9.403  27.221 -21.623  1.00  0.00     0.027 C 
BRANCH  13  14
ATOM     14  C   UNL     1      -8.862  25.789 -21.543  1.00  0.00     0.004 C 
BRANCH  14  15
ATOM     15  C   UNL     1      -9.032  25.059 -22.881  1.00  0.00     0.000 C 
BRANCH  15  16
ATOM     16  C   UNL     1      -7.694  24.961 -23.628  1.00  0.00    -0.000 C 
BRANCH  16  17
ATOM     17  C   UNL     1      -7.733  25.643 -25.004  1.00  0.00    -0.003 C 
ATOM     18  C   UNL     1      -9.116  26.196 -25.350  1.00  0.00     0.004 C 
ENDBRANCH  16  17
ENDBRANCH  15  16
ENDBRANCH  14  15
ENDBRANCH  13  14
ENDBRANCH  12  13
ENDBRANCH  10  11
ENDBRANCH   1  10
TORSDOF 13
ENDMDL
MODEL 6
REMARK VINA RESULT:    -3.194      4.707      6.563
REMARK INTER + INTRA:          -7.631
REMARK INTER:                  -5.787
REMARK INTRA:                  -1.844
REMARK UNBOUND:                -2.009
REMARK SMILES CCCCCCC=CCCCCCCCC(=O)[O-]
REMARK SMILES IDX 10 1 11 2 12 3 13 4 14 5 15 6 16 7 17 8 18 9 9 10 8 11 7 12
REMARK SMILES IDX 6 13 5 14 4 15 3 16 2 17 1 18
REMARK H PARENT
REMARK Flexibility Score: inf
ROOT
ATOM      1  C   UNL     1      -4.987  28.885 -22.727  1.00  0.00     0.004 C 
ENDROOT
BRANCH   1   2
ATOM      2  C   UNL     1      -4.916  27.356 -22.572  1.00  0.00     0.000 C 
BRANCH   2   3
ATOM      3  C   UNL     1      -4.004  26.917 -21.412  1.00  0.00     0.000 C 
BRANCH   3   4
ATOM      4  C   UNL     1      -3.385  25.512 -21.562  1.00  0.00     0.000 C 
BRANCH   4   5
ATOM      5  C   UNL     1      -2.636  24.991 -20.318  1.00  0.00     0.006 C 
BRANCH   5   6
ATOM      6  C   UNL     1      -3.482  24.100 -19.396  1.00  0.00     0.053 C 
BRANCH   6   7
ATOM      7  C   UNL     1      -3.199  22.646 -19.612  1.00  0.00     0.041 C 
ATOM      8  O   UNL     1      -2.678  21.958 -18.694  1.00  0.00    -0.550 OA
ATOM      9  O   UNL     1      -3.543  22.040 -20.814  1.00  0.00    -0.550 OA
ENDBRANCH   6   7
ENDBRANCH   5   6
ENDBRANCH   4   5
ENDBRANCH   3   4
ENDBRANCH   2   3
ENDBRANCH   1   2
BRANCH   1  10
ATOM     10  C   UNL     1      -6.376  29.438 -22.375  1.00  0.00     0.027 C 
BRANCH  10  11
ATOM     11  C   UNL     1      -7.453  28.392 -22.483  1.00  0.00    -0.031 C 
ATOM     12  C   UNL     1      -8.379  28.235 -21.526  1.00  0.00    -0.031 C 
BRANCH  12  13
ATOM     13  C   UNL     1      -9.462  27.199 -21.643  1.00  0.00     0.027 C 
BRANCH  13  14
ATOM     14  C   UNL     1      -9.216  26.277 -22.843  1.00  0.00     0.004 C 
BRANCH  14  15
ATOM     15  C   UNL     1      -8.956  24.836 -22.388  1.00  0.00     0.000 C 
BRANCH  15  16
ATOM     16  C   UNL     1      -7.454  24.516 -22.407  1.00  0.00    -0.000 C 
BRANCH  16  17
ATOM     17  C   UNL     1      -6.842  24.471 -20.998  1.00  0.00    -0.003 C 
ATOM     18  C   UNL     1      -6.894  23.076 -20.375  1.00  0.00     0.004 C 
ENDBRANCH  16  17
ENDBRANCH  15  16
ENDBRANCH  14  15
ENDBRANCH  13  14
ENDBRANCH  12  13
ENDBRANCH  10  11
ENDBRANCH   1  10
TORSDOF 13
ENDMDL
MODEL 7
REMARK VINA RESULT:    -3.164      4.252      6.809
REMARK INTER + INTRA:          -7.578
REMARK INTER:                  -5.584
REMARK INTRA:                  -1.993
REMARK UNBOUND:                -2.009
REMARK SMILES CCCCCCC=CCCCCCCCC(=O)[O-]
REMARK SMILES IDX 10 1 11 2 12 3 13 4 14 5 15 6 16 7 17 8 18 9 9 10 8 11 7 12
REMARK SMILES IDX 6 13 5 14 4 15 3 16 2 17 1 18
REMARK H PARENT
REMARK Flexibility Score: inf
ROOT
ATOM      1  C   UNL     1      -8.347  23.083 -22.995  1.00  0.00     0.004 C 
ENDROOT
BRANCH   1   2
ATOM      2  C   UNL     1      -9.574  22.259 -22.568  1.00  0.00     0.000 C 
BRANCH   2   3
ATOM      3  C   UNL     1      -9.531  21.848 -21.086  1.00  0.00     0.000 C 
BRANCH   3   4
ATOM      4  C   UNL     1      -9.365  23.011 -20.088  1.00  0.00     0.000 C 
BRANCH   4   5
ATOM      5  C   UNL     1      -8.258  22.816 -19.033  1.00  0.00     0.006 C 
BRANCH   5   6
ATOM      6  C   UNL     1      -6.865  23.286 -19.481  1.00  0.00     0.053 C 
BRANCH   6   7
ATOM      7  C   UNL     1      -5.888  22.153 -19.546  1.00  0.00     0.041 C 
ATOM      8  O   UNL     1      -6.274  21.000 -19.875  1.00  0.00    -0.550 OA
ATOM      9  O   UNL     1      -4.544  22.377 -19.277  1.00  0.00    -0.550 OA
ENDBRANCH   6   7
ENDBRANCH   5   6
ENDBRANCH   4   5
ENDBRANCH   3   4
ENDBRANCH   2   3
ENDBRANCH   1   2
BRANCH   1  10
ATOM     10  C   UNL     1      -8.736  24.305 -23.841  1.00  0.00     0.027 C 
BRANCH  10  11
ATOM     11  C   UNL     1      -9.282  25.430 -23.004  1.00  0.00    -0.031 C 
ATOM     12  C   UNL     1      -8.613  25.905 -21.942  1.00  0.00    -0.031 C 
BRANCH  12  13
ATOM     13  C   UNL     1      -9.154  27.039 -21.117  1.00  0.00     0.027 C 
BRANCH  13  14
ATOM     14  C   UNL     1      -8.663  28.391 -21.647  1.00  0.00     0.004 C 
BRANCH  14  15
ATOM     15  C   UNL     1      -7.181  28.326 -22.036  1.00  0.00     0.000 C 
BRANCH  15  16
ATOM     16  C   UNL     1      -6.961  28.871 -23.455  1.00  0.00    -0.000 C 
BRANCH  16  17
ATOM     17  C   UNL     1      -6.563  27.773 -24.454  1.00  0.00    -0.003 C 
ATOM     18  C   UNL     1      -7.574  27.612 -25.588  1.00  0.00     0.004 C 
ENDBRANCH  16  17
ENDBRANCH  15  16
ENDBRANCH  14  15
ENDBRANCH  13  14
ENDBRANCH  12  13
ENDBRANCH  10  11
ENDBRANCH   1  10
TORSDOF 13
ENDMDL
MODEL 8
REMARK VINA RESULT:    -3.143      2.853      4.115
REMARK INTER + INTRA:          -7.541
REMARK INTER:                  -5.548
REMARK INTRA:                  -1.993
REMARK UNBOUND:                -2.009
REMARK SMILES CCCCCCC=CCCCCCCCC(=O)[O-]
REMARK SMILES IDX 10 1 11 2 12 3 13 4 14 5 15 6 16 7 17 8 18 9 9 10 8 11 7 12
REMARK SMILES IDX 6 13 5 14 4 15 3 16 2 17 1 18
REMARK H PARENT
REMARK Flexibility Score: inf
ROOT
ATOM      1  C   UNL     1      -8.808  25.892 -21.484  1.00  0.00     0.004 C 
ENDROOT
BRANCH   1   2
ATOM      2  C   UNL     1      -9.377  27.310 -21.663  1.00  0.00     0.000 C 
BRANCH   2   3
ATOM      3  C   UNL     1      -8.312  28.407 -21.492  1.00  0.00     0.000 C 
BRANCH   3   4
ATOM      4  C   UNL     1      -7.440  28.674 -22.736  1.00  0.00     0.000 C 
BRANCH   4   5
ATOM      5  C   UNL     1      -5.918  28.616 -22.494  1.00  0.00     0.006 C 
BRANCH   5   6
ATOM      6  C   UNL     1      -5.251  27.314 -22.963  1.00  0.00     0.053 C 
BRANCH   6   7
ATOM      7  C   UNL     1      -4.792  26.474 -21.811  1.00  0.00     0.041 C 
ATOM      8  O   UNL     1      -3.807  26.835 -21.115  1.00  0.00    -0.550 OA
ATOM      9  O   UNL     1      -5.475  25.309 -21.484  1.00  0.00    -0.550 OA
ENDBRANCH   6   7
ENDBRANCH   5   6
ENDBRANCH   4   5
ENDBRANCH   3   4
ENDBRANCH   2   3
ENDBRANCH   1   2
BRANCH   1  10
ATOM     10  C   UNL     1      -8.990  25.033 -22.745  1.00  0.00     0.027 C 
BRANCH  10  11
ATOM     11  C   UNL     1      -8.968  25.855 -24.006  1.00  0.00    -0.031 C 
ATOM     12  C   UNL     1      -8.004  25.703 -24.927  1.00  0.00    -0.031 C 
BRANCH  12  13
ATOM     13  C   UNL     1      -7.992  26.515 -26.192  1.00  0.00     0.027 C 
BRANCH  13  14
ATOM     14  C   UNL     1      -6.570  26.963 -26.546  1.00  0.00     0.004 C 
BRANCH  14  15
ATOM     15  C   UNL     1      -6.389  28.467 -26.305  1.00  0.00     0.000 C 
BRANCH  15  16
ATOM     16  C   UNL     1      -7.722  29.213 -26.470  1.00  0.00    -0.000 C 
BRANCH  16  17
ATOM     17  C   UNL     1      -7.676  30.263 -27.591  1.00  0.00    -0.003 C 
ATOM     18  C   UNL     1      -8.169  31.636 -27.135  1.00  0.00     0.004 C 
ENDBRANCH  16  17
ENDBRANCH  15  16
ENDBRANCH  14  15
ENDBRANCH  13  14
ENDBRANCH  12  13
ENDBRANCH  10  11
ENDBRANCH   1  10
TORSDOF 13
ENDMDL
MODEL 9
REMARK VINA RESULT:    -3.140      4.653      6.740
REMARK INTER + INTRA:          -7.535
REMARK INTER:                  -6.141
REMARK INTRA:                  -1.394
REMARK UNBOUND:                -2.009
REMARK SMILES CCCCCCC=CCCCCCCCC(=O)[O-]
REMARK SMILES IDX 10 1 11 2 12 3 13 4 14 5 15 6 16 7 17 8 18 9 9 10 8 11 7 12
REMARK SMILES IDX 6 13 5 14 4 15 3 16 2 17 1 18
REMARK H PARENT
REMARK Flexibility Score: inf
ROOT
ATOM      1  C   UNL     1      -9.144  26.095 -22.268  1.00  0.00     0.004 C 
ENDROOT
BRANCH   1   2
ATOM      2  C   UNL     1      -8.286  24.977 -21.651  1.00  0.00     0.000 C 
BRANCH   2   3
ATOM      3  C   UNL     1      -6.933  24.803 -22.362  1.00  0.00     0.000 C 
BRANCH   3   4
ATOM      4  C   UNL     1      -5.693  25.064 -21.483  1.00  0.00     0.000 C 
BRANCH   4   5
ATOM      5  C   UNL     1      -4.742  23.861 -21.319  1.00  0.00     0.006 C 
BRANCH   5   6
ATOM      6  C   UNL     1      -4.888  23.116 -19.983  1.00  0.00     0.053 C 
BRANCH   6   7
ATOM      7  C   UNL     1      -3.608  23.108 -19.206  1.00  0.00     0.041 C 
ATOM      8  O   UNL     1      -2.972  24.179 -19.019  1.00  0.00    -0.550 OA
ATOM      9  O   UNL     1      -3.134  21.923 -18.658  1.00  0.00    -0.550 OA
ENDBRANCH   6   7
ENDBRANCH   5   6
ENDBRANCH   4   5
ENDBRANCH   3   4
ENDBRANCH   2   3
ENDBRANCH   1   2
BRANCH   1  10
ATOM     10  C   UNL     1      -9.315  27.287 -21.314  1.00  0.00     0.027 C 
BRANCH  10  11
ATOM     11  C   UNL     1      -8.313  28.379 -21.577  1.00  0.00    -0.031 C 
ATOM     12  C   UNL     1      -7.540  28.375 -22.674  1.00  0.00    -0.031 C 
BRANCH  12  13
ATOM     13  C   UNL     1      -6.551  29.474 -22.941  1.00  0.00     0.027 C 
BRANCH  13  14
ATOM     14  C   UNL     1      -5.118  29.008 -22.659  1.00  0.00     0.004 C 
BRANCH  14  15
ATOM     15  C   UNL     1      -4.306  30.108 -21.965  1.00  0.00     0.000 C 
BRANCH  15  16
ATOM     16  C   UNL     1      -3.207  29.504 -21.078  1.00  0.00    -0.000 C 
BRANCH  16  17
ATOM     17  C   UNL     1      -3.284  27.971 -21.004  1.00  0.00    -0.003 C 
ATOM     18  C   UNL     1      -2.522  27.399 -19.809  1.00  0.00     0.004 C 
ENDBRANCH  16  17
ENDBRANCH  15  16
ENDBRANCH  14  15
ENDBRANCH  13  14
ENDBRANCH  12  13
ENDBRANCH  10  11
ENDBRANCH   1  10
TORSDOF 13
ENDMDL
