MODEL 1
REMARK VINA RESULT:    -3.850      0.000      0.000
REMARK INTER + INTRA:          -5.113
REMARK INTER:                  -4.975
REMARK INTRA:                  -0.138
REMARK UNBOUND:                -0.138
REMARK SMILES C=CC(=O)CCCCC
REMARK SMILES IDX 6 1 7 2 8 3 9 4 5 5 3 6 4 7 2 8 1 9
REMARK H PARENT
REMARK Flexibility Score: inf
ROOT
ATOM      1  C   UNL     1      16.275  17.723  30.893  1.00  0.00     0.008 C 
ENDROOT
BRANCH   1   2
ATOM      2  C   UNL     1      15.748  18.661  29.796  1.00  0.00     0.000 C 
BRANCH   2   3
ATOM      3  C   UNL     1      15.398  20.058  30.332  1.00  0.00    -0.003 C 
ATOM      4  C   UNL     1      14.393  20.796  29.448  1.00  0.00     0.004 C 
ENDBRANCH   2   3
ENDBRANCH   1   2
BRANCH   1   5
ATOM      5  C   UNL     1      16.101  16.256  30.488  1.00  0.00     0.080 C 
BRANCH   5   6
ATOM      6  C   UNL     1      17.113  15.385  31.186  1.00  0.00     0.155 C 
ATOM      7  O   UNL     1      16.807  14.881  32.299  1.00  0.00    -0.295 OA
BRANCH   6   8
ATOM      8  C   UNL     1      18.437  15.064  30.613  1.00  0.00     0.039 C 
ATOM      9  C   UNL     1      19.139  15.895  29.843  1.00  0.00     0.012 C 
ENDBRANCH   6   8
ENDBRANCH   5   6
ENDBRANCH   1   5
TORSDOF 5
ENDMDL
MODEL 2
REMARK VINA RESULT:    -3.787      2.954      5.606
REMARK INTER + INTRA:          -5.033
REMARK INTER:                  -4.868
REMARK INTRA:                  -0.165
REMARK UNBOUND:                -0.138
REMARK SMILES C=CC(=O)CCCCC
REMARK SMILES IDX 6 1 7 2 8 3 9 4 5 5 3 6 4 7 2 8 1 9
REMARK H PARENT
REMARK Flexibility Score: inf
ROOT
ATOM      1  C   UNL     1      16.077  18.669  30.483  1.00  0.00     0.008 C 
ENDROOT
BRANCH   1   2
ATOM      2  C   UNL     1      16.279  17.176  30.186  1.00  0.00     0.000 C 
BRANCH   2   3
ATOM      3  C   UNL     1      16.705  16.379  31.430  1.00  0.00    -0.003 C 
ATOM      4  C   UNL     1      16.491  14.875  31.270  1.00  0.00     0.004 C 
ENDBRANCH   2   3
ENDBRANCH   1   2
BRANCH   1   5
ATOM      5  C   UNL     1      15.196  19.326  29.414  1.00  0.00     0.080 C 
BRANCH   5   6
ATOM      6  C   UNL     1      14.826  20.730  29.814  1.00  0.00     0.155 C 
ATOM      7  O   UNL     1      14.465  21.536  28.916  1.00  0.00    -0.295 OA
BRANCH   6   8
ATOM      8  C   UNL     1      14.834  21.201  31.216  1.00  0.00     0.039 C 
ATOM      9  C   UNL     1      15.253  22.408  31.595  1.00  0.00     0.012 C 
ENDBRANCH   6   8
ENDBRANCH   5   6
ENDBRANCH   1   5
TORSDOF 5
ENDMDL
MODEL 3
REMARK VINA RESULT:    -3.740      9.428     10.301
REMARK INTER + INTRA:          -4.972
REMARK INTER:                  -4.781
REMARK INTRA:                  -0.191
REMARK UNBOUND:                -0.138
REMARK SMILES C=CC(=O)CCCCC
REMARK SMILES IDX 6 1 7 2 8 3 9 4 5 5 3 6 4 7 2 8 1 9
REMARK H PARENT
REMARK Flexibility Score: inf
ROOT
ATOM      1  C   UNL     1      20.337  23.430  25.557  1.00  0.00     0.008 C 
ENDROOT
BRANCH   1   2
ATOM      2  C   UNL     1      20.059  24.210  26.850  1.00  0.00     0.000 C 
BRANCH   2   3
ATOM      3  C   UNL     1      21.295  24.308  27.758  1.00  0.00    -0.003 C 
ATOM      4  C   UNL     1      21.459  25.691  28.387  1.00  0.00     0.004 C 
ENDBRANCH   2   3
ENDBRANCH   1   2
BRANCH   1   5
ATOM      5  C   UNL     1      21.322  24.189  24.661  1.00  0.00     0.080 C 
BRANCH   5   6
ATOM      6  C   UNL     1      21.756  23.334  23.499  1.00  0.00     0.155 C 
ATOM      7  O   UNL     1      22.988  23.218  23.264  1.00  0.00    -0.295 OA
BRANCH   6   8
ATOM      8  C   UNL     1      20.807  22.595  22.638  1.00  0.00     0.039 C 
ATOM      9  C   UNL     1      21.163  21.628  21.794  1.00  0.00     0.012 C 
ENDBRANCH   6   8
ENDBRANCH   5   6
ENDBRANCH   1   5
TORSDOF 5
ENDMDL
MODEL 4
REMARK VINA RESULT:    -3.545      1.628      2.039
REMARK INTER + INTRA:          -4.720
REMARK INTER:                  -4.557
REMARK INTRA:                  -0.163
REMARK UNBOUND:                -0.138
REMARK SMILES C=CC(=O)CCCCC
REMARK SMILES IDX 6 1 7 2 8 3 9 4 5 5 3 6 4 7 2 8 1 9
REMARK H PARENT
REMARK Flexibility Score: inf
ROOT
ATOM      1  C   UNL     1      15.737  17.912  29.728  1.00  0.00     0.008 C 
ENDROOT
BRANCH   1   2
ATOM      2  C   UNL     1      15.215  19.339  29.503  1.00  0.00     0.000 C 
BRANCH   2   3
ATOM      3  C   UNL     1      15.541  20.279  30.674  1.00  0.00    -0.003 C 
ATOM      4  C   UNL     1      14.647  21.517  30.706  1.00  0.00     0.004 C 
ENDBRANCH   2   3
ENDBRANCH   1   2
BRANCH   1   5
ATOM      5  C   UNL     1      16.872  17.901  30.758  1.00  0.00     0.080 C 
BRANCH   5   6
ATOM      6  C   UNL     1      17.688  16.640  30.641  1.00  0.00     0.155 C 
ATOM      7  O   UNL     1      18.660  16.625  29.839  1.00  0.00    -0.295 OA
BRANCH   6   8
ATOM      8  C   UNL     1      17.426  15.429  31.446  1.00  0.00     0.039 C 
ATOM      9  C   UNL     1      16.222  14.877  31.594  1.00  0.00     0.012 C 
ENDBRANCH   6   8
ENDBRANCH   5   6
ENDBRANCH   1   5
TORSDOF 5
ENDMDL
MODEL 5
REMARK VINA RESULT:    -3.482      8.904     10.177
REMARK INTER + INTRA:          -4.638
REMARK INTER:                  -4.454
REMARK INTRA:                  -0.185
REMARK UNBOUND:                -0.138
REMARK SMILES C=CC(=O)CCCCC
REMARK SMILES IDX 6 1 7 2 8 3 9 4 5 5 3 6 4 7 2 8 1 9
REMARK H PARENT
REMARK Flexibility Score: inf
ROOT
ATOM      1  C   UNL     1      20.710  24.651  26.131  1.00  0.00     0.008 C 
ENDROOT
BRANCH   1   2
ATOM      2  C   UNL     1      21.025  23.497  25.167  1.00  0.00     0.000 C 
BRANCH   2   3
ATOM      3  C   UNL     1      21.587  23.988  23.823  1.00  0.00    -0.003 C 
ATOM      4  C   UNL     1      22.730  23.115  23.306  1.00  0.00     0.004 C 
ENDBRANCH   2   3
ENDBRANCH   1   2
BRANCH   1   5
ATOM      5  C   UNL     1      21.020  24.255  27.578  1.00  0.00     0.080 C 
BRANCH   5   6
ATOM      6  C   UNL     1      20.266  25.130  28.546  1.00  0.00     0.155 C 
ATOM      7  O   UNL     1      20.673  25.200  29.736  1.00  0.00    -0.295 OA
BRANCH   6   8
ATOM      8  C   UNL     1      19.089  25.937  28.159  1.00  0.00     0.039 C 
ATOM      9  C   UNL     1      17.846  25.688  28.569  1.00  0.00     0.012 C 
ENDBRANCH   6   8
ENDBRANCH   5   6
ENDBRANCH   1   5
TORSDOF 5
ENDMDL
MODEL 6
REMARK VINA RESULT:    -3.451      8.929     10.366
REMARK INTER + INTRA:          -4.597
REMARK INTER:                  -4.333
REMARK INTRA:                  -0.264
REMARK UNBOUND:                -0.138
REMARK SMILES C=CC(=O)CCCCC
REMARK SMILES IDX 6 1 7 2 8 3 9 4 5 5 3 6 4 7 2 8 1 9
REMARK H PARENT
REMARK Flexibility Score: inf
ROOT
ATOM      1  C   UNL     1      20.029  24.153  27.237  1.00  0.00     0.008 C 
ENDROOT
BRANCH   1   2
ATOM      2  C   UNL     1      20.917  24.493  26.030  1.00  0.00     0.000 C 
BRANCH   2   3
ATOM      3  C   UNL     1      20.893  23.397  24.953  1.00  0.00    -0.003 C 
ATOM      4  C   UNL     1      21.738  23.751  23.731  1.00  0.00     0.004 C 
ENDBRANCH   2   3
ENDBRANCH   1   2
BRANCH   1   5
ATOM      5  C   UNL     1      19.576  25.427  27.959  1.00  0.00     0.080 C 
BRANCH   5   6
ATOM      6  C   UNL     1      20.622  25.886  28.941  1.00  0.00     0.155 C 
ATOM      7  O   UNL     1      20.866  25.162  29.943  1.00  0.00    -0.295 OA
BRANCH   6   8
ATOM      8  C   UNL     1      21.401  27.131  28.770  1.00  0.00     0.039 C 
ATOM      9  C   UNL     1      22.631  27.177  28.258  1.00  0.00     0.012 C 
ENDBRANCH   6   8
ENDBRANCH   5   6
ENDBRANCH   1   5
TORSDOF 5
ENDMDL
MODEL 7
REMARK VINA RESULT:    -3.307      8.490      9.344
REMARK INTER + INTRA:          -4.411
REMARK INTER:                  -3.992
REMARK INTRA:                  -0.420
REMARK UNBOUND:                -0.138
REMARK SMILES C=CC(=O)CCCCC
REMARK SMILES IDX 6 1 7 2 8 3 9 4 5 5 3 6 4 7 2 8 1 9
REMARK H PARENT
REMARK Flexibility Score: inf
ROOT
ATOM      1  C   UNL     1      18.790  26.946  27.952  1.00  0.00     0.008 C 
ENDROOT
BRANCH   1   2
ATOM      2  C   UNL     1      17.265  26.766  27.953  1.00  0.00     0.000 C 
BRANCH   2   3
ATOM      3  C   UNL     1      16.845  25.287  27.941  1.00  0.00    -0.003 C 
ATOM      4  C   UNL     1      15.385  25.090  27.537  1.00  0.00     0.004 C 
ENDBRANCH   2   3
ENDBRANCH   1   2
BRANCH   1   5
ATOM      5  C   UNL     1      19.473  25.834  28.755  1.00  0.00     0.080 C 
BRANCH   5   6
ATOM      6  C   UNL     1      20.669  25.296  28.014  1.00  0.00     0.155 C 
ATOM      7  O   UNL     1      21.816  25.497  28.497  1.00  0.00    -0.295 OA
BRANCH   6   8
ATOM      8  C   UNL     1      20.563  24.515  26.764  1.00  0.00     0.039 C 
ATOM      9  C   UNL     1      19.758  23.465  26.606  1.00  0.00     0.012 C 
ENDBRANCH   6   8
ENDBRANCH   5   6
ENDBRANCH   1   5
TORSDOF 5
ENDMDL
MODEL 8
REMARK VINA RESULT:    -3.304     13.457     15.004
REMARK INTER + INTRA:          -4.408
REMARK INTER:                  -3.820
REMARK INTRA:                  -0.588
REMARK UNBOUND:                -0.138
REMARK SMILES C=CC(=O)CCCCC
REMARK SMILES IDX 6 1 7 2 8 3 9 4 5 5 3 6 4 7 2 8 1 9
REMARK H PARENT
REMARK Flexibility Score: inf
ROOT
ATOM      1  C   UNL     1      16.140  32.954  29.100  1.00  0.00     0.008 C 
ENDROOT
BRANCH   1   2
ATOM      2  C   UNL     1      15.636  32.774  30.540  1.00  0.00     0.000 C 
BRANCH   2   3
ATOM      3  C   UNL     1      14.701  31.563  30.690  1.00  0.00    -0.003 C 
ATOM      4  C   UNL     1      14.901  30.522  29.591  1.00  0.00     0.004 C 
ENDBRANCH   2   3
ENDBRANCH   1   2
BRANCH   1   5
ATOM      5  C   UNL     1      17.605  33.401  29.085  1.00  0.00     0.080 C 
BRANCH   5   6
ATOM      6  C   UNL     1      18.495  32.340  29.679  1.00  0.00     0.155 C 
ATOM      7  O   UNL     1      19.139  32.612  30.727  1.00  0.00    -0.295 OA
BRANCH   6   8
ATOM      8  C   UNL     1      18.623  30.981  29.112  1.00  0.00     0.039 C 
ATOM      9  C   UNL     1      18.529  29.861  29.828  1.00  0.00     0.012 C 
ENDBRANCH   6   8
ENDBRANCH   5   6
ENDBRANCH   1   5
TORSDOF 5
ENDMDL
MODEL 9
REMARK VINA RESULT:    -3.302      9.893     11.208
REMARK INTER + INTRA:          -4.405
REMARK INTER:                  -4.183
REMARK INTRA:                  -0.221
REMARK UNBOUND:                -0.138
REMARK SMILES C=CC(=O)CCCCC
REMARK SMILES IDX 6 1 7 2 8 3 9 4 5 5 3 6 4 7 2 8 1 9
REMARK H PARENT
REMARK Flexibility Score: inf
ROOT
ATOM      1  C   UNL     1      20.109  25.582  28.553  1.00  0.00     0.008 C 
ENDROOT
BRANCH   1   2
ATOM      2  C   UNL     1      19.748  25.066  27.152  1.00  0.00     0.000 C 
BRANCH   2   3
ATOM      3  C   UNL     1      20.555  23.819  26.756  1.00  0.00    -0.003 C 
ATOM      4  C   UNL     1      20.933  23.805  25.276  1.00  0.00     0.004 C 
ENDBRANCH   2   3
ENDBRANCH   1   2
BRANCH   1   5
ATOM      5  C   UNL     1      21.628  25.638  28.741  1.00  0.00     0.080 C 
BRANCH   5   6
ATOM      6  C   UNL     1      22.142  27.039  28.532  1.00  0.00     0.155 C 
ATOM      7  O   UNL     1      21.330  27.997  28.624  1.00  0.00    -0.295 OA
BRANCH   6   8
ATOM      8  C   UNL     1      23.561  27.348  28.256  1.00  0.00     0.039 C 
ATOM      9  C   UNL     1      23.968  28.316  27.437  1.00  0.00     0.012 C 
ENDBRANCH   6   8
ENDBRANCH   5   6
ENDBRANCH   1   5
TORSDOF 5
ENDMDL
