MODEL 1
REMARK VINA RESULT:    -7.004      0.000      0.000
REMARK INTER + INTRA:          -8.663
REMARK INTER:                  -8.437
REMARK INTRA:                  -0.226
REMARK UNBOUND:                -0.226
REMARK SMILES O=c1c(O)c(-c2ccc(O)c(O)c2)oc2cc(O)cc(O)c12
REMARK SMILES IDX 5 1 3 2 2 3 1 4 22 5 20 6 19 7 17 8 16 9 15 10 14 11 6 12
REMARK SMILES IDX 7 13 8 14 9 15 13 16 11 17 10 18 12 20 4 22 21 24 18 26
REMARK H PARENT 10 19 12 21 4 23 21 25 18 27
REMARK Flexibility Score: inf
ROOT
ATOM      1  C   UNL     1      29.672  23.346  49.140  1.00  0.00     0.180 A 
ATOM      2  C   UNL     1      30.727  22.414  49.202  1.00  0.00     0.208 A 
ATOM      3  C   UNL     1      31.181  21.989  50.460  1.00  0.00     0.238 A 
ATOM      4  O   UNL     1      32.117  21.146  50.528  1.00  0.00    -0.285 OA
ATOM      5  C   UNL     1      30.593  22.513  51.628  1.00  0.00     0.111 A 
ATOM      6  C   UNL     1      30.996  22.140  52.933  1.00  0.00     0.134 A 
ATOM      7  C   UNL     1      30.367  22.715  54.048  1.00  0.00     0.093 A 
ATOM      8  C   UNL     1      29.344  23.656  53.881  1.00  0.00     0.123 A 
ATOM      9  C   UNL     1      28.943  24.027  52.597  1.00  0.00     0.094 A 
ATOM     10  C   UNL     1      29.557  23.464  51.473  1.00  0.00     0.146 A 
ATOM     11  O   UNL     1      29.152  23.831  50.264  1.00  0.00    -0.452 OA
ENDROOT
BRANCH   1  12
ATOM     12  C   UNL     1      29.124  23.828  47.852  1.00  0.00     0.025 A 
ATOM     13  C   UNL     1      29.875  24.719  47.073  1.00  0.00     0.016 A 
ATOM     14  C   UNL     1      29.369  25.201  45.864  1.00  0.00     0.051 A 
ATOM     15  C   UNL     1      28.100  24.817  45.418  1.00  0.00     0.157 A 
ATOM     16  C   UNL     1      27.840  23.458  47.418  1.00  0.00     0.062 A 
ATOM     17  C   UNL     1      27.321  23.939  46.208  1.00  0.00     0.158 A 
BRANCH  15  18
ATOM     18  O   UNL     1      27.655  25.329  44.197  1.00  0.00    -0.504 OA
ATOM     19  H   UNL     1      26.683  25.398  43.934  1.00  0.00     0.293 HD
ENDBRANCH  15  18
BRANCH  17  20
ATOM     20  O   UNL     1      26.040  23.527  45.839  1.00  0.00    -0.504 OA
ATOM     21  H   UNL     1      25.852  22.854  45.110  1.00  0.00     0.293 HD
ENDBRANCH  17  20
ENDBRANCH   1  12
BRANCH   2  22
ATOM     22  O   UNL     1      31.325  21.946  48.030  1.00  0.00    -0.502 OA
ATOM     23  H   UNL     1      31.985  21.178  48.027  1.00  0.00     0.293 HD
ENDBRANCH   2  22
BRANCH   6  24
ATOM     24  O   UNL     1      32.014  21.206  53.131  1.00  0.00    -0.507 OA
ATOM     25  H   UNL     1      32.829  21.417  53.695  1.00  0.00     0.293 HD
ENDBRANCH   6  24
BRANCH   8  26
ATOM     26  O   UNL     1      28.720  24.229  54.987  1.00  0.00    -0.508 OA
ATOM     27  H   UNL     1      29.228  24.818  55.636  1.00  0.00     0.293 HD
ENDBRANCH   8  26
TORSDOF 6
ENDMDL
MODEL 2
REMARK VINA RESULT:    -6.800      2.000      3.037
REMARK INTER + INTRA:          -8.417
REMARK INTER:                  -8.890
REMARK INTRA:                   0.473
REMARK UNBOUND:                -0.226
REMARK SMILES O=c1c(O)c(-c2ccc(O)c(O)c2)oc2cc(O)cc(O)c12
REMARK SMILES IDX 5 1 3 2 2 3 1 4 22 5 20 6 19 7 17 8 16 9 15 10 14 11 6 12
REMARK SMILES IDX 7 13 8 14 9 15 13 16 11 17 10 18 12 20 4 22 21 24 18 26
REMARK H PARENT 10 19 12 21 4 23 21 25 18 27
REMARK Flexibility Score: inf
ROOT
ATOM      1  C   UNL     1      28.005  23.512  49.245  1.00  0.00     0.180 A 
ATOM      2  C   UNL     1      26.964  22.684  49.710  1.00  0.00     0.208 A 
ATOM      3  C   UNL     1      26.981  22.263  51.048  1.00  0.00     0.238 A 
ATOM      4  O   UNL     1      26.049  21.530  51.480  1.00  0.00    -0.285 OA
ATOM      5  C   UNL     1      28.041  22.656  51.890  1.00  0.00     0.111 A 
ATOM      6  C   UNL     1      28.134  22.270  53.250  1.00  0.00     0.134 A 
ATOM      7  C   UNL     1      29.227  22.696  54.020  1.00  0.00     0.093 A 
ATOM      8  C   UNL     1      30.227  23.497  53.457  1.00  0.00     0.123 A 
ATOM      9  C   UNL     1      30.139  23.879  52.118  1.00  0.00     0.094 A 
ATOM     10  C   UNL     1      29.057  23.467  51.334  1.00  0.00     0.146 A 
ATOM     11  O   UNL     1      28.997  23.850  50.064  1.00  0.00    -0.452 OA
ENDROOT
BRANCH   1  12
ATOM     12  C   UNL     1      28.047  24.014  47.853  1.00  0.00     0.025 A 
ATOM     13  C   UNL     1      26.896  23.940  47.058  1.00  0.00     0.016 A 
ATOM     14  C   UNL     1      26.919  24.391  45.736  1.00  0.00     0.051 A 
ATOM     15  C   UNL     1      28.093  24.909  45.179  1.00  0.00     0.157 A 
ATOM     16  C   UNL     1      29.234  24.513  47.289  1.00  0.00     0.062 A 
ATOM     17  C   UNL     1      29.269  24.964  45.964  1.00  0.00     0.158 A 
BRANCH  15  18
ATOM     18  O   UNL     1      28.047  25.349  43.854  1.00  0.00    -0.504 OA
ATOM     19  H   UNL     1      27.739  26.269  43.575  1.00  0.00     0.293 HD
ENDBRANCH  15  18
BRANCH  17  20
ATOM     20  O   UNL     1      30.482  25.449  45.471  1.00  0.00    -0.504 OA
ATOM     21  H   UNL     1      30.596  26.359  45.049  1.00  0.00     0.293 HD
ENDBRANCH  17  20
ENDBRANCH   1  12
BRANCH   2  22
ATOM     22  O   UNL     1      25.951  22.269  48.842  1.00  0.00    -0.502 OA
ATOM     23  H   UNL     1      26.010  22.397  47.839  1.00  0.00     0.293 HD
ENDBRANCH   2  22
BRANCH   6  24
ATOM     24  O   UNL     1      27.154  21.471  53.839  1.00  0.00    -0.507 OA
ATOM     25  H   UNL     1      26.183  21.761  53.882  1.00  0.00     0.293 HD
ENDBRANCH   6  24
BRANCH   8  26
ATOM     26  O   UNL     1      31.313  23.918  54.221  1.00  0.00    -0.508 OA
ATOM     27  H   UNL     1      32.186  24.202  53.790  1.00  0.00     0.293 HD
ENDBRANCH   8  26
TORSDOF 6
ENDMDL
MODEL 3
REMARK VINA RESULT:    -6.156      1.520      7.143
REMARK INTER + INTRA:          -7.642
REMARK INTER:                  -7.372
REMARK INTRA:                  -0.270
REMARK UNBOUND:                -0.226
REMARK SMILES O=c1c(O)c(-c2ccc(O)c(O)c2)oc2cc(O)cc(O)c12
REMARK SMILES IDX 5 1 3 2 2 3 1 4 22 5 20 6 19 7 17 8 16 9 15 10 14 11 6 12
REMARK SMILES IDX 7 13 8 14 9 15 13 16 11 17 10 18 12 20 4 22 21 24 18 26
REMARK H PARENT 10 19 12 21 4 23 21 25 18 27
REMARK Flexibility Score: inf
ROOT
ATOM      1  C   UNL     1      28.824  23.463  50.012  1.00  0.00     0.180 A 
ATOM      2  C   UNL     1      27.488  23.135  49.708  1.00  0.00     0.208 A 
ATOM      3  C   UNL     1      27.010  23.374  48.411  1.00  0.00     0.238 A 
ATOM      4  O   UNL     1      25.818  23.075  48.124  1.00  0.00    -0.285 OA
ATOM      5  C   UNL     1      27.862  23.953  47.449  1.00  0.00     0.111 A 
ATOM      6  C   UNL     1      27.456  24.231  46.121  1.00  0.00     0.134 A 
ATOM      7  C   UNL     1      28.362  24.818  45.224  1.00  0.00     0.093 A 
ATOM      8  C   UNL     1      29.663  25.133  45.631  1.00  0.00     0.123 A 
ATOM      9  C   UNL     1      30.068  24.861  46.938  1.00  0.00     0.094 A 
ATOM     10  C   UNL     1      29.181  24.274  47.847  1.00  0.00     0.146 A 
ATOM     11  O   UNL     1      29.594  24.022  49.083  1.00  0.00    -0.452 OA
ENDROOT
BRANCH   1  12
ATOM     12  C   UNL     1      29.408  23.223  51.350  1.00  0.00     0.025 A 
ATOM     13  C   UNL     1      30.238  22.111  51.550  1.00  0.00     0.016 A 
ATOM     14  C   UNL     1      30.785  21.855  52.809  1.00  0.00     0.051 A 
ATOM     15  C   UNL     1      30.503  22.691  53.895  1.00  0.00     0.157 A 
ATOM     16  C   UNL     1      29.105  24.053  52.443  1.00  0.00     0.062 A 
ATOM     17  C   UNL     1      29.645  23.802  53.711  1.00  0.00     0.158 A 
BRANCH  15  18
ATOM     18  O   UNL     1      31.087  22.384  55.125  1.00  0.00    -0.504 OA
ATOM     19  H   UNL     1      31.720  22.996  55.618  1.00  0.00     0.293 HD
ENDBRANCH  15  18
BRANCH  17  20
ATOM     20  O   UNL     1      29.302  24.669  54.749  1.00  0.00    -0.504 OA
ATOM     21  H   UNL     1      29.972  25.204  55.282  1.00  0.00     0.293 HD
ENDBRANCH  17  20
ENDBRANCH   1  12
BRANCH   2  22
ATOM     22  O   UNL     1      26.650  22.607  50.693  1.00  0.00    -0.502 OA
ATOM     23  H   UNL     1      26.900  22.606  51.675  1.00  0.00     0.293 HD
ENDBRANCH   2  22
BRANCH   6  24
ATOM     24  O   UNL     1      26.164  23.930  45.687  1.00  0.00    -0.507 OA
ATOM     25  H   UNL     1      25.364  23.999  46.306  1.00  0.00     0.293 HD
ENDBRANCH   6  24
BRANCH   8  26
ATOM     26  O   UNL     1      30.563  25.717  44.742  1.00  0.00    -0.508 OA
ATOM     27  H   UNL     1      30.698  25.348  43.807  1.00  0.00     0.293 HD
ENDBRANCH   8  26
TORSDOF 6
ENDMDL
MODEL 4
REMARK VINA RESULT:    -6.088     13.043     16.000
REMARK INTER + INTRA:          -7.560
REMARK INTER:                  -7.237
REMARK INTRA:                  -0.322
REMARK UNBOUND:                -0.226
REMARK SMILES O=c1c(O)c(-c2ccc(O)c(O)c2)oc2cc(O)cc(O)c12
REMARK SMILES IDX 5 1 3 2 2 3 1 4 22 5 20 6 19 7 17 8 16 9 15 10 14 11 6 12
REMARK SMILES IDX 7 13 8 14 9 15 13 16 11 17 10 18 12 20 4 22 21 24 18 26
REMARK H PARENT 10 19 12 21 4 23 21 25 18 27
REMARK Flexibility Score: inf
ROOT
ATOM      1  C   UNL     1      16.353  28.879  52.082  1.00  0.00     0.180 A 
ATOM      2  C   UNL     1      15.036  28.996  52.568  1.00  0.00     0.208 A 
ATOM      3  C   UNL     1      13.972  28.598  51.744  1.00  0.00     0.238 A 
ATOM      4  O   UNL     1      12.788  28.689  52.172  1.00  0.00    -0.285 OA
ATOM      5  C   UNL     1      14.237  28.112  50.448  1.00  0.00     0.111 A 
ATOM      6  C   UNL     1      13.221  27.694  49.554  1.00  0.00     0.134 A 
ATOM      7  C   UNL     1      13.567  27.230  48.276  1.00  0.00     0.093 A 
ATOM      8  C   UNL     1      14.907  27.177  47.876  1.00  0.00     0.123 A 
ATOM      9  C   UNL     1      15.911  27.587  48.754  1.00  0.00     0.094 A 
ATOM     10  C   UNL     1      15.588  28.051  50.032  1.00  0.00     0.146 A 
ATOM     11  O   UNL     1      16.564  28.429  50.849  1.00  0.00    -0.452 OA
ENDROOT
BRANCH   1  12
ATOM     12  C   UNL     1      17.528  29.258  52.898  1.00  0.00     0.025 A 
ATOM     13  C   UNL     1      17.983  30.584  52.877  1.00  0.00     0.016 A 
ATOM     14  C   UNL     1      19.101  30.959  53.625  1.00  0.00     0.051 A 
ATOM     15  C   UNL     1      19.796  30.018  54.392  1.00  0.00     0.157 A 
ATOM     16  C   UNL     1      18.237  28.305  53.650  1.00  0.00     0.062 A 
ATOM     17  C   UNL     1      19.363  28.671  54.399  1.00  0.00     0.158 A 
BRANCH  15  18
ATOM     18  O   UNL     1      20.902  30.460  55.121  1.00  0.00    -0.504 OA
ATOM     19  H   UNL     1      21.186  31.427  55.187  1.00  0.00     0.293 HD
ENDBRANCH  15  18
BRANCH  17  20
ATOM     20  O   UNL     1      20.016  27.673  55.124  1.00  0.00    -0.504 OA
ATOM     21  H   UNL     1      21.020  27.603  55.208  1.00  0.00     0.293 HD
ENDBRANCH  17  20
ENDBRANCH   1  12
BRANCH   2  22
ATOM     22  O   UNL     1      14.797  29.527  53.838  1.00  0.00    -0.502 OA
ATOM     23  H   UNL     1      13.867  29.768  54.159  1.00  0.00     0.293 HD
ENDBRANCH   2  22
BRANCH   6  24
ATOM     24  O   UNL     1      11.877  27.738  49.924  1.00  0.00    -0.507 OA
ATOM     25  H   UNL     1      11.487  27.089  50.598  1.00  0.00     0.293 HD
ENDBRANCH   6  24
BRANCH   8  26
ATOM     26  O   UNL     1      15.251  26.718  46.606  1.00  0.00    -0.508 OA
ATOM     27  H   UNL     1      15.369  25.729  46.415  1.00  0.00     0.293 HD
ENDBRANCH   8  26
TORSDOF 6
ENDMDL
MODEL 5
REMARK VINA RESULT:    -6.005      1.837      6.838
REMARK INTER + INTRA:          -7.460
REMARK INTER:                  -7.308
REMARK INTRA:                  -0.152
REMARK UNBOUND:                -0.226
REMARK SMILES O=c1c(O)c(-c2ccc(O)c(O)c2)oc2cc(O)cc(O)c12
REMARK SMILES IDX 5 1 3 2 2 3 1 4 22 5 20 6 19 7 17 8 16 9 15 10 14 11 6 12
REMARK SMILES IDX 7 13 8 14 9 15 13 16 11 17 10 18 12 20 4 22 21 24 18 26
REMARK H PARENT 10 19 12 21 4 23 21 25 18 27
REMARK Flexibility Score: inf
ROOT
ATOM      1  C   UNL     1      28.752  23.637  49.470  1.00  0.00     0.180 A 
ATOM      2  C   UNL     1      30.072  23.717  48.984  1.00  0.00     0.208 A 
ATOM      3  C   UNL     1      30.284  24.158  47.669  1.00  0.00     0.238 A 
ATOM      4  O   UNL     1      31.462  24.245  47.226  1.00  0.00    -0.285 OA
ATOM      5  C   UNL     1      29.180  24.492  46.858  1.00  0.00     0.111 A 
ATOM      6  C   UNL     1      29.308  24.941  45.522  1.00  0.00     0.134 A 
ATOM      7  C   UNL     1      28.159  25.245  44.776  1.00  0.00     0.093 A 
ATOM      8  C   UNL     1      26.886  25.106  45.342  1.00  0.00     0.123 A 
ATOM      9  C   UNL     1      26.755  24.665  46.659  1.00  0.00     0.094 A 
ATOM     10  C   UNL     1      27.889  24.359  47.419  1.00  0.00     0.146 A 
ATOM     11  O   UNL     1      27.734  23.945  48.671  1.00  0.00    -0.452 OA
ENDROOT
BRANCH   1  12
ATOM     12  C   UNL     1      28.448  23.200  50.851  1.00  0.00     0.025 A 
ATOM     13  C   UNL     1      27.617  22.090  51.055  1.00  0.00     0.016 A 
ATOM     14  C   UNL     1      27.302  21.671  52.349  1.00  0.00     0.051 A 
ATOM     15  C   UNL     1      27.795  22.360  53.463  1.00  0.00     0.157 A 
ATOM     16  C   UNL     1      28.927  23.907  51.966  1.00  0.00     0.062 A 
ATOM     17  C   UNL     1      28.614  23.498  53.269  1.00  0.00     0.158 A 
BRANCH  15  18
ATOM     18  O   UNL     1      27.448  21.886  54.730  1.00  0.00    -0.504 OA
ATOM     19  H   UNL     1      26.851  21.088  54.890  1.00  0.00     0.293 HD
ENDBRANCH  15  18
BRANCH  17  20
ATOM     20  O   UNL     1      29.126  24.248  54.329  1.00  0.00    -0.504 OA
ATOM     21  H   UNL     1      29.862  23.927  54.942  1.00  0.00     0.293 HD
ENDBRANCH  17  20
ENDBRANCH   1  12
BRANCH   2  22
ATOM     22  O   UNL     1      31.146  23.334  49.791  1.00  0.00    -0.502 OA
ATOM     23  H   UNL     1      31.685  22.495  49.615  1.00  0.00     0.293 HD
ENDBRANCH   2  22
BRANCH   6  24
ATOM     24  O   UNL     1      30.563  25.087  44.930  1.00  0.00    -0.507 OA
ATOM     25  H   UNL     1      31.198  25.830  45.201  1.00  0.00     0.293 HD
ENDBRANCH   6  24
BRANCH   8  26
ATOM     26  O   UNL     1      25.744  25.406  44.602  1.00  0.00    -0.508 OA
ATOM     27  H   UNL     1      24.875  25.671  45.052  1.00  0.00     0.293 HD
ENDBRANCH   8  26
TORSDOF 6
ENDMDL
MODEL 6
REMARK VINA RESULT:    -5.996     12.004     13.625
REMARK INTER + INTRA:          -7.449
REMARK INTER:                  -7.178
REMARK INTRA:                  -0.272
REMARK UNBOUND:                -0.226
REMARK SMILES O=c1c(O)c(-c2ccc(O)c(O)c2)oc2cc(O)cc(O)c12
REMARK SMILES IDX 5 1 3 2 2 3 1 4 22 5 20 6 19 7 17 8 16 9 15 10 14 11 6 12
REMARK SMILES IDX 7 13 8 14 9 15 13 16 11 17 10 18 12 20 4 22 21 24 18 26
REMARK H PARENT 10 19 12 21 4 23 21 25 18 27
REMARK Flexibility Score: inf
ROOT
ATOM      1  C   UNL     1      16.563  26.824  51.599  1.00  0.00     0.180 A 
ATOM      2  C   UNL     1      17.326  27.673  52.424  1.00  0.00     0.208 A 
ATOM      3  C   UNL     1      18.294  27.107  53.267  1.00  0.00     0.238 A 
ATOM      4  O   UNL     1      18.991  27.857  54.004  1.00  0.00    -0.285 OA
ATOM      5  C   UNL     1      18.470  25.708  53.287  1.00  0.00     0.111 A 
ATOM      6  C   UNL     1      19.420  25.059  54.111  1.00  0.00     0.134 A 
ATOM      7  C   UNL     1      19.528  23.660  54.081  1.00  0.00     0.093 A 
ATOM      8  C   UNL     1      18.703  22.900  53.243  1.00  0.00     0.123 A 
ATOM      9  C   UNL     1      17.764  23.536  52.429  1.00  0.00     0.094 A 
ATOM     10  C   UNL     1      17.643  24.929  52.444  1.00  0.00     0.146 A 
ATOM     11  O   UNL     1      16.745  25.508  51.656  1.00  0.00    -0.452 OA
ENDROOT
BRANCH   1  12
ATOM     12  C   UNL     1      15.537  27.347  50.668  1.00  0.00     0.025 A 
ATOM     13  C   UNL     1      14.290  27.746  51.170  1.00  0.00     0.016 A 
ATOM     14  C   UNL     1      13.302  28.225  50.307  1.00  0.00     0.051 A 
ATOM     15  C   UNL     1      13.531  28.298  48.929  1.00  0.00     0.157 A 
ATOM     16  C   UNL     1      15.763  27.399  49.282  1.00  0.00     0.062 A 
ATOM     17  C   UNL     1      14.776  27.873  48.408  1.00  0.00     0.158 A 
BRANCH  15  18
ATOM     18  O   UNL     1      12.504  28.792  48.122  1.00  0.00    -0.504 OA
ATOM     19  H   UNL     1      12.431  29.755  47.827  1.00  0.00     0.293 HD
ENDBRANCH  15  18
BRANCH  17  20
ATOM     20  O   UNL     1      15.071  27.898  47.044  1.00  0.00    -0.504 OA
ATOM     21  H   UNL     1      15.138  28.744  46.497  1.00  0.00     0.293 HD
ENDBRANCH  17  20
ENDBRANCH   1  12
BRANCH   2  22
ATOM     22  O   UNL     1      17.099  29.051  52.421  1.00  0.00    -0.502 OA
ATOM     23  H   UNL     1      17.012  29.585  51.565  1.00  0.00     0.293 HD
ENDBRANCH   2  22
BRANCH   6  24
ATOM     24  O   UNL     1      20.255  25.788  54.958  1.00  0.00    -0.507 OA
ATOM     25  H   UNL     1      20.858  26.525  54.608  1.00  0.00     0.293 HD
ENDBRANCH   6  24
BRANCH   8  26
ATOM     26  O   UNL     1      18.808  21.511  53.213  1.00  0.00    -0.508 OA
ATOM     27  H   UNL     1      18.548  20.978  52.391  1.00  0.00     0.293 HD
ENDBRANCH   8  26
TORSDOF 6
ENDMDL
MODEL 7
REMARK VINA RESULT:    -5.747     14.279     16.684
REMARK INTER + INTRA:          -7.149
REMARK INTER:                  -7.245
REMARK INTRA:                   0.096
REMARK UNBOUND:                -0.226
REMARK SMILES O=c1c(O)c(-c2ccc(O)c(O)c2)oc2cc(O)cc(O)c12
REMARK SMILES IDX 5 1 3 2 2 3 1 4 22 5 20 6 19 7 17 8 16 9 15 10 14 11 6 12
REMARK SMILES IDX 7 13 8 14 9 15 13 16 11 17 10 18 12 20 4 22 21 24 18 26
REMARK H PARENT 10 19 12 21 4 23 21 25 18 27
REMARK Flexibility Score: inf
ROOT
ATOM      1  C   UNL     1      15.909  21.846  43.069  1.00  0.00     0.180 A 
ATOM      2  C   UNL     1      17.227  22.200  42.719  1.00  0.00     0.208 A 
ATOM      3  C   UNL     1      17.430  23.288  41.857  1.00  0.00     0.238 A 
ATOM      4  O   UNL     1      18.606  23.622  41.545  1.00  0.00    -0.285 OA
ATOM      5  C   UNL     1      16.320  23.990  41.345  1.00  0.00     0.111 A 
ATOM      6  C   UNL     1      16.439  25.095  40.468  1.00  0.00     0.134 A 
ATOM      7  C   UNL     1      15.283  25.735  39.994  1.00  0.00     0.093 A 
ATOM      8  C   UNL     1      14.014  25.290  40.380  1.00  0.00     0.123 A 
ATOM      9  C   UNL     1      13.892  24.202  41.244  1.00  0.00     0.094 A 
ATOM     10  C   UNL     1      15.031  23.551  41.729  1.00  0.00     0.146 A 
ATOM     11  O   UNL     1      14.885  22.521  42.554  1.00  0.00    -0.452 OA
ENDROOT
BRANCH   1  12
ATOM     12  C   UNL     1      15.613  20.724  43.988  1.00  0.00     0.025 A 
ATOM     13  C   UNL     1      14.684  20.907  45.021  1.00  0.00     0.016 A 
ATOM     14  C   UNL     1      14.404  19.867  45.911  1.00  0.00     0.051 A 
ATOM     15  C   UNL     1      15.055  18.634  45.797  1.00  0.00     0.157 A 
ATOM     16  C   UNL     1      16.286  19.494  43.884  1.00  0.00     0.062 A 
ATOM     17  C   UNL     1      16.014  18.447  44.773  1.00  0.00     0.158 A 
BRANCH  15  18
ATOM     18  O   UNL     1      14.725  17.634  46.714  1.00  0.00    -0.504 OA
ATOM     19  H   UNL     1      13.845  17.138  46.715  1.00  0.00     0.293 HD
ENDBRANCH  15  18
BRANCH  17  20
ATOM     20  O   UNL     1      16.719  17.253  44.609  1.00  0.00    -0.504 OA
ATOM     21  H   UNL     1      16.292  16.338  44.635  1.00  0.00     0.293 HD
ENDBRANCH  17  20
ENDBRANCH   1  12
BRANCH   2  22
ATOM     22  O   UNL     1      18.308  21.459  43.201  1.00  0.00    -0.502 OA
ATOM     23  H   UNL     1      18.526  20.531  42.858  1.00  0.00     0.293 HD
ENDBRANCH   2  22
BRANCH   6  24
ATOM     24  O   UNL     1      17.691  25.560  40.064  1.00  0.00    -0.507 OA
ATOM     25  H   UNL     1      18.536  25.330  40.575  1.00  0.00     0.293 HD
ENDBRANCH   6  24
BRANCH   8  26
ATOM     26  O   UNL     1      12.866  25.924  39.908  1.00  0.00    -0.508 OA
ATOM     27  H   UNL     1      12.920  26.735  39.301  1.00  0.00     0.293 HD
ENDBRANCH   8  26
TORSDOF 6
ENDMDL
MODEL 8
REMARK VINA RESULT:    -5.621     13.064     14.351
REMARK INTER + INTRA:          -6.998
REMARK INTER:                  -6.897
REMARK INTRA:                  -0.101
REMARK UNBOUND:                -0.226
REMARK SMILES O=c1c(O)c(-c2ccc(O)c(O)c2)oc2cc(O)cc(O)c12
REMARK SMILES IDX 5 1 3 2 2 3 1 4 22 5 20 6 19 7 17 8 16 9 15 10 14 11 6 12
REMARK SMILES IDX 7 13 8 14 9 15 13 16 11 17 10 18 12 20 4 22 21 24 18 26
REMARK H PARENT 10 19 12 21 4 23 21 25 18 27
REMARK Flexibility Score: inf
ROOT
ATOM      1  C   UNL     1      15.915  27.562  51.113  1.00  0.00     0.180 A 
ATOM      2  C   UNL     1      16.378  26.357  51.677  1.00  0.00     0.208 A 
ATOM      3  C   UNL     1      17.242  26.415  52.782  1.00  0.00     0.238 A 
ATOM      4  O   UNL     1      17.655  25.343  53.303  1.00  0.00    -0.285 OA
ATOM      5  C   UNL     1      17.642  27.667  53.290  1.00  0.00     0.111 A 
ATOM      6  C   UNL     1      18.513  27.812  54.397  1.00  0.00     0.134 A 
ATOM      7  C   UNL     1      18.872  29.095  54.837  1.00  0.00     0.093 A 
ATOM      8  C   UNL     1      18.378  30.234  54.190  1.00  0.00     0.123 A 
ATOM      9  C   UNL     1      17.520  30.096  53.099  1.00  0.00     0.094 A 
ATOM     10  C   UNL     1      17.148  28.826  52.646  1.00  0.00     0.146 A 
ATOM     11  O   UNL     1      16.326  28.725  51.609  1.00  0.00    -0.452 OA
ENDROOT
BRANCH   1  12
ATOM     12  C   UNL     1      14.987  27.584  49.960  1.00  0.00     0.025 A 
ATOM     13  C   UNL     1      13.721  28.169  50.105  1.00  0.00     0.016 A 
ATOM     14  C   UNL     1      12.823  28.186  49.036  1.00  0.00     0.051 A 
ATOM     15  C   UNL     1      13.162  27.604  47.809  1.00  0.00     0.157 A 
ATOM     16  C   UNL     1      15.322  26.980  48.736  1.00  0.00     0.062 A 
ATOM     17  C   UNL     1      14.427  26.987  47.659  1.00  0.00     0.158 A 
BRANCH  15  18
ATOM     18  O   UNL     1      12.222  27.660  46.779  1.00  0.00    -0.504 OA
ATOM     19  H   UNL     1      11.540  28.398  46.676  1.00  0.00     0.293 HD
ENDBRANCH  15  18
BRANCH  17  20
ATOM     20  O   UNL     1      14.828  26.370  46.473  1.00  0.00    -0.504 OA
ATOM     21  H   UNL     1      14.291  26.388  45.618  1.00  0.00     0.293 HD
ENDBRANCH  17  20
ENDBRANCH   1  12
BRANCH   2  22
ATOM     22  O   UNL     1      16.005  25.130  51.125  1.00  0.00    -0.502 OA
ATOM     23  H   UNL     1      16.641  24.343  51.071  1.00  0.00     0.293 HD
ENDBRANCH   2  22
BRANCH   6  24
ATOM     24  O   UNL     1      19.023  26.695  55.060  1.00  0.00    -0.507 OA
ATOM     25  H   UNL     1      18.429  26.084  55.610  1.00  0.00     0.293 HD
ENDBRANCH   6  24
BRANCH   8  26
ATOM     26  O   UNL     1      18.736  31.508  54.626  1.00  0.00    -0.508 OA
ATOM     27  H   UNL     1      19.301  31.645  55.457  1.00  0.00     0.293 HD
ENDBRANCH   8  26
TORSDOF 6
ENDMDL
MODEL 9
REMARK VINA RESULT:    -5.492     12.062     14.026
REMARK INTER + INTRA:          -6.842
REMARK INTER:                  -6.799
REMARK INTRA:                  -0.043
REMARK UNBOUND:                -0.226
REMARK SMILES O=c1c(O)c(-c2ccc(O)c(O)c2)oc2cc(O)cc(O)c12
REMARK SMILES IDX 5 1 3 2 2 3 1 4 22 5 20 6 19 7 17 8 16 9 15 10 14 11 6 12
REMARK SMILES IDX 7 13 8 14 9 15 13 16 11 17 10 18 12 20 4 22 21 24 18 26
REMARK H PARENT 10 19 12 21 4 23 21 25 18 27
REMARK Flexibility Score: inf
ROOT
ATOM      1  C   UNL     1      17.352  26.011  53.243  1.00  0.00     0.180 A 
ATOM      2  C   UNL     1      16.038  26.385  53.584  1.00  0.00     0.208 A 
ATOM      3  C   UNL     1      15.783  27.718  53.938  1.00  0.00     0.238 A 
ATOM      4  O   UNL     1      14.608  28.068  54.235  1.00  0.00    -0.285 OA
ATOM      5  C   UNL     1      16.843  28.648  53.966  1.00  0.00     0.111 A 
ATOM      6  C   UNL     1      16.670  30.009  54.316  1.00  0.00     0.134 A 
ATOM      7  C   UNL     1      17.779  30.870  54.329  1.00  0.00     0.093 A 
ATOM      8  C   UNL     1      19.053  30.395  53.999  1.00  0.00     0.123 A 
ATOM      9  C   UNL     1      19.228  29.054  53.653  1.00  0.00     0.094 A 
ATOM     10  C   UNL     1      18.136  28.181  53.633  1.00  0.00     0.146 A 
ATOM     11  O   UNL     1      18.330  26.912  53.295  1.00  0.00    -0.452 OA
ENDROOT
BRANCH   1  12
ATOM     12  C   UNL     1      17.698  24.630  52.839  1.00  0.00     0.025 A 
ATOM     13  C   UNL     1      18.792  23.990  53.437  1.00  0.00     0.016 A 
ATOM     14  C   UNL     1      19.146  22.693  53.058  1.00  0.00     0.051 A 
ATOM     15  C   UNL     1      18.428  22.018  52.065  1.00  0.00     0.157 A 
ATOM     16  C   UNL     1      16.988  23.963  51.826  1.00  0.00     0.062 A 
ATOM     17  C   UNL     1      17.338  22.664  51.435  1.00  0.00     0.158 A 
BRANCH  15  18
ATOM     18  O   UNL     1      18.830  20.721  51.737  1.00  0.00    -0.504 OA
ATOM     19  H   UNL     1      19.266  20.470  50.862  1.00  0.00     0.293 HD
ENDBRANCH  15  18
BRANCH  17  20
ATOM     20  O   UNL     1      16.587  22.062  50.424  1.00  0.00    -0.504 OA
ATOM     21  H   UNL     1      16.162  22.568  49.660  1.00  0.00     0.293 HD
ENDBRANCH  17  20
ENDBRANCH   1  12
BRANCH   2  22
ATOM     22  O   UNL     1      15.015  25.434  53.596  1.00  0.00    -0.502 OA
ATOM     23  H   UNL     1      14.948  24.718  54.309  1.00  0.00     0.293 HD
ENDBRANCH   2  22
BRANCH   6  24
ATOM     24  O   UNL     1      15.413  30.511  54.651  1.00  0.00    -0.507 OA
ATOM     25  H   UNL     1      14.968  31.242  54.108  1.00  0.00     0.293 HD
ENDBRANCH   6  24
BRANCH   8  26
ATOM     26  O   UNL     1      20.154  31.249  54.013  1.00  0.00    -0.508 OA
ATOM     27  H   UNL     1      20.531  31.613  54.881  1.00  0.00     0.293 HD
ENDBRANCH   8  26
TORSDOF 6
ENDMDL
