MODEL 1
REMARK VINA RESULT:    -3.619      0.000      0.000
REMARK INTER + INTRA:          -6.319
REMARK INTER:                  -5.523
REMARK INTRA:                  -0.796
REMARK UNBOUND:                -0.796
REMARK SMILES CCCCCCCCCCC(=O)[O-]
REMARK SMILES IDX 7 1 8 2 9 3 10 4 11 5 12 6 13 7 6 8 5 9 4 10 3 11 2 12 1 13
REMARK H PARENT
REMARK Flexibility Score: inf
ROOT
ATOM      1  C   UNL     1      36.603   4.979  39.574  1.00  0.00     0.000 C 
ENDROOT
BRANCH   1   2
ATOM      2  C   UNL     1      36.335   6.312  40.292  1.00  0.00     0.000 C 
BRANCH   2   3
ATOM      3  C   UNL     1      34.978   6.334  41.013  1.00  0.00     0.006 C 
BRANCH   3   4
ATOM      4  C   UNL     1      35.118   6.347  42.541  1.00  0.00     0.053 C 
BRANCH   4   5
ATOM      5  C   UNL     1      33.777   6.206  43.189  1.00  0.00     0.041 C 
ATOM      6  O   UNL     1      33.071   5.187  42.968  1.00  0.00    -0.550 OA
ATOM      7  O   UNL     1      33.286   7.222  43.999  1.00  0.00    -0.550 OA
ENDBRANCH   4   5
ENDBRANCH   3   4
ENDBRANCH   2   3
ENDBRANCH   1   2
BRANCH   1   8
ATOM      8  C   UNL     1      38.091   4.801  39.198  1.00  0.00     0.000 C 
BRANCH   8   9
ATOM      9  C   UNL     1      38.747   3.565  39.841  1.00  0.00    -0.000 C 
BRANCH   9  10
ATOM     10  C   UNL     1      39.752   3.878  40.966  1.00  0.00    -0.000 C 
BRANCH  10  11
ATOM     11  C   UNL     1      40.005   5.379  41.217  1.00  0.00    -0.000 C 
BRANCH  11  12
ATOM     12  C   UNL     1      39.999   5.803  42.696  1.00  0.00    -0.003 C 
ATOM     13  C   UNL     1      38.752   6.597  43.085  1.00  0.00     0.004 C 
ENDBRANCH  11  12
ENDBRANCH  10  11
ENDBRANCH   9  10
ENDBRANCH   8   9
ENDBRANCH   1   8
TORSDOF 9
ENDMDL
MODEL 2
REMARK VINA RESULT:    -3.597     15.891     17.211
REMARK INTER + INTRA:          -6.286
REMARK INTER:                  -5.692
REMARK INTRA:                  -0.594
REMARK UNBOUND:                -0.796
REMARK SMILES CCCCCCCCCCC(=O)[O-]
REMARK SMILES IDX 7 1 8 2 9 3 10 4 11 5 12 6 13 7 6 8 5 9 4 10 3 11 2 12 1 13
REMARK H PARENT
REMARK Flexibility Score: inf
ROOT
ATOM      1  C   UNL     1      21.149  -0.312  42.276  1.00  0.00     0.000 C 
ENDROOT
BRANCH   1   2
ATOM      2  C   UNL     1      21.956   0.542  41.282  1.00  0.00     0.000 C 
BRANCH   2   3
ATOM      3  C   UNL     1      22.117  -0.137  39.913  1.00  0.00     0.006 C 
BRANCH   3   4
ATOM      4  C   UNL     1      21.952  -1.661  39.984  1.00  0.00     0.053 C 
BRANCH   4   5
ATOM      5  C   UNL     1      23.287  -2.333  39.918  1.00  0.00     0.041 C 
ATOM      6  O   UNL     1      23.878  -2.461  38.813  1.00  0.00    -0.550 OA
ATOM      7  O   UNL     1      23.857  -2.861  41.069  1.00  0.00    -0.550 OA
ENDBRANCH   4   5
ENDBRANCH   3   4
ENDBRANCH   2   3
ENDBRANCH   1   2
BRANCH   1   8
ATOM      8  C   UNL     1      20.277   0.547  43.217  1.00  0.00     0.000 C 
BRANCH   8   9
ATOM      9  C   UNL     1      20.017  -0.107  44.587  1.00  0.00    -0.000 C 
BRANCH   9  10
ATOM     10  C   UNL     1      20.519  -1.558  44.716  1.00  0.00    -0.000 C 
BRANCH  10  11
ATOM     11  C   UNL     1      20.872  -2.002  46.151  1.00  0.00    -0.000 C 
BRANCH  11  12
ATOM     12  C   UNL     1      22.331  -2.445  46.356  1.00  0.00    -0.003 C 
ATOM     13  C   UNL     1      23.032  -2.814  45.049  1.00  0.00     0.004 C 
ENDBRANCH  11  12
ENDBRANCH  10  11
ENDBRANCH   9  10
ENDBRANCH   8   9
ENDBRANCH   1   8
TORSDOF 9
ENDMDL
MODEL 3
REMARK VINA RESULT:    -3.557     15.461     16.609
REMARK INTER + INTRA:          -6.224
REMARK INTER:                  -5.663
REMARK INTRA:                  -0.562
REMARK UNBOUND:                -0.796
REMARK SMILES CCCCCCCCCCC(=O)[O-]
REMARK SMILES IDX 7 1 8 2 9 3 10 4 11 5 12 6 13 7 6 8 5 9 4 10 3 11 2 12 1 13
REMARK H PARENT
REMARK Flexibility Score: inf
ROOT
ATOM      1  C   UNL     1      21.952   0.066  41.870  1.00  0.00     0.000 C 
ENDROOT
BRANCH   1   2
ATOM      2  C   UNL     1      20.560  -0.344  42.382  1.00  0.00     0.000 C 
BRANCH   2   3
ATOM      3  C   UNL     1      20.624  -1.150  43.689  1.00  0.00     0.006 C 
BRANCH   3   4
ATOM      4  C   UNL     1      21.824  -2.104  43.740  1.00  0.00     0.053 C 
BRANCH   4   5
ATOM      5  C   UNL     1      22.243  -2.340  45.157  1.00  0.00     0.041 C 
ATOM      6  O   UNL     1      21.396  -2.275  46.087  1.00  0.00    -0.550 OA
ATOM      7  O   UNL     1      23.577  -2.585  45.456  1.00  0.00    -0.550 OA
ENDBRANCH   4   5
ENDBRANCH   3   4
ENDBRANCH   2   3
ENDBRANCH   1   2
BRANCH   1   8
ATOM      8  C   UNL     1      22.104  -0.143  40.348  1.00  0.00     0.000 C 
BRANCH   8   9
ATOM      9  C   UNL     1      22.006  -1.618  39.914  1.00  0.00    -0.000 C 
BRANCH   9  10
ATOM     10  C   UNL     1      23.323  -2.410  40.014  1.00  0.00    -0.000 C 
BRANCH  10  11
ATOM     11  C   UNL     1      23.867  -2.948  38.674  1.00  0.00    -0.000 C 
BRANCH  11  12
ATOM     12  C   UNL     1      25.117  -3.837  38.788  1.00  0.00    -0.003 C 
ATOM     13  C   UNL     1      24.821  -5.317  38.549  1.00  0.00     0.004 C 
ENDBRANCH  11  12
ENDBRANCH  10  11
ENDBRANCH   9  10
ENDBRANCH   8   9
ENDBRANCH   1   8
TORSDOF 9
ENDMDL
MODEL 4
REMARK VINA RESULT:    -3.556     14.752     16.912
REMARK INTER + INTRA:          -6.223
REMARK INTER:                  -5.610
REMARK INTRA:                  -0.613
REMARK UNBOUND:                -0.796
REMARK SMILES CCCCCCCCCCC(=O)[O-]
REMARK SMILES IDX 7 1 8 2 9 3 10 4 11 5 12 6 13 7 6 8 5 9 4 10 3 11 2 12 1 13
REMARK H PARENT
REMARK Flexibility Score: inf
ROOT
ATOM      1  C   UNL     1      20.265   0.249  43.197  1.00  0.00     0.000 C 
ENDROOT
BRANCH   1   2
ATOM      2  C   UNL     1      20.659  -1.188  43.581  1.00  0.00     0.000 C 
BRANCH   2   3
ATOM      3  C   UNL     1      21.053  -2.039  42.365  1.00  0.00     0.006 C 
BRANCH   3   4
ATOM      4  C   UNL     1      22.484  -1.761  41.885  1.00  0.00     0.053 C 
BRANCH   4   5
ATOM      5  C   UNL     1      22.481  -1.353  40.446  1.00  0.00     0.041 C 
ATOM      6  O   UNL     1      21.786  -0.374  40.066  1.00  0.00    -0.550 OA
ATOM      7  O   UNL     1      23.209  -2.083  39.514  1.00  0.00    -0.550 OA
ENDBRANCH   4   5
ENDBRANCH   3   4
ENDBRANCH   2   3
ENDBRANCH   1   2
BRANCH   1   8
ATOM      8  C   UNL     1      19.880   1.102  44.425  1.00  0.00     0.000 C 
BRANCH   8   9
ATOM      9  C   UNL     1      19.910   2.619  44.158  1.00  0.00    -0.000 C 
BRANCH   9  10
ATOM     10  C   UNL     1      20.837   3.422  45.091  1.00  0.00    -0.000 C 
BRANCH  10  11
ATOM     11  C   UNL     1      22.085   4.024  44.412  1.00  0.00    -0.000 C 
BRANCH  11  12
ATOM     12  C   UNL     1      21.990   4.167  42.884  1.00  0.00    -0.003 C 
ATOM     13  C   UNL     1      22.955   3.247  42.136  1.00  0.00     0.004 C 
ENDBRANCH  11  12
ENDBRANCH  10  11
ENDBRANCH   9  10
ENDBRANCH   8   9
ENDBRANCH   1   8
TORSDOF 9
ENDMDL
MODEL 5
REMARK VINA RESULT:    -3.433     17.923     19.315
REMARK INTER + INTRA:          -6.036
REMARK INTER:                  -5.487
REMARK INTRA:                  -0.548
REMARK UNBOUND:                -0.796
REMARK SMILES CCCCCCCCCCC(=O)[O-]
REMARK SMILES IDX 7 1 8 2 9 3 10 4 11 5 12 6 13 7 6 8 5 9 4 10 3 11 2 12 1 13
REMARK H PARENT
REMARK Flexibility Score: inf
ROOT
ATOM      1  C   UNL     1      29.090  -9.553  31.076  1.00  0.00     0.000 C 
ENDROOT
BRANCH   1   2
ATOM      2  C   UNL     1      28.161  -9.983  29.927  1.00  0.00     0.000 C 
BRANCH   2   3
ATOM      3  C   UNL     1      26.683  -9.675  30.213  1.00  0.00     0.006 C 
BRANCH   3   4
ATOM      4  C   UNL     1      26.285  -9.972  31.665  1.00  0.00     0.053 C 
BRANCH   4   5
ATOM      5  C   UNL     1      25.107  -9.141  32.063  1.00  0.00     0.041 C 
ATOM      6  O   UNL     1      24.393  -8.591  31.183  1.00  0.00    -0.550 OA
ATOM      7  O   UNL     1      24.825  -8.933  33.407  1.00  0.00    -0.550 OA
ENDBRANCH   4   5
ENDBRANCH   3   4
ENDBRANCH   2   3
ENDBRANCH   1   2
BRANCH   1   8
ATOM      8  C   UNL     1      30.432 -10.315  31.065  1.00  0.00     0.000 C 
BRANCH   8   9
ATOM      9  C   UNL     1      31.631  -9.462  31.521  1.00  0.00    -0.000 C 
BRANCH   9  10
ATOM     10  C   UNL     1      31.436  -7.941  31.371  1.00  0.00    -0.000 C 
BRANCH  10  11
ATOM     11  C   UNL     1      31.429  -7.149  32.695  1.00  0.00    -0.000 C 
BRANCH  11  12
ATOM     12  C   UNL     1      31.711  -7.984  33.955  1.00  0.00    -0.003 C 
ATOM     13  C   UNL     1      32.867  -7.434  34.791  1.00  0.00     0.004 C 
ENDBRANCH  11  12
ENDBRANCH  10  11
ENDBRANCH   9  10
ENDBRANCH   8   9
ENDBRANCH   1   8
TORSDOF 9
ENDMDL
MODEL 6
REMARK VINA RESULT:    -3.411     18.192     19.748
REMARK INTER + INTRA:          -6.002
REMARK INTER:                  -5.255
REMARK INTRA:                  -0.747
REMARK UNBOUND:                -0.796
REMARK SMILES CCCCCCCCCCC(=O)[O-]
REMARK SMILES IDX 7 1 8 2 9 3 10 4 11 5 12 6 13 7 6 8 5 9 4 10 3 11 2 12 1 13
REMARK H PARENT
REMARK Flexibility Score: inf
ROOT
ATOM      1  C   UNL     1      30.570 -11.035  31.291  1.00  0.00     0.000 C 
ENDROOT
BRANCH   1   2
ATOM      2  C   UNL     1      29.953 -11.636  30.017  1.00  0.00     0.000 C 
BRANCH   2   3
ATOM      3  C   UNL     1      28.435 -11.412  29.931  1.00  0.00     0.006 C 
BRANCH   3   4
ATOM      4  C   UNL     1      28.070 -10.020  29.400  1.00  0.00     0.053 C 
BRANCH   4   5
ATOM      5  C   UNL     1      26.872  -9.486  30.118  1.00  0.00     0.041 C 
ATOM      6  O   UNL     1      25.917  -8.982  29.470  1.00  0.00    -0.550 OA
ATOM      7  O   UNL     1      26.829  -9.502  31.506  1.00  0.00    -0.550 OA
ENDBRANCH   4   5
ENDBRANCH   3   4
ENDBRANCH   2   3
ENDBRANCH   1   2
BRANCH   1   8
ATOM      8  C   UNL     1      31.790 -10.138  30.988  1.00  0.00     0.000 C 
BRANCH   8   9
ATOM      9  C   UNL     1      31.483  -8.631  31.065  1.00  0.00    -0.000 C 
BRANCH   9  10
ATOM     10  C   UNL     1      30.192  -8.272  31.826  1.00  0.00    -0.000 C 
BRANCH  10  11
ATOM     11  C   UNL     1      30.286  -7.016  32.717  1.00  0.00    -0.000 C 
BRANCH  11  12
ATOM     12  C   UNL     1      31.689  -6.711  33.268  1.00  0.00    -0.003 C 
ATOM     13  C   UNL     1      32.166  -7.740  34.292  1.00  0.00     0.004 C 
ENDBRANCH  11  12
ENDBRANCH  10  11
ENDBRANCH   9  10
ENDBRANCH   8   9
ENDBRANCH   1   8
TORSDOF 9
ENDMDL
MODEL 7
REMARK VINA RESULT:    -3.394     18.641     20.517
REMARK INTER + INTRA:          -5.977
REMARK INTER:                  -5.370
REMARK INTRA:                  -0.606
REMARK UNBOUND:                -0.796
REMARK SMILES CCCCCCCCCCC(=O)[O-]
REMARK SMILES IDX 7 1 8 2 9 3 10 4 11 5 12 6 13 7 6 8 5 9 4 10 3 11 2 12 1 13
REMARK H PARENT
REMARK Flexibility Score: inf
ROOT
ATOM      1  C   UNL     1      29.746 -11.516  31.639  1.00  0.00     0.000 C 
ENDROOT
BRANCH   1   2
ATOM      2  C   UNL     1      30.781 -10.770  30.779  1.00  0.00     0.000 C 
BRANCH   2   3
ATOM      3  C   UNL     1      31.717  -9.883  31.615  1.00  0.00     0.006 C 
BRANCH   3   4
ATOM      4  C   UNL     1      31.395  -8.389  31.479  1.00  0.00     0.053 C 
BRANCH   4   5
ATOM      5  C   UNL     1      30.980  -7.824  32.800  1.00  0.00     0.041 C 
ATOM      6  O   UNL     1      31.474  -8.275  33.867  1.00  0.00    -0.550 OA
ATOM      7  O   UNL     1      30.011  -6.829  32.858  1.00  0.00    -0.550 OA
ENDBRANCH   4   5
ENDBRANCH   3   4
ENDBRANCH   2   3
ENDBRANCH   1   2
BRANCH   1   8
ATOM      8  C   UNL     1      28.296 -11.247  31.181  1.00  0.00     0.000 C 
BRANCH   8   9
ATOM      9  C   UNL     1      28.105  -9.876  30.507  1.00  0.00    -0.000 C 
BRANCH   9  10
ATOM     10  C   UNL     1      27.726  -9.937  29.014  1.00  0.00    -0.000 C 
BRANCH  10  11
ATOM     11  C   UNL     1      26.256  -9.591  28.698  1.00  0.00    -0.000 C 
BRANCH  11  12
ATOM     12  C   UNL     1      25.513  -8.830  29.809  1.00  0.00    -0.003 C 
ATOM     13  C   UNL     1      24.310  -8.041  29.291  1.00  0.00     0.004 C 
ENDBRANCH  11  12
ENDBRANCH  10  11
ENDBRANCH   9  10
ENDBRANCH   8   9
ENDBRANCH   1   8
TORSDOF 9
ENDMDL
MODEL 8
REMARK VINA RESULT:    -3.390     18.835     20.241
REMARK INTER + INTRA:          -5.970
REMARK INTER:                  -5.462
REMARK INTRA:                  -0.508
REMARK UNBOUND:                -0.796
REMARK SMILES CCCCCCCCCCC(=O)[O-]
REMARK SMILES IDX 7 1 8 2 9 3 10 4 11 5 12 6 13 7 6 8 5 9 4 10 3 11 2 12 1 13
REMARK H PARENT
REMARK Flexibility Score: inf
ROOT
ATOM      1  C   UNL     1      28.025 -10.382  30.488  1.00  0.00     0.000 C 
ENDROOT
BRANCH   1   2
ATOM      2  C   UNL     1      27.794  -9.903  29.045  1.00  0.00     0.000 C 
BRANCH   2   3
ATOM      3  C   UNL     1      26.312  -9.631  28.742  1.00  0.00     0.006 C 
BRANCH   3   4
ATOM      4  C   UNL     1      25.624  -8.806  29.837  1.00  0.00     0.053 C 
BRANCH   4   5
ATOM      5  C   UNL     1      24.420  -8.110  29.287  1.00  0.00     0.041 C 
ATOM      6  O   UNL     1      23.951  -8.446  28.168  1.00  0.00    -0.550 OA
ATOM      7  O   UNL     1      23.843  -7.059  29.988  1.00  0.00    -0.550 OA
ENDBRANCH   4   5
ENDBRANCH   3   4
ENDBRANCH   2   3
ENDBRANCH   1   2
BRANCH   1   8
ATOM      8  C   UNL     1      29.148  -9.593  31.197  1.00  0.00     0.000 C 
BRANCH   8   9
ATOM      9  C   UNL     1      30.548 -10.207  31.009  1.00  0.00    -0.000 C 
BRANCH   9  10
ATOM     10  C   UNL     1      31.715  -9.298  31.439  1.00  0.00    -0.000 C 
BRANCH  10  11
ATOM     11  C   UNL     1      31.394  -7.789  31.462  1.00  0.00    -0.000 C 
BRANCH  11  12
ATOM     12  C   UNL     1      31.383  -7.146  32.860  1.00  0.00    -0.003 C 
ATOM     13  C   UNL     1      31.688  -8.143  33.978  1.00  0.00     0.004 C 
ENDBRANCH  11  12
ENDBRANCH  10  11
ENDBRANCH   9  10
ENDBRANCH   8   9
ENDBRANCH   1   8
TORSDOF 9
ENDMDL
MODEL 9
REMARK VINA RESULT:    -3.333     18.524     20.415
REMARK INTER + INTRA:          -5.884
REMARK INTER:                  -5.223
REMARK INTRA:                  -0.660
REMARK UNBOUND:                -0.796
REMARK SMILES CCCCCCCCCCC(=O)[O-]
REMARK SMILES IDX 7 1 8 2 9 3 10 4 11 5 12 6 13 7 6 8 5 9 4 10 3 11 2 12 1 13
REMARK H PARENT
REMARK Flexibility Score: inf
ROOT
ATOM      1  C   UNL     1      29.332  -9.907  30.568  1.00  0.00     0.000 C 
ENDROOT
BRANCH   1   2
ATOM      2  C   UNL     1      30.364 -10.349  31.620  1.00  0.00     0.000 C 
BRANCH   2   3
ATOM      3  C   UNL     1      31.703  -9.608  31.484  1.00  0.00     0.006 C 
BRANCH   3   4
ATOM      4  C   UNL     1      31.538  -8.083  31.472  1.00  0.00     0.053 C 
BRANCH   4   5
ATOM      5  C   UNL     1      31.035  -7.603  32.797  1.00  0.00     0.041 C 
ATOM      6  O   UNL     1      30.027  -6.851  32.857  1.00  0.00    -0.550 OA
ATOM      7  O   UNL     1      31.707  -7.947  33.963  1.00  0.00    -0.550 OA
ENDBRANCH   4   5
ENDBRANCH   3   4
ENDBRANCH   2   3
ENDBRANCH   1   2
BRANCH   1   8
ATOM      8  C   UNL     1      27.989  -9.484  31.202  1.00  0.00     0.000 C 
BRANCH   8   9
ATOM      9  C   UNL     1      26.906 -10.578  31.142  1.00  0.00    -0.000 C 
BRANCH   9  10
ATOM     10  C   UNL     1      26.006 -10.528  29.893  1.00  0.00    -0.000 C 
BRANCH  10  11
ATOM     11  C   UNL     1      25.932  -9.154  29.194  1.00  0.00    -0.000 C 
BRANCH  11  12
ATOM     12  C   UNL     1      24.526  -8.534  29.122  1.00  0.00    -0.003 C 
ATOM     13  C   UNL     1      24.013  -8.056  30.480  1.00  0.00     0.004 C 
ENDBRANCH  11  12
ENDBRANCH  10  11
ENDBRANCH   9  10
ENDBRANCH   8   9
ENDBRANCH   1   8
TORSDOF 9
ENDMDL
