MODEL 1
REMARK VINA RESULT:    -5.270      0.000      0.000
REMARK INTER + INTRA:         -14.429
REMARK INTER:                 -12.047
REMARK INTRA:                  -2.382
REMARK UNBOUND:                -2.382
REMARK SMILES CCCCCCCCCCCCCCCCCCCCCCCC(=O)[O-]
REMARK SMILES IDX 13 1 14 2 15 3 16 4 17 5 18 6 19 7 20 8 21 9 22 10 23 11
REMARK SMILES IDX 24 12 25 13 26 14 12 15 11 16 10 17 9 18 8 19 7 20 6 21 5 22
REMARK SMILES IDX 4 23 3 24 2 25 1 26
REMARK H PARENT
REMARK Flexibility Score: inf
ROOT
ATOM      1  C   UNL     1       0.802  19.823 -11.516  1.00  0.00     0.000 C 
ENDROOT
BRANCH   1   2
ATOM      2  C   UNL     1       1.789  19.548 -12.666  1.00  0.00     0.000 C 
BRANCH   2   3
ATOM      3  C   UNL     1       2.296  20.838 -13.327  1.00  0.00     0.000 C 
BRANCH   3   4
ATOM      4  C   UNL     1       2.562  20.664 -14.833  1.00  0.00     0.000 C 
BRANCH   4   5
ATOM      5  C   UNL     1       3.172  21.918 -15.477  1.00  0.00     0.000 C 
BRANCH   5   6
ATOM      6  C   UNL     1       2.199  22.626 -16.433  1.00  0.00     0.000 C 
BRANCH   6   7
ATOM      7  C   UNL     1       2.904  23.019 -17.740  1.00  0.00     0.000 C 
BRANCH   7   8
ATOM      8  C   UNL     1       1.970  22.973 -18.963  1.00  0.00     0.000 C 
BRANCH   8   9
ATOM      9  C   UNL     1       0.912  21.853 -18.935  1.00  0.00     0.000 C 
BRANCH   9  10
ATOM     10  C   UNL     1       1.310  20.631 -19.781  1.00  0.00     0.006 C 
BRANCH  10  11
ATOM     11  C   UNL     1       2.780  20.681 -20.214  1.00  0.00     0.053 C 
BRANCH  11  12
ATOM     12  C   UNL     1       3.201  19.419 -20.903  1.00  0.00     0.041 C 
ATOM     13  O   UNL     1       4.376  19.292 -21.337  1.00  0.00    -0.550 OA
ATOM     14  O   UNL     1       2.300  18.371 -21.042  1.00  0.00    -0.550 OA
ENDBRANCH  11  12
ENDBRANCH  10  11
ENDBRANCH   9  10
ENDBRANCH   8   9
ENDBRANCH   7   8
ENDBRANCH   6   7
ENDBRANCH   5   6
ENDBRANCH   4   5
ENDBRANCH   3   4
ENDBRANCH   2   3
ENDBRANCH   1   2
BRANCH   1  15
ATOM     15  C   UNL     1       0.697  18.648 -10.531  1.00  0.00     0.000 C 
BRANCH  15  16
ATOM     16  C   UNL     1       2.073  18.166 -10.037  1.00  0.00     0.000 C 
BRANCH  16  17
ATOM     17  C   UNL     1       1.963  17.077  -8.957  1.00  0.00     0.000 C 
BRANCH  17  18
ATOM     18  C   UNL     1       2.783  17.414  -7.699  1.00  0.00    -0.000 C 
BRANCH  18  19
ATOM     19  C   UNL     1       1.919  17.464  -6.429  1.00  0.00    -0.000 C 
BRANCH  19  20
ATOM     20  C   UNL     1       0.414  17.509  -6.734  1.00  0.00    -0.000 C 
BRANCH  20  21
ATOM     21  C   UNL     1      -0.256  18.690  -6.023  1.00  0.00    -0.000 C 
BRANCH  21  22
ATOM     22  C   UNL     1       0.780  19.543  -5.275  1.00  0.00    -0.000 C 
BRANCH  22  23
ATOM     23  C   UNL     1       0.930  20.958  -5.862  1.00  0.00    -0.000 C 
BRANCH  23  24
ATOM     24  C   UNL     1       0.526  21.094  -7.341  1.00  0.00    -0.000 C 
BRANCH  24  25
ATOM     25  C   UNL     1       1.715  21.411  -8.260  1.00  0.00    -0.003 C 
ATOM     26  C   UNL     1       3.037  21.028  -7.601  1.00  0.00     0.004 C 
ENDBRANCH  24  25
ENDBRANCH  23  24
ENDBRANCH  22  23
ENDBRANCH  21  22
ENDBRANCH  20  21
ENDBRANCH  19  20
ENDBRANCH  18  19
ENDBRANCH  17  18
ENDBRANCH  16  17
ENDBRANCH  15  16
ENDBRANCH   1  15
TORSDOF 22
ENDMDL
MODEL 2
REMARK VINA RESULT:    -5.215      3.568     10.802
REMARK INTER + INTRA:         -14.303
REMARK INTER:                 -12.114
REMARK INTRA:                  -2.188
REMARK UNBOUND:                -2.382
REMARK SMILES CCCCCCCCCCCCCCCCCCCCCCCC(=O)[O-]
REMARK SMILES IDX 13 1 14 2 15 3 16 4 17 5 18 6 19 7 20 8 21 9 22 10 23 11
REMARK SMILES IDX 24 12 25 13 26 14 12 15 11 16 10 17 9 18 8 19 7 20 6 21 5 22
REMARK SMILES IDX 4 23 3 24 2 25 1 26
REMARK H PARENT
REMARK Flexibility Score: inf
ROOT
ATOM      1  C   UNL     1       2.616  18.257 -11.564  1.00  0.00     0.000 C 
ENDROOT
BRANCH   1   2
ATOM      2  C   UNL     1       1.818  17.458 -10.517  1.00  0.00     0.000 C 
BRANCH   2   3
ATOM      3  C   UNL     1       0.414  18.036 -10.280  1.00  0.00     0.000 C 
BRANCH   3   4
ATOM      4  C   UNL     1      -0.122  17.727  -8.871  1.00  0.00     0.000 C 
BRANCH   4   5
ATOM      5  C   UNL     1       0.868  16.912  -8.026  1.00  0.00     0.000 C 
BRANCH   5   6
ATOM      6  C   UNL     1       0.752  17.213  -6.524  1.00  0.00     0.000 C 
BRANCH   6   7
ATOM      7  C   UNL     1      -0.197  18.394  -6.273  1.00  0.00     0.000 C 
BRANCH   7   8
ATOM      8  C   UNL     1       0.411  19.468  -5.353  1.00  0.00     0.000 C 
BRANCH   8   9
ATOM      9  C   UNL     1       0.448  20.890  -5.945  1.00  0.00     0.000 C 
BRANCH   9  10
ATOM     10  C   UNL     1       0.566  20.898  -7.478  1.00  0.00     0.006 C 
BRANCH  10  11
ATOM     11  C   UNL     1       1.831  21.620  -7.959  1.00  0.00     0.053 C 
BRANCH  11  12
ATOM     12  C   UNL     1       2.814  20.671  -8.572  1.00  0.00     0.041 C 
ATOM     13  O   UNL     1       3.394  20.966  -9.650  1.00  0.00    -0.550 OA
ATOM     14  O   UNL     1       3.109  19.471  -7.939  1.00  0.00    -0.550 OA
ENDBRANCH  11  12
ENDBRANCH  10  11
ENDBRANCH   9  10
ENDBRANCH   8   9
ENDBRANCH   7   8
ENDBRANCH   6   7
ENDBRANCH   5   6
ENDBRANCH   4   5
ENDBRANCH   3   4
ENDBRANCH   2   3
ENDBRANCH   1   2
BRANCH   1  15
ATOM     15  C   UNL     1       1.719  18.874 -12.649  1.00  0.00     0.000 C 
BRANCH  15  16
ATOM     16  C   UNL     1       2.131  20.313 -13.006  1.00  0.00     0.000 C 
BRANCH  16  17
ATOM     17  C   UNL     1       2.506  20.468 -14.490  1.00  0.00     0.000 C 
BRANCH  17  18
ATOM     18  C   UNL     1       2.738  21.937 -14.885  1.00  0.00    -0.000 C 
BRANCH  18  19
ATOM     19  C   UNL     1       3.845  22.096 -15.940  1.00  0.00    -0.000 C 
BRANCH  19  20
ATOM     20  C   UNL     1       3.292  22.393 -17.342  1.00  0.00    -0.000 C 
BRANCH  20  21
ATOM     21  C   UNL     1       1.762  22.488 -17.321  1.00  0.00    -0.000 C 
BRANCH  21  22
ATOM     22  C   UNL     1       1.184  22.398 -18.741  1.00  0.00    -0.000 C 
BRANCH  22  23
ATOM     23  C   UNL     1       2.039  21.531 -19.684  1.00  0.00    -0.000 C 
BRANCH  23  24
ATOM     24  C   UNL     1       1.461  20.138 -19.989  1.00  0.00    -0.000 C 
BRANCH  24  25
ATOM     25  C   UNL     1       2.508  19.163 -20.544  1.00  0.00    -0.003 C 
ATOM     26  C   UNL     1       3.658  19.912 -21.212  1.00  0.00     0.004 C 
ENDBRANCH  24  25
ENDBRANCH  23  24
ENDBRANCH  22  23
ENDBRANCH  21  22
ENDBRANCH  20  21
ENDBRANCH  19  20
ENDBRANCH  18  19
ENDBRANCH  17  18
ENDBRANCH  16  17
ENDBRANCH  15  16
ENDBRANCH   1  15
TORSDOF 22
ENDMDL
MODEL 3
REMARK VINA RESULT:    -5.164     10.109     13.482
REMARK INTER + INTRA:         -14.187
REMARK INTER:                 -10.830
REMARK INTRA:                  -3.357
REMARK UNBOUND:                -2.382
REMARK SMILES CCCCCCCCCCCCCCCCCCCCCCCC(=O)[O-]
REMARK SMILES IDX 13 1 14 2 15 3 16 4 17 5 18 6 19 7 20 8 21 9 22 10 23 11
REMARK SMILES IDX 24 12 25 13 26 14 12 15 11 16 10 17 9 18 8 19 7 20 6 21 5 22
REMARK SMILES IDX 4 23 3 24 2 25 1 26
REMARK H PARENT
REMARK Flexibility Score: inf
ROOT
ATOM      1  C   UNL     1       5.575  30.283 -14.955  1.00  0.00     0.000 C 
ENDROOT
BRANCH   1   2
ATOM      2  C   UNL     1       6.360  29.038 -15.406  1.00  0.00     0.000 C 
BRANCH   2   3
ATOM      3  C   UNL     1       6.804  28.162 -14.225  1.00  0.00     0.000 C 
BRANCH   3   4
ATOM      4  C   UNL     1       7.521  28.969 -13.128  1.00  0.00     0.000 C 
BRANCH   4   5
ATOM      5  C   UNL     1       9.008  28.606 -13.000  1.00  0.00     0.000 C 
BRANCH   5   6
ATOM      6  C   UNL     1       9.549  27.878 -14.240  1.00  0.00     0.000 C 
BRANCH   6   7
ATOM      7  C   UNL     1      10.239  26.564 -13.847  1.00  0.00     0.000 C 
BRANCH   7   8
ATOM      8  C   UNL     1      10.338  26.371 -12.323  1.00  0.00     0.000 C 
BRANCH   8   9
ATOM      9  C   UNL     1       9.712  25.069 -11.787  1.00  0.00     0.000 C 
BRANCH   9  10
ATOM     10  C   UNL     1       8.440  24.658 -12.548  1.00  0.00     0.006 C 
BRANCH  10  11
ATOM     11  C   UNL     1       7.354  24.117 -11.611  1.00  0.00     0.053 C 
BRANCH  11  12
ATOM     12  C   UNL     1       7.874  23.023 -10.729  1.00  0.00     0.041 C 
ATOM     13  O   UNL     1       8.311  21.954 -11.232  1.00  0.00    -0.550 OA
ATOM     14  O   UNL     1       7.899  23.195  -9.351  1.00  0.00    -0.550 OA
ENDBRANCH  11  12
ENDBRANCH  10  11
ENDBRANCH   9  10
ENDBRANCH   8   9
ENDBRANCH   7   8
ENDBRANCH   6   7
ENDBRANCH   5   6
ENDBRANCH   4   5
ENDBRANCH   3   4
ENDBRANCH   2   3
ENDBRANCH   1   2
BRANCH   1  15
ATOM     15  C   UNL     1       6.052  31.569 -15.650  1.00  0.00     0.000 C 
BRANCH  15  16
ATOM     16  C   UNL     1       5.125  32.767 -15.375  1.00  0.00     0.000 C 
BRANCH  16  17
ATOM     17  C   UNL     1       4.124  32.488 -14.241  1.00  0.00     0.000 C 
BRANCH  17  18
ATOM     18  C   UNL     1       3.879  33.726 -13.359  1.00  0.00    -0.000 C 
BRANCH  18  19
ATOM     19  C   UNL     1       3.840  33.383 -11.861  1.00  0.00    -0.000 C 
BRANCH  19  20
ATOM     20  C   UNL     1       5.084  32.611 -11.395  1.00  0.00    -0.000 C 
BRANCH  20  21
ATOM     21  C   UNL     1       6.224  33.572 -11.036  1.00  0.00    -0.000 C 
BRANCH  21  22
ATOM     22  C   UNL     1       7.259  33.646 -12.169  1.00  0.00    -0.000 C 
BRANCH  22  23
ATOM     23  C   UNL     1       7.891  32.281 -12.496  1.00  0.00    -0.000 C 
BRANCH  23  24
ATOM     24  C   UNL     1       9.360  32.337 -12.952  1.00  0.00    -0.000 C 
BRANCH  24  25
ATOM     25  C   UNL     1       9.536  32.028 -14.445  1.00  0.00    -0.003 C 
ATOM     26  C   UNL     1       9.300  33.273 -15.296  1.00  0.00     0.004 C 
ENDBRANCH  24  25
ENDBRANCH  23  24
ENDBRANCH  22  23
ENDBRANCH  21  22
ENDBRANCH  20  21
ENDBRANCH  19  20
ENDBRANCH  18  19
ENDBRANCH  17  18
ENDBRANCH  16  17
ENDBRANCH  15  16
ENDBRANCH   1  15
TORSDOF 22
ENDMDL
MODEL 4
REMARK VINA RESULT:    -5.075      3.650     10.874
REMARK INTER + INTRA:         -13.985
REMARK INTER:                 -11.804
REMARK INTRA:                  -2.181
REMARK UNBOUND:                -2.382
REMARK SMILES CCCCCCCCCCCCCCCCCCCCCCCC(=O)[O-]
REMARK SMILES IDX 13 1 14 2 15 3 16 4 17 5 18 6 19 7 20 8 21 9 22 10 23 11
REMARK SMILES IDX 24 12 25 13 26 14 12 15 11 16 10 17 9 18 8 19 7 20 6 21 5 22
REMARK SMILES IDX 4 23 3 24 2 25 1 26
REMARK H PARENT
REMARK Flexibility Score: inf
ROOT
ATOM      1  C   UNL     1       1.964  18.180 -10.343  1.00  0.00     0.000 C 
ENDROOT
BRANCH   1   2
ATOM      2  C   UNL     1       3.060  17.747  -9.352  1.00  0.00     0.000 C 
BRANCH   2   3
ATOM      3  C   UNL     1       2.492  16.999  -8.136  1.00  0.00     0.000 C 
BRANCH   3   4
ATOM      4  C   UNL     1       3.074  17.507  -6.805  1.00  0.00     0.000 C 
BRANCH   4   5
ATOM      5  C   UNL     1       2.006  17.669  -5.713  1.00  0.00     0.000 C 
BRANCH   5   6
ATOM      6  C   UNL     1       0.641  17.102  -6.131  1.00  0.00     0.000 C 
BRANCH   6   7
ATOM      7  C   UNL     1      -0.407  18.219  -6.240  1.00  0.00     0.000 C 
BRANCH   7   8
ATOM      8  C   UNL     1       0.009  19.505  -5.503  1.00  0.00     0.000 C 
BRANCH   8   9
ATOM      9  C   UNL     1       0.108  20.763  -6.388  1.00  0.00     0.000 C 
BRANCH   9  10
ATOM     10  C   UNL     1       0.615  20.458  -7.807  1.00  0.00     0.006 C 
BRANCH  10  11
ATOM     11  C   UNL     1       1.385  21.638  -8.413  1.00  0.00     0.053 C 
BRANCH  11  12
ATOM     12  C   UNL     1       2.836  21.316  -8.606  1.00  0.00     0.041 C 
ATOM     13  O   UNL     1       3.360  21.402  -9.748  1.00  0.00    -0.550 OA
ATOM     14  O   UNL     1       3.615  20.946  -7.517  1.00  0.00    -0.550 OA
ENDBRANCH  11  12
ENDBRANCH  10  11
ENDBRANCH   9  10
ENDBRANCH   8   9
ENDBRANCH   7   8
ENDBRANCH   6   7
ENDBRANCH   5   6
ENDBRANCH   4   5
ENDBRANCH   3   4
ENDBRANCH   2   3
ENDBRANCH   1   2
BRANCH   1  15
ATOM     15  C   UNL     1       2.514  18.458 -11.751  1.00  0.00     0.000 C 
BRANCH  15  16
ATOM     16  C   UNL     1       1.900  19.719 -12.385  1.00  0.00     0.000 C 
BRANCH  16  17
ATOM     17  C   UNL     1       2.436  19.986 -13.802  1.00  0.00     0.000 C 
BRANCH  17  18
ATOM     18  C   UNL     1       2.419  21.482 -14.163  1.00  0.00    -0.000 C 
BRANCH  18  19
ATOM     19  C   UNL     1       3.066  21.766 -15.528  1.00  0.00    -0.000 C 
BRANCH  19  20
ATOM     20  C   UNL     1       2.065  21.680 -16.690  1.00  0.00    -0.000 C 
BRANCH  20  21
ATOM     21  C   UNL     1       2.156  22.921 -17.586  1.00  0.00    -0.000 C 
BRANCH  21  22
ATOM     22  C   UNL     1       1.661  22.612 -19.008  1.00  0.00    -0.000 C 
BRANCH  22  23
ATOM     23  C   UNL     1       2.462  21.490 -19.692  1.00  0.00    -0.000 C 
BRANCH  23  24
ATOM     24  C   UNL     1       1.621  20.300 -20.187  1.00  0.00    -0.000 C 
BRANCH  24  25
ATOM     25  C   UNL     1       2.470  19.071 -20.540  1.00  0.00    -0.003 C 
ATOM     26  C   UNL     1       3.758  19.478 -21.252  1.00  0.00     0.004 C 
ENDBRANCH  24  25
ENDBRANCH  23  24
ENDBRANCH  22  23
ENDBRANCH  21  22
ENDBRANCH  20  21
ENDBRANCH  19  20
ENDBRANCH  18  19
ENDBRANCH  17  18
ENDBRANCH  16  17
ENDBRANCH  15  16
ENDBRANCH   1  15
TORSDOF 22
ENDMDL
MODEL 5
REMARK VINA RESULT:    -5.023      0.991      2.079
REMARK INTER + INTRA:         -13.865
REMARK INTER:                 -10.938
REMARK INTRA:                  -2.926
REMARK UNBOUND:                -2.382
REMARK SMILES CCCCCCCCCCCCCCCCCCCCCCCC(=O)[O-]
REMARK SMILES IDX 13 1 14 2 15 3 16 4 17 5 18 6 19 7 20 8 21 9 22 10 23 11
REMARK SMILES IDX 24 12 25 13 26 14 12 15 11 16 10 17 9 18 8 19 7 20 6 21 5 22
REMARK SMILES IDX 4 23 3 24 2 25 1 26
REMARK H PARENT
REMARK Flexibility Score: inf
ROOT
ATOM      1  C   UNL     1       0.681  17.748 -10.665  1.00  0.00     0.000 C 
ENDROOT
BRANCH   1   2
ATOM      2  C   UNL     1       1.819  17.326 -11.612  1.00  0.00     0.000 C 
BRANCH   2   3
ATOM      3  C   UNL     1       2.567  18.530 -12.207  1.00  0.00     0.000 C 
BRANCH   3   4
ATOM      4  C   UNL     1       1.615  19.654 -12.652  1.00  0.00     0.000 C 
BRANCH   4   5
ATOM      5  C   UNL     1       2.357  20.852 -13.265  1.00  0.00     0.000 C 
BRANCH   5   6
ATOM      6  C   UNL     1       2.468  20.760 -14.794  1.00  0.00     0.000 C 
BRANCH   6   7
ATOM      7  C   UNL     1       2.813  22.128 -15.402  1.00  0.00     0.000 C 
BRANCH   7   8
ATOM      8  C   UNL     1       2.832  22.113 -16.941  1.00  0.00     0.000 C 
BRANCH   8   9
ATOM      9  C   UNL     1       1.448  22.203 -17.612  1.00  0.00     0.000 C 
BRANCH   9  10
ATOM     10  C   UNL     1       1.518  22.105 -19.145  1.00  0.00     0.006 C 
BRANCH  10  11
ATOM     11  C   UNL     1       1.464  20.653 -19.636  1.00  0.00     0.053 C 
BRANCH  11  12
ATOM     12  C   UNL     1       2.576  20.347 -20.592  1.00  0.00     0.041 C 
ATOM     13  O   UNL     1       2.747  19.173 -21.014  1.00  0.00    -0.550 OA
ATOM     14  O   UNL     1       3.410  21.365 -21.037  1.00  0.00    -0.550 OA
ENDBRANCH  11  12
ENDBRANCH  10  11
ENDBRANCH   9  10
ENDBRANCH   8   9
ENDBRANCH   7   8
ENDBRANCH   6   7
ENDBRANCH   5   6
ENDBRANCH   4   5
ENDBRANCH   3   4
ENDBRANCH   2   3
ENDBRANCH   1   2
BRANCH   1  15
ATOM     15  C   UNL     1       0.955  17.367  -9.201  1.00  0.00     0.000 C 
BRANCH  15  16
ATOM     16  C   UNL     1       2.410  16.918  -8.971  1.00  0.00     0.000 C 
BRANCH  16  17
ATOM     17  C   UNL     1       2.860  17.105  -7.512  1.00  0.00     0.000 C 
BRANCH  17  18
ATOM     18  C   UNL     1       1.700  17.521  -6.590  1.00  0.00    -0.000 C 
BRANCH  18  19
ATOM     19  C   UNL     1       2.044  18.744  -5.724  1.00  0.00    -0.000 C 
BRANCH  19  20
ATOM     20  C   UNL     1       0.816  19.333  -5.013  1.00  0.00    -0.000 C 
BRANCH  20  21
ATOM     21  C   UNL     1       0.544  20.766  -5.485  1.00  0.00    -0.000 C 
BRANCH  21  22
ATOM     22  C   UNL     1       0.076  20.785  -6.949  1.00  0.00    -0.000 C 
BRANCH  22  23
ATOM     23  C   UNL     1       0.941  21.690  -7.844  1.00  0.00    -0.000 C 
BRANCH  23  24
ATOM     24  C   UNL     1       1.415  21.042  -9.157  1.00  0.00    -0.000 C 
BRANCH  24  25
ATOM     25  C   UNL     1       2.871  20.560  -9.095  1.00  0.00    -0.003 C 
ATOM     26  C   UNL     1       3.586  21.124  -7.870  1.00  0.00     0.004 C 
ENDBRANCH  24  25
ENDBRANCH  23  24
ENDBRANCH  22  23
ENDBRANCH  21  22
ENDBRANCH  20  21
ENDBRANCH  19  20
ENDBRANCH  18  19
ENDBRANCH  17  18
ENDBRANCH  16  17
ENDBRANCH  15  16
ENDBRANCH   1  15
TORSDOF 22
ENDMDL
MODEL 6
REMARK VINA RESULT:    -4.993      4.450     11.097
REMARK INTER + INTRA:         -13.795
REMARK INTER:                 -11.549
REMARK INTRA:                  -2.246
REMARK UNBOUND:                -2.382
REMARK SMILES CCCCCCCCCCCCCCCCCCCCCCCC(=O)[O-]
REMARK SMILES IDX 13 1 14 2 15 3 16 4 17 5 18 6 19 7 20 8 21 9 22 10 23 11
REMARK SMILES IDX 24 12 25 13 26 14 12 15 11 16 10 17 9 18 8 19 7 20 6 21 5 22
REMARK SMILES IDX 4 23 3 24 2 25 1 26
REMARK H PARENT
REMARK Flexibility Score: inf
ROOT
ATOM      1  C   UNL     1       0.579  19.220 -12.375  1.00  0.00     0.000 C 
ENDROOT
BRANCH   1   2
ATOM      2  C   UNL     1       0.360  18.256 -11.195  1.00  0.00     0.000 C 
BRANCH   2   3
ATOM      3  C   UNL     1       1.681  17.785 -10.567  1.00  0.00     0.000 C 
BRANCH   3   4
ATOM      4  C   UNL     1       1.699  17.951  -9.037  1.00  0.00     0.000 C 
BRANCH   4   5
ATOM      5  C   UNL     1       2.880  18.801  -8.546  1.00  0.00     0.000 C 
BRANCH   5   6
ATOM      6  C   UNL     1       3.257  19.917  -9.532  1.00  0.00     0.000 C 
BRANCH   6   7
ATOM      7  C   UNL     1       2.374  21.156  -9.323  1.00  0.00     0.000 C 
BRANCH   7   8
ATOM      8  C   UNL     1       2.014  21.393  -7.845  1.00  0.00     0.000 C 
BRANCH   8   9
ATOM      9  C   UNL     1       0.513  21.287  -7.513  1.00  0.00     0.000 C 
BRANCH   9  10
ATOM     10  C   UNL     1       0.246  21.024  -6.022  1.00  0.00     0.006 C 
BRANCH  10  11
ATOM     11  C   UNL     1       1.349  20.177  -5.376  1.00  0.00     0.053 C 
BRANCH  11  12
ATOM     12  C   UNL     1       1.021  18.715  -5.409  1.00  0.00     0.041 C 
ATOM     13  O   UNL     1       1.801  17.876  -4.887  1.00  0.00    -0.550 OA
ATOM     14  O   UNL     1      -0.162  18.283  -5.995  1.00  0.00    -0.550 OA
ENDBRANCH  11  12
ENDBRANCH  10  11
ENDBRANCH   9  10
ENDBRANCH   8   9
ENDBRANCH   7   8
ENDBRANCH   6   7
ENDBRANCH   5   6
ENDBRANCH   4   5
ENDBRANCH   3   4
ENDBRANCH   2   3
ENDBRANCH   1   2
BRANCH   1  15
ATOM     15  C   UNL     1       2.044  19.271 -12.837  1.00  0.00     0.000 C 
BRANCH  15  16
ATOM     16  C   UNL     1       2.449  20.660 -13.363  1.00  0.00     0.000 C 
BRANCH  16  17
ATOM     17  C   UNL     1       2.511  20.713 -14.899  1.00  0.00     0.000 C 
BRANCH  17  18
ATOM     18  C   UNL     1       2.921  22.101 -15.421  1.00  0.00    -0.000 C 
BRANCH  18  19
ATOM     19  C   UNL     1       3.332  22.076 -16.902  1.00  0.00    -0.000 C 
BRANCH  19  20
ATOM     20  C   UNL     1       2.874  23.326 -17.668  1.00  0.00    -0.000 C 
BRANCH  20  21
ATOM     21  C   UNL     1       1.623  23.030 -18.504  1.00  0.00    -0.000 C 
BRANCH  21  22
ATOM     22  C   UNL     1       1.294  21.530 -18.492  1.00  0.00    -0.000 C 
BRANCH  22  23
ATOM     23  C   UNL     1       1.396  20.881 -19.885  1.00  0.00    -0.000 C 
BRANCH  23  24
ATOM     24  C   UNL     1       1.823  19.403 -19.883  1.00  0.00    -0.000 C 
BRANCH  24  25
ATOM     25  C   UNL     1       2.605  19.005 -21.143  1.00  0.00    -0.003 C 
ATOM     26  C   UNL     1       4.071  19.412 -21.033  1.00  0.00     0.004 C 
ENDBRANCH  24  25
ENDBRANCH  23  24
ENDBRANCH  22  23
ENDBRANCH  21  22
ENDBRANCH  20  21
ENDBRANCH  19  20
ENDBRANCH  18  19
ENDBRANCH  17  18
ENDBRANCH  16  17
ENDBRANCH  15  16
ENDBRANCH   1  15
TORSDOF 22
ENDMDL
MODEL 7
REMARK VINA RESULT:    -4.990     10.562     13.540
REMARK INTER + INTRA:         -13.789
REMARK INTER:                 -10.016
REMARK INTRA:                  -3.773
REMARK UNBOUND:                -2.382
REMARK SMILES CCCCCCCCCCCCCCCCCCCCCCCC(=O)[O-]
REMARK SMILES IDX 13 1 14 2 15 3 16 4 17 5 18 6 19 7 20 8 21 9 22 10 23 11
REMARK SMILES IDX 24 12 25 13 26 14 12 15 11 16 10 17 9 18 8 19 7 20 6 21 5 22
REMARK SMILES IDX 4 23 3 24 2 25 1 26
REMARK H PARENT
REMARK Flexibility Score: inf
ROOT
ATOM      1  C   UNL     1       5.485  30.938 -14.869  1.00  0.00     0.000 C 
ENDROOT
BRANCH   1   2
ATOM      2  C   UNL     1       5.073  32.359 -15.295  1.00  0.00     0.000 C 
BRANCH   2   3
ATOM      3  C   UNL     1       5.904  32.883 -16.477  1.00  0.00     0.000 C 
BRANCH   3   4
ATOM      4  C   UNL     1       6.824  34.051 -16.080  1.00  0.00     0.000 C 
BRANCH   4   5
ATOM      5  C   UNL     1       8.306  33.761 -16.359  1.00  0.00     0.000 C 
BRANCH   5   6
ATOM      6  C   UNL     1       9.129  33.593 -15.072  1.00  0.00     0.000 C 
BRANCH   6   7
ATOM      7  C   UNL     1       9.158  32.124 -14.627  1.00  0.00     0.000 C 
BRANCH   7   8
ATOM      8  C   UNL     1       9.176  31.961 -13.097  1.00  0.00     0.000 C 
BRANCH   8   9
ATOM      9  C   UNL     1       7.793  31.771 -12.444  1.00  0.00     0.000 C 
BRANCH   9  10
ATOM     10  C   UNL     1       7.366  32.973 -11.585  1.00  0.00     0.006 C 
BRANCH  10  11
ATOM     11  C   UNL     1       6.085  33.634 -12.111  1.00  0.00     0.053 C 
BRANCH  11  12
ATOM     12  C   UNL     1       4.861  33.083 -11.446  1.00  0.00     0.041 C 
ATOM     13  O   UNL     1       4.968  32.262 -10.497  1.00  0.00    -0.550 OA
ATOM     14  O   UNL     1       3.601  33.497 -11.858  1.00  0.00    -0.550 OA
ENDBRANCH  11  12
ENDBRANCH  10  11
ENDBRANCH   9  10
ENDBRANCH   8   9
ENDBRANCH   7   8
ENDBRANCH   6   7
ENDBRANCH   5   6
ENDBRANCH   4   5
ENDBRANCH   3   4
ENDBRANCH   2   3
ENDBRANCH   1   2
BRANCH   1  15
ATOM     15  C   UNL     1       6.280  30.199 -15.958  1.00  0.00     0.000 C 
BRANCH  15  16
ATOM     16  C   UNL     1       7.159  29.073 -15.384  1.00  0.00     0.000 C 
BRANCH  16  17
ATOM     17  C   UNL     1       6.616  28.520 -14.056  1.00  0.00     0.000 C 
BRANCH  17  18
ATOM     18  C   UNL     1       7.740  28.135 -13.078  1.00  0.00    -0.000 C 
BRANCH  18  19
ATOM     19  C   UNL     1       9.134  28.220 -13.719  1.00  0.00    -0.000 C 
BRANCH  19  20
ATOM     20  C   UNL     1      10.261  27.839 -12.746  1.00  0.00    -0.000 C 
BRANCH  20  21
ATOM     21  C   UNL     1      10.629  26.357 -12.886  1.00  0.00    -0.000 C 
BRANCH  21  22
ATOM     22  C   UNL     1      10.187  25.560 -11.649  1.00  0.00    -0.000 C 
BRANCH  22  23
ATOM     23  C   UNL     1       9.226  24.407 -11.990  1.00  0.00    -0.000 C 
BRANCH  23  24
ATOM     24  C   UNL     1       8.288  23.983 -10.846  1.00  0.00    -0.000 C 
BRANCH  24  25
ATOM     25  C   UNL     1       6.813  23.935 -11.267  1.00  0.00    -0.003 C 
ATOM     26  C   UNL     1       6.573  24.764 -12.526  1.00  0.00     0.004 C 
ENDBRANCH  24  25
ENDBRANCH  23  24
ENDBRANCH  22  23
ENDBRANCH  21  22
ENDBRANCH  20  21
ENDBRANCH  19  20
ENDBRANCH  18  19
ENDBRANCH  17  18
ENDBRANCH  16  17
ENDBRANCH  15  16
ENDBRANCH   1  15
TORSDOF 22
ENDMDL
MODEL 8
REMARK VINA RESULT:    -4.985     10.340     13.581
REMARK INTER + INTRA:         -13.779
REMARK INTER:                  -9.640
REMARK INTRA:                  -4.139
REMARK UNBOUND:                -2.382
REMARK SMILES CCCCCCCCCCCCCCCCCCCCCCCC(=O)[O-]
REMARK SMILES IDX 13 1 14 2 15 3 16 4 17 5 18 6 19 7 20 8 21 9 22 10 23 11
REMARK SMILES IDX 24 12 25 13 26 14 12 15 11 16 10 17 9 18 8 19 7 20 6 21 5 22
REMARK SMILES IDX 4 23 3 24 2 25 1 26
REMARK H PARENT
REMARK Flexibility Score: inf
ROOT
ATOM      1  C   UNL     1       5.901  30.540 -14.918  1.00  0.00     0.000 C 
ENDROOT
BRANCH   1   2
ATOM      2  C   UNL     1       6.289  29.127 -15.392  1.00  0.00     0.000 C 
BRANCH   2   3
ATOM      3  C   UNL     1       7.134  28.370 -14.357  1.00  0.00     0.000 C 
BRANCH   3   4
ATOM      4  C   UNL     1       7.396  29.200 -13.087  1.00  0.00     0.000 C 
BRANCH   4   5
ATOM      5  C   UNL     1       8.892  29.355 -12.777  1.00  0.00     0.000 C 
BRANCH   5   6
ATOM      6  C   UNL     1       9.771  29.255 -14.034  1.00  0.00     0.000 C 
BRANCH   6   7
ATOM      7  C   UNL     1      10.826  28.150 -13.880  1.00  0.00     0.000 C 
BRANCH   7   8
ATOM      8  C   UNL     1      10.734  27.074 -14.977  1.00  0.00     0.000 C 
BRANCH   8   9
ATOM      9  C   UNL     1      10.396  25.657 -14.476  1.00  0.00     0.000 C 
BRANCH   9  10
ATOM     10  C   UNL     1       9.493  25.660 -13.231  1.00  0.00     0.006 C 
BRANCH  10  11
ATOM     11  C   UNL     1       8.838  24.295 -12.987  1.00  0.00     0.053 C 
BRANCH  11  12
ATOM     12  C   UNL     1       7.652  24.402 -12.079  1.00  0.00     0.041 C 
ATOM     13  O   UNL     1       7.747  24.070 -10.867  1.00  0.00    -0.550 OA
ATOM     14  O   UNL     1       6.447  24.892 -12.565  1.00  0.00    -0.550 OA
ENDBRANCH  11  12
ENDBRANCH  10  11
ENDBRANCH   9  10
ENDBRANCH   8   9
ENDBRANCH   7   8
ENDBRANCH   6   7
ENDBRANCH   5   6
ENDBRANCH   4   5
ENDBRANCH   3   4
ENDBRANCH   2   3
ENDBRANCH   1   2
BRANCH   1  15
ATOM     15  C   UNL     1       5.855  31.560 -16.067  1.00  0.00     0.000 C 
BRANCH  15  16
ATOM     16  C   UNL     1       6.909  32.671 -15.911  1.00  0.00     0.000 C 
BRANCH  16  17
ATOM     17  C   UNL     1       7.883  32.401 -14.752  1.00  0.00     0.000 C 
BRANCH  17  18
ATOM     18  C   UNL     1       7.850  33.512 -13.687  1.00  0.00    -0.000 C 
BRANCH  18  19
ATOM     19  C   UNL     1       8.098  32.976 -12.268  1.00  0.00    -0.000 C 
BRANCH  19  20
ATOM     20  C   UNL     1       6.913  33.225 -11.322  1.00  0.00    -0.000 C 
BRANCH  20  21
ATOM     21  C   UNL     1       5.754  32.271 -11.632  1.00  0.00    -0.000 C 
BRANCH  21  22
ATOM     22  C   UNL     1       4.431  33.039 -11.777  1.00  0.00    -0.000 C 
BRANCH  22  23
ATOM     23  C   UNL     1       3.888  33.033 -13.217  1.00  0.00    -0.000 C 
BRANCH  23  24
ATOM     24  C   UNL     1       3.461  34.410 -13.756  1.00  0.00    -0.000 C 
BRANCH  24  25
ATOM     25  C   UNL     1       4.617  35.184 -14.405  1.00  0.00    -0.003 C 
ATOM     26  C   UNL     1       5.266  36.141 -13.409  1.00  0.00     0.004 C 
ENDBRANCH  24  25
ENDBRANCH  23  24
ENDBRANCH  22  23
ENDBRANCH  21  22
ENDBRANCH  20  21
ENDBRANCH  19  20
ENDBRANCH  18  19
ENDBRANCH  17  18
ENDBRANCH  16  17
ENDBRANCH  15  16
ENDBRANCH   1  15
TORSDOF 22
ENDMDL
MODEL 9
REMARK VINA RESULT:    -4.970     10.483     13.846
REMARK INTER + INTRA:         -13.744
REMARK INTER:                 -10.172
REMARK INTRA:                  -3.572
REMARK UNBOUND:                -2.382
REMARK SMILES CCCCCCCCCCCCCCCCCCCCCCCC(=O)[O-]
REMARK SMILES IDX 13 1 14 2 15 3 16 4 17 5 18 6 19 7 20 8 21 9 22 10 23 11
REMARK SMILES IDX 24 12 25 13 26 14 12 15 11 16 10 17 9 18 8 19 7 20 6 21 5 22
REMARK SMILES IDX 4 23 3 24 2 25 1 26
REMARK H PARENT
REMARK Flexibility Score: inf
ROOT
ATOM      1  C   UNL     1       5.344  32.868 -16.029  1.00  0.00     0.000 C 
ENDROOT
BRANCH   1   2
ATOM      2  C   UNL     1       5.931  31.486 -16.371  1.00  0.00     0.000 C 
BRANCH   2   3
ATOM      3  C   UNL     1       5.983  30.550 -15.154  1.00  0.00     0.000 C 
BRANCH   3   4
ATOM      4  C   UNL     1       6.668  29.209 -15.470  1.00  0.00     0.000 C 
BRANCH   4   5
ATOM      5  C   UNL     1       6.850  28.327 -14.226  1.00  0.00     0.000 C 
BRANCH   5   6
ATOM      6  C   UNL     1       7.540  29.068 -13.070  1.00  0.00     0.000 C 
BRANCH   6   7
ATOM      7  C   UNL     1       9.010  28.644 -12.947  1.00  0.00     0.000 C 
BRANCH   7   8
ATOM      8  C   UNL     1       9.258  27.196 -13.409  1.00  0.00     0.000 C 
BRANCH   8   9
ATOM      9  C   UNL     1      10.313  26.422 -12.596  1.00  0.00     0.000 C 
BRANCH   9  10
ATOM     10  C   UNL     1       9.705  25.300 -11.739  1.00  0.00     0.006 C 
BRANCH  10  11
ATOM     11  C   UNL     1       8.242  25.020 -12.104  1.00  0.00     0.053 C 
BRANCH  11  12
ATOM     12  C   UNL     1       7.728  23.782 -11.435  1.00  0.00     0.041 C 
ATOM     13  O   UNL     1       8.496  22.806 -11.227  1.00  0.00    -0.550 OA
ATOM     14  O   UNL     1       6.405  23.717 -11.018  1.00  0.00    -0.550 OA
ENDBRANCH  11  12
ENDBRANCH  10  11
ENDBRANCH   9  10
ENDBRANCH   8   9
ENDBRANCH   7   8
ENDBRANCH   6   7
ENDBRANCH   5   6
ENDBRANCH   4   5
ENDBRANCH   3   4
ENDBRANCH   2   3
ENDBRANCH   1   2
BRANCH   1  15
ATOM     15  C   UNL     1       6.406  33.854 -15.518  1.00  0.00     0.000 C 
BRANCH  15  16
ATOM     16  C   UNL     1       7.774  33.650 -16.194  1.00  0.00     0.000 C 
BRANCH  16  17
ATOM     17  C   UNL     1       8.938  33.678 -15.189  1.00  0.00     0.000 C 
BRANCH  17  18
ATOM     18  C   UNL     1       9.156  32.315 -14.508  1.00  0.00    -0.000 C 
BRANCH  18  19
ATOM     19  C   UNL     1       8.968  32.382 -12.984  1.00  0.00    -0.000 C 
BRANCH  19  20
ATOM     20  C   UNL     1       8.528  33.772 -12.499  1.00  0.00    -0.000 C 
BRANCH  20  21
ATOM     21  C   UNL     1       7.265  33.678 -11.635  1.00  0.00    -0.000 C 
BRANCH  21  22
ATOM     22  C   UNL     1       6.488  32.387 -11.933  1.00  0.00    -0.000 C 
BRANCH  22  23
ATOM     23  C   UNL     1       4.993  32.491 -11.581  1.00  0.00    -0.000 C 
BRANCH  23  24
ATOM     24  C   UNL     1       4.065  32.796 -12.771  1.00  0.00    -0.000 C 
BRANCH  24  25
ATOM     25  C   UNL     1       3.319  34.128 -12.621  1.00  0.00    -0.003 C 
ATOM     26  C   UNL     1       2.912  34.372 -11.171  1.00  0.00     0.004 C 
ENDBRANCH  24  25
ENDBRANCH  23  24
ENDBRANCH  22  23
ENDBRANCH  21  22
ENDBRANCH  20  21
ENDBRANCH  19  20
ENDBRANCH  18  19
ENDBRANCH  17  18
ENDBRANCH  16  17
ENDBRANCH  15  16
ENDBRANCH   1  15
TORSDOF 22
ENDMDL
