MODEL 1
REMARK VINA RESULT:    -5.481      0.000      0.000
REMARK INTER + INTRA:          -8.093
REMARK INTER:                  -6.762
REMARK INTRA:                  -1.331
REMARK UNBOUND:                -1.331
REMARK SMILES CC(C)=CCC[C@H](C)c1ccc(C)cc1
REMARK SMILES IDX 6 1 7 2 8 3 9 4 13 5 12 6 11 7 14 8 10 9 15 10 5 11 4 12
REMARK SMILES IDX 2 13 1 14 3 15
REMARK H PARENT
REMARK Flexibility Score: inf
ROOT
ATOM      1  C   UNL     1      20.997  45.860   5.386  1.00  0.00     0.012 C 
ENDROOT
BRANCH   1   2
ATOM      2  C   UNL     1      20.631  45.951   3.885  1.00  0.00     0.016 C 
ATOM      3  C   UNL     1      20.646  44.560   3.239  1.00  0.00     0.013 C 
BRANCH   2   4
ATOM      4  C   UNL     1      21.546  46.902   3.133  1.00  0.00    -0.045 A 
ATOM      5  C   UNL     1      24.101  49.649   0.992  1.00  0.00     0.044 C 
ATOM      6  C   UNL     1      23.207  48.717   1.756  1.00  0.00    -0.051 A 
ATOM      7  C   UNL     1      23.726  47.932   2.794  1.00  0.00     0.004 A 
ATOM      8  C   UNL     1      21.860  48.576   1.393  1.00  0.00     0.004 A 
ATOM      9  C   UNL     1      22.903  47.038   3.483  1.00  0.00     0.004 A 
ATOM     10  C   UNL     1      21.034  47.681   2.080  1.00  0.00     0.004 A 
ENDBRANCH   2   4
ENDBRANCH   1   2
BRANCH   1  11
ATOM     11  C   UNL     1      20.235  46.865   6.266  1.00  0.00     0.028 C 
BRANCH  11  12
ATOM     12  C   UNL     1      21.126  47.970   6.785  1.00  0.00    -0.028 C 
ATOM     13  C   UNL     1      21.119  49.222   6.280  1.00  0.00    -0.080 C 
ATOM     14  C   UNL     1      20.200  49.611   5.146  1.00  0.00     0.039 C 
ATOM     15  C   UNL     1      22.053  50.246   6.870  1.00  0.00     0.039 C 
ENDBRANCH  11  12
ENDBRANCH   1  11
TORSDOF 4
ENDMDL
MODEL 2
REMARK VINA RESULT:    -5.187      1.595      2.322
REMARK INTER + INTRA:          -7.730
REMARK INTER:                  -7.256
REMARK INTRA:                  -0.474
REMARK UNBOUND:                -1.331
REMARK SMILES CC(C)=CCC[C@H](C)c1ccc(C)cc1
REMARK SMILES IDX 6 1 7 2 8 3 9 4 13 5 12 6 11 7 14 8 10 9 15 10 5 11 4 12
REMARK SMILES IDX 2 13 1 14 3 15
REMARK H PARENT
REMARK Flexibility Score: inf
ROOT
ATOM      1  C   UNL     1      20.589  47.403   5.178  1.00  0.00     0.012 C 
ENDROOT
BRANCH   1   2
ATOM      2  C   UNL     1      20.873  46.693   3.833  1.00  0.00     0.016 C 
ATOM      3  C   UNL     1      21.466  45.299   4.071  1.00  0.00     0.013 C 
BRANCH   2   4
ATOM      4  C   UNL     1      21.781  47.516   2.936  1.00  0.00    -0.045 A 
ATOM      5  C   UNL     1      24.321  49.902   0.383  1.00  0.00     0.044 C 
ATOM      6  C   UNL     1      23.434  49.097   1.288  1.00  0.00    -0.051 A 
ATOM      7  C   UNL     1      23.984  48.377   2.356  1.00  0.00     0.004 A 
ATOM      8  C   UNL     1      22.059  49.008   1.032  1.00  0.00     0.004 A 
ATOM      9  C   UNL     1      23.165  47.599   3.179  1.00  0.00     0.004 A 
ATOM     10  C   UNL     1      21.238  48.230   1.853  1.00  0.00     0.004 A 
ENDBRANCH   2   4
ENDBRANCH   1   2
BRANCH   1  11
ATOM     11  C   UNL     1      20.591  46.452   6.387  1.00  0.00     0.028 C 
BRANCH  11  12
ATOM     12  C   UNL     1      20.517  47.190   7.704  1.00  0.00    -0.028 C 
ATOM     13  C   UNL     1      20.698  46.588   8.898  1.00  0.00    -0.080 C 
ATOM     14  C   UNL     1      21.000  45.111   9.001  1.00  0.00     0.039 C 
ATOM     15  C   UNL     1      20.598  47.420  10.151  1.00  0.00     0.039 C 
ENDBRANCH  11  12
ENDBRANCH   1  11
TORSDOF 4
ENDMDL
MODEL 3
REMARK VINA RESULT:    -5.165      1.039      1.931
REMARK INTER + INTRA:          -7.703
REMARK INTER:                  -7.022
REMARK INTRA:                  -0.682
REMARK UNBOUND:                -1.331
REMARK SMILES CC(C)=CCC[C@H](C)c1ccc(C)cc1
REMARK SMILES IDX 6 1 7 2 8 3 9 4 13 5 12 6 11 7 14 8 10 9 15 10 5 11 4 12
REMARK SMILES IDX 2 13 1 14 3 15
REMARK H PARENT
REMARK Flexibility Score: inf
ROOT
ATOM      1  C   UNL     1      20.972  47.196   4.915  1.00  0.00     0.012 C 
ENDROOT
BRANCH   1   2
ATOM      2  C   UNL     1      20.857  46.830   3.417  1.00  0.00     0.016 C 
ATOM      3  C   UNL     1      21.084  45.327   3.207  1.00  0.00     0.013 C 
BRANCH   2   4
ATOM      4  C   UNL     1      21.811  47.642   2.558  1.00  0.00    -0.045 A 
ATOM      5  C   UNL     1      24.561  49.902   0.111  1.00  0.00     0.044 C 
ATOM      6  C   UNL     1      23.606  49.094   0.940  1.00  0.00    -0.051 A 
ATOM      7  C   UNL     1      22.223  49.234   0.762  1.00  0.00     0.004 A 
ATOM      8  C   UNL     1      24.089  48.243   1.944  1.00  0.00     0.004 A 
ATOM      9  C   UNL     1      21.332  48.509   1.558  1.00  0.00     0.004 A 
ATOM     10  C   UNL     1      23.199  47.518   2.742  1.00  0.00     0.004 A 
ENDBRANCH   2   4
ENDBRANCH   1   2
BRANCH   1  11
ATOM     11  C   UNL     1      20.647  48.669   5.215  1.00  0.00     0.028 C 
BRANCH  11  12
ATOM     12  C   UNL     1      21.692  49.325   6.087  1.00  0.00    -0.028 C 
ATOM     13  C   UNL     1      21.715  49.202   7.431  1.00  0.00    -0.080 C 
ATOM     14  C   UNL     1      20.682  48.380   8.166  1.00  0.00     0.039 C 
ATOM     15  C   UNL     1      22.800  49.904   8.205  1.00  0.00     0.039 C 
ENDBRANCH  11  12
ENDBRANCH   1  11
TORSDOF 4
ENDMDL
MODEL 4
REMARK VINA RESULT:    -5.019      1.079      5.020
REMARK INTER + INTRA:          -7.523
REMARK INTER:                  -6.866
REMARK INTRA:                  -0.657
REMARK UNBOUND:                -1.331
REMARK SMILES CC(C)=CCC[C@H](C)c1ccc(C)cc1
REMARK SMILES IDX 6 1 7 2 8 3 9 4 13 5 12 6 11 7 14 8 10 9 15 10 5 11 4 12
REMARK SMILES IDX 2 13 1 14 3 15
REMARK H PARENT
REMARK Flexibility Score: inf
ROOT
ATOM      1  C   UNL     1      21.154  47.240   2.243  1.00  0.00     0.012 C 
ENDROOT
BRANCH   1   2
ATOM      2  C   UNL     1      21.430  46.226   3.379  1.00  0.00     0.016 C 
ATOM      3  C   UNL     1      20.581  44.962   3.194  1.00  0.00     0.013 C 
BRANCH   2   4
ATOM      4  C   UNL     1      21.198  46.832   4.752  1.00  0.00    -0.045 A 
ATOM      5  C   UNL     1      20.560  48.503   8.684  1.00  0.00     0.044 C 
ATOM      6  C   UNL     1      20.810  47.915   7.326  1.00  0.00    -0.051 A 
ATOM      7  C   UNL     1      21.311  48.716   6.291  1.00  0.00     0.004 A 
ATOM      8  C   UNL     1      20.482  46.577   7.065  1.00  0.00     0.004 A 
ATOM      9  C   UNL     1      21.511  48.179   5.016  1.00  0.00     0.004 A 
ATOM     10  C   UNL     1      20.681  46.038   5.791  1.00  0.00     0.004 A 
ENDBRANCH   2   4
ENDBRANCH   1   2
BRANCH   1  11
ATOM     11  C   UNL     1      22.311  47.366   1.237  1.00  0.00     0.028 C 
BRANCH  11  12
ATOM     12  C   UNL     1      23.342  48.384   1.667  1.00  0.00    -0.028 C 
ATOM     13  C   UNL     1      23.696  49.442   0.907  1.00  0.00    -0.080 C 
ATOM     14  C   UNL     1      23.068  49.688  -0.445  1.00  0.00     0.039 C 
ATOM     15  C   UNL     1      24.739  50.394   1.431  1.00  0.00     0.039 C 
ENDBRANCH  11  12
ENDBRANCH   1  11
TORSDOF 4
ENDMDL
MODEL 5
REMARK VINA RESULT:    -4.968      2.238      6.347
REMARK INTER + INTRA:          -7.460
REMARK INTER:                  -6.916
REMARK INTRA:                  -0.544
REMARK UNBOUND:                -1.331
REMARK SMILES CC(C)=CCC[C@H](C)c1ccc(C)cc1
REMARK SMILES IDX 6 1 7 2 8 3 9 4 13 5 12 6 11 7 14 8 10 9 15 10 5 11 4 12
REMARK SMILES IDX 2 13 1 14 3 15
REMARK H PARENT
REMARK Flexibility Score: inf
ROOT
ATOM      1  C   UNL     1      21.696  48.805   5.625  1.00  0.00     0.012 C 
ENDROOT
BRANCH   1   2
ATOM      2  C   UNL     1      20.728  49.120   6.789  1.00  0.00     0.016 C 
ATOM      3  C   UNL     1      21.017  50.509   7.373  1.00  0.00     0.013 C 
BRANCH   2   4
ATOM      4  C   UNL     1      20.779  48.060   7.876  1.00  0.00    -0.045 A 
ATOM      5  C   UNL     1      20.952  45.006  10.925  1.00  0.00     0.044 C 
ATOM      6  C   UNL     1      20.922  46.062   9.860  1.00  0.00    -0.051 A 
ATOM      7  C   UNL     1      21.167  47.403  10.188  1.00  0.00     0.004 A 
ATOM      8  C   UNL     1      20.582  45.726   8.542  1.00  0.00     0.004 A 
ATOM      9  C   UNL     1      21.105  48.393   9.204  1.00  0.00     0.004 A 
ATOM     10  C   UNL     1      20.518  46.716   7.556  1.00  0.00     0.004 A 
ENDBRANCH   2   4
ENDBRANCH   1   2
BRANCH   1  11
ATOM     11  C   UNL     1      20.981  48.423   4.317  1.00  0.00     0.028 C 
BRANCH  11  12
ATOM     12  C   UNL     1      20.698  46.941   4.225  1.00  0.00    -0.028 C 
ATOM     13  C   UNL     1      21.058  46.185   3.167  1.00  0.00    -0.080 C 
ATOM     14  C   UNL     1      21.789  46.778   1.985  1.00  0.00     0.039 C 
ATOM     15  C   UNL     1      20.721  44.717   3.177  1.00  0.00     0.039 C 
ENDBRANCH  11  12
ENDBRANCH   1  11
TORSDOF 4
ENDMDL
MODEL 6
REMARK VINA RESULT:    -4.879      1.761      5.875
REMARK INTER + INTRA:          -7.351
REMARK INTER:                  -6.729
REMARK INTRA:                  -0.622
REMARK UNBOUND:                -1.331
REMARK SMILES CC(C)=CCC[C@H](C)c1ccc(C)cc1
REMARK SMILES IDX 6 1 7 2 8 3 9 4 13 5 12 6 11 7 14 8 10 9 15 10 5 11 4 12
REMARK SMILES IDX 2 13 1 14 3 15
REMARK H PARENT
REMARK Flexibility Score: inf
ROOT
ATOM      1  C   UNL     1      21.906  47.956   4.323  1.00  0.00     0.012 C 
ENDROOT
BRANCH   1   2
ATOM      2  C   UNL     1      20.594  48.208   5.104  1.00  0.00     0.016 C 
ATOM      3  C   UNL     1      20.275  49.707   5.157  1.00  0.00     0.013 C 
BRANCH   2   4
ATOM      4  C   UNL     1      20.643  47.620   6.503  1.00  0.00    -0.045 A 
ATOM      5  C   UNL     1      20.814  45.898  10.461  1.00  0.00     0.044 C 
ATOM      6  C   UNL     1      20.785  46.493   9.084  1.00  0.00    -0.051 A 
ATOM      7  C   UNL     1      20.931  47.875   8.908  1.00  0.00     0.004 A 
ATOM      8  C   UNL     1      20.544  45.678   7.968  1.00  0.00     0.004 A 
ATOM      9  C   UNL     1      20.870  48.435   7.628  1.00  0.00     0.004 A 
ATOM     10  C   UNL     1      20.481  46.235   6.688  1.00  0.00     0.004 A 
ENDBRANCH   2   4
ENDBRANCH   1   2
BRANCH   1  11
ATOM     11  C   UNL     1      21.697  47.206   2.996  1.00  0.00     0.028 C 
BRANCH  11  12
ATOM     12  C   UNL     1      22.661  47.653   1.921  1.00  0.00    -0.028 C 
ATOM     13  C   UNL     1      22.366  48.610   1.016  1.00  0.00    -0.080 C 
ATOM     14  C   UNL     1      21.030  49.316   1.021  1.00  0.00     0.039 C 
ATOM     15  C   UNL     1      23.400  48.975  -0.016  1.00  0.00     0.039 C 
ENDBRANCH  11  12
ENDBRANCH   1  11
TORSDOF 4
ENDMDL
MODEL 7
REMARK VINA RESULT:    -4.714      2.040      4.546
REMARK INTER + INTRA:          -7.148
REMARK INTER:                  -6.016
REMARK INTRA:                  -1.132
REMARK UNBOUND:                -1.331
REMARK SMILES CC(C)=CCC[C@H](C)c1ccc(C)cc1
REMARK SMILES IDX 6 1 7 2 8 3 9 4 13 5 12 6 11 7 14 8 10 9 15 10 5 11 4 12
REMARK SMILES IDX 2 13 1 14 3 15
REMARK H PARENT
REMARK Flexibility Score: inf
ROOT
ATOM      1  C   UNL     1      22.770  49.973   7.234  1.00  0.00     0.012 C 
ENDROOT
BRANCH   1   2
ATOM      2  C   UNL     1      21.562  49.956   6.267  1.00  0.00     0.016 C 
ATOM      3  C   UNL     1      20.273  50.337   7.004  1.00  0.00     0.013 C 
BRANCH   2   4
ATOM      4  C   UNL     1      21.407  48.614   5.573  1.00  0.00    -0.045 A 
ATOM      5  C   UNL     1      20.907  44.795   3.618  1.00  0.00     0.044 C 
ATOM      6  C   UNL     1      21.056  46.132   4.282  1.00  0.00    -0.051 A 
ATOM      7  C   UNL     1      21.841  47.131   3.691  1.00  0.00     0.004 A 
ATOM      8  C   UNL     1      20.466  46.369   5.532  1.00  0.00     0.004 A 
ATOM      9  C   UNL     1      22.009  48.365   4.325  1.00  0.00     0.004 A 
ATOM     10  C   UNL     1      20.634  47.602   6.169  1.00  0.00     0.004 A 
ENDBRANCH   2   4
ENDBRANCH   1   2
BRANCH   1  11
ATOM     11  C   UNL     1      22.378  49.785   8.710  1.00  0.00     0.028 C 
BRANCH  11  12
ATOM     12  C   UNL     1      22.951  48.519   9.303  1.00  0.00    -0.028 C 
ATOM     13  C   UNL     1      22.185  47.528   9.805  1.00  0.00    -0.080 C 
ATOM     14  C   UNL     1      20.677  47.615   9.802  1.00  0.00     0.039 C 
ATOM     15  C   UNL     1      22.862  46.309  10.378  1.00  0.00     0.039 C 
ENDBRANCH  11  12
ENDBRANCH   1  11
TORSDOF 4
ENDMDL
MODEL 8
REMARK VINA RESULT:    -4.458      2.588      3.967
REMARK INTER + INTRA:          -6.831
REMARK INTER:                  -6.169
REMARK INTRA:                  -0.662
REMARK UNBOUND:                -1.331
REMARK SMILES CC(C)=CCC[C@H](C)c1ccc(C)cc1
REMARK SMILES IDX 6 1 7 2 8 3 9 4 13 5 12 6 11 7 14 8 10 9 15 10 5 11 4 12
REMARK SMILES IDX 2 13 1 14 3 15
REMARK H PARENT
REMARK Flexibility Score: inf
ROOT
ATOM      1  C   UNL     1      21.018  48.263   7.802  1.00  0.00     0.012 C 
ENDROOT
BRANCH   1   2
ATOM      2  C   UNL     1      20.347  47.126   6.995  1.00  0.00     0.016 C 
ATOM      3  C   UNL     1      20.634  45.763   7.637  1.00  0.00     0.013 C 
BRANCH   2   4
ATOM      4  C   UNL     1      20.775  47.134   5.537  1.00  0.00    -0.045 A 
ATOM      5  C   UNL     1      21.955  47.105   1.382  1.00  0.00     0.044 C 
ATOM      6  C   UNL     1      21.516  47.114   2.817  1.00  0.00    -0.051 A 
ATOM      7  C   UNL     1      21.274  48.328   3.474  1.00  0.00     0.004 A 
ATOM      8  C   UNL     1      21.408  45.911   3.529  1.00  0.00     0.004 A 
ATOM      9  C   UNL     1      20.899  48.339   4.821  1.00  0.00     0.004 A 
ATOM     10  C   UNL     1      21.034  45.920   4.876  1.00  0.00     0.004 A 
ENDBRANCH   2   4
ENDBRANCH   1   2
BRANCH   1  11
ATOM     11  C   UNL     1      21.225  47.922   9.287  1.00  0.00     0.028 C 
BRANCH  11  12
ATOM     12  C   UNL     1      22.674  48.016   9.705  1.00  0.00    -0.028 C 
ATOM     13  C   UNL     1      23.327  47.019  10.338  1.00  0.00    -0.080 C 
ATOM     14  C   UNL     1      22.642  45.714  10.672  1.00  0.00     0.039 C 
ATOM     15  C   UNL     1      24.771  47.222  10.714  1.00  0.00     0.039 C 
ENDBRANCH  11  12
ENDBRANCH   1  11
TORSDOF 4
ENDMDL
MODEL 9
REMARK VINA RESULT:    -4.099      2.136      3.045
REMARK INTER + INTRA:          -6.388
REMARK INTER:                  -5.948
REMARK INTRA:                  -0.441
REMARK UNBOUND:                -1.331
REMARK SMILES CC(C)=CCC[C@H](C)c1ccc(C)cc1
REMARK SMILES IDX 6 1 7 2 8 3 9 4 13 5 12 6 11 7 14 8 10 9 15 10 5 11 4 12
REMARK SMILES IDX 2 13 1 14 3 15
REMARK H PARENT
REMARK Flexibility Score: inf
ROOT
ATOM      1  C   UNL     1      21.555  48.454   6.587  1.00  0.00     0.012 C 
ENDROOT
BRANCH   1   2
ATOM      2  C   UNL     1      20.704  47.700   5.538  1.00  0.00     0.016 C 
ATOM      3  C   UNL     1      20.411  46.269   6.006  1.00  0.00     0.013 C 
BRANCH   2   4
ATOM      4  C   UNL     1      21.362  47.693   4.169  1.00  0.00    -0.045 A 
ATOM      5  C   UNL     1      23.289  47.673   0.303  1.00  0.00     0.044 C 
ATOM      6  C   UNL     1      22.637  47.656   1.655  1.00  0.00    -0.051 A 
ATOM      7  C   UNL     1      21.486  46.888   1.874  1.00  0.00     0.004 A 
ATOM      8  C   UNL     1      23.136  48.461   2.689  1.00  0.00     0.004 A 
ATOM      9  C   UNL     1      20.857  46.898   3.122  1.00  0.00     0.004 A 
ATOM     10  C   UNL     1      22.508  48.474   3.938  1.00  0.00     0.004 A 
ENDBRANCH   2   4
ENDBRANCH   1   2
BRANCH   1  11
ATOM     11  C   UNL     1      20.979  48.384   8.011  1.00  0.00     0.028 C 
BRANCH  11  12
ATOM     12  C   UNL     1      21.649  49.356   8.954  1.00  0.00    -0.028 C 
ATOM     13  C   UNL     1      21.801  49.119  10.274  1.00  0.00    -0.080 C 
ATOM     14  C   UNL     1      21.308  47.839  10.908  1.00  0.00     0.039 C 
ATOM     15  C   UNL     1      22.480  50.161  11.125  1.00  0.00     0.039 C 
ENDBRANCH  11  12
ENDBRANCH   1  11
TORSDOF 4
ENDMDL
