MODEL 1
REMARK VINA RESULT:    -5.945      0.000      0.000
REMARK INTER + INTRA:          -6.119
REMARK INTER:                  -6.119
REMARK INTRA:                   0.000
REMARK UNBOUND:                 0.000
REMARK SMILES Oc1ccc2[nH]ccc2c1
REMARK SMILES IDX 3 1 4 2 5 3 9 4 8 5 7 6 6 7 10 8 2 9 1 11
REMARK H PARENT 6 10 1 12
REMARK Flexibility Score: inf
ROOT
ATOM      1  C   UNL     1      13.636  23.427  11.049  1.00  0.00     0.048 A 
ATOM      2  C   UNL     1      14.535  22.403  11.397  1.00  0.00     0.030 A 
ATOM      3  C   UNL     1      14.006  21.212  11.891  1.00  0.00     0.046 A 
ATOM      4  C   UNL     1      12.657  21.030  12.037  1.00  0.00     0.003 A 
ATOM      5  C   UNL     1      12.465  19.762  12.542  1.00  0.00     0.028 A 
ATOM      6  C   UNL     1      13.743  19.227  12.678  1.00  0.00     0.083 A 
ATOM      7  N   UNL     1      14.680  20.117  12.279  1.00  0.00    -0.361 N 
ATOM      8  C   UNL     1      11.740  22.023  11.702  1.00  0.00     0.056 A 
ATOM      9  C   UNL     1      12.242  23.242  11.199  1.00  0.00     0.116 A 
ATOM     10  H   UNL     1      15.716  19.977  12.275  1.00  0.00     0.166 HD
ENDROOT
BRANCH   9  11
ATOM     11  O   UNL     1      11.373  24.272  10.847  1.00  0.00    -0.508 OA
ATOM     12  H   UNL     1      11.226  25.071  11.453  1.00  0.00     0.293 HD
ENDBRANCH   9  11
TORSDOF 1
ENDMDL
MODEL 2
REMARK VINA RESULT:    -5.593      2.591      4.087
REMARK INTER + INTRA:          -5.757
REMARK INTER:                  -5.757
REMARK INTRA:                   0.000
REMARK UNBOUND:                 0.000
REMARK SMILES Oc1ccc2[nH]ccc2c1
REMARK SMILES IDX 3 1 4 2 5 3 9 4 8 5 7 6 6 7 10 8 2 9 1 11
REMARK H PARENT 6 10 1 12
REMARK Flexibility Score: inf
ROOT
ATOM      1  C   UNL     1      12.576  20.247  12.493  1.00  0.00     0.048 A 
ATOM      2  C   UNL     1      11.551  21.146  12.145  1.00  0.00     0.030 A 
ATOM      3  C   UNL     1      11.918  22.354  11.554  1.00  0.00     0.046 A 
ATOM      4  C   UNL     1      13.229  22.668  11.311  1.00  0.00     0.003 A 
ATOM      5  C   UNL     1      13.252  23.914  10.726  1.00  0.00     0.028 A 
ATOM      6  C   UNL     1      11.918  24.302  10.641  1.00  0.00     0.083 A 
ATOM      7  N   UNL     1      11.107  23.345  11.148  1.00  0.00    -0.361 N 
ATOM      8  C   UNL     1      14.267  21.800  11.642  1.00  0.00     0.056 A 
ATOM      9  C   UNL     1      13.930  20.569  12.244  1.00  0.00     0.116 A 
ATOM     10  H   UNL     1      10.065  23.374  11.210  1.00  0.00     0.166 HD
ENDROOT
BRANCH   9  11
ATOM     11  O   UNL     1      14.926  19.660  12.597  1.00  0.00    -0.508 OA
ATOM     12  H   UNL     1      15.906  19.919  12.585  1.00  0.00     0.293 HD
ENDBRANCH   9  11
TORSDOF 1
ENDMDL
MODEL 3
REMARK VINA RESULT:    -5.579      0.608      0.608
REMARK INTER + INTRA:          -5.742
REMARK INTER:                  -5.742
REMARK INTRA:                   0.000
REMARK UNBOUND:                 0.000
REMARK SMILES Oc1ccc2[nH]ccc2c1
REMARK SMILES IDX 3 1 4 2 5 3 9 4 8 5 7 6 6 7 10 8 2 9 1 11
REMARK H PARENT 6 10 1 12
REMARK Flexibility Score: inf
ROOT
ATOM      1  C   UNL     1      13.225  22.958  11.107  1.00  0.00     0.048 A 
ATOM      2  C   UNL     1      14.252  22.058  11.445  1.00  0.00     0.030 A 
ATOM      3  C   UNL     1      13.897  20.884  12.107  1.00  0.00     0.046 A 
ATOM      4  C   UNL     1      12.594  20.602  12.424  1.00  0.00     0.003 A 
ATOM      5  C   UNL     1      12.582  19.382  13.064  1.00  0.00     0.028 A 
ATOM      6  C   UNL     1      13.913  18.977  13.103  1.00  0.00     0.083 A 
ATOM      7  N   UNL     1      14.712  19.898  12.517  1.00  0.00    -0.361 N 
ATOM      8  C   UNL     1      11.554  21.471  12.104  1.00  0.00     0.056 A 
ATOM      9  C   UNL     1      11.880  22.670  11.434  1.00  0.00     0.116 A 
ATOM     10  H   UNL     1      15.750  19.848  12.407  1.00  0.00     0.166 HD
ENDROOT
BRANCH   9  11
ATOM     11  O   UNL     1      10.882  23.578  11.088  1.00  0.00    -0.508 OA
ATOM     12  H   UNL     1      10.015  23.273  10.660  1.00  0.00     0.293 HD
ENDBRANCH   9  11
TORSDOF 1
ENDMDL
MODEL 4
REMARK VINA RESULT:    -5.216      1.952      2.552
REMARK INTER + INTRA:          -5.368
REMARK INTER:                  -5.368
REMARK INTRA:                   0.000
REMARK UNBOUND:                 0.000
REMARK SMILES Oc1ccc2[nH]ccc2c1
REMARK SMILES IDX 3 1 4 2 5 3 9 4 8 5 7 6 6 7 10 8 2 9 1 11
REMARK H PARENT 6 10 1 12
REMARK Flexibility Score: inf
ROOT
ATOM      1  C   UNL     1      13.076  23.139  11.147  1.00  0.00     0.048 A 
ATOM      2  C   UNL     1      11.860  22.622  11.629  1.00  0.00     0.030 A 
ATOM      3  C   UNL     1      11.883  21.373  12.246  1.00  0.00     0.046 A 
ATOM      4  C   UNL     1      13.044  20.660  12.387  1.00  0.00     0.003 A 
ATOM      5  C   UNL     1      12.729  19.484  13.030  1.00  0.00     0.028 A 
ATOM      6  C   UNL     1      11.357  19.546  13.253  1.00  0.00     0.083 A 
ATOM      7  N   UNL     1      10.845  20.702  12.772  1.00  0.00    -0.361 N 
ATOM      8  C   UNL     1      14.264  21.143  11.921  1.00  0.00     0.056 A 
ATOM      9  C   UNL     1      14.277  22.405  11.290  1.00  0.00     0.116 A 
ATOM     10  H   UNL     1       9.846  21.007  12.806  1.00  0.00     0.166 HD
ENDROOT
BRANCH   9  11
ATOM     11  O   UNL     1      15.468  22.939  10.803  1.00  0.00    -0.508 OA
ATOM     12  H   UNL     1      16.176  22.351  10.379  1.00  0.00     0.293 HD
ENDBRANCH   9  11
TORSDOF 1
ENDMDL
MODEL 5
REMARK VINA RESULT:    -5.095      2.435      3.576
REMARK INTER + INTRA:          -5.244
REMARK INTER:                  -5.244
REMARK INTRA:                   0.000
REMARK UNBOUND:                 0.000
REMARK SMILES Oc1ccc2[nH]ccc2c1
REMARK SMILES IDX 3 1 4 2 5 3 9 4 8 5 7 6 6 7 10 8 2 9 1 11
REMARK H PARENT 6 10 1 12
REMARK Flexibility Score: inf
ROOT
ATOM      1  C   UNL     1      14.124  19.903  12.416  1.00  0.00     0.048 A 
ATOM      2  C   UNL     1      14.508  21.121  11.826  1.00  0.00     0.030 A 
ATOM      3  C   UNL     1      13.507  22.041  11.521  1.00  0.00     0.046 A 
ATOM      4  C   UNL     1      12.188  21.783  11.783  1.00  0.00     0.003 A 
ATOM      5  C   UNL     1      11.464  22.880  11.369  1.00  0.00     0.028 A 
ATOM      6  C   UNL     1      12.408  23.770  10.865  1.00  0.00     0.083 A 
ATOM      7  N   UNL     1      13.654  23.253  10.960  1.00  0.00    -0.361 N 
ATOM      8  C   UNL     1      11.774  20.588  12.366  1.00  0.00     0.056 A 
ATOM      9  C   UNL     1      12.762  19.634  12.687  1.00  0.00     0.116 A 
ATOM     10  H   UNL     1      14.546  23.706  10.658  1.00  0.00     0.166 HD
ENDROOT
BRANCH   9  11
ATOM     11  O   UNL     1      12.408  18.420  13.272  1.00  0.00    -0.508 OA
ATOM     12  H   UNL     1      11.571  18.330  13.836  1.00  0.00     0.293 HD
ENDBRANCH   9  11
TORSDOF 1
ENDMDL
MODEL 6
REMARK VINA RESULT:    -4.997      1.954      3.309
REMARK INTER + INTRA:          -5.143
REMARK INTER:                  -5.143
REMARK INTRA:                   0.000
REMARK UNBOUND:                 0.000
REMARK SMILES Oc1ccc2[nH]ccc2c1
REMARK SMILES IDX 3 1 4 2 5 3 9 4 8 5 7 6 6 7 10 8 2 9 1 11
REMARK H PARENT 6 10 1 12
REMARK Flexibility Score: inf
ROOT
ATOM      1  C   UNL     1      12.762  18.994  12.749  1.00  0.00     0.048 A 
ATOM      2  C   UNL     1      14.022  19.508  12.393  1.00  0.00     0.030 A 
ATOM      3  C   UNL     1      14.083  20.824  11.937  1.00  0.00     0.046 A 
ATOM      4  C   UNL     1      12.962  21.604  11.835  1.00  0.00     0.003 A 
ATOM      5  C   UNL     1      13.359  22.834  11.361  1.00  0.00     0.028 A 
ATOM      6  C   UNL     1      14.737  22.735  11.196  1.00  0.00     0.083 A 
ATOM      7  N   UNL     1      15.174  21.504  11.549  1.00  0.00    -0.361 N 
ATOM      8  C   UNL     1      11.700  21.126  12.180  1.00  0.00     0.056 A 
ATOM      9  C   UNL     1      11.602  19.797  12.644  1.00  0.00     0.116 A 
ATOM     10  H   UNL     1      16.160  21.158  11.525  1.00  0.00     0.166 HD
ENDROOT
BRANCH   9  11
ATOM     11  O   UNL     1      10.366  19.265  13.003  1.00  0.00    -0.508 OA
ATOM     12  H   UNL     1      10.132  18.297  12.813  1.00  0.00     0.293 HD
ENDBRANCH   9  11
TORSDOF 1
ENDMDL
MODEL 7
REMARK VINA RESULT:    -4.855      1.896      3.139
REMARK INTER + INTRA:          -4.997
REMARK INTER:                  -4.997
REMARK INTRA:                   0.000
REMARK UNBOUND:                 0.000
REMARK SMILES Oc1ccc2[nH]ccc2c1
REMARK SMILES IDX 3 1 4 2 5 3 9 4 8 5 7 6 6 7 10 8 2 9 1 11
REMARK H PARENT 6 10 1 12
REMARK Flexibility Score: inf
ROOT
ATOM      1  C   UNL     1      10.248  20.007  13.754  1.00  0.00     0.048 A 
ATOM      2  C   UNL     1      11.287  19.073  13.590  1.00  0.00     0.030 A 
ATOM      3  C   UNL     1      12.422  19.478  12.889  1.00  0.00     0.046 A 
ATOM      4  C   UNL     1      12.537  20.742  12.373  1.00  0.00     0.003 A 
ATOM      5  C   UNL     1      13.762  20.821  11.749  1.00  0.00     0.028 A 
ATOM      6  C   UNL     1      14.342  19.568  11.923  1.00  0.00     0.083 A 
ATOM      7  N   UNL     1      13.519  18.752  12.621  1.00  0.00    -0.361 N 
ATOM      8  C   UNL     1      11.527  21.690  12.519  1.00  0.00     0.056 A 
ATOM      9  C   UNL     1      10.364  21.312  13.222  1.00  0.00     0.116 A 
ATOM     10  H   UNL     1      13.703  17.760  12.893  1.00  0.00     0.166 HD
ENDROOT
BRANCH   9  11
ATOM     11  O   UNL     1       9.321  22.219  13.399  1.00  0.00    -0.508 OA
ATOM     12  H   UNL     1       8.368  21.906  13.545  1.00  0.00     0.293 HD
ENDBRANCH   9  11
TORSDOF 1
ENDMDL
MODEL 8
REMARK VINA RESULT:    -4.654      1.573      2.398
REMARK INTER + INTRA:          -4.790
REMARK INTER:                  -4.790
REMARK INTRA:                   0.000
REMARK UNBOUND:                 0.000
REMARK SMILES Oc1ccc2[nH]ccc2c1
REMARK SMILES IDX 3 1 4 2 5 3 9 4 8 5 7 6 6 7 10 8 2 9 1 11
REMARK H PARENT 6 10 1 12
REMARK Flexibility Score: inf
ROOT
ATOM      1  C   UNL     1      11.898  22.172  11.857  1.00  0.00     0.048 A 
ATOM      2  C   UNL     1      11.392  21.087  12.595  1.00  0.00     0.030 A 
ATOM      3  C   UNL     1      12.275  20.063  12.935  1.00  0.00     0.046 A 
ATOM      4  C   UNL     1      13.594  20.099  12.570  1.00  0.00     0.003 A 
ATOM      5  C   UNL     1      14.187  18.954  13.055  1.00  0.00     0.028 A 
ATOM      6  C   UNL     1      13.168  18.265  13.707  1.00  0.00     0.083 A 
ATOM      7  N   UNL     1      12.002  18.947  13.631  1.00  0.00    -0.361 N 
ATOM      8  C   UNL     1      14.127  21.158  11.840  1.00  0.00     0.056 A 
ATOM      9  C   UNL     1      13.260  22.211  11.478  1.00  0.00     0.116 A 
ATOM     10  H   UNL     1      11.081  18.661  14.032  1.00  0.00     0.166 HD
ENDROOT
BRANCH   9  11
ATOM     11  O   UNL     1      13.736  23.297  10.746  1.00  0.00    -0.508 OA
ATOM     12  H   UNL     1      14.183  23.173   9.845  1.00  0.00     0.293 HD
ENDBRANCH   9  11
TORSDOF 1
ENDMDL
