MODEL 1
REMARK VINA RESULT:    -3.635      0.000      0.000
REMARK INTER + INTRA:          -3.741
REMARK INTER:                  -3.741
REMARK INTRA:                   0.000
REMARK UNBOUND:                 0.000
REMARK SMILES CC1(C)[C@@H]2CC[C@@]1(C)[C@H](O)C2
REMARK SMILES IDX 1 1 2 2 4 3 5 4 6 5 7 6 9 7 11 8 8 9 3 10 10 11
REMARK H PARENT 10 12
REMARK Flexibility Score: inf
ROOT
ATOM      1  C   UNL     1     135.931 141.966 139.646  1.00  0.00     0.012 C 
ATOM      2  C   UNL     1     134.602 141.207 139.951  1.00  0.00    -0.025 C 
ATOM      3  C   UNL     1     134.555 140.583 141.355  1.00  0.00    -0.002 C 
ATOM      4  C   UNL     1     133.117 140.012 141.440  1.00  0.00     0.005 C 
ATOM      5  C   UNL     1     132.289 141.052 140.659  1.00  0.00     0.010 C 
ATOM      6  C   UNL     1     133.363 142.091 140.234  1.00  0.00    -0.001 C 
ATOM      7  C   UNL     1     133.738 142.859 141.538  1.00  0.00     0.121 C 
ATOM      8  C   UNL     1     134.588 141.812 142.299  1.00  0.00     0.036 C 
ATOM      9  C   UNL     1     132.898 142.992 139.080  1.00  0.00     0.015 C 
ATOM     10  C   UNL     1     134.433 140.174 138.793  1.00  0.00     0.012 C 
ENDROOT
BRANCH   7  11
ATOM     11  O   UNL     1     134.468 144.027 141.269  1.00  0.00    -0.393 OA
ATOM     12  H   UNL     1     133.839 144.658 140.829  1.00  0.00     0.210 HD
ENDBRANCH   7  11
TORSDOF 1
ENDMDL
MODEL 2
REMARK VINA RESULT:    -3.601     12.257     14.085
REMARK INTER + INTRA:          -3.707
REMARK INTER:                  -3.707
REMARK INTRA:                   0.000
REMARK UNBOUND:                 0.000
REMARK SMILES CC1(C)[C@@H]2CC[C@@]1(C)[C@H](O)C2
REMARK SMILES IDX 1 1 2 2 4 3 5 4 6 5 7 6 9 7 11 8 8 9 3 10 10 11
REMARK H PARENT 10 12
REMARK Flexibility Score: inf
ROOT
ATOM      1  C   UNL     1     145.687 139.649 139.675  1.00  0.00     0.012 C 
ATOM      2  C   UNL     1     147.020 140.409 139.959  1.00  0.00    -0.025 C 
ATOM      3  C   UNL     1     147.074 141.067 141.347  1.00  0.00    -0.002 C 
ATOM      4  C   UNL     1     148.514 141.633 141.415  1.00  0.00     0.005 C 
ATOM      5  C   UNL     1     149.336 140.571 140.657  1.00  0.00     0.010 C 
ATOM      6  C   UNL     1     148.256 139.527 140.260  1.00  0.00    -0.001 C 
ATOM      7  C   UNL     1     147.881 138.793 141.583  1.00  0.00     0.121 C 
ATOM      8  C   UNL     1     147.037 139.862 142.320  1.00  0.00     0.036 C 
ATOM      9  C   UNL     1     148.714 138.597 139.127  1.00  0.00     0.015 C 
ATOM     10  C   UNL     1     147.191 141.413 138.776  1.00  0.00     0.012 C 
ENDROOT
BRANCH   7  11
ATOM     11  O   UNL     1     147.145 137.622 141.344  1.00  0.00    -0.393 OA
ATOM     12  H   UNL     1     147.797 136.934 141.047  1.00  0.00     0.210 HD
ENDBRANCH   7  11
TORSDOF 1
ENDMDL
MODEL 3
REMARK VINA RESULT:    -3.587      8.740      9.875
REMARK INTER + INTRA:          -3.692
REMARK INTER:                  -3.692
REMARK INTRA:                   0.000
REMARK UNBOUND:                 0.000
REMARK SMILES CC1(C)[C@@H]2CC[C@@]1(C)[C@H](O)C2
REMARK SMILES IDX 1 1 2 2 4 3 5 4 6 5 7 6 9 7 11 8 8 9 3 10 10 11
REMARK H PARENT 10 12
REMARK Flexibility Score: inf
ROOT
ATOM      1  C   UNL     1     141.906 145.619 139.670  1.00  0.00     0.012 C 
ATOM      2  C   UNL     1     141.146 146.945 139.981  1.00  0.00    -0.025 C 
ATOM      3  C   UNL     1     140.542 146.996 141.393  1.00  0.00    -0.002 C 
ATOM      4  C   UNL     1     139.965 148.432 141.481  1.00  0.00     0.005 C 
ATOM      5  C   UNL     1     140.990 149.262 140.681  1.00  0.00     0.010 C 
ATOM      6  C   UNL     1     142.028 148.190 140.246  1.00  0.00    -0.001 C 
ATOM      7  C   UNL     1     142.816 147.824 141.540  1.00  0.00     0.121 C 
ATOM      8  C   UNL     1     141.785 146.972 142.319  1.00  0.00     0.036 C 
ATOM      9  C   UNL     1     142.909 148.654 139.077  1.00  0.00     0.015 C 
ATOM     10  C   UNL     1     140.095 147.105 138.838  1.00  0.00     0.012 C 
ENDROOT
BRANCH   7  11
ATOM     11  O   UNL     1     143.984 147.098 141.256  1.00  0.00    -0.393 OA
ATOM     12  H   UNL     1     144.647 147.346 141.953  1.00  0.00     0.210 HD
ENDBRANCH   7  11
TORSDOF 1
ENDMDL
MODEL 4
REMARK VINA RESULT:    -3.579      8.772      9.892
REMARK INTER + INTRA:          -3.684
REMARK INTER:                  -3.684
REMARK INTRA:                   0.000
REMARK UNBOUND:                 0.000
REMARK SMILES CC1(C)[C@@H]2CC[C@@]1(C)[C@H](O)C2
REMARK SMILES IDX 1 1 2 2 4 3 5 4 6 5 7 6 9 7 11 8 8 9 3 10 10 11
REMARK H PARENT 10 12
REMARK Flexibility Score: inf
ROOT
ATOM      1  C   UNL     1     139.654 136.013 139.685  1.00  0.00     0.012 C 
ATOM      2  C   UNL     1     140.407 134.681 139.991  1.00  0.00    -0.025 C 
ATOM      3  C   UNL     1     141.020 134.626 141.399  1.00  0.00    -0.002 C 
ATOM      4  C   UNL     1     141.588 133.187 141.483  1.00  0.00     0.005 C 
ATOM      5  C   UNL     1     140.552 132.364 140.689  1.00  0.00     0.010 C 
ATOM      6  C   UNL     1     139.519 133.442 140.261  1.00  0.00    -0.001 C 
ATOM      7  C   UNL     1     138.741 133.813 141.561  1.00  0.00     0.121 C 
ATOM      8  C   UNL     1     139.784 134.658 142.334  1.00  0.00     0.036 C 
ATOM      9  C   UNL     1     138.626 132.985 139.098  1.00  0.00     0.015 C 
ATOM     10  C   UNL     1     141.449 134.515 138.841  1.00  0.00     0.012 C 
ENDROOT
BRANCH   7  11
ATOM     11  O   UNL     1     137.577 134.548 141.285  1.00  0.00    -0.393 OA
ATOM     12  H   UNL     1     137.696 135.436 141.714  1.00  0.00     0.210 HD
ENDBRANCH   7  11
TORSDOF 1
ENDMDL
MODEL 5
REMARK VINA RESULT:    -3.481     12.101     13.648
REMARK INTER + INTRA:          -3.582
REMARK INTER:                  -3.582
REMARK INTRA:                   0.000
REMARK UNBOUND:                 0.000
REMARK SMILES CC1(C)[C@@H]2CC[C@@]1(C)[C@H](O)C2
REMARK SMILES IDX 1 1 2 2 4 3 5 4 6 5 7 6 9 7 11 8 8 9 3 10 10 11
REMARK H PARENT 10 12
REMARK Flexibility Score: inf
ROOT
ATOM      1  C   UNL     1     149.262 139.521 140.918  1.00  0.00     0.012 C 
ATOM      2  C   UNL     1     148.038 140.478 140.783  1.00  0.00    -0.025 C 
ATOM      3  C   UNL     1     147.487 140.580 139.352  1.00  0.00    -0.002 C 
ATOM      4  C   UNL     1     146.232 141.474 139.518  1.00  0.00     0.005 C 
ATOM      5  C   UNL     1     145.682 141.040 140.892  1.00  0.00     0.010 C 
ATOM      6  C   UNL     1     146.692 139.943 141.330  1.00  0.00    -0.001 C 
ATOM      7  C   UNL     1     146.383 138.709 140.428  1.00  0.00     0.121 C 
ATOM      8  C   UNL     1     146.963 139.151 139.062  1.00  0.00     0.036 C 
ATOM      9  C   UNL     1     146.642 139.654 142.838  1.00  0.00     0.015 C 
ATOM     10  C   UNL     1     148.504 141.842 141.381  1.00  0.00     0.012 C 
ENDROOT
BRANCH   7  11
ATOM     11  O   UNL     1     147.003 137.542 140.905  1.00  0.00    -0.393 OA
ATOM     12  H   UNL     1     147.958 137.602 140.639  1.00  0.00     0.210 HD
ENDBRANCH   7  11
TORSDOF 1
ENDMDL
MODEL 6
REMARK VINA RESULT:    -3.466      8.132      9.787
REMARK INTER + INTRA:          -3.568
REMARK INTER:                  -3.568
REMARK INTRA:                   0.000
REMARK UNBOUND:                 0.000
REMARK SMILES CC1(C)[C@@H]2CC[C@@]1(C)[C@H](O)C2
REMARK SMILES IDX 1 1 2 2 4 3 5 4 6 5 7 6 9 7 11 8 8 9 3 10 10 11
REMARK H PARENT 10 12
REMARK Flexibility Score: inf
ROOT
ATOM      1  C   UNL     1     142.130 149.171 140.899  1.00  0.00     0.012 C 
ATOM      2  C   UNL     1     141.159 147.953 140.809  1.00  0.00    -0.025 C 
ATOM      3  C   UNL     1     141.000 147.392 139.387  1.00  0.00    -0.002 C 
ATOM      4  C   UNL     1     140.103 146.146 139.596  1.00  0.00     0.005 C 
ATOM      5  C   UNL     1     140.584 145.602 140.957  1.00  0.00     0.010 C 
ATOM      6  C   UNL     1     141.704 146.607 141.347  1.00  0.00    -0.001 C 
ATOM      7  C   UNL     1     142.901 146.282 140.403  1.00  0.00     0.121 C 
ATOM      8  C   UNL     1     142.414 146.855 139.050  1.00  0.00     0.036 C 
ATOM      9  C   UNL     1     142.047 146.567 142.843  1.00  0.00     0.015 C 
ATOM     10  C   UNL     1     139.821 148.434 141.453  1.00  0.00     0.012 C 
ENDROOT
BRANCH   7  11
ATOM     11  O   UNL     1     144.089 146.896 140.831  1.00  0.00    -0.393 OA
ATOM     12  H   UNL     1     144.287 146.530 141.733  1.00  0.00     0.210 HD
ENDBRANCH   7  11
TORSDOF 1
ENDMDL
MODEL 7
REMARK VINA RESULT:    -3.441      8.553      9.847
REMARK INTER + INTRA:          -3.542
REMARK INTER:                  -3.542
REMARK INTRA:                   0.000
REMARK UNBOUND:                 0.000
REMARK SMILES CC1(C)[C@@H]2CC[C@@]1(C)[C@H](O)C2
REMARK SMILES IDX 1 1 2 2 4 3 5 4 6 5 7 6 9 7 11 8 8 9 3 10 10 11
REMARK H PARENT 10 12
REMARK Flexibility Score: inf
ROOT
ATOM      1  C   UNL     1     139.451 132.406 140.931  1.00  0.00     0.012 C 
ATOM      2  C   UNL     1     140.436 133.609 140.797  1.00  0.00    -0.025 C 
ATOM      3  C   UNL     1     140.559 134.152 139.365  1.00  0.00    -0.002 C 
ATOM      4  C   UNL     1     141.479 135.387 139.531  1.00  0.00     0.005 C 
ATOM      5  C   UNL     1     141.047 135.953 140.900  1.00  0.00     0.010 C 
ATOM      6  C   UNL     1     139.926 134.968 141.335  1.00  0.00    -0.001 C 
ATOM      7  C   UNL     1     138.705 135.300 140.424  1.00  0.00     0.121 C 
ATOM      8  C   UNL     1     139.143 134.705 139.063  1.00  0.00     0.036 C 
ATOM      9  C   UNL     1     139.629 135.031 142.840  1.00  0.00     0.015 C 
ATOM     10  C   UNL     1     141.786 133.116 141.406  1.00  0.00     0.012 C 
ENDROOT
BRANCH   7  11
ATOM     11  O   UNL     1     137.522 134.707 140.895  1.00  0.00    -0.393 OA
ATOM     12  H   UNL     1     136.771 135.207 140.479  1.00  0.00     0.210 HD
ENDBRANCH   7  11
TORSDOF 1
ENDMDL
MODEL 8
REMARK VINA RESULT:    -3.356      8.818     10.600
REMARK INTER + INTRA:          -3.454
REMARK INTER:                  -3.454
REMARK INTRA:                   0.000
REMARK UNBOUND:                 0.000
REMARK SMILES CC1(C)[C@@H]2CC[C@@]1(C)[C@H](O)C2
REMARK SMILES IDX 1 1 2 2 4 3 5 4 6 5 7 6 9 7 11 8 8 9 3 10 10 11
REMARK H PARENT 10 12
REMARK Flexibility Score: inf
ROOT
ATOM      1  C   UNL     1     141.412 147.213 142.228  1.00  0.00     0.012 C 
ATOM      2  C   UNL     1     141.154 147.863 140.834  1.00  0.00    -0.025 C 
ATOM      3  C   UNL     1     141.560 149.343 140.757  1.00  0.00    -0.002 C 
ATOM      4  C   UNL     1     141.319 149.700 139.268  1.00  0.00     0.005 C 
ATOM      5  C   UNL     1     141.713 148.401 138.537  1.00  0.00     0.010 C 
ATOM      6  C   UNL     1     142.139 147.470 139.706  1.00  0.00    -0.001 C 
ATOM      7  C   UNL     1     143.513 148.020 140.197  1.00  0.00     0.121 C 
ATOM      8  C   UNL     1     143.097 149.308 140.949  1.00  0.00     0.036 C 
ATOM      9  C   UNL     1     142.155 145.986 139.310  1.00  0.00     0.015 C 
ATOM     10  C   UNL     1     139.647 147.603 140.522  1.00  0.00     0.012 C 
ENDROOT
BRANCH   7  11
ATOM     11  O   UNL     1     144.170 147.112 141.042  1.00  0.00    -0.393 OA
ATOM     12  H   UNL     1     144.708 147.656 141.676  1.00  0.00     0.210 HD
ENDBRANCH   7  11
TORSDOF 1
ENDMDL
MODEL 9
REMARK VINA RESULT:    -3.339      8.882     10.060
REMARK INTER + INTRA:          -3.437
REMARK INTER:                  -3.437
REMARK INTRA:                   0.000
REMARK UNBOUND:                 0.000
REMARK SMILES CC1(C)[C@@H]2CC[C@@]1(C)[C@H](O)C2
REMARK SMILES IDX 1 1 2 2 4 3 5 4 6 5 7 6 9 7 11 8 8 9 3 10 10 11
REMARK H PARENT 10 12
REMARK Flexibility Score: inf
ROOT
ATOM      1  C   UNL     1     140.182 134.545 142.159  1.00  0.00     0.012 C 
ATOM      2  C   UNL     1     140.427 133.810 140.805  1.00  0.00    -0.025 C 
ATOM      3  C   UNL     1     139.987 132.338 140.811  1.00  0.00    -0.002 C 
ATOM      4  C   UNL     1     140.221 131.892 139.345  1.00  0.00     0.005 C 
ATOM      5  C   UNL     1     139.858 133.156 138.540  1.00  0.00     0.010 C 
ATOM      6  C   UNL     1     139.453 134.162 139.654  1.00  0.00    -0.001 C 
ATOM      7  C   UNL     1     138.066 133.672 140.172  1.00  0.00     0.121 C 
ATOM      8  C   UNL     1     138.451 132.419 140.997  1.00  0.00     0.036 C 
ATOM      9  C   UNL     1     139.471 135.621 139.175  1.00  0.00     0.015 C 
ATOM     10  C   UNL     1     141.940 134.017 140.482  1.00  0.00     0.012 C 
ENDROOT
BRANCH   7  11
ATOM     11  O   UNL     1     137.429 134.641 140.963  1.00  0.00    -0.393 OA
ATOM     12  H   UNL     1     136.559 134.835 140.525  1.00  0.00     0.210 HD
ENDBRANCH   7  11
TORSDOF 1
ENDMDL
