MODEL 1
REMARK VINA RESULT:    -5.591      0.000      0.000
REMARK INTER + INTRA:          -6.116
REMARK INTER:                  -6.081
REMARK INTRA:                  -0.035
REMARK UNBOUND:                -0.035
REMARK SMILES O=C([O-])c1ccc(O)cc1
REMARK SMILES IDX 4 1 5 2 10 3 6 4 9 5 7 6 2 7 1 8 3 9 8 10
REMARK H PARENT 8 11
REMARK Flexibility Score: inf
ROOT
ATOM      1  C   UNL     1      43.039  45.297  42.007  1.00  0.00    -0.003 A 
ATOM      2  C   UNL     1      43.911  45.259  40.905  1.00  0.00     0.014 A 
ATOM      3  C   UNL     1      41.661  45.113  41.792  1.00  0.00     0.014 A 
ATOM      4  C   UNL     1      43.415  45.040  39.616  1.00  0.00     0.047 A 
ATOM      5  C   UNL     1      41.168  44.896  40.502  1.00  0.00     0.047 A 
ATOM      6  C   UNL     1      42.041  44.858  39.411  1.00  0.00     0.115 A 
ENDROOT
BRANCH   1   7
ATOM      7  C   UNL     1      43.566  45.528  43.369  1.00  0.00     0.071 C 
ATOM      8  O   UNL     1      42.810  45.941  44.288  1.00  0.00    -0.545 OA
ATOM      9  O   UNL     1      44.906  45.291  43.656  1.00  0.00    -0.545 OA
ENDBRANCH   1   7
BRANCH   6  10
ATOM     10  O   UNL     1      41.536  44.641  38.132  1.00  0.00    -0.508 OA
ATOM     11  H   UNL     1      41.852  45.187  37.338  1.00  0.00     0.293 HD
ENDBRANCH   6  10
TORSDOF 2
ENDMDL
MODEL 2
REMARK VINA RESULT:    -5.584      0.054      1.532
REMARK INTER + INTRA:          -6.109
REMARK INTER:                  -6.074
REMARK INTRA:                  -0.035
REMARK UNBOUND:                -0.035
REMARK SMILES O=C([O-])c1ccc(O)cc1
REMARK SMILES IDX 4 1 5 2 10 3 6 4 9 5 7 6 2 7 1 8 3 9 8 10
REMARK H PARENT 8 11
REMARK Flexibility Score: inf
ROOT
ATOM      1  C   UNL     1      43.064  45.305  42.006  1.00  0.00    -0.003 A 
ATOM      2  C   UNL     1      41.682  45.117  41.831  1.00  0.00     0.014 A 
ATOM      3  C   UNL     1      43.906  45.269  40.880  1.00  0.00     0.014 A 
ATOM      4  C   UNL     1      41.154  44.897  40.554  1.00  0.00     0.047 A 
ATOM      5  C   UNL     1      43.375  45.048  39.606  1.00  0.00     0.047 A 
ATOM      6  C   UNL     1      42.000  44.862  39.438  1.00  0.00     0.115 A 
ENDROOT
BRANCH   1   7
ATOM      7  C   UNL     1      43.620  45.538  43.358  1.00  0.00     0.071 C 
ATOM      8  O   UNL     1      42.878  45.931  44.297  1.00  0.00    -0.545 OA
ATOM      9  O   UNL     1      44.971  45.325  43.609  1.00  0.00    -0.545 OA
ENDBRANCH   1   7
BRANCH   6  10
ATOM     10  O   UNL     1      41.485  44.643  38.163  1.00  0.00    -0.508 OA
ATOM     11  H   UNL     1      41.569  43.742  37.706  1.00  0.00     0.293 HD
ENDBRANCH   6  10
TORSDOF 2
ENDMDL
MODEL 3
REMARK VINA RESULT:    -5.256      1.062      4.134
REMARK INTER + INTRA:          -5.752
REMARK INTER:                  -5.719
REMARK INTRA:                  -0.033
REMARK UNBOUND:                -0.035
REMARK SMILES O=C([O-])c1ccc(O)cc1
REMARK SMILES IDX 4 1 5 2 10 3 6 4 9 5 7 6 2 7 1 8 3 9 8 10
REMARK H PARENT 8 11
REMARK Flexibility Score: inf
ROOT
ATOM      1  C   UNL     1      43.006  45.095  40.195  1.00  0.00    -0.003 A 
ATOM      2  C   UNL     1      44.308  45.162  40.720  1.00  0.00     0.014 A 
ATOM      3  C   UNL     1      41.910  45.224  41.068  1.00  0.00     0.014 A 
ATOM      4  C   UNL     1      44.509  45.354  42.091  1.00  0.00     0.047 A 
ATOM      5  C   UNL     1      42.115  45.415  42.437  1.00  0.00     0.047 A 
ATOM      6  C   UNL     1      43.412  45.481  42.953  1.00  0.00     0.115 A 
ENDROOT
BRANCH   1   7
ATOM      7  C   UNL     1      42.795  44.892  38.744  1.00  0.00     0.071 C 
ATOM      8  O   UNL     1      41.825  45.438  38.155  1.00  0.00    -0.545 OA
ATOM      9  O   UNL     1      43.667  44.095  38.011  1.00  0.00    -0.545 OA
ENDBRANCH   1   7
BRANCH   6  10
ATOM     10  O   UNL     1      43.601  45.672  44.320  1.00  0.00    -0.508 OA
ATOM     11  H   UNL     1      44.529  45.745  44.721  1.00  0.00     0.293 HD
ENDBRANCH   6  10
TORSDOF 2
ENDMDL
MODEL 4
REMARK VINA RESULT:    -5.249      1.086      4.399
REMARK INTER + INTRA:          -5.744
REMARK INTER:                  -5.711
REMARK INTRA:                  -0.034
REMARK UNBOUND:                -0.035
REMARK SMILES O=C([O-])c1ccc(O)cc1
REMARK SMILES IDX 4 1 5 2 10 3 6 4 9 5 7 6 2 7 1 8 3 9 8 10
REMARK H PARENT 8 11
REMARK Flexibility Score: inf
ROOT
ATOM      1  C   UNL     1      43.043  45.105  40.200  1.00  0.00    -0.003 A 
ATOM      2  C   UNL     1      41.938  45.267  41.054  1.00  0.00     0.014 A 
ATOM      3  C   UNL     1      44.338  45.132  40.748  1.00  0.00     0.014 A 
ATOM      4  C   UNL     1      42.127  45.452  42.428  1.00  0.00     0.047 A 
ATOM      5  C   UNL     1      44.523  45.318  42.120  1.00  0.00     0.047 A 
ATOM      6  C   UNL     1      43.421  45.478  42.964  1.00  0.00     0.115 A 
ENDROOT
BRANCH   1   7
ATOM      7  C   UNL     1      42.841  44.909  38.748  1.00  0.00     0.071 C 
ATOM      8  O   UNL     1      41.846  45.416  38.165  1.00  0.00    -0.545 OA
ATOM      9  O   UNL     1      43.748  44.161  38.005  1.00  0.00    -0.545 OA
ENDBRANCH   1   7
BRANCH   6  10
ATOM     10  O   UNL     1      43.620  45.663  44.330  1.00  0.00    -0.508 OA
ATOM     11  H   UNL     1      43.422  44.927  44.998  1.00  0.00     0.293 HD
ENDBRANCH   6  10
TORSDOF 2
ENDMDL
MODEL 5
REMARK VINA RESULT:    -5.198      8.903     10.660
REMARK INTER + INTRA:          -5.689
REMARK INTER:                  -5.661
REMARK INTRA:                  -0.028
REMARK UNBOUND:                -0.035
REMARK SMILES O=C([O-])c1ccc(O)cc1
REMARK SMILES IDX 4 1 5 2 10 3 6 4 9 5 7 6 2 7 1 8 3 9 8 10
REMARK H PARENT 8 11
REMARK Flexibility Score: inf
ROOT
ATOM      1  C   UNL     1      47.710  42.876  33.270  1.00  0.00    -0.003 A 
ATOM      2  C   UNL     1      48.531  41.861  32.750  1.00  0.00     0.014 A 
ATOM      3  C   UNL     1      47.719  44.142  32.657  1.00  0.00     0.014 A 
ATOM      4  C   UNL     1      49.345  42.108  31.640  1.00  0.00     0.047 A 
ATOM      5  C   UNL     1      48.535  44.385  31.548  1.00  0.00     0.047 A 
ATOM      6  C   UNL     1      49.349  43.371  31.036  1.00  0.00     0.115 A 
ENDROOT
BRANCH   1   7
ATOM      7  C   UNL     1      46.849  42.613  34.444  1.00  0.00     0.071 C 
ATOM      8  O   UNL     1      47.111  43.135  35.560  1.00  0.00    -0.545 OA
ATOM      9  O   UNL     1      45.737  41.785  34.332  1.00  0.00    -0.545 OA
ENDBRANCH   1   7
BRANCH   6  10
ATOM     10  O   UNL     1      50.156  43.628  29.930  1.00  0.00    -0.508 OA
ATOM     11  H   UNL     1      51.003  44.179  30.010  1.00  0.00     0.293 HD
ENDBRANCH   6  10
TORSDOF 2
ENDMDL
MODEL 6
REMARK VINA RESULT:    -4.873      2.870      5.617
REMARK INTER + INTRA:          -5.335
REMARK INTER:                  -5.300
REMARK INTRA:                  -0.035
REMARK UNBOUND:                -0.035
REMARK SMILES O=C([O-])c1ccc(O)cc1
REMARK SMILES IDX 4 1 5 2 10 3 6 4 9 5 7 6 2 7 1 8 3 9 8 10
REMARK H PARENT 8 11
REMARK Flexibility Score: inf
ROOT
ATOM      1  C   UNL     1      44.360  45.819  44.069  1.00  0.00    -0.003 A 
ATOM      2  C   UNL     1      45.626  46.089  44.617  1.00  0.00     0.014 A 
ATOM      3  C   UNL     1      43.212  46.254  44.757  1.00  0.00     0.014 A 
ATOM      4  C   UNL     1      45.741  46.780  45.827  1.00  0.00     0.047 A 
ATOM      5  C   UNL     1      43.331  46.944  45.967  1.00  0.00     0.047 A 
ATOM      6  C   UNL     1      44.593  47.209  46.506  1.00  0.00     0.115 A 
ENDROOT
BRANCH   1   7
ATOM      7  C   UNL     1      44.240  45.088  42.789  1.00  0.00     0.071 C 
ATOM      8  O   UNL     1      45.189  44.375  42.367  1.00  0.00    -0.545 OA
ATOM      9  O   UNL     1      43.077  45.178  42.032  1.00  0.00    -0.545 OA
ENDBRANCH   1   7
BRANCH   6  10
ATOM     10  O   UNL     1      44.696  47.897  47.712  1.00  0.00    -0.508 OA
ATOM     11  H   UNL     1      44.920  48.885  47.741  1.00  0.00     0.293 HD
ENDBRANCH   6  10
TORSDOF 2
ENDMDL
MODEL 7
REMARK VINA RESULT:    -4.724      5.601      7.274
REMARK INTER + INTRA:          -5.174
REMARK INTER:                  -5.138
REMARK INTRA:                  -0.036
REMARK UNBOUND:                -0.035
REMARK SMILES O=C([O-])c1ccc(O)cc1
REMARK SMILES IDX 4 1 5 2 10 3 6 4 9 5 7 6 2 7 1 8 3 9 8 10
REMARK H PARENT 8 11
REMARK Flexibility Score: inf
ROOT
ATOM      1  C   UNL     1      45.968  45.344  47.998  1.00  0.00    -0.003 A 
ATOM      2  C   UNL     1      45.364  46.472  48.581  1.00  0.00     0.014 A 
ATOM      3  C   UNL     1      45.804  45.120  46.619  1.00  0.00     0.014 A 
ATOM      4  C   UNL     1      44.613  47.356  47.801  1.00  0.00     0.047 A 
ATOM      5  C   UNL     1      45.052  46.006  45.842  1.00  0.00     0.047 A 
ATOM      6  C   UNL     1      44.455  47.125  46.428  1.00  0.00     0.115 A 
ENDROOT
BRANCH   1   7
ATOM      7  C   UNL     1      46.762  44.410  48.825  1.00  0.00     0.071 C 
ATOM      8  O   UNL     1      47.113  43.289  48.369  1.00  0.00    -0.545 OA
ATOM      9  O   UNL     1      47.134  44.757  50.120  1.00  0.00    -0.545 OA
ENDBRANCH   1   7
BRANCH   6  10
ATOM     10  O   UNL     1      43.709  47.999  45.642  1.00  0.00    -0.508 OA
ATOM     11  H   UNL     1      44.129  48.814  45.211  1.00  0.00     0.293 HD
ENDBRANCH   6  10
TORSDOF 2
ENDMDL
MODEL 8
REMARK VINA RESULT:    -4.695      9.158     11.361
REMARK INTER + INTRA:          -5.142
REMARK INTER:                  -5.106
REMARK INTRA:                  -0.035
REMARK UNBOUND:                -0.035
REMARK SMILES O=C([O-])c1ccc(O)cc1
REMARK SMILES IDX 4 1 5 2 10 3 6 4 9 5 7 6 2 7 1 8 3 9 8 10
REMARK H PARENT 8 11
REMARK Flexibility Score: inf
ROOT
ATOM      1  C   UNL     1      48.201  43.330  31.620  1.00  0.00    -0.003 A 
ATOM      2  C   UNL     1      46.883  43.811  31.707  1.00  0.00     0.014 A 
ATOM      3  C   UNL     1      48.630  42.348  32.532  1.00  0.00     0.014 A 
ATOM      4  C   UNL     1      46.013  43.320  32.686  1.00  0.00     0.047 A 
ATOM      5  C   UNL     1      47.758  41.860  33.509  1.00  0.00     0.047 A 
ATOM      6  C   UNL     1      46.449  42.342  33.590  1.00  0.00     0.115 A 
ENDROOT
BRANCH   1   7
ATOM      7  C   UNL     1      49.119  43.851  30.584  1.00  0.00     0.071 C 
ATOM      8  O   UNL     1      50.193  43.248  30.318  1.00  0.00    -0.545 OA
ATOM      9  O   UNL     1      48.809  45.014  29.888  1.00  0.00    -0.545 OA
ENDBRANCH   1   7
BRANCH   6  10
ATOM     10  O   UNL     1      45.591  41.847  34.569  1.00  0.00    -0.508 OA
ATOM     11  H   UNL     1      45.578  42.233  35.506  1.00  0.00     0.293 HD
ENDBRANCH   6  10
TORSDOF 2
ENDMDL
MODEL 9
REMARK VINA RESULT:    -4.635      4.723      7.104
REMARK INTER + INTRA:          -5.077
REMARK INTER:                  -5.049
REMARK INTRA:                  -0.028
REMARK UNBOUND:                -0.035
REMARK SMILES O=C([O-])c1ccc(O)cc1
REMARK SMILES IDX 4 1 5 2 10 3 6 4 9 5 7 6 2 7 1 8 3 9 8 10
REMARK H PARENT 8 11
REMARK Flexibility Score: inf
ROOT
ATOM      1  C   UNL     1      44.845  45.829  46.353  1.00  0.00    -0.003 A 
ATOM      2  C   UNL     1      46.108  45.408  45.902  1.00  0.00     0.014 A 
ATOM      3  C   UNL     1      44.472  45.564  47.683  1.00  0.00     0.014 A 
ATOM      4  C   UNL     1      46.979  44.736  46.765  1.00  0.00     0.047 A 
ATOM      5  C   UNL     1      45.345  44.892  48.543  1.00  0.00     0.047 A 
ATOM      6  C   UNL     1      46.600  44.476  48.088  1.00  0.00     0.115 A 
ENDROOT
BRANCH   1   7
ATOM      7  C   UNL     1      43.924  46.540  45.438  1.00  0.00     0.071 C 
ATOM      8  O   UNL     1      43.641  47.752  45.629  1.00  0.00    -0.545 OA
ATOM      9  O   UNL     1      43.359  45.879  44.353  1.00  0.00    -0.545 OA
ENDBRANCH   1   7
BRANCH   6  10
ATOM     10  O   UNL     1      47.460  43.807  48.956  1.00  0.00    -0.508 OA
ATOM     11  H   UNL     1      47.963  44.298  49.686  1.00  0.00     0.293 HD
ENDBRANCH   6  10
TORSDOF 2
ENDMDL
