MODEL 1
REMARK VINA RESULT:    -3.687      0.000      0.000
REMARK INTER + INTRA:          -5.226
REMARK INTER:                  -4.980
REMARK INTRA:                  -0.246
REMARK UNBOUND:                -0.246
REMARK SMILES CCCCCCCC(=O)[O-]
REMARK SMILES IDX 5 1 6 2 7 3 8 4 9 5 10 6 4 7 3 8 2 9 1 10
REMARK H PARENT
REMARK Flexibility Score: inf
ROOT
ATOM      1  C   UNL     1     -23.844 -12.019   4.759  1.00  0.00     0.000 C 
ENDROOT
BRANCH   1   2
ATOM      2  C   UNL     1     -24.118 -13.532   4.817  1.00  0.00     0.006 C 
BRANCH   2   3
ATOM      3  C   UNL     1     -24.619 -14.081   3.474  1.00  0.00     0.053 C 
BRANCH   3   4
ATOM      4  C   UNL     1     -23.550 -14.842   2.752  1.00  0.00     0.041 C 
ATOM      5  O   UNL     1     -22.386 -14.371   2.668  1.00  0.00    -0.550 OA
ATOM      6  O   UNL     1     -23.830 -16.086   2.204  1.00  0.00    -0.550 OA
ENDBRANCH   3   4
ENDBRANCH   2   3
ENDBRANCH   1   2
BRANCH   1   7
ATOM      7  C   UNL     1     -22.359 -11.673   4.963  1.00  0.00     0.000 C 
BRANCH   7   8
ATOM      8  C   UNL     1     -21.928 -10.298   4.414  1.00  0.00    -0.000 C 
BRANCH   8   9
ATOM      9  C   UNL     1     -20.431 -10.170   4.082  1.00  0.00    -0.003 C 
ATOM     10  C   UNL     1     -19.772 -11.514   3.779  1.00  0.00     0.004 C 
ENDBRANCH   8   9
ENDBRANCH   7   8
ENDBRANCH   1   7
TORSDOF 6
ENDMDL
MODEL 2
REMARK VINA RESULT:    -3.632      9.864     10.469
REMARK INTER + INTRA:          -5.151
REMARK INTER:                  -4.858
REMARK INTRA:                  -0.293
REMARK UNBOUND:                -0.246
REMARK SMILES CCCCCCCC(=O)[O-]
REMARK SMILES IDX 5 1 6 2 7 3 8 4 9 5 10 6 4 7 3 8 2 9 1 10
REMARK H PARENT
REMARK Flexibility Score: inf
ROOT
ATOM      1  C   UNL     1     -17.728 -17.490  -3.095  1.00  0.00     0.000 C 
ENDROOT
BRANCH   1   2
ATOM      2  C   UNL     1     -17.882 -18.026  -4.529  1.00  0.00     0.006 C 
BRANCH   2   3
ATOM      3  C   UNL     1     -18.391 -19.473  -4.554  1.00  0.00     0.053 C 
BRANCH   3   4
ATOM      4  C   UNL     1     -19.801 -19.574  -4.057  1.00  0.00     0.041 C 
ATOM      5  O   UNL     1     -20.032 -19.986  -2.890  1.00  0.00    -0.550 OA
ATOM      6  O   UNL     1     -20.855 -19.178  -4.869  1.00  0.00    -0.550 OA
ENDBRANCH   3   4
ENDBRANCH   2   3
ENDBRANCH   1   2
BRANCH   1   7
ATOM      7  C   UNL     1     -16.302 -16.999  -2.790  1.00  0.00     0.000 C 
BRANCH   7   8
ATOM      8  C   UNL     1     -15.677 -16.095  -3.872  1.00  0.00    -0.000 C 
BRANCH   8   9
ATOM      9  C   UNL     1     -16.200 -14.649  -3.893  1.00  0.00    -0.003 C 
ATOM     10  C   UNL     1     -16.335 -14.085  -5.306  1.00  0.00     0.004 C 
ENDBRANCH   8   9
ENDBRANCH   7   8
ENDBRANCH   1   7
TORSDOF 6
ENDMDL
MODEL 3
REMARK VINA RESULT:    -3.476      1.871      4.429
REMARK INTER + INTRA:          -4.941
REMARK INTER:                  -4.620
REMARK INTRA:                  -0.322
REMARK UNBOUND:                -0.246
REMARK SMILES CCCCCCCC(=O)[O-]
REMARK SMILES IDX 5 1 6 2 7 3 8 4 9 5 10 6 4 7 3 8 2 9 1 10
REMARK H PARENT
REMARK Flexibility Score: inf
ROOT
ATOM      1  C   UNL     1     -23.535 -10.413   4.559  1.00  0.00     0.000 C 
ENDROOT
BRANCH   1   2
ATOM      2  C   UNL     1     -22.138 -10.576   5.185  1.00  0.00     0.006 C 
BRANCH   2   3
ATOM      3  C   UNL     1     -21.019 -10.197   4.207  1.00  0.00     0.053 C 
BRANCH   3   4
ATOM      4  C   UNL     1     -20.215 -11.392   3.793  1.00  0.00     0.041 C 
ATOM      5  O   UNL     1     -20.788 -12.485   3.548  1.00  0.00    -0.550 OA
ATOM      6  O   UNL     1     -18.839 -11.288   3.645  1.00  0.00    -0.550 OA
ENDBRANCH   3   4
ENDBRANCH   2   3
ENDBRANCH   1   2
BRANCH   1   7
ATOM      7  C   UNL     1     -24.488 -11.567   4.916  1.00  0.00     0.000 C 
BRANCH   7   8
ATOM      8  C   UNL     1     -23.879 -12.979   4.793  1.00  0.00    -0.000 C 
BRANCH   8   9
ATOM      9  C   UNL     1     -24.529 -13.876   3.725  1.00  0.00    -0.003 C 
ATOM     10  C   UNL     1     -23.509 -14.687   2.928  1.00  0.00     0.004 C 
ENDBRANCH   8   9
ENDBRANCH   7   8
ENDBRANCH   1   7
TORSDOF 6
ENDMDL
MODEL 4
REMARK VINA RESULT:    -3.434      2.143      2.897
REMARK INTER + INTRA:          -4.884
REMARK INTER:                  -4.638
REMARK INTRA:                  -0.246
REMARK UNBOUND:                -0.246
REMARK SMILES CCCCCCCC(=O)[O-]
REMARK SMILES IDX 5 1 6 2 7 3 8 4 9 5 10 6 4 7 3 8 2 9 1 10
REMARK H PARENT
REMARK Flexibility Score: inf
ROOT
ATOM      1  C   UNL     1     -23.007 -14.298   3.011  1.00  0.00     0.000 C 
ENDROOT
BRANCH   1   2
ATOM      2  C   UNL     1     -23.960 -15.498   2.873  1.00  0.00     0.006 C 
BRANCH   2   3
ATOM      3  C   UNL     1     -24.980 -15.562   4.017  1.00  0.00     0.053 C 
BRANCH   3   4
ATOM      4  C   UNL     1     -26.368 -15.808   3.509  1.00  0.00     0.041 C 
ATOM      5  O   UNL     1     -26.637 -16.871   2.891  1.00  0.00    -0.550 OA
ATOM      6  O   UNL     1     -27.372 -14.880   3.751  1.00  0.00    -0.550 OA
ENDBRANCH   3   4
ENDBRANCH   2   3
ENDBRANCH   1   2
BRANCH   1   7
ATOM      7  C   UNL     1     -23.413 -13.339   4.144  1.00  0.00     0.000 C 
BRANCH   7   8
ATOM      8  C   UNL     1     -22.344 -12.299   4.533  1.00  0.00    -0.000 C 
BRANCH   8   9
ATOM      9  C   UNL     1     -21.012 -12.419   3.773  1.00  0.00    -0.003 C 
ATOM     10  C   UNL     1     -20.099 -11.212   3.977  1.00  0.00     0.004 C 
ENDBRANCH   8   9
ENDBRANCH   7   8
ENDBRANCH   1   7
TORSDOF 6
ENDMDL
MODEL 5
REMARK VINA RESULT:    -3.398      0.721      1.450
REMARK INTER + INTRA:          -4.835
REMARK INTER:                  -4.514
REMARK INTRA:                  -0.321
REMARK UNBOUND:                -0.246
REMARK SMILES CCCCCCCC(=O)[O-]
REMARK SMILES IDX 5 1 6 2 7 3 8 4 9 5 10 6 4 7 3 8 2 9 1 10
REMARK H PARENT
REMARK Flexibility Score: inf
ROOT
ATOM      1  C   UNL     1     -24.367 -12.752   5.538  1.00  0.00     0.000 C 
ENDROOT
BRANCH   1   2
ATOM      2  C   UNL     1     -24.346 -14.205   5.032  1.00  0.00     0.006 C 
BRANCH   2   3
ATOM      3  C   UNL     1     -24.791 -14.315   3.568  1.00  0.00     0.053 C 
BRANCH   3   4
ATOM      4  C   UNL     1     -23.832 -15.131   2.757  1.00  0.00     0.041 C 
ATOM      5  O   UNL     1     -24.237 -16.143   2.128  1.00  0.00    -0.550 OA
ATOM      6  O   UNL     1     -22.499 -14.752   2.666  1.00  0.00    -0.550 OA
ENDBRANCH   3   4
ENDBRANCH   2   3
ENDBRANCH   1   2
BRANCH   1   7
ATOM      7  C   UNL     1     -23.501 -11.809   4.685  1.00  0.00     0.000 C 
BRANCH   7   8
ATOM      8  C   UNL     1     -22.042 -11.654   5.161  1.00  0.00    -0.000 C 
BRANCH   8   9
ATOM      9  C   UNL     1     -20.977 -12.122   4.154  1.00  0.00    -0.003 C 
ATOM     10  C   UNL     1     -19.917 -11.058   3.872  1.00  0.00     0.004 C 
ENDBRANCH   8   9
ENDBRANCH   7   8
ENDBRANCH   1   7
TORSDOF 6
ENDMDL
MODEL 6
REMARK VINA RESULT:    -3.362      9.849     11.667
REMARK INTER + INTRA:          -4.787
REMARK INTER:                  -4.586
REMARK INTRA:                  -0.201
REMARK UNBOUND:                -0.246
REMARK SMILES CCCCCCCC(=O)[O-]
REMARK SMILES IDX 5 1 6 2 7 3 8 4 9 5 10 6 4 7 3 8 2 9 1 10
REMARK H PARENT
REMARK Flexibility Score: inf
ROOT
ATOM      1  C   UNL     1     -18.369 -18.175  -3.796  1.00  0.00     0.000 C 
ENDROOT
BRANCH   1   2
ATOM      2  C   UNL     1     -17.133 -17.591  -3.090  1.00  0.00     0.006 C 
BRANCH   2   3
ATOM      3  C   UNL     1     -17.250 -16.077  -2.876  1.00  0.00     0.053 C 
BRANCH   3   4
ATOM      4  C   UNL     1     -16.063 -15.345  -3.423  1.00  0.00     0.041 C 
ATOM      5  O   UNL     1     -14.899 -15.770  -3.197  1.00  0.00    -0.550 OA
ATOM      6  O   UNL     1     -16.243 -14.217  -4.212  1.00  0.00    -0.550 OA
ENDBRANCH   3   4
ENDBRANCH   2   3
ENDBRANCH   1   2
BRANCH   1   7
ATOM      7  C   UNL     1     -18.005 -19.171  -4.912  1.00  0.00     0.000 C 
BRANCH   7   8
ATOM      8  C   UNL     1     -18.776 -20.506  -4.872  1.00  0.00    -0.000 C 
BRANCH   8   9
ATOM      9  C   UNL     1     -20.174 -20.431  -4.236  1.00  0.00    -0.003 C 
ATOM     10  C   UNL     1     -21.269 -20.079  -5.242  1.00  0.00     0.004 C 
ENDBRANCH   8   9
ENDBRANCH   7   8
ENDBRANCH   1   7
TORSDOF 6
ENDMDL
MODEL 7
REMARK VINA RESULT:    -3.302      1.814      4.361
REMARK INTER + INTRA:          -4.706
REMARK INTER:                  -4.338
REMARK INTRA:                  -0.368
REMARK UNBOUND:                -0.246
REMARK SMILES CCCCCCCC(=O)[O-]
REMARK SMILES IDX 5 1 6 2 7 3 8 4 9 5 10 6 4 7 3 8 2 9 1 10
REMARK H PARENT
REMARK Flexibility Score: inf
ROOT
ATOM      1  C   UNL     1     -23.817 -12.281   5.404  1.00  0.00     0.000 C 
ENDROOT
BRANCH   1   2
ATOM      2  C   UNL     1     -22.905 -11.195   4.805  1.00  0.00     0.006 C 
BRANCH   2   3
ATOM      3  C   UNL     1     -21.428 -11.423   5.153  1.00  0.00     0.053 C 
BRANCH   3   4
ATOM      4  C   UNL     1     -20.660 -11.963   3.985  1.00  0.00     0.041 C 
ATOM      5  O   UNL     1     -21.131 -12.909   3.301  1.00  0.00    -0.550 OA
ATOM      6  O   UNL     1     -19.443 -11.397   3.632  1.00  0.00    -0.550 OA
ENDBRANCH   3   4
ENDBRANCH   2   3
ENDBRANCH   1   2
BRANCH   1   7
ATOM      7  C   UNL     1     -25.145 -12.433   4.642  1.00  0.00     0.000 C 
BRANCH   7   8
ATOM      8  C   UNL     1     -25.261 -13.705   3.778  1.00  0.00    -0.000 C 
BRANCH   8   9
ATOM      9  C   UNL     1     -24.114 -14.716   3.953  1.00  0.00    -0.003 C 
ATOM     10  C   UNL     1     -23.680 -15.357   2.637  1.00  0.00     0.004 C 
ENDBRANCH   8   9
ENDBRANCH   7   8
ENDBRANCH   1   7
TORSDOF 6
ENDMDL
MODEL 8
REMARK VINA RESULT:    -3.226      1.428      1.794
REMARK INTER + INTRA:          -4.603
REMARK INTER:                  -4.453
REMARK INTRA:                  -0.150
REMARK UNBOUND:                -0.246
REMARK SMILES CCCCCCCC(=O)[O-]
REMARK SMILES IDX 5 1 6 2 7 3 8 4 9 5 10 6 4 7 3 8 2 9 1 10
REMARK H PARENT
REMARK Flexibility Score: inf
ROOT
ATOM      1  C   UNL     1     -23.863 -12.393   4.734  1.00  0.00     0.000 C 
ENDROOT
BRANCH   1   2
ATOM      2  C   UNL     1     -24.156 -13.898   4.856  1.00  0.00     0.006 C 
BRANCH   2   3
ATOM      3  C   UNL     1     -24.487 -14.535   3.500  1.00  0.00     0.053 C 
BRANCH   3   4
ATOM      4  C   UNL     1     -25.365 -15.740   3.652  1.00  0.00     0.041 C 
ATOM      5  O   UNL     1     -25.521 -16.534   2.687  1.00  0.00    -0.550 OA
ATOM      6  O   UNL     1     -25.980 -16.004   4.868  1.00  0.00    -0.550 OA
ENDBRANCH   3   4
ENDBRANCH   2   3
ENDBRANCH   1   2
BRANCH   1   7
ATOM      7  C   UNL     1     -22.376 -12.092   4.480  1.00  0.00     0.000 C 
BRANCH   7   8
ATOM      8  C   UNL     1     -21.994 -10.598   4.530  1.00  0.00    -0.000 C 
BRANCH   8   9
ATOM      9  C   UNL     1     -20.570 -10.275   4.046  1.00  0.00    -0.003 C 
ATOM     10  C   UNL     1     -19.733 -11.524   3.782  1.00  0.00     0.004 C 
ENDBRANCH   8   9
ENDBRANCH   7   8
ENDBRANCH   1   7
TORSDOF 6
ENDMDL
MODEL 9
REMARK VINA RESULT:    -3.107     10.043     11.009
REMARK INTER + INTRA:          -4.442
REMARK INTER:                  -4.216
REMARK INTRA:                  -0.226
REMARK UNBOUND:                -0.246
REMARK SMILES CCCCCCCC(=O)[O-]
REMARK SMILES IDX 5 1 6 2 7 3 8 4 9 5 10 6 4 7 3 8 2 9 1 10
REMARK H PARENT
REMARK Flexibility Score: inf
ROOT
ATOM      1  C   UNL     1     -19.490 -19.711  -3.775  1.00  0.00     0.000 C 
ENDROOT
BRANCH   1   2
ATOM      2  C   UNL     1     -20.813 -19.188  -4.361  1.00  0.00     0.006 C 
BRANCH   2   3
ATOM      3  C   UNL     1     -21.382 -20.127  -5.432  1.00  0.00     0.053 C 
BRANCH   3   4
ATOM      4  C   UNL     1     -22.670 -19.609  -5.997  1.00  0.00     0.041 C 
ATOM      5  O   UNL     1     -22.663 -18.634  -6.794  1.00  0.00    -0.550 OA
ATOM      6  O   UNL     1     -23.870 -20.225  -5.673  1.00  0.00    -0.550 OA
ENDBRANCH   3   4
ENDBRANCH   2   3
ENDBRANCH   1   2
BRANCH   1   7
ATOM      7  C   UNL     1     -18.290 -19.485  -4.712  1.00  0.00     0.000 C 
BRANCH   7   8
ATOM      8  C   UNL     1     -17.522 -18.167  -4.483  1.00  0.00    -0.000 C 
BRANCH   8   9
ATOM      9  C   UNL     1     -17.700 -17.545  -3.087  1.00  0.00    -0.003 C 
ATOM     10  C   UNL     1     -16.884 -16.268  -2.896  1.00  0.00     0.004 C 
ENDBRANCH   8   9
ENDBRANCH   7   8
ENDBRANCH   1   7
TORSDOF 6
ENDMDL
