MODEL 1
REMARK VINA RESULT:    -2.870      0.000      0.000
REMARK INTER + INTRA:          -3.121
REMARK INTER:                  -3.121
REMARK INTRA:                   0.000
REMARK UNBOUND:                 0.000
REMARK SMILES [NH3+]CC(=O)[O-]
REMARK SMILES IDX 2 1 1 2 3 6 4 7 5 8
REMARK H PARENT 1 3 1 4 1 5
REMARK Flexibility Score: inf
ROOT
ATOM      1  C   UNL     1      14.686  13.034  14.616  1.00  0.00     0.312 C 
ENDROOT
BRANCH   1   2
ATOM      2  N   UNL     1      13.946  14.154  14.036  1.00  0.00    -0.353 N 
ATOM      3  H   UNL     1      13.931  14.945  14.721  1.00  0.00     0.344 HD
ATOM      4  H   UNL     1      12.962  13.866  13.830  1.00  0.00     0.344 HD
ATOM      5  H   UNL     1      14.413  14.477  13.157  1.00  0.00     0.344 HD
ENDBRANCH   1   2
BRANCH   1   6
ATOM      6  C   UNL     1      16.115  13.412  14.853  1.00  0.00     0.096 C 
ATOM      7  O   UNL     1      16.943  13.385  13.904  1.00  0.00    -0.544 OA
ATOM      8  O   UNL     1      16.522  13.843  16.109  1.00  0.00    -0.544 OA
ENDBRANCH   1   6
TORSDOF 2
ENDMDL
MODEL 2
REMARK VINA RESULT:    -2.839      9.523      9.806
REMARK INTER + INTRA:          -3.088
REMARK INTER:                  -3.088
REMARK INTRA:                   0.000
REMARK UNBOUND:                 0.000
REMARK SMILES [NH3+]CC(=O)[O-]
REMARK SMILES IDX 2 1 1 2 3 6 4 7 5 8
REMARK H PARENT 1 3 1 4 1 5
REMARK Flexibility Score: inf
ROOT
ATOM      1  C   UNL     1      19.472  18.052  21.038  1.00  0.00     0.312 C 
ENDROOT
BRANCH   1   2
ATOM      2  N   UNL     1      18.733  16.890  21.530  1.00  0.00    -0.353 N 
ATOM      3  H   UNL     1      17.819  16.829  21.025  1.00  0.00     0.344 HD
ATOM      4  H   UNL     1      18.547  16.990  22.554  1.00  0.00     0.344 HD
ATOM      5  H   UNL     1      19.278  16.015  21.351  1.00  0.00     0.344 HD
ENDBRANCH   1   2
BRANCH   1   6
ATOM      6  C   UNL     1      20.178  18.743  22.163  1.00  0.00     0.096 C 
ATOM      7  O   UNL     1      21.106  19.559  21.923  1.00  0.00    -0.544 OA
ATOM      8  O   UNL     1      19.777  18.524  23.475  1.00  0.00    -0.544 OA
ENDBRANCH   1   6
TORSDOF 2
ENDMDL
MODEL 3
REMARK VINA RESULT:    -2.838     10.445     11.039
REMARK INTER + INTRA:          -3.087
REMARK INTER:                  -3.087
REMARK INTRA:                   0.000
REMARK UNBOUND:                 0.000
REMARK SMILES [NH3+]CC(=O)[O-]
REMARK SMILES IDX 2 1 1 2 3 6 4 7 5 8
REMARK H PARENT 1 3 1 4 1 5
REMARK Flexibility Score: inf
ROOT
ATOM      1  C   UNL     1      21.149  19.995  22.054  1.00  0.00     0.312 C 
ENDROOT
BRANCH   1   2
ATOM      2  N   UNL     1      21.490  20.579  23.351  1.00  0.00    -0.353 N 
ATOM      3  H   UNL     1      20.808  20.240  24.067  1.00  0.00     0.344 HD
ATOM      4  H   UNL     1      21.436  21.623  23.300  1.00  0.00     0.344 HD
ATOM      5  H   UNL     1      22.453  20.286  23.635  1.00  0.00     0.344 HD
ENDBRANCH   1   2
BRANCH   1   6
ATOM      6  C   UNL     1      20.206  18.845  22.225  1.00  0.00     0.096 C 
ATOM      7  O   UNL     1      19.783  18.538  23.371  1.00  0.00    -0.544 OA
ATOM      8  O   UNL     1      19.755  18.143  21.114  1.00  0.00    -0.544 OA
ENDBRANCH   1   6
TORSDOF 2
ENDMDL
MODEL 4
REMARK VINA RESULT:    -2.838      9.537     10.007
REMARK INTER + INTRA:          -3.087
REMARK INTER:                  -3.087
REMARK INTRA:                   0.000
REMARK UNBOUND:                 0.000
REMARK SMILES [NH3+]CC(=O)[O-]
REMARK SMILES IDX 2 1 1 2 3 6 4 7 5 8
REMARK H PARENT 1 3 1 4 1 5
REMARK Flexibility Score: inf
ROOT
ATOM      1  C   UNL     1      19.857  17.414  23.168  1.00  0.00     0.312 C 
ENDROOT
BRANCH   1   2
ATOM      2  N   UNL     1      21.108  16.662  23.263  1.00  0.00    -0.353 N 
ATOM      3  H   UNL     1      20.958  15.700  22.880  1.00  0.00     0.344 HD
ATOM      4  H   UNL     1      21.405  16.585  24.263  1.00  0.00     0.344 HD
ATOM      5  H   UNL     1      21.856  17.136  22.706  1.00  0.00     0.344 HD
ENDBRANCH   1   2
BRANCH   1   6
ATOM      6  C   UNL     1      19.810  18.199  21.895  1.00  0.00     0.096 C 
ATOM      7  O   UNL     1      19.043  17.843  20.960  1.00  0.00    -0.544 OA
ATOM      8  O   UNL     1      20.573  19.351  21.758  1.00  0.00    -0.544 OA
ENDBRANCH   1   6
TORSDOF 2
ENDMDL
MODEL 5
REMARK VINA RESULT:    -2.822     12.561     13.009
REMARK INTER + INTRA:          -3.069
REMARK INTER:                  -3.069
REMARK INTRA:                   0.000
REMARK UNBOUND:                 0.000
REMARK SMILES [NH3+]CC(=O)[O-]
REMARK SMILES IDX 2 1 1 2 3 6 4 7 5 8
REMARK H PARENT 1 3 1 4 1 5
REMARK Flexibility Score: inf
ROOT
ATOM      1  C   UNL     1      23.242  21.167  21.635  1.00  0.00     0.312 C 
ENDROOT
BRANCH   1   2
ATOM      2  N   UNL     1      24.062  22.279  22.115  1.00  0.00    -0.353 N 
ATOM      3  H   UNL     1      24.153  22.212  23.155  1.00  0.00     0.344 HD
ATOM      4  H   UNL     1      23.608  23.190  21.873  1.00  0.00     0.344 HD
ATOM      5  H   UNL     1      25.016  22.232  21.688  1.00  0.00     0.344 HD
ENDBRANCH   1   2
BRANCH   1   6
ATOM      6  C   UNL     1      21.866  21.235  22.222  1.00  0.00     0.096 C 
ATOM      7  O   UNL     1      21.087  20.250  22.127  1.00  0.00    -0.544 OA
ATOM      8  O   UNL     1      21.462  22.367  22.920  1.00  0.00    -0.544 OA
ENDBRANCH   1   6
TORSDOF 2
ENDMDL
MODEL 6
REMARK VINA RESULT:    -2.820      9.547     10.059
REMARK INTER + INTRA:          -3.068
REMARK INTER:                  -3.068
REMARK INTRA:                   0.000
REMARK UNBOUND:                 0.000
REMARK SMILES [NH3+]CC(=O)[O-]
REMARK SMILES IDX 2 1 1 2 3 6 4 7 5 8
REMARK H PARENT 1 3 1 4 1 5
REMARK Flexibility Score: inf
ROOT
ATOM      1  C   UNL     1      19.895  17.458  23.224  1.00  0.00     0.312 C 
ENDROOT
BRANCH   1   2
ATOM      2  N   UNL     1      21.096  16.626  23.287  1.00  0.00    -0.353 N 
ATOM      3  H   UNL     1      21.929  17.209  23.039  1.00  0.00     0.344 HD
ATOM      4  H   UNL     1      21.021  15.836  22.604  1.00  0.00     0.344 HD
ATOM      5  H   UNL     1      21.222  16.248  24.254  1.00  0.00     0.344 HD
ENDBRANCH   1   2
BRANCH   1   6
ATOM      6  C   UNL     1      19.856  18.231  21.943  1.00  0.00     0.096 C 
ATOM      7  O   UNL     1      20.600  19.236  21.786  1.00  0.00    -0.544 OA
ATOM      8  O   UNL     1      19.036  17.814  20.902  1.00  0.00    -0.544 OA
ENDBRANCH   1   6
TORSDOF 2
ENDMDL
MODEL 7
REMARK VINA RESULT:    -2.765      9.244      9.755
REMARK INTER + INTRA:          -3.008
REMARK INTER:                  -3.008
REMARK INTRA:                   0.000
REMARK UNBOUND:                 0.000
REMARK SMILES [NH3+]CC(=O)[O-]
REMARK SMILES IDX 2 1 1 2 3 6 4 7 5 8
REMARK H PARENT 1 3 1 4 1 5
REMARK Flexibility Score: inf
ROOT
ATOM      1  C   UNL     1      19.749  18.233  21.562  1.00  0.00     0.312 C 
ENDROOT
BRANCH   1   2
ATOM      2  N   UNL     1      18.830  17.539  20.662  1.00  0.00    -0.353 N 
ATOM      3  H   UNL     1      17.951  17.311  21.181  1.00  0.00     0.344 HD
ATOM      4  H   UNL     1      19.263  16.650  20.321  1.00  0.00     0.344 HD
ATOM      5  H   UNL     1      18.592  18.152  19.848  1.00  0.00     0.344 HD
ENDBRANCH   1   2
BRANCH   1   6
ATOM      6  C   UNL     1      19.587  17.737  22.966  1.00  0.00     0.096 C 
ATOM      7  O   UNL     1      19.667  18.539  23.934  1.00  0.00    -0.544 OA
ATOM      8  O   UNL     1      19.297  16.399  23.202  1.00  0.00    -0.544 OA
ENDBRANCH   1   6
TORSDOF 2
ENDMDL
MODEL 8
REMARK VINA RESULT:    -2.730     12.738     13.158
REMARK INTER + INTRA:          -2.969
REMARK INTER:                  -2.969
REMARK INTRA:                   0.000
REMARK UNBOUND:                 0.000
REMARK SMILES [NH3+]CC(=O)[O-]
REMARK SMILES IDX 2 1 1 2 3 6 4 7 5 8
REMARK H PARENT 1 3 1 4 1 5
REMARK Flexibility Score: inf
ROOT
ATOM      1  C   UNL     1      21.870  22.700  22.623  1.00  0.00     0.312 C 
ENDROOT
BRANCH   1   2
ATOM      2  N   UNL     1      23.104  23.476  22.738  1.00  0.00    -0.353 N 
ATOM      3  H   UNL     1      22.862  24.485  22.869  1.00  0.00     0.344 HD
ATOM      4  H   UNL     1      23.674  23.375  21.866  1.00  0.00     0.344 HD
ATOM      5  H   UNL     1      23.658  23.150  23.564  1.00  0.00     0.344 HD
ENDBRANCH   1   2
BRANCH   1   6
ATOM      6  C   UNL     1      22.153  21.340  22.067  1.00  0.00     0.096 C 
ATOM      7  O   UNL     1      23.299  21.062  21.624  1.00  0.00    -0.544 OA
ATOM      8  O   UNL     1      21.166  20.362  22.084  1.00  0.00    -0.544 OA
ENDBRANCH   1   6
TORSDOF 2
ENDMDL
MODEL 9
REMARK VINA RESULT:    -2.686      2.243      2.652
REMARK INTER + INTRA:          -2.922
REMARK INTER:                  -2.922
REMARK INTRA:                   0.000
REMARK UNBOUND:                 0.000
REMARK SMILES [NH3+]CC(=O)[O-]
REMARK SMILES IDX 2 1 1 2 3 6 4 7 5 8
REMARK H PARENT 1 3 1 4 1 5
REMARK Flexibility Score: inf
ROOT
ATOM      1  C   UNL     1      16.552  13.295  14.745  1.00  0.00     0.312 C 
ENDROOT
BRANCH   1   2
ATOM      2  N   UNL     1      16.354  14.068  15.970  1.00  0.00    -0.353 N 
ATOM      3  H   UNL     1      17.222  14.615  16.172  1.00  0.00     0.344 HD
ATOM      4  H   UNL     1      16.165  13.425  16.773  1.00  0.00     0.344 HD
ATOM      5  H   UNL     1      15.555  14.732  15.851  1.00  0.00     0.344 HD
ENDBRANCH   1   2
BRANCH   1   6
ATOM      6  C   UNL     1      15.610  13.753  13.675  1.00  0.00     0.096 C 
ATOM      7  O   UNL     1      14.366  13.734  13.875  1.00  0.00    -0.544 OA
ATOM      8  O   UNL     1      16.106  14.249  12.476  1.00  0.00    -0.544 OA
ENDBRANCH   1   6
TORSDOF 2
ENDMDL
