MODEL 1
REMARK VINA RESULT:    -4.858      0.000      0.000
REMARK INTER + INTRA:         -10.823
REMARK INTER:                  -9.118
REMARK INTRA:                  -1.705
REMARK UNBOUND:                -1.705
REMARK SMILES O=C([O-])CCCCCCCCCCCCCCC(=O)[O-]
REMARK SMILES IDX 10 1 9 2 8 3 7 4 6 5 5 6 4 7 2 8 1 9 3 10 11 11 12 12 13 13
REMARK SMILES IDX 14 14 15 15 16 16 17 17 18 18 19 19 20 20
REMARK H PARENT
REMARK Flexibility Score: inf
ROOT
ATOM      1  C   UNL     1      10.666  28.793 -14.811  1.00  0.00     0.000 C 
ENDROOT
BRANCH   1   2
ATOM      2  C   UNL     1      10.872  27.357 -15.336  1.00  0.00     0.000 C 
BRANCH   2   3
ATOM      3  C   UNL     1      10.804  26.283 -14.236  1.00  0.00     0.000 C 
BRANCH   3   4
ATOM      4  C   UNL     1      10.311  24.926 -14.755  1.00  0.00     0.000 C 
BRANCH   4   5
ATOM      5  C   UNL     1       9.262  24.324 -13.812  1.00  0.00     0.000 C 
BRANCH   5   6
ATOM      6  C   UNL     1       8.991  25.258 -12.623  1.00  0.00     0.006 C 
BRANCH   6   7
ATOM      7  C   UNL     1       9.013  24.512 -11.283  1.00  0.00     0.053 C 
BRANCH   7   8
ATOM      8  C   UNL     1       7.884  23.533 -11.174  1.00  0.00     0.041 C 
ATOM      9  O   UNL     1       6.692  23.920 -11.301  1.00  0.00    -0.550 OA
ATOM     10  O   UNL     1       8.151  22.185 -10.963  1.00  0.00    -0.550 OA
ENDBRANCH   7   8
ENDBRANCH   6   7
ENDBRANCH   5   6
ENDBRANCH   4   5
ENDBRANCH   3   4
ENDBRANCH   2   3
ENDBRANCH   1   2
BRANCH   1  11
ATOM     11  C   UNL     1      10.144  28.810 -13.363  1.00  0.00     0.000 C 
BRANCH  11  12
ATOM     12  C   UNL     1       8.950  29.760 -13.179  1.00  0.00     0.000 C 
BRANCH  12  13
ATOM     13  C   UNL     1       7.653  29.006 -12.834  1.00  0.00     0.000 C 
BRANCH  13  14
ATOM     14  C   UNL     1       7.138  28.151 -14.003  1.00  0.00     0.000 C 
BRANCH  14  15
ATOM     15  C   UNL     1       6.816  28.985 -15.253  1.00  0.00     0.000 C 
BRANCH  15  16
ATOM     16  C   UNL     1       5.878  30.151 -14.905  1.00  0.00     0.006 C 
BRANCH  16  17
ATOM     17  C   UNL     1       6.184  31.408 -15.731  1.00  0.00     0.053 C 
BRANCH  17  18
ATOM     18  C   UNL     1       5.100  32.434 -15.602  1.00  0.00     0.041 C 
ATOM     19  O   UNL     1       5.026  33.386 -16.422  1.00  0.00    -0.550 OA
ATOM     20  O   UNL     1       4.191  32.356 -14.554  1.00  0.00    -0.550 OA
ENDBRANCH  17  18
ENDBRANCH  16  17
ENDBRANCH  15  16
ENDBRANCH  14  15
ENDBRANCH  13  14
ENDBRANCH  12  13
ENDBRANCH  11  12
ENDBRANCH   1  11
TORSDOF 15
ENDMDL
MODEL 2
REMARK VINA RESULT:    -4.751      9.071     11.958
REMARK INTER + INTRA:         -10.623
REMARK INTER:                  -9.773
REMARK INTRA:                  -0.849
REMARK UNBOUND:                -1.705
REMARK SMILES O=C([O-])CCCCCCCCCCCCCCC(=O)[O-]
REMARK SMILES IDX 10 1 9 2 8 3 7 4 6 5 5 6 4 7 2 8 1 9 3 10 11 11 12 12 13 13
REMARK SMILES IDX 14 14 15 15 16 16 17 17 18 18 19 19 20 20
REMARK H PARENT
REMARK Flexibility Score: inf
ROOT
ATOM      1  C   UNL     1       2.253  21.121 -13.684  1.00  0.00     0.000 C 
ENDROOT
BRANCH   1   2
ATOM      2  C   UNL     1       2.562  20.941 -15.185  1.00  0.00     0.000 C 
BRANCH   2   3
ATOM      3  C   UNL     1       3.389  22.092 -15.785  1.00  0.00     0.000 C 
BRANCH   3   4
ATOM      4  C   UNL     1       2.968  22.447 -17.217  1.00  0.00     0.000 C 
BRANCH   4   5
ATOM      5  C   UNL     1       1.682  21.711 -17.612  1.00  0.00     0.000 C 
BRANCH   5   6
ATOM      6  C   UNL     1       1.420  21.833 -19.120  1.00  0.00     0.006 C 
BRANCH   6   7
ATOM      7  C   UNL     1       1.377  20.466 -19.815  1.00  0.00     0.053 C 
BRANCH   7   8
ATOM      8  C   UNL     1       2.625  20.203 -20.600  1.00  0.00     0.041 C 
ATOM      9  O   UNL     1       2.950  19.023 -20.901  1.00  0.00    -0.550 OA
ATOM     10  O   UNL     1       3.413  21.264 -21.030  1.00  0.00    -0.550 OA
ENDBRANCH   7   8
ENDBRANCH   6   7
ENDBRANCH   5   6
ENDBRANCH   4   5
ENDBRANCH   3   4
ENDBRANCH   2   3
ENDBRANCH   1   2
BRANCH   1  11
ATOM     11  C   UNL     1       2.124  19.772 -12.954  1.00  0.00     0.000 C 
BRANCH  11  12
ATOM     12  C   UNL     1       1.767  19.938 -11.468  1.00  0.00     0.000 C 
BRANCH  12  13
ATOM     13  C   UNL     1       1.734  21.415 -11.039  1.00  0.00     0.000 C 
BRANCH  13  14
ATOM     14  C   UNL     1       1.828  21.590  -9.514  1.00  0.00     0.000 C 
BRANCH  14  15
ATOM     15  C   UNL     1       3.087  20.942  -8.918  1.00  0.00     0.000 C 
BRANCH  15  16
ATOM     16  C   UNL     1       2.830  20.467  -7.480  1.00  0.00     0.006 C 
BRANCH  16  17
ATOM     17  C   UNL     1       1.370  20.052  -7.257  1.00  0.00     0.053 C 
BRANCH  17  18
ATOM     18  C   UNL     1       0.798  20.674  -6.021  1.00  0.00     0.041 C 
ATOM     19  O   UNL     1       1.500  20.780  -4.981  1.00  0.00    -0.550 OA
ATOM     20  O   UNL     1      -0.522  21.106  -6.007  1.00  0.00    -0.550 OA
ENDBRANCH  17  18
ENDBRANCH  16  17
ENDBRANCH  15  16
ENDBRANCH  14  15
ENDBRANCH  13  14
ENDBRANCH  12  13
ENDBRANCH  11  12
ENDBRANCH   1  11
TORSDOF 15
ENDMDL
MODEL 3
REMARK VINA RESULT:    -4.615      9.266     10.743
REMARK INTER + INTRA:         -10.368
REMARK INTER:                  -9.592
REMARK INTRA:                  -0.776
REMARK UNBOUND:                -1.705
REMARK SMILES O=C([O-])CCCCCCCCCCCCCCC(=O)[O-]
REMARK SMILES IDX 10 1 9 2 8 3 7 4 6 5 5 6 4 7 2 8 1 9 3 10 11 11 12 12 13 13
REMARK SMILES IDX 14 14 15 15 16 16 17 17 18 18 19 19 20 20
REMARK H PARENT
REMARK Flexibility Score: inf
ROOT
ATOM      1  C   UNL     1       2.149  20.530 -13.144  1.00  0.00     0.000 C 
ENDROOT
BRANCH   1   2
ATOM      2  C   UNL     1       2.303  19.108 -12.567  1.00  0.00     0.000 C 
BRANCH   2   3
ATOM      3  C   UNL     1       2.489  19.080 -11.040  1.00  0.00     0.000 C 
BRANCH   3   4
ATOM      4  C   UNL     1       2.101  20.403 -10.366  1.00  0.00     0.000 C 
BRANCH   4   5
ATOM      5  C   UNL     1       3.220  20.903  -9.445  1.00  0.00     0.000 C 
BRANCH   5   6
ATOM      6  C   UNL     1       2.662  21.319  -8.076  1.00  0.00     0.006 C 
BRANCH   6   7
ATOM      7  C   UNL     1       1.128  21.321  -8.052  1.00  0.00     0.053 C 
BRANCH   7   8
ATOM      8  C   UNL     1       0.591  20.561  -6.879  1.00  0.00     0.041 C 
ATOM      9  O   UNL     1       0.193  21.174  -5.852  1.00  0.00    -0.550 OA
ATOM     10  O   UNL     1       0.498  19.175  -6.931  1.00  0.00    -0.550 OA
ENDBRANCH   7   8
ENDBRANCH   6   7
ENDBRANCH   5   6
ENDBRANCH   4   5
ENDBRANCH   3   4
ENDBRANCH   2   3
ENDBRANCH   1   2
BRANCH   1  11
ATOM     11  C   UNL     1       2.522  20.593 -14.636  1.00  0.00     0.000 C 
BRANCH  11  12
ATOM     12  C   UNL     1       2.898  22.013 -15.090  1.00  0.00     0.000 C 
BRANCH  12  13
ATOM     13  C   UNL     1       3.665  22.014 -16.424  1.00  0.00     0.000 C 
BRANCH  13  14
ATOM     14  C   UNL     1       2.862  22.655 -17.568  1.00  0.00     0.000 C 
BRANCH  14  15
ATOM     15  C   UNL     1       1.477  22.016 -17.752  1.00  0.00     0.000 C 
BRANCH  15  16
ATOM     16  C   UNL     1       1.327  21.434 -19.165  1.00  0.00     0.006 C 
BRANCH  16  17
ATOM     17  C   UNL     1       2.659  21.406 -19.927  1.00  0.00     0.053 C 
BRANCH  17  18
ATOM     18  C   UNL     1       2.885  20.087 -20.600  1.00  0.00     0.041 C 
ATOM     19  O   UNL     1       2.184  19.088 -20.293  1.00  0.00    -0.550 OA
ATOM     20  O   UNL     1       3.895  19.954 -21.545  1.00  0.00    -0.550 OA
ENDBRANCH  17  18
ENDBRANCH  16  17
ENDBRANCH  15  16
ENDBRANCH  14  15
ENDBRANCH  13  14
ENDBRANCH  12  13
ENDBRANCH  11  12
ENDBRANCH   1  11
TORSDOF 15
ENDMDL
MODEL 4
REMARK VINA RESULT:    -4.580      1.562      2.610
REMARK INTER + INTRA:         -10.300
REMARK INTER:                  -8.720
REMARK INTRA:                  -1.580
REMARK UNBOUND:                -1.705
REMARK SMILES O=C([O-])CCCCCCCCCCCCCCC(=O)[O-]
REMARK SMILES IDX 10 1 9 2 8 3 7 4 6 5 5 6 4 7 2 8 1 9 3 10 11 11 12 12 13 13
REMARK SMILES IDX 14 14 15 15 16 16 17 17 18 18 19 19 20 20
REMARK H PARENT
REMARK Flexibility Score: inf
ROOT
ATOM      1  C   UNL     1       8.933  29.555 -13.588  1.00  0.00     0.000 C 
ENDROOT
BRANCH   1   2
ATOM      2  C   UNL     1      10.171  28.977 -12.870  1.00  0.00     0.000 C 
BRANCH   2   3
ATOM      3  C   UNL     1      10.951  27.954 -13.715  1.00  0.00     0.000 C 
BRANCH   3   4
ATOM      4  C   UNL     1      10.465  26.513 -13.509  1.00  0.00     0.000 C 
BRANCH   4   5
ATOM      5  C   UNL     1      10.576  26.100 -12.037  1.00  0.00     0.000 C 
BRANCH   5   6
ATOM      6  C   UNL     1       9.503  25.063 -11.674  1.00  0.00     0.006 C 
BRANCH   6   7
ATOM      7  C   UNL     1       8.235  25.218 -12.524  1.00  0.00     0.053 C 
BRANCH   7   8
ATOM      8  C   UNL     1       7.095  24.420 -11.972  1.00  0.00     0.041 C 
ATOM      9  O   UNL     1       7.282  23.624 -11.013  1.00  0.00    -0.550 OA
ATOM     10  O   UNL     1       5.816  24.579 -12.493  1.00  0.00    -0.550 OA
ENDBRANCH   7   8
ENDBRANCH   6   7
ENDBRANCH   5   6
ENDBRANCH   4   5
ENDBRANCH   3   4
ENDBRANCH   2   3
ENDBRANCH   1   2
BRANCH   1  11
ATOM     11  C   UNL     1       7.621  28.963 -13.043  1.00  0.00     0.000 C 
BRANCH  11  12
ATOM     12  C   UNL     1       6.873  28.124 -14.092  1.00  0.00     0.000 C 
BRANCH  12  13
ATOM     13  C   UNL     1       6.573  28.924 -15.372  1.00  0.00     0.000 C 
BRANCH  13  14
ATOM     14  C   UNL     1       5.619  30.103 -15.122  1.00  0.00     0.000 C 
BRANCH  14  15
ATOM     15  C   UNL     1       6.152  31.429 -15.686  1.00  0.00     0.000 C 
BRANCH  15  16
ATOM     16  C   UNL     1       5.519  32.626 -14.961  1.00  0.00     0.006 C 
BRANCH  16  17
ATOM     17  C   UNL     1       4.309  32.216 -14.111  1.00  0.00     0.053 C 
BRANCH  17  18
ATOM     18  C   UNL     1       4.449  32.671 -12.690  1.00  0.00     0.041 C 
ATOM     19  O   UNL     1       3.564  33.395 -12.165  1.00  0.00    -0.550 OA
ATOM     20  O   UNL     1       5.577  32.322 -11.957  1.00  0.00    -0.550 OA
ENDBRANCH  17  18
ENDBRANCH  16  17
ENDBRANCH  15  16
ENDBRANCH  14  15
ENDBRANCH  13  14
ENDBRANCH  12  13
ENDBRANCH  11  12
ENDBRANCH   1  11
TORSDOF 15
ENDMDL
MODEL 5
REMARK VINA RESULT:    -4.518      2.544      7.840
REMARK INTER + INTRA:         -10.186
REMARK INTER:                  -8.631
REMARK INTRA:                  -1.554
REMARK UNBOUND:                -1.705
REMARK SMILES O=C([O-])CCCCCCCCCCCCCCC(=O)[O-]
REMARK SMILES IDX 10 1 9 2 8 3 7 4 6 5 5 6 4 7 2 8 1 9 3 10 11 11 12 12 13 13
REMARK SMILES IDX 14 14 15 15 16 16 17 17 18 18 19 19 20 20
REMARK H PARENT
REMARK Flexibility Score: inf
ROOT
ATOM      1  C   UNL     1       6.464  28.742 -14.936  1.00  0.00     0.000 C 
ENDROOT
BRANCH   1   2
ATOM      2  C   UNL     1       6.637  30.275 -14.914  1.00  0.00     0.000 C 
BRANCH   2   3
ATOM      3  C   UNL     1       5.306  31.045 -14.973  1.00  0.00     0.000 C 
BRANCH   3   4
ATOM      4  C   UNL     1       5.227  32.181 -13.944  1.00  0.00     0.000 C 
BRANCH   4   5
ATOM      5  C   UNL     1       6.566  32.364 -13.221  1.00  0.00     0.000 C 
BRANCH   5   6
ATOM      6  C   UNL     1       6.365  32.437 -11.701  1.00  0.00     0.006 C 
BRANCH   6   7
ATOM      7  C   UNL     1       4.888  32.603 -11.318  1.00  0.00     0.053 C 
BRANCH   7   8
ATOM      8  C   UNL     1       4.607  33.968 -10.770  1.00  0.00     0.041 C 
ATOM      9  O   UNL     1       4.170  34.103  -9.596  1.00  0.00    -0.550 OA
ATOM     10  O   UNL     1       4.857  35.094 -11.544  1.00  0.00    -0.550 OA
ENDBRANCH   7   8
ENDBRANCH   6   7
ENDBRANCH   5   6
ENDBRANCH   4   5
ENDBRANCH   3   4
ENDBRANCH   2   3
ENDBRANCH   1   2
BRANCH   1  11
ATOM     11  C   UNL     1       7.031  28.077 -13.669  1.00  0.00     0.000 C 
BRANCH  11  12
ATOM     12  C   UNL     1       7.986  29.001 -12.896  1.00  0.00     0.000 C 
BRANCH  12  13
ATOM     13  C   UNL     1       9.448  28.529 -12.978  1.00  0.00     0.000 C 
BRANCH  13  14
ATOM     14  C   UNL     1       9.568  27.035 -13.322  1.00  0.00     0.000 C 
BRANCH  14  15
ATOM     15  C   UNL     1      10.206  26.215 -12.190  1.00  0.00     0.000 C 
BRANCH  15  16
ATOM     16  C   UNL     1       9.476  24.876 -12.006  1.00  0.00     0.006 C 
BRANCH  16  17
ATOM     17  C   UNL     1       8.225  24.771 -12.887  1.00  0.00     0.053 C 
BRANCH  17  18
ATOM     18  C   UNL     1       7.020  24.366 -12.094  1.00  0.00     0.041 C 
ATOM     19  O   UNL     1       5.865  24.660 -12.499  1.00  0.00    -0.550 OA
ATOM     20  O   UNL     1       7.176  23.692 -10.889  1.00  0.00    -0.550 OA
ENDBRANCH  17  18
ENDBRANCH  16  17
ENDBRANCH  15  16
ENDBRANCH  14  15
ENDBRANCH  13  14
ENDBRANCH  12  13
ENDBRANCH  11  12
ENDBRANCH   1  11
TORSDOF 15
ENDMDL
MODEL 6
REMARK VINA RESULT:    -4.506      1.201      1.853
REMARK INTER + INTRA:         -10.163
REMARK INTER:                  -8.288
REMARK INTRA:                  -1.875
REMARK UNBOUND:                -1.705
REMARK SMILES O=C([O-])CCCCCCCCCCCCCCC(=O)[O-]
REMARK SMILES IDX 10 1 9 2 8 3 7 4 6 5 5 6 4 7 2 8 1 9 3 10 11 11 12 12 13 13
REMARK SMILES IDX 14 14 15 15 16 16 17 17 18 18 19 19 20 20
REMARK H PARENT
REMARK Flexibility Score: inf
ROOT
ATOM      1  C   UNL     1       9.598  29.867 -14.249  1.00  0.00     0.000 C 
ENDROOT
BRANCH   1   2
ATOM      2  C   UNL     1      10.775  28.905 -14.510  1.00  0.00     0.000 C 
BRANCH   2   3
ATOM      3  C   UNL     1      10.427  27.753 -15.468  1.00  0.00     0.000 C 
BRANCH   3   4
ATOM      4  C   UNL     1      10.735  26.370 -14.878  1.00  0.00     0.000 C 
BRANCH   4   5
ATOM      5  C   UNL     1      10.707  26.407 -13.345  1.00  0.00     0.000 C 
BRANCH   5   6
ATOM      6  C   UNL     1       9.395  25.818 -12.805  1.00  0.00     0.006 C 
BRANCH   6   7
ATOM      7  C   UNL     1       9.619  24.945 -11.564  1.00  0.00     0.053 C 
BRANCH   7   8
ATOM      8  C   UNL     1       8.357  24.265 -11.129  1.00  0.00     0.041 C 
ATOM      9  O   UNL     1       8.278  23.742  -9.986  1.00  0.00    -0.550 OA
ATOM     10  O   UNL     1       7.255  24.237 -11.975  1.00  0.00    -0.550 OA
ENDBRANCH   7   8
ENDBRANCH   6   7
ENDBRANCH   5   6
ENDBRANCH   4   5
ENDBRANCH   3   4
ENDBRANCH   2   3
ENDBRANCH   1   2
BRANCH   1  11
ATOM     11  C   UNL     1       8.912  29.589 -12.899  1.00  0.00     0.000 C 
BRANCH  11  12
ATOM     12  C   UNL     1       7.399  29.361 -13.043  1.00  0.00     0.000 C 
BRANCH  12  13
ATOM     13  C   UNL     1       7.067  28.318 -14.125  1.00  0.00     0.000 C 
BRANCH  13  14
ATOM     14  C   UNL     1       6.222  28.901 -15.269  1.00  0.00     0.000 C 
BRANCH  14  15
ATOM     15  C   UNL     1       5.692  30.310 -14.958  1.00  0.00     0.000 C 
BRANCH  15  16
ATOM     16  C   UNL     1       6.165  31.318 -16.015  1.00  0.00     0.006 C 
BRANCH  16  17
ATOM     17  C   UNL     1       6.987  32.460 -15.402  1.00  0.00     0.053 C 
BRANCH  17  18
ATOM     18  C   UNL     1       6.348  33.794 -15.642  1.00  0.00     0.041 C 
ATOM     19  O   UNL     1       6.396  34.689 -14.758  1.00  0.00    -0.550 OA
ATOM     20  O   UNL     1       5.669  34.035 -16.829  1.00  0.00    -0.550 OA
ENDBRANCH  17  18
ENDBRANCH  16  17
ENDBRANCH  15  16
ENDBRANCH  14  15
ENDBRANCH  13  14
ENDBRANCH  12  13
ENDBRANCH  11  12
ENDBRANCH   1  11
TORSDOF 15
ENDMDL
MODEL 7
REMARK VINA RESULT:    -4.494      2.013      7.900
REMARK INTER + INTRA:         -10.139
REMARK INTER:                  -8.555
REMARK INTRA:                  -1.584
REMARK UNBOUND:                -1.705
REMARK SMILES O=C([O-])CCCCCCCCCCCCCCC(=O)[O-]
REMARK SMILES IDX 10 1 9 2 8 3 7 4 6 5 5 6 4 7 2 8 1 9 3 10 11 11 12 12 13 13
REMARK SMILES IDX 14 14 15 15 16 16 17 17 18 18 19 19 20 20
REMARK H PARENT
REMARK Flexibility Score: inf
ROOT
ATOM      1  C   UNL     1       8.749  31.837 -12.383  1.00  0.00     0.000 C 
ENDROOT
BRANCH   1   2
ATOM      2  C   UNL     1       7.662  32.922 -12.532  1.00  0.00     0.000 C 
BRANCH   2   3
ATOM      3  C   UNL     1       6.668  32.962 -11.358  1.00  0.00     0.000 C 
BRANCH   3   4
ATOM      4  C   UNL     1       5.263  32.482 -11.747  1.00  0.00     0.000 C 
BRANCH   4   5
ATOM      5  C   UNL     1       4.781  33.172 -13.029  1.00  0.00     0.000 C 
BRANCH   5   6
ATOM      6  C   UNL     1       4.139  32.160 -13.989  1.00  0.00     0.006 C 
BRANCH   6   7
ATOM      7  C   UNL     1       5.176  31.469 -14.884  1.00  0.00     0.053 C 
BRANCH   7   8
ATOM      8  C   UNL     1       5.721  32.399 -15.923  1.00  0.00     0.041 C 
ATOM      9  O   UNL     1       4.943  32.978 -16.728  1.00  0.00    -0.550 OA
ATOM     10  O   UNL     1       7.086  32.654 -15.983  1.00  0.00    -0.550 OA
ENDBRANCH   7   8
ENDBRANCH   6   7
ENDBRANCH   5   6
ENDBRANCH   4   5
ENDBRANCH   3   4
ENDBRANCH   2   3
ENDBRANCH   1   2
BRANCH   1  11
ATOM     11  C   UNL     1       8.523  30.655 -13.342  1.00  0.00     0.000 C 
BRANCH  11  12
ATOM     12  C   UNL     1       7.512  29.635 -12.792  1.00  0.00     0.000 C 
BRANCH  12  13
ATOM     13  C   UNL     1       7.906  28.186 -13.127  1.00  0.00     0.000 C 
BRANCH  13  14
ATOM     14  C   UNL     1       9.421  27.945 -13.020  1.00  0.00     0.000 C 
BRANCH  14  15
ATOM     15  C   UNL     1       9.823  26.510 -13.394  1.00  0.00     0.000 C 
BRANCH  15  16
ATOM     16  C   UNL     1       9.680  25.571 -12.188  1.00  0.00     0.006 C 
BRANCH  16  17
ATOM     17  C   UNL     1       8.944  24.273 -12.546  1.00  0.00     0.053 C 
BRANCH  17  18
ATOM     18  C   UNL     1       7.514  24.304 -12.101  1.00  0.00     0.041 C 
ATOM     19  O   UNL     1       6.647  24.898 -12.793  1.00  0.00    -0.550 OA
ATOM     20  O   UNL     1       7.146  23.706 -10.903  1.00  0.00    -0.550 OA
ENDBRANCH  17  18
ENDBRANCH  16  17
ENDBRANCH  15  16
ENDBRANCH  14  15
ENDBRANCH  13  14
ENDBRANCH  12  13
ENDBRANCH  11  12
ENDBRANCH   1  11
TORSDOF 15
ENDMDL
MODEL 8
REMARK VINA RESULT:    -4.420      1.824      2.587
REMARK INTER + INTRA:         -10.002
REMARK INTER:                  -8.289
REMARK INTRA:                  -1.713
REMARK UNBOUND:                -1.705
REMARK SMILES O=C([O-])CCCCCCCCCCCCCCC(=O)[O-]
REMARK SMILES IDX 10 1 9 2 8 3 7 4 6 5 5 6 4 7 2 8 1 9 3 10 11 11 12 12 13 13
REMARK SMILES IDX 14 14 15 15 16 16 17 17 18 18 19 19 20 20
REMARK H PARENT
REMARK Flexibility Score: inf
ROOT
ATOM      1  C   UNL     1       9.216  29.642 -13.186  1.00  0.00     0.000 C 
ENDROOT
BRANCH   1   2
ATOM      2  C   UNL     1       9.959  28.357 -13.606  1.00  0.00     0.000 C 
BRANCH   2   3
ATOM      3  C   UNL     1      10.685  27.658 -12.443  1.00  0.00     0.000 C 
BRANCH   3   4
ATOM      4  C   UNL     1      10.444  26.143 -12.412  1.00  0.00     0.000 C 
BRANCH   4   5
ATOM      5  C   UNL     1       9.802  25.660 -13.718  1.00  0.00     0.000 C 
BRANCH   5   6
ATOM      6  C   UNL     1       9.147  24.284 -13.533  1.00  0.00     0.006 C 
BRANCH   6   7
ATOM      7  C   UNL     1       8.906  23.949 -12.055  1.00  0.00     0.053 C 
BRANCH   7   8
ATOM      8  C   UNL     1       7.450  23.996 -11.706  1.00  0.00     0.041 C 
ATOM      9  O   UNL     1       6.635  24.591 -12.460  1.00  0.00    -0.550 OA
ATOM     10  O   UNL     1       6.988  23.353 -10.563  1.00  0.00    -0.550 OA
ENDBRANCH   7   8
ENDBRANCH   6   7
ENDBRANCH   5   6
ENDBRANCH   4   5
ENDBRANCH   3   4
ENDBRANCH   2   3
ENDBRANCH   1   2
BRANCH   1  11
ATOM     11  C   UNL     1       7.729  29.378 -12.884  1.00  0.00     0.000 C 
BRANCH  11  12
ATOM     12  C   UNL     1       7.146  28.245 -13.743  1.00  0.00     0.000 C 
BRANCH  12  13
ATOM     13  C   UNL     1       6.519  28.767 -15.048  1.00  0.00     0.000 C 
BRANCH  13  14
ATOM     14  C   UNL     1       5.894  30.162 -14.887  1.00  0.00     0.000 C 
BRANCH  14  15
ATOM     15  C   UNL     1       6.039  31.027 -16.149  1.00  0.00     0.000 C 
BRANCH  15  16
ATOM     16  C   UNL     1       6.366  32.482 -15.780  1.00  0.00     0.006 C 
BRANCH  16  17
ATOM     17  C   UNL     1       6.694  32.644 -14.290  1.00  0.00     0.053 C 
BRANCH  17  18
ATOM     18  C   UNL     1       8.122  33.044 -14.076  1.00  0.00     0.041 C 
ATOM     19  O   UNL     1       8.553  33.265 -12.915  1.00  0.00    -0.550 OA
ATOM     20  O   UNL     1       8.969  33.203 -15.166  1.00  0.00    -0.550 OA
ENDBRANCH  17  18
ENDBRANCH  16  17
ENDBRANCH  15  16
ENDBRANCH  14  15
ENDBRANCH  13  14
ENDBRANCH  12  13
ENDBRANCH  11  12
ENDBRANCH   1  11
TORSDOF 15
ENDMDL
MODEL 9
REMARK VINA RESULT:    -4.417      1.108      7.473
REMARK INTER + INTRA:          -9.995
REMARK INTER:                  -8.237
REMARK INTRA:                  -1.758
REMARK UNBOUND:                -1.705
REMARK SMILES O=C([O-])CCCCCCCCCCCCCCC(=O)[O-]
REMARK SMILES IDX 10 1 9 2 8 3 7 4 6 5 5 6 4 7 2 8 1 9 3 10 11 11 12 12 13 13
REMARK SMILES IDX 14 14 15 15 16 16 17 17 18 18 19 19 20 20
REMARK H PARENT
REMARK Flexibility Score: inf
ROOT
ATOM      1  C   UNL     1       8.107  29.791 -12.738  1.00  0.00     0.000 C 
ENDROOT
BRANCH   1   2
ATOM      2  C   UNL     1       7.359  28.639 -13.439  1.00  0.00     0.000 C 
BRANCH   2   3
ATOM      3  C   UNL     1       7.116  28.885 -14.939  1.00  0.00     0.000 C 
BRANCH   3   4
ATOM      4  C   UNL     1       5.856  29.718 -15.212  1.00  0.00     0.000 C 
BRANCH   4   5
ATOM      5  C   UNL     1       6.204  31.017 -15.948  1.00  0.00     0.000 C 
BRANCH   5   6
ATOM      6  C   UNL     1       6.225  32.209 -14.981  1.00  0.00     0.006 C 
BRANCH   6   7
ATOM      7  C   UNL     1       5.248  32.026 -13.812  1.00  0.00     0.053 C 
BRANCH   7   8
ATOM      8  C   UNL     1       4.061  32.931 -13.935  1.00  0.00     0.041 C 
ATOM      9  O   UNL     1       3.473  33.350 -12.902  1.00  0.00    -0.550 OA
ATOM     10  O   UNL     1       3.623  33.338 -15.189  1.00  0.00    -0.550 OA
ENDBRANCH   7   8
ENDBRANCH   6   7
ENDBRANCH   5   6
ENDBRANCH   4   5
ENDBRANCH   3   4
ENDBRANCH   2   3
ENDBRANCH   1   2
BRANCH   1  11
ATOM     11  C   UNL     1       9.546  29.950 -13.262  1.00  0.00     0.000 C 
BRANCH  11  12
ATOM     12  C   UNL     1      10.394  28.686 -13.046  1.00  0.00     0.000 C 
BRANCH  12  13
ATOM     13  C   UNL     1      11.080  28.218 -14.341  1.00  0.00     0.000 C 
BRANCH  13  14
ATOM     14  C   UNL     1      10.346  27.043 -15.008  1.00  0.00     0.000 C 
BRANCH  14  15
ATOM     15  C   UNL     1      10.829  25.676 -14.502  1.00  0.00     0.000 C 
BRANCH  15  16
ATOM     16  C   UNL     1       9.641  24.791 -14.096  1.00  0.00     0.006 C 
BRANCH  16  17
ATOM     17  C   UNL     1       8.816  25.411 -12.960  1.00  0.00     0.053 C 
BRANCH  17  18
ATOM     18  C   UNL     1       8.086  24.368 -12.172  1.00  0.00     0.041 C 
ATOM     19  O   UNL     1       8.725  23.499 -11.523  1.00  0.00    -0.550 OA
ATOM     20  O   UNL     1       6.697  24.336 -12.181  1.00  0.00    -0.550 OA
ENDBRANCH  17  18
ENDBRANCH  16  17
ENDBRANCH  15  16
ENDBRANCH  14  15
ENDBRANCH  13  14
ENDBRANCH  12  13
ENDBRANCH  11  12
ENDBRANCH   1  11
TORSDOF 15
ENDMDL
