MODEL 1
REMARK VINA RESULT:    -4.725      0.000      0.000
REMARK INTER + INTRA:          -7.466
REMARK INTER:                  -6.658
REMARK INTRA:                  -0.808
REMARK UNBOUND:                -0.808
REMARK SMILES CC(=O)OCC[C@H](C)CCC=C(C)C
REMARK SMILES IDX 8 1 7 2 9 3 10 4 11 5 12 6 13 7 14 8 6 9 5 10 4 11 2 12 3 13
REMARK SMILES IDX 1 14
REMARK H PARENT
REMARK Flexibility Score: inf
ROOT
ATOM      1  C   UNL     1       8.409 -28.059  27.543  1.00  0.00     0.008 C 
ATOM      2  C   UNL     1       9.653 -27.157  27.600  1.00  0.00    -0.011 C 
ENDROOT
BRANCH   2   3
ATOM      3  C   UNL     1      10.824 -27.845  28.353  1.00  0.00     0.007 C 
BRANCH   3   4
ATOM      4  C   UNL     1      10.471 -29.232  28.926  1.00  0.00     0.027 C 
BRANCH   4   5
ATOM      5  C   UNL     1      10.640 -29.302  30.427  1.00  0.00    -0.028 C 
ATOM      6  C   UNL     1       9.633 -29.625  31.267  1.00  0.00    -0.080 C 
ATOM      7  C   UNL     1       8.249 -29.944  30.757  1.00  0.00     0.039 C 
ATOM      8  C   UNL     1       9.912 -29.664  32.748  1.00  0.00     0.039 C 
ENDBRANCH   4   5
ENDBRANCH   3   4
ENDBRANCH   2   3
BRANCH   2   9
ATOM      9  C   UNL     1       9.277 -25.808  28.260  1.00  0.00     0.045 C 
BRANCH   9  10
ATOM     10  C   UNL     1       8.976 -25.932  29.761  1.00  0.00     0.233 C 
BRANCH  10  11
ATOM     11  O   UNL     1       9.751 -24.991  30.502  1.00  0.00    -0.466 OA
BRANCH  11  12
ATOM     12  C   UNL     1       9.425 -23.634  30.603  1.00  0.00     0.302 C 
ATOM     13  O   UNL     1       8.233 -23.269  30.794  1.00  0.00    -0.253 OA
ATOM     14  C   UNL     1      10.509 -22.612  30.543  1.00  0.00     0.139 C 
ENDBRANCH  11  12
ENDBRANCH  10  11
ENDBRANCH   9  10
ENDBRANCH   2   9
TORSDOF 7
ENDMDL
MODEL 2
REMARK VINA RESULT:    -4.645      1.518      2.486
REMARK INTER + INTRA:          -7.354
REMARK INTER:                  -6.678
REMARK INTRA:                  -0.675
REMARK UNBOUND:                -0.808
REMARK SMILES CC(=O)OCC[C@H](C)CCC=C(C)C
REMARK SMILES IDX 8 1 7 2 9 3 10 4 11 5 12 6 13 7 14 8 6 9 5 10 4 11 2 12 3 13
REMARK SMILES IDX 1 14
REMARK H PARENT
REMARK Flexibility Score: inf
ROOT
ATOM      1  C   UNL     1       9.586 -26.381  31.792  1.00  0.00     0.008 C 
ATOM      2  C   UNL     1       9.200 -26.634  30.325  1.00  0.00    -0.011 C 
ENDROOT
BRANCH   2   3
ATOM      3  C   UNL     1      10.249 -27.522  29.603  1.00  0.00     0.007 C 
BRANCH   3   4
ATOM      4  C   UNL     1      10.223 -29.001  30.039  1.00  0.00     0.027 C 
BRANCH   4   5
ATOM      5  C   UNL     1       8.828 -29.486  30.369  1.00  0.00    -0.028 C 
ATOM      6  C   UNL     1       8.480 -29.953  31.587  1.00  0.00    -0.080 C 
ATOM      7  C   UNL     1       9.475 -30.024  32.720  1.00  0.00     0.039 C 
ATOM      8  C   UNL     1       7.062 -30.412  31.806  1.00  0.00     0.039 C 
ENDBRANCH   4   5
ENDBRANCH   3   4
ENDBRANCH   2   3
BRANCH   2   9
ATOM      9  C   UNL     1       9.022 -25.276  29.602  1.00  0.00     0.045 C 
BRANCH   9  10
ATOM     10  C   UNL     1       8.972 -24.081  30.564  1.00  0.00     0.233 C 
BRANCH  10  11
ATOM     11  O   UNL     1      10.105 -23.237  30.368  1.00  0.00    -0.466 OA
BRANCH  11  12
ATOM     12  C   UNL     1      10.922 -22.790  31.412  1.00  0.00     0.302 C 
ATOM     13  O   UNL     1      12.160 -23.033  31.414  1.00  0.00    -0.253 OA
ATOM     14  C   UNL     1      10.331 -21.967  32.505  1.00  0.00     0.139 C 
ENDBRANCH  11  12
ENDBRANCH  10  11
ENDBRANCH   9  10
ENDBRANCH   2   9
TORSDOF 7
ENDMDL
MODEL 3
REMARK VINA RESULT:    -4.543      1.141      1.810
REMARK INTER + INTRA:          -7.210
REMARK INTER:                  -6.535
REMARK INTRA:                  -0.675
REMARK UNBOUND:                -0.808
REMARK SMILES CC(=O)OCC[C@H](C)CCC=C(C)C
REMARK SMILES IDX 8 1 7 2 9 3 10 4 11 5 12 6 13 7 14 8 6 9 5 10 4 11 2 12 3 13
REMARK SMILES IDX 1 14
REMARK H PARENT
REMARK Flexibility Score: inf
ROOT
ATOM      1  C   UNL     1       9.145 -25.642  28.042  1.00  0.00     0.008 C 
ATOM      2  C   UNL     1       9.762 -26.712  28.959  1.00  0.00    -0.011 C 
ENDROOT
BRANCH   2   3
ATOM      3  C   UNL     1       9.277 -28.137  28.581  1.00  0.00     0.007 C 
BRANCH   3   4
ATOM      4  C   UNL     1       9.657 -29.221  29.610  1.00  0.00     0.027 C 
BRANCH   4   5
ATOM      5  C   UNL     1       8.452 -29.808  30.310  1.00  0.00    -0.028 C 
ATOM      6  C   UNL     1       8.405 -30.018  31.643  1.00  0.00    -0.080 C 
ATOM      7  C   UNL     1       9.570 -29.678  32.539  1.00  0.00     0.039 C 
ATOM      8  C   UNL     1       7.152 -30.610  32.237  1.00  0.00     0.039 C 
ENDBRANCH   4   5
ENDBRANCH   3   4
ENDBRANCH   2   3
BRANCH   2   9
ATOM      9  C   UNL     1       9.425 -26.377  30.433  1.00  0.00     0.045 C 
BRANCH   9  10
ATOM     10  C   UNL     1       8.382 -25.259  30.577  1.00  0.00     0.233 C 
BRANCH  10  11
ATOM     11  O   UNL     1       8.983 -24.085  31.120  1.00  0.00    -0.466 OA
BRANCH  11  12
ATOM     12  C   UNL     1       8.763 -22.801  30.610  1.00  0.00     0.302 C 
ATOM     13  O   UNL     1       7.836 -22.076  31.062  1.00  0.00    -0.253 OA
ATOM     14  C   UNL     1       9.674 -22.263  29.560  1.00  0.00     0.139 C 
ENDBRANCH  11  12
ENDBRANCH  10  11
ENDBRANCH   9  10
ENDBRANCH   2   9
TORSDOF 7
ENDMDL
MODEL 4
REMARK VINA RESULT:    -4.480      2.912      4.836
REMARK INTER + INTRA:          -7.122
REMARK INTER:                  -6.318
REMARK INTRA:                  -0.803
REMARK UNBOUND:                -0.808
REMARK SMILES CC(=O)OCC[C@H](C)CCC=C(C)C
REMARK SMILES IDX 8 1 7 2 9 3 10 4 11 5 12 6 13 7 14 8 6 9 5 10 4 11 2 12 3 13
REMARK SMILES IDX 1 14
REMARK H PARENT
REMARK Flexibility Score: inf
ROOT
ATOM      1  C   UNL     1       9.133 -25.797  29.403  1.00  0.00     0.008 C 
ATOM      2  C   UNL     1       9.199 -27.202  28.782  1.00  0.00    -0.011 C 
ENDROOT
BRANCH   2   3
ATOM      3  C   UNL     1      10.592 -27.853  28.987  1.00  0.00     0.007 C 
BRANCH   3   4
ATOM      4  C   UNL     1      10.573 -29.103  29.890  1.00  0.00     0.027 C 
BRANCH   4   5
ATOM      5  C   UNL     1       9.171 -29.532  30.260  1.00  0.00    -0.028 C 
ATOM      6  C   UNL     1       8.804 -29.842  31.521  1.00  0.00    -0.080 C 
ATOM      7  C   UNL     1       9.784 -29.781  32.667  1.00  0.00     0.039 C 
ATOM      8  C   UNL     1       7.379 -30.259  31.778  1.00  0.00     0.039 C 
ENDBRANCH   4   5
ENDBRANCH   3   4
ENDBRANCH   2   3
BRANCH   2   9
ATOM      9  C   UNL     1       8.835 -27.114  27.280  1.00  0.00     0.045 C 
BRANCH   9  10
ATOM     10  C   UNL     1       8.097 -28.357  26.761  1.00  0.00     0.233 C 
BRANCH  10  11
ATOM     11  O   UNL     1       9.019 -29.420  26.525  1.00  0.00    -0.466 OA
BRANCH  11  12
ATOM     12  C   UNL     1       8.717 -30.766  26.758  1.00  0.00     0.302 C 
ATOM     13  O   UNL     1       7.716 -31.093  27.452  1.00  0.00    -0.253 OA
ATOM     14  C   UNL     1       9.556 -31.825  26.129  1.00  0.00     0.139 C 
ENDBRANCH  11  12
ENDBRANCH  10  11
ENDBRANCH   9  10
ENDBRANCH   2   9
TORSDOF 7
ENDMDL
MODEL 5
REMARK VINA RESULT:    -4.466      2.409      5.304
REMARK INTER + INTRA:          -7.102
REMARK INTER:                  -6.417
REMARK INTRA:                  -0.685
REMARK UNBOUND:                -0.808
REMARK SMILES CC(=O)OCC[C@H](C)CCC=C(C)C
REMARK SMILES IDX 8 1 7 2 9 3 10 4 11 5 12 6 13 7 14 8 6 9 5 10 4 11 2 12 3 13
REMARK SMILES IDX 1 14
REMARK H PARENT
REMARK Flexibility Score: inf
ROOT
ATOM      1  C   UNL     1       9.463 -26.084  27.129  1.00  0.00     0.008 C 
ATOM      2  C   UNL     1       8.930 -26.785  28.389  1.00  0.00    -0.011 C 
ENDROOT
BRANCH   2   3
ATOM      3  C   UNL     1       9.750 -26.397  29.649  1.00  0.00     0.007 C 
BRANCH   3   4
ATOM      4  C   UNL     1       8.982 -25.505  30.645  1.00  0.00     0.027 C 
BRANCH   4   5
ATOM      5  C   UNL     1       9.883 -24.521  31.358  1.00  0.00    -0.028 C 
ATOM      6  C   UNL     1      10.125 -23.276  30.895  1.00  0.00    -0.080 C 
ATOM      7  C   UNL     1       9.504 -22.774  29.614  1.00  0.00     0.039 C 
ATOM      8  C   UNL     1      11.041 -22.376  31.685  1.00  0.00     0.039 C 
ENDBRANCH   4   5
ENDBRANCH   3   4
ENDBRANCH   2   3
BRANCH   2   9
ATOM      9  C   UNL     1       8.937 -28.317  28.164  1.00  0.00     0.045 C 
BRANCH   9  10
ATOM     10  C   UNL     1       9.479 -29.103  29.367  1.00  0.00     0.233 C 
BRANCH  10  11
ATOM     11  O   UNL     1       8.408 -29.723  30.078  1.00  0.00    -0.466 OA
BRANCH  11  12
ATOM     12  C   UNL     1       8.419 -29.927  31.462  1.00  0.00     0.302 C 
ATOM     13  O   UNL     1       7.412 -30.401  32.054  1.00  0.00    -0.253 OA
ATOM     14  C   UNL     1       9.659 -29.636  32.236  1.00  0.00     0.139 C 
ENDBRANCH  11  12
ENDBRANCH  10  11
ENDBRANCH   9  10
ENDBRANCH   2   9
TORSDOF 7
ENDMDL
MODEL 6
REMARK VINA RESULT:    -4.424      2.704      4.121
REMARK INTER + INTRA:          -7.042
REMARK INTER:                  -6.566
REMARK INTRA:                  -0.476
REMARK UNBOUND:                -0.808
REMARK SMILES CC(=O)OCC[C@H](C)CCC=C(C)C
REMARK SMILES IDX 8 1 7 2 9 3 10 4 11 5 12 6 13 7 14 8 6 9 5 10 4 11 2 12 3 13
REMARK SMILES IDX 1 14
REMARK H PARENT
REMARK Flexibility Score: inf
ROOT
ATOM      1  C   UNL     1       8.393 -22.629  30.760  1.00  0.00     0.008 C 
ATOM      2  C   UNL     1       9.380 -23.807  30.696  1.00  0.00    -0.011 C 
ENDROOT
BRANCH   2   3
ATOM      3  C   UNL     1       8.652 -25.171  30.835  1.00  0.00     0.007 C 
BRANCH   3   4
ATOM      4  C   UNL     1       9.543 -26.390  30.524  1.00  0.00     0.027 C 
BRANCH   4   5
ATOM      5  C   UNL     1       9.415 -27.484  31.562  1.00  0.00    -0.028 C 
ATOM      6  C   UNL     1       9.926 -28.722  31.394  1.00  0.00    -0.080 C 
ATOM      7  C   UNL     1      10.670 -29.106  30.138  1.00  0.00     0.039 C 
ATOM      8  C   UNL     1       9.740 -29.736  32.493  1.00  0.00     0.039 C 
ENDBRANCH   4   5
ENDBRANCH   3   4
ENDBRANCH   2   3
BRANCH   2   9
ATOM      9  C   UNL     1      10.457 -23.631  31.795  1.00  0.00     0.045 C 
BRANCH   9  10
ATOM     10  C   UNL     1      10.420 -22.249  32.462  1.00  0.00     0.233 C 
BRANCH  10  11
ATOM     11  O   UNL     1      10.081 -22.373  33.843  1.00  0.00    -0.466 OA
BRANCH  11  12
ATOM     12  C   UNL     1       9.484 -21.347  34.584  1.00  0.00     0.302 C 
ATOM     13  O   UNL     1       9.896 -21.061  35.741  1.00  0.00    -0.253 OA
ATOM     14  C   UNL     1       8.385 -20.546  33.973  1.00  0.00     0.139 C 
ENDBRANCH  11  12
ENDBRANCH  10  11
ENDBRANCH   9  10
ENDBRANCH   2   9
TORSDOF 7
ENDMDL
MODEL 7
REMARK VINA RESULT:    -4.387      2.866      4.048
REMARK INTER + INTRA:          -6.991
REMARK INTER:                  -6.169
REMARK INTRA:                  -0.822
REMARK UNBOUND:                -0.808
REMARK SMILES CC(=O)OCC[C@H](C)CCC=C(C)C
REMARK SMILES IDX 8 1 7 2 9 3 10 4 11 5 12 6 13 7 14 8 6 9 5 10 4 11 2 12 3 13
REMARK SMILES IDX 1 14
REMARK H PARENT
REMARK Flexibility Score: inf
ROOT
ATOM      1  C   UNL     1       9.300 -25.926  29.556  1.00  0.00     0.008 C 
ATOM      2  C   UNL     1       9.330 -26.903  28.369  1.00  0.00    -0.011 C 
ENDROOT
BRANCH   2   3
ATOM      3  C   UNL     1      10.640 -27.735  28.345  1.00  0.00     0.007 C 
BRANCH   3   4
ATOM      4  C   UNL     1      10.477 -29.176  28.868  1.00  0.00     0.027 C 
BRANCH   4   5
ATOM      5  C   UNL     1      10.624 -29.269  30.371  1.00  0.00    -0.028 C 
ATOM      6  C   UNL     1       9.608 -29.617  31.189  1.00  0.00    -0.080 C 
ATOM      7  C   UNL     1       8.235 -29.942  30.653  1.00  0.00     0.039 C 
ATOM      8  C   UNL     1       9.864 -29.678  32.673  1.00  0.00     0.039 C 
ENDBRANCH   4   5
ENDBRANCH   3   4
ENDBRANCH   2   3
BRANCH   2   9
ATOM      9  C   UNL     1       9.143 -26.112  27.051  1.00  0.00     0.045 C 
BRANCH   9  10
ATOM     10  C   UNL     1       9.740 -26.823  25.828  1.00  0.00     0.233 C 
BRANCH  10  11
ATOM     11  O   UNL     1      10.451 -25.894  25.011  1.00  0.00    -0.466 OA
BRANCH  11  12
ATOM     12  C   UNL     1      11.794 -26.054  24.653  1.00  0.00     0.302 C 
ATOM     13  O   UNL     1      12.397 -25.165  23.993  1.00  0.00    -0.253 OA
ATOM     14  C   UNL     1      12.535 -27.264  25.109  1.00  0.00     0.139 C 
ENDBRANCH  11  12
ENDBRANCH  10  11
ENDBRANCH   9  10
ENDBRANCH   2   9
TORSDOF 7
ENDMDL
MODEL 8
REMARK VINA RESULT:    -4.310      2.752      6.760
REMARK INTER + INTRA:          -6.881
REMARK INTER:                  -6.338
REMARK INTRA:                  -0.544
REMARK UNBOUND:                -0.808
REMARK SMILES CC(=O)OCC[C@H](C)CCC=C(C)C
REMARK SMILES IDX 8 1 7 2 9 3 10 4 11 5 12 6 13 7 14 8 6 9 5 10 4 11 2 12 3 13
REMARK SMILES IDX 1 14
REMARK H PARENT
REMARK Flexibility Score: inf
ROOT
ATOM      1  C   UNL     1       9.461 -22.021  29.248  1.00  0.00     0.008 C 
ATOM      2  C   UNL     1       9.405 -22.748  30.601  1.00  0.00    -0.011 C 
ENDROOT
BRANCH   2   3
ATOM      3  C   UNL     1      10.810 -22.858  31.251  1.00  0.00     0.007 C 
BRANCH   3   4
ATOM      4  C   UNL     1      10.930 -22.139  32.609  1.00  0.00     0.027 C 
BRANCH   4   5
ATOM      5  C   UNL     1       9.598 -21.634  33.120  1.00  0.00    -0.028 C 
ATOM      6  C   UNL     1       9.480 -20.565  33.935  1.00  0.00    -0.080 C 
ATOM      7  C   UNL     1      10.687 -19.787  34.400  1.00  0.00     0.039 C 
ATOM      8  C   UNL     1       8.103 -20.148  34.385  1.00  0.00     0.039 C 
ENDBRANCH   4   5
ENDBRANCH   3   4
ENDBRANCH   2   3
BRANCH   2   9
ATOM      9  C   UNL     1       8.767 -24.145  30.404  1.00  0.00     0.045 C 
BRANCH   9  10
ATOM     10  C   UNL     1       9.513 -25.262  31.148  1.00  0.00     0.233 C 
BRANCH  10  11
ATOM     11  O   UNL     1       9.295 -26.518  30.507  1.00  0.00    -0.466 OA
BRANCH  11  12
ATOM     12  C   UNL     1       9.522 -27.750  31.130  1.00  0.00     0.302 C 
ATOM     13  O   UNL     1       9.879 -27.807  32.338  1.00  0.00    -0.253 OA
ATOM     14  C   UNL     1       9.282 -29.011  30.372  1.00  0.00     0.139 C 
ENDBRANCH  11  12
ENDBRANCH  10  11
ENDBRANCH   9  10
ENDBRANCH   2   9
TORSDOF 7
ENDMDL
MODEL 9
REMARK VINA RESULT:    -4.290      2.728      6.197
REMARK INTER + INTRA:          -6.854
REMARK INTER:                  -6.067
REMARK INTRA:                  -0.786
REMARK UNBOUND:                -0.808
REMARK SMILES CC(=O)OCC[C@H](C)CCC=C(C)C
REMARK SMILES IDX 8 1 7 2 9 3 10 4 11 5 12 6 13 7 14 8 6 9 5 10 4 11 2 12 3 13
REMARK SMILES IDX 1 14
REMARK H PARENT
REMARK Flexibility Score: inf
ROOT
ATOM      1  C   UNL     1       9.434 -25.853  32.433  1.00  0.00     0.008 C 
ATOM      2  C   UNL     1       9.825 -25.610  30.966  1.00  0.00    -0.011 C 
ENDROOT
BRANCH   2   3
ATOM      3  C   UNL     1       9.487 -24.164  30.515  1.00  0.00     0.007 C 
BRANCH   3   4
ATOM      4  C   UNL     1      10.428 -23.090  31.097  1.00  0.00     0.027 C 
BRANCH   4   5
ATOM      5  C   UNL     1       9.702 -22.093  31.973  1.00  0.00    -0.028 C 
ATOM      6  C   UNL     1       9.949 -21.957  33.293  1.00  0.00    -0.080 C 
ATOM      7  C   UNL     1      10.980 -22.804  33.997  1.00  0.00     0.039 C 
ATOM      8  C   UNL     1       9.166 -20.932  34.073  1.00  0.00     0.039 C 
ENDBRANCH   4   5
ENDBRANCH   3   4
ENDBRANCH   2   3
BRANCH   2   9
ATOM      9  C   UNL     1       9.120 -26.657  30.069  1.00  0.00     0.045 C 
BRANCH   9  10
ATOM     10  C   UNL     1       9.889 -27.982  29.965  1.00  0.00     0.233 C 
BRANCH  10  11
ATOM     11  O   UNL     1       9.008 -29.085  30.169  1.00  0.00    -0.466 OA
BRANCH  11  12
ATOM     12  C   UNL     1       8.729 -29.625  31.429  1.00  0.00     0.302 C 
ATOM     13  O   UNL     1       7.573 -30.039  31.714  1.00  0.00    -0.253 OA
ATOM     14  C   UNL     1       9.828 -29.763  32.427  1.00  0.00     0.139 C 
ENDBRANCH  11  12
ENDBRANCH  10  11
ENDBRANCH   9  10
ENDBRANCH   2   9
TORSDOF 7
ENDMDL
