MODEL 1
REMARK VINA RESULT:    -3.745      0.000      0.000
REMARK INTER + INTRA:          -5.719
REMARK INTER:                  -5.277
REMARK INTRA:                  -0.442
REMARK UNBOUND:                -0.442
REMARK SMILES CCCCCCCCC(=O)[O-]
REMARK SMILES IDX 6 1 7 2 8 3 9 4 10 5 11 6 5 7 4 8 3 9 2 10 1 11
REMARK H PARENT
REMARK Flexibility Score: inf
ROOT
ATOM      1  C   UNL     1     -20.021   3.088 -25.315  1.00  0.00     0.000 C 
ENDROOT
BRANCH   1   2
ATOM      2  C   UNL     1     -21.242   2.154 -25.347  1.00  0.00     0.006 C 
BRANCH   2   3
ATOM      3  C   UNL     1     -20.937   0.802 -26.003  1.00  0.00     0.053 C 
BRANCH   3   4
ATOM      4  C   UNL     1     -19.730   0.178 -25.375  1.00  0.00     0.041 C 
ATOM      5  O   UNL     1     -18.709  -0.065 -26.070  1.00  0.00    -0.550 OA
ATOM      6  O   UNL     1     -19.752  -0.181 -24.034  1.00  0.00    -0.550 OA
ENDBRANCH   3   4
ENDBRANCH   2   3
ENDBRANCH   1   2
BRANCH   1   7
ATOM      7  C   UNL     1     -19.913   3.873 -23.995  1.00  0.00     0.000 C 
BRANCH   7   8
ATOM      8  C   UNL     1     -20.304   3.027 -22.771  1.00  0.00    -0.000 C 
BRANCH   8   9
ATOM      9  C   UNL     1     -21.275   3.763 -21.831  1.00  0.00    -0.000 C 
BRANCH   9  10
ATOM     10  C   UNL     1     -20.615   4.167 -20.503  1.00  0.00    -0.003 C 
ATOM     11  C   UNL     1     -19.820   3.028 -19.864  1.00  0.00     0.004 C 
ENDBRANCH   9  10
ENDBRANCH   8   9
ENDBRANCH   7   8
ENDBRANCH   1   7
TORSDOF 7
ENDMDL
MODEL 2
REMARK VINA RESULT:    -3.543      0.910      1.431
REMARK INTER + INTRA:          -5.434
REMARK INTER:                  -4.857
REMARK INTRA:                  -0.578
REMARK UNBOUND:                -0.442
REMARK SMILES CCCCCCCCC(=O)[O-]
REMARK SMILES IDX 6 1 7 2 8 3 9 4 10 5 11 6 5 7 4 8 3 9 2 10 1 11
REMARK H PARENT
REMARK Flexibility Score: inf
ROOT
ATOM      1  C   UNL     1     -22.424   2.522 -25.392  1.00  0.00     0.000 C 
ENDROOT
BRANCH   1   2
ATOM      2  C   UNL     1     -21.224   2.071 -26.239  1.00  0.00     0.006 C 
BRANCH   2   3
ATOM      3  C   UNL     1     -20.999   0.554 -26.189  1.00  0.00     0.053 C 
BRANCH   3   4
ATOM      4  C   UNL     1     -19.747   0.237 -25.434  1.00  0.00     0.041 C 
ATOM      5  O   UNL     1     -18.678  -0.004 -26.053  1.00  0.00    -0.550 OA
ATOM      6  O   UNL     1     -19.773   0.158 -24.048  1.00  0.00    -0.550 OA
ENDBRANCH   3   4
ENDBRANCH   2   3
ENDBRANCH   1   2
BRANCH   1   7
ATOM      7  C   UNL     1     -22.036   3.563 -24.326  1.00  0.00     0.000 C 
BRANCH   7   8
ATOM      8  C   UNL     1     -20.535   3.902 -24.351  1.00  0.00    -0.000 C 
BRANCH   8   9
ATOM      9  C   UNL     1     -19.918   3.949 -22.942  1.00  0.00    -0.000 C 
BRANCH   9  10
ATOM     10  C   UNL     1     -20.584   2.957 -21.974  1.00  0.00    -0.003 C 
ATOM     11  C   UNL     1     -20.232   3.228 -20.511  1.00  0.00     0.004 C 
ENDBRANCH   9  10
ENDBRANCH   8   9
ENDBRANCH   7   8
ENDBRANCH   1   7
TORSDOF 7
ENDMDL
MODEL 3
REMARK VINA RESULT:    -3.529      1.128      1.525
REMARK INTER + INTRA:          -5.416
REMARK INTER:                  -5.055
REMARK INTRA:                  -0.361
REMARK UNBOUND:                -0.442
REMARK SMILES CCCCCCCCC(=O)[O-]
REMARK SMILES IDX 6 1 7 2 8 3 9 4 10 5 11 6 5 7 4 8 3 9 2 10 1 11
REMARK H PARENT
REMARK Flexibility Score: inf
ROOT
ATOM      1  C   UNL     1     -20.285   2.782 -23.456  1.00  0.00     0.000 C 
ENDROOT
BRANCH   1   2
ATOM      2  C   UNL     1     -20.556   2.104 -24.809  1.00  0.00     0.006 C 
BRANCH   2   3
ATOM      3  C   UNL     1     -20.064   0.652 -24.854  1.00  0.00     0.053 C 
BRANCH   3   4
ATOM      4  C   UNL     1     -19.215   0.426 -26.065  1.00  0.00     0.041 C 
ATOM      5  O   UNL     1     -18.621  -0.672 -26.227  1.00  0.00    -0.550 OA
ATOM      6  O   UNL     1     -19.039   1.447 -26.990  1.00  0.00    -0.550 OA
ENDBRANCH   3   4
ENDBRANCH   2   3
ENDBRANCH   1   2
BRANCH   1   7
ATOM      7  C   UNL     1     -20.322   4.318 -23.548  1.00  0.00     0.000 C 
BRANCH   7   8
ATOM      8  C   UNL     1     -20.386   4.990 -22.165  1.00  0.00    -0.000 C 
BRANCH   8   9
ATOM      9  C   UNL     1     -21.366   4.285 -21.211  1.00  0.00    -0.000 C 
BRANCH   9  10
ATOM     10  C   UNL     1     -20.762   4.046 -19.818  1.00  0.00    -0.003 C 
ATOM     11  C   UNL     1     -19.685   2.961 -19.817  1.00  0.00     0.004 C 
ENDBRANCH   9  10
ENDBRANCH   8   9
ENDBRANCH   7   8
ENDBRANCH   1   7
TORSDOF 7
ENDMDL
MODEL 4
REMARK VINA RESULT:    -3.480      1.781      2.624
REMARK INTER + INTRA:          -5.346
REMARK INTER:                  -4.463
REMARK INTRA:                  -0.884
REMARK UNBOUND:                -0.442
REMARK SMILES CCCCCCCCC(=O)[O-]
REMARK SMILES IDX 6 1 7 2 8 3 9 4 10 5 11 6 5 7 4 8 3 9 2 10 1 11
REMARK H PARENT
REMARK Flexibility Score: inf
ROOT
ATOM      1  C   UNL     1     -22.065   2.443 -27.271  1.00  0.00     0.000 C 
ENDROOT
BRANCH   1   2
ATOM      2  C   UNL     1     -20.852   1.503 -27.181  1.00  0.00     0.006 C 
BRANCH   2   3
ATOM      3  C   UNL     1     -21.025   0.412 -26.117  1.00  0.00     0.053 C 
BRANCH   3   4
ATOM      4  C   UNL     1     -19.742   0.196 -25.377  1.00  0.00     0.041 C 
ATOM      5  O   UNL     1     -18.642   0.247 -25.988  1.00  0.00    -0.550 OA
ATOM      6  O   UNL     1     -19.764  -0.111 -24.023  1.00  0.00    -0.550 OA
ENDBRANCH   3   4
ENDBRANCH   2   3
ENDBRANCH   1   2
BRANCH   1   7
ATOM      7  C   UNL     1     -22.758   2.643 -25.911  1.00  0.00     0.000 C 
BRANCH   7   8
ATOM      8  C   UNL     1     -22.147   3.799 -25.102  1.00  0.00    -0.000 C 
BRANCH   8   9
ATOM      9  C   UNL     1     -21.625   3.345 -23.727  1.00  0.00    -0.000 C 
BRANCH   9  10
ATOM     10  C   UNL     1     -20.093   3.431 -23.622  1.00  0.00    -0.003 C 
ATOM     11  C   UNL     1     -19.454   4.124 -24.826  1.00  0.00     0.004 C 
ENDBRANCH   9  10
ENDBRANCH   8   9
ENDBRANCH   7   8
ENDBRANCH   1   7
TORSDOF 7
ENDMDL
MODEL 5
REMARK VINA RESULT:    -3.458     11.783     13.347
REMARK INTER + INTRA:          -5.314
REMARK INTER:                  -4.654
REMARK INTRA:                  -0.660
REMARK UNBOUND:                -0.442
REMARK SMILES CCCCCCCCC(=O)[O-]
REMARK SMILES IDX 6 1 7 2 8 3 9 4 10 5 11 6 5 7 4 8 3 9 2 10 1 11
REMARK H PARENT
REMARK Flexibility Score: inf
ROOT
ATOM      1  C   UNL     1      -7.570  -3.323 -25.873  1.00  0.00     0.000 C 
ENDROOT
BRANCH   1   2
ATOM      2  C   UNL     1      -7.848  -3.082 -24.380  1.00  0.00     0.006 C 
BRANCH   2   3
ATOM      3  C   UNL     1      -7.644  -1.619 -23.968  1.00  0.00     0.053 C 
BRANCH   3   4
ATOM      4  C   UNL     1      -6.545  -1.509 -22.959  1.00  0.00     0.041 C 
ATOM      5  O   UNL     1      -5.854  -2.519 -22.663  1.00  0.00    -0.550 OA
ATOM      6  O   UNL     1      -6.317  -0.303 -22.309  1.00  0.00    -0.550 OA
ENDBRANCH   3   4
ENDBRANCH   2   3
ENDBRANCH   1   2
BRANCH   1   7
ATOM      7  C   UNL     1      -8.114  -2.192 -26.765  1.00  0.00     0.000 C 
BRANCH   7   8
ATOM      8  C   UNL     1      -9.450  -2.558 -27.433  1.00  0.00    -0.000 C 
BRANCH   8   9
ATOM      9  C   UNL     1     -10.441  -1.381 -27.456  1.00  0.00    -0.000 C 
BRANCH   9  10
ATOM     10  C   UNL     1      -9.973  -0.202 -26.586  1.00  0.00    -0.003 C 
ATOM     11  C   UNL     1     -10.795  -0.047 -25.306  1.00  0.00     0.004 C 
ENDBRANCH   9  10
ENDBRANCH   8   9
ENDBRANCH   7   8
ENDBRANCH   1   7
TORSDOF 7
ENDMDL
MODEL 6
REMARK VINA RESULT:    -3.448     11.684     13.178
REMARK INTER + INTRA:          -5.301
REMARK INTER:                  -4.543
REMARK INTRA:                  -0.758
REMARK UNBOUND:                -0.442
REMARK SMILES CCCCCCCCC(=O)[O-]
REMARK SMILES IDX 6 1 7 2 8 3 9 4 10 5 11 6 5 7 4 8 3 9 2 10 1 11
REMARK H PARENT
REMARK Flexibility Score: inf
ROOT
ATOM      1  C   UNL     1      -8.456   0.809 -25.132  1.00  0.00     0.000 C 
ENDROOT
BRANCH   1   2
ATOM      2  C   UNL     1      -7.092   0.182 -24.801  1.00  0.00     0.006 C 
BRANCH   2   3
ATOM      3  C   UNL     1      -7.212  -1.257 -24.282  1.00  0.00     0.053 C 
BRANCH   3   4
ATOM      4  C   UNL     1      -6.540  -1.389 -22.951  1.00  0.00     0.041 C 
ATOM      5  O   UNL     1      -6.551  -0.428 -22.138  1.00  0.00    -0.550 OA
ATOM      6  O   UNL     1      -5.859  -2.556 -22.630  1.00  0.00    -0.550 OA
ENDBRANCH   3   4
ENDBRANCH   2   3
ENDBRANCH   1   2
BRANCH   1   7
ATOM      7  C   UNL     1      -9.629  -0.150 -24.858  1.00  0.00     0.000 C 
BRANCH   7   8
ATOM      8  C   UNL     1     -10.753  -0.021 -25.901  1.00  0.00    -0.000 C 
BRANCH   8   9
ATOM      9  C   UNL     1     -10.320  -0.499 -27.298  1.00  0.00    -0.000 C 
BRANCH   9  10
ATOM     10  C   UNL     1      -9.712  -1.911 -27.273  1.00  0.00    -0.003 C 
ATOM     11  C   UNL     1      -8.340  -1.978 -27.944  1.00  0.00     0.004 C 
ENDBRANCH   9  10
ENDBRANCH   8   9
ENDBRANCH   7   8
ENDBRANCH   1   7
TORSDOF 7
ENDMDL
MODEL 7
REMARK VINA RESULT:    -3.416     13.900     15.295
REMARK INTER + INTRA:          -5.256
REMARK INTER:                  -5.016
REMARK INTRA:                  -0.241
REMARK UNBOUND:                -0.442
REMARK SMILES CCCCCCCCC(=O)[O-]
REMARK SMILES IDX 6 1 7 2 8 3 9 4 10 5 11 6 5 7 4 8 3 9 2 10 1 11
REMARK H PARENT
REMARK Flexibility Score: inf
ROOT
ATOM      1  C   UNL     1      -7.336  -3.919 -25.645  1.00  0.00     0.000 C 
ENDROOT
BRANCH   1   2
ATOM      2  C   UNL     1      -7.862  -3.155 -24.419  1.00  0.00     0.006 C 
BRANCH   2   3
ATOM      3  C   UNL     1      -7.257  -1.751 -24.291  1.00  0.00     0.053 C 
BRANCH   3   4
ATOM      4  C   UNL     1      -6.479  -1.632 -23.018  1.00  0.00     0.041 C 
ATOM      5  O   UNL     1      -5.784  -2.597 -22.608  1.00  0.00    -0.550 OA
ATOM      6  O   UNL     1      -6.564  -0.471 -22.259  1.00  0.00    -0.550 OA
ENDBRANCH   3   4
ENDBRANCH   2   3
ENDBRANCH   1   2
BRANCH   1   7
ATOM      7  C   UNL     1      -8.066  -5.257 -25.863  1.00  0.00     0.000 C 
BRANCH   7   8
ATOM      8  C   UNL     1      -7.111  -6.463 -25.824  1.00  0.00    -0.000 C 
BRANCH   8   9
ATOM      9  C   UNL     1      -7.807  -7.780 -26.210  1.00  0.00    -0.000 C 
BRANCH   9  10
ATOM     10  C   UNL     1      -9.318  -7.750 -25.927  1.00  0.00    -0.003 C 
ATOM     11  C   UNL     1      -9.864  -9.105 -25.477  1.00  0.00     0.004 C 
ENDBRANCH   9  10
ENDBRANCH   8   9
ENDBRANCH   7   8
ENDBRANCH   1   7
TORSDOF 7
ENDMDL
MODEL 8
REMARK VINA RESULT:    -3.302     12.938     13.670
REMARK INTER + INTRA:          -5.094
REMARK INTER:                  -4.638
REMARK INTRA:                  -0.456
REMARK UNBOUND:                -0.442
REMARK SMILES CCCCCCCCC(=O)[O-]
REMARK SMILES IDX 6 1 7 2 8 3 9 4 10 5 11 6 5 7 4 8 3 9 2 10 1 11
REMARK H PARENT
REMARK Flexibility Score: inf
ROOT
ATOM      1  C   UNL     1      -8.850   0.139 -24.961  1.00  0.00     0.000 C 
ENDROOT
BRANCH   1   2
ATOM      2  C   UNL     1      -8.676  -0.973 -23.914  1.00  0.00     0.006 C 
BRANCH   2   3
ATOM      3  C   UNL     1      -7.404  -1.801 -24.134  1.00  0.00     0.053 C 
BRANCH   3   4
ATOM      4  C   UNL     1      -6.500  -1.693 -22.945  1.00  0.00     0.041 C 
ATOM      5  O   UNL     1      -5.720  -2.638 -22.656  1.00  0.00    -0.550 OA
ATOM      6  O   UNL     1      -6.557  -0.572 -22.129  1.00  0.00    -0.550 OA
ENDBRANCH   3   4
ENDBRANCH   2   3
ENDBRANCH   1   2
BRANCH   1   7
ATOM      7  C   UNL     1      -7.535   0.885 -25.253  1.00  0.00     0.000 C 
BRANCH   7   8
ATOM      8  C   UNL     1      -7.529   2.314 -24.683  1.00  0.00    -0.000 C 
BRANCH   8   9
ATOM      9  C   UNL     1      -6.115   2.920 -24.629  1.00  0.00    -0.000 C 
BRANCH   9  10
ATOM     10  C   UNL     1      -5.329   2.469 -23.387  1.00  0.00    -0.003 C 
ATOM     11  C   UNL     1      -6.030   2.830 -22.077  1.00  0.00     0.004 C 
ENDBRANCH   9  10
ENDBRANCH   8   9
ENDBRANCH   7   8
ENDBRANCH   1   7
TORSDOF 7
ENDMDL
MODEL 9
REMARK VINA RESULT:    -3.249     11.890     13.192
REMARK INTER + INTRA:          -5.020
REMARK INTER:                  -4.195
REMARK INTRA:                  -0.825
REMARK UNBOUND:                -0.442
REMARK SMILES CCCCCCCCC(=O)[O-]
REMARK SMILES IDX 6 1 7 2 8 3 9 4 10 5 11 6 5 7 4 8 3 9 2 10 1 11
REMARK H PARENT
REMARK Flexibility Score: inf
ROOT
ATOM      1  C   UNL     1      -6.456  -2.163 -23.163  1.00  0.00     0.000 C 
ENDROOT
BRANCH   1   2
ATOM      2  C   UNL     1      -6.516  -2.904 -24.508  1.00  0.00     0.006 C 
BRANCH   2   3
ATOM      3  C   UNL     1      -7.916  -3.446 -24.824  1.00  0.00     0.053 C 
BRANCH   3   4
ATOM      4  C   UNL     1      -8.247  -3.227 -26.267  1.00  0.00     0.041 C 
ATOM      5  O   UNL     1      -9.021  -4.018 -26.867  1.00  0.00    -0.550 OA
ATOM      6  O   UNL     1      -7.660  -2.178 -26.963  1.00  0.00    -0.550 OA
ENDBRANCH   3   4
ENDBRANCH   2   3
ENDBRANCH   1   2
BRANCH   1   7
ATOM      7  C   UNL     1      -7.372  -0.926 -23.129  1.00  0.00     0.000 C 
BRANCH   7   8
ATOM      8  C   UNL     1      -6.977   0.130 -24.177  1.00  0.00    -0.000 C 
BRANCH   8   9
ATOM      9  C   UNL     1      -8.195   0.713 -24.914  1.00  0.00    -0.000 C 
BRANCH   9  10
ATOM     10  C   UNL     1      -9.468  -0.122 -24.698  1.00  0.00    -0.003 C 
ATOM     11  C   UNL     1     -10.437  -0.042 -25.878  1.00  0.00     0.004 C 
ENDBRANCH   9  10
ENDBRANCH   8   9
ENDBRANCH   7   8
ENDBRANCH   1   7
TORSDOF 7
ENDMDL
