MODEL 1
REMARK VINA RESULT:    -5.131      0.000      0.000
REMARK INTER + INTRA:         -10.986
REMARK INTER:                  -9.330
REMARK INTRA:                  -1.657
REMARK UNBOUND:                -1.657
REMARK SMILES CCCCCCCCCCCCCC[C@H](C)C(=O)[O-]
REMARK SMILES IDX 9 1 10 2 11 3 12 4 13 5 14 6 15 7 16 8 17 9 18 10 19 11 8 12
REMARK SMILES IDX 7 13 6 14 5 15 4 16 3 17 2 18 1 19
REMARK H PARENT
REMARK Flexibility Score: inf
ROOT
ATOM      1  C   UNL     1      12.737  11.674   4.395  1.00  0.00     0.000 C 
ENDROOT
BRANCH   1   2
ATOM      2  C   UNL     1      11.447  12.015   3.622  1.00  0.00     0.000 C 
BRANCH   2   3
ATOM      3  C   UNL     1      10.214  11.171   4.001  1.00  0.00     0.000 C 
BRANCH   3   4
ATOM      4  C   UNL     1      10.380  10.295   5.257  1.00  0.00     0.000 C 
BRANCH   4   5
ATOM      5  C   UNL     1       9.402  10.673   6.383  1.00  0.00     0.001 C 
BRANCH   5   6
ATOM      6  C   UNL     1       9.512  12.153   6.795  1.00  0.00     0.009 C 
BRANCH   6   7
ATOM      7  C   UNL     1       8.603  12.555   7.979  1.00  0.00     0.032 C 
ATOM      8  C   UNL     1       9.157  11.995   9.293  1.00  0.00     0.014 C 
BRANCH   7   9
ATOM      9  C   UNL     1       7.188  12.083   7.777  1.00  0.00     0.044 C 
ATOM     10  O   UNL     1       6.674  11.244   8.565  1.00  0.00    -0.550 OA
ATOM     11  O   UNL     1       6.439  12.571   6.714  1.00  0.00    -0.550 OA
ENDBRANCH   7   9
ENDBRANCH   6   7
ENDBRANCH   5   6
ENDBRANCH   4   5
ENDBRANCH   3   4
ENDBRANCH   2   3
ENDBRANCH   1   2
BRANCH   1  12
ATOM     12  C   UNL     1      13.370  12.858   5.154  1.00  0.00     0.000 C 
BRANCH  12  13
ATOM     13  C   UNL     1      14.911  12.885   5.144  1.00  0.00    -0.000 C 
BRANCH  13  14
ATOM     14  C   UNL     1      15.541  13.777   4.056  1.00  0.00    -0.000 C 
BRANCH  14  15
ATOM     15  C   UNL     1      15.569  13.163   2.646  1.00  0.00    -0.000 C 
BRANCH  15  16
ATOM     16  C   UNL     1      14.607  13.860   1.671  1.00  0.00    -0.000 C 
BRANCH  16  17
ATOM     17  C   UNL     1      13.947  15.078   2.328  1.00  0.00    -0.000 C 
BRANCH  17  18
ATOM     18  C   UNL     1      12.463  15.166   1.957  1.00  0.00    -0.003 C 
ATOM     19  C   UNL     1      12.248  14.895   0.470  1.00  0.00     0.004 C 
ENDBRANCH  17  18
ENDBRANCH  16  17
ENDBRANCH  15  16
ENDBRANCH  14  15
ENDBRANCH  13  14
ENDBRANCH  12  13
ENDBRANCH   1  12
TORSDOF 14
ENDMDL
MODEL 2
REMARK VINA RESULT:    -5.090      1.593      3.471
REMARK INTER + INTRA:         -10.913
REMARK INTER:                  -8.478
REMARK INTRA:                  -2.436
REMARK UNBOUND:                -1.657
REMARK SMILES CCCCCCCCCCCCCC[C@H](C)C(=O)[O-]
REMARK SMILES IDX 9 1 10 2 11 3 12 4 13 5 14 6 15 7 16 8 17 9 18 10 19 11 8 12
REMARK SMILES IDX 7 13 6 14 5 15 4 16 3 17 2 18 1 19
REMARK H PARENT
REMARK Flexibility Score: inf
ROOT
ATOM      1  C   UNL     1      12.032  15.426   4.264  1.00  0.00     0.000 C 
ENDROOT
BRANCH   1   2
ATOM      2  C   UNL     1      12.933  14.502   5.108  1.00  0.00     0.000 C 
BRANCH   2   3
ATOM      3  C   UNL     1      12.294  13.162   5.522  1.00  0.00     0.000 C 
BRANCH   3   4
ATOM      4  C   UNL     1      12.533  11.993   4.548  1.00  0.00     0.000 C 
BRANCH   4   5
ATOM      5  C   UNL     1      11.255  11.559   3.810  1.00  0.00     0.001 C 
BRANCH   5   6
ATOM      6  C   UNL     1      10.272  10.797   4.720  1.00  0.00     0.009 C 
BRANCH   6   7
ATOM      7  C   UNL     1       8.813  11.302   4.646  1.00  0.00     0.032 C 
ATOM      8  C   UNL     1       8.721  12.545   3.753  1.00  0.00     0.014 C 
BRANCH   7   9
ATOM      9  C   UNL     1       8.261  11.610   6.011  1.00  0.00     0.044 C 
ATOM     10  O   UNL     1       8.955  11.405   7.044  1.00  0.00    -0.550 OA
ATOM     11  O   UNL     1       6.976  12.122   6.141  1.00  0.00    -0.550 OA
ENDBRANCH   7   9
ENDBRANCH   6   7
ENDBRANCH   5   6
ENDBRANCH   4   5
ENDBRANCH   3   4
ENDBRANCH   2   3
ENDBRANCH   1   2
BRANCH   1  12
ATOM     12  C   UNL     1      12.477  15.605   2.800  1.00  0.00     0.000 C 
BRANCH  12  13
ATOM     13  C   UNL     1      12.005  14.498   1.837  1.00  0.00    -0.000 C 
BRANCH  13  14
ATOM     14  C   UNL     1      13.132  13.646   1.220  1.00  0.00    -0.000 C 
BRANCH  14  15
ATOM     15  C   UNL     1      14.559  14.140   1.515  1.00  0.00    -0.000 C 
BRANCH  15  16
ATOM     16  C   UNL     1      15.351  13.176   2.411  1.00  0.00    -0.000 C 
BRANCH  16  17
ATOM     17  C   UNL     1      16.233  13.945   3.401  1.00  0.00    -0.000 C 
BRANCH  17  18
ATOM     18  C   UNL     1      16.089  15.458   3.207  1.00  0.00    -0.003 C 
ATOM     19  C   UNL     1      17.421  16.096   2.824  1.00  0.00     0.004 C 
ENDBRANCH  17  18
ENDBRANCH  16  17
ENDBRANCH  15  16
ENDBRANCH  14  15
ENDBRANCH  13  14
ENDBRANCH  12  13
ENDBRANCH   1  12
TORSDOF 14
ENDMDL
MODEL 3
REMARK VINA RESULT:    -5.067      4.071      7.051
REMARK INTER + INTRA:         -10.871
REMARK INTER:                  -8.210
REMARK INTRA:                  -2.661
REMARK UNBOUND:                -1.657
REMARK SMILES CCCCCCCCCCCCCC[C@H](C)C(=O)[O-]
REMARK SMILES IDX 9 1 10 2 11 3 12 4 13 5 14 6 15 7 16 8 17 9 18 10 19 11 8 12
REMARK SMILES IDX 7 13 6 14 5 15 4 16 3 17 2 18 1 19
REMARK H PARENT
REMARK Flexibility Score: inf
ROOT
ATOM      1  C   UNL     1      10.320  15.179   3.690  1.00  0.00     0.000 C 
ENDROOT
BRANCH   1   2
ATOM      2  C   UNL     1      11.494  15.751   2.871  1.00  0.00     0.000 C 
BRANCH   2   3
ATOM      3  C   UNL     1      11.569  15.271   1.409  1.00  0.00     0.000 C 
BRANCH   3   4
ATOM      4  C   UNL     1      12.776  14.375   1.074  1.00  0.00     0.000 C 
BRANCH   4   5
ATOM      5  C   UNL     1      13.884  15.126   0.314  1.00  0.00     0.001 C 
BRANCH   5   6
ATOM      6  C   UNL     1      15.019  15.606   1.238  1.00  0.00     0.009 C 
BRANCH   6   7
ATOM      7  C   UNL     1      15.050  14.915   2.621  1.00  0.00     0.032 C 
ATOM      8  C   UNL     1      15.129  15.960   3.740  1.00  0.00     0.014 C 
BRANCH   7   9
ATOM      9  C   UNL     1      16.201  13.954   2.736  1.00  0.00     0.044 C 
ATOM     10  O   UNL     1      16.058  12.742   2.419  1.00  0.00    -0.550 OA
ATOM     11  O   UNL     1      17.434  14.399   3.198  1.00  0.00    -0.550 OA
ENDBRANCH   7   9
ENDBRANCH   6   7
ENDBRANCH   5   6
ENDBRANCH   4   5
ENDBRANCH   3   4
ENDBRANCH   2   3
ENDBRANCH   1   2
BRANCH   1  12
ATOM     12  C   UNL     1      10.669  14.790   5.140  1.00  0.00     0.000 C 
BRANCH  12  13
ATOM     13  C   UNL     1      12.165  14.523   5.398  1.00  0.00    -0.000 C 
BRANCH  13  14
ATOM     14  C   UNL     1      12.561  13.034   5.459  1.00  0.00    -0.000 C 
BRANCH  14  15
ATOM     15  C   UNL     1      12.735  12.349   4.093  1.00  0.00    -0.000 C 
BRANCH  15  16
ATOM     16  C   UNL     1      11.476  11.595   3.638  1.00  0.00    -0.000 C 
BRANCH  16  17
ATOM     17  C   UNL     1      10.869  10.791   4.795  1.00  0.00    -0.000 C 
BRANCH  17  18
ATOM     18  C   UNL     1       9.340  10.900   4.797  1.00  0.00    -0.003 C 
ATOM     19  C   UNL     1       8.853  11.853   3.710  1.00  0.00     0.004 C 
ENDBRANCH  17  18
ENDBRANCH  16  17
ENDBRANCH  15  16
ENDBRANCH  14  15
ENDBRANCH  13  14
ENDBRANCH  12  13
ENDBRANCH   1  12
TORSDOF 14
ENDMDL
MODEL 4
REMARK VINA RESULT:    -5.042      1.696      3.526
REMARK INTER + INTRA:         -10.825
REMARK INTER:                  -8.410
REMARK INTRA:                  -2.415
REMARK UNBOUND:                -1.657
REMARK SMILES CCCCCCCCCCCCCC[C@H](C)C(=O)[O-]
REMARK SMILES IDX 9 1 10 2 11 3 12 4 13 5 14 6 15 7 16 8 17 9 18 10 19 11 8 12
REMARK SMILES IDX 7 13 6 14 5 15 4 16 3 17 2 18 1 19
REMARK H PARENT
REMARK Flexibility Score: inf
ROOT
ATOM      1  C   UNL     1       8.685  12.059   3.759  1.00  0.00     0.000 C 
ENDROOT
BRANCH   1   2
ATOM      2  C   UNL     1       8.304  13.458   4.283  1.00  0.00     0.000 C 
BRANCH   2   3
ATOM      3  C   UNL     1       9.492  14.346   4.705  1.00  0.00     0.000 C 
BRANCH   3   4
ATOM      4  C   UNL     1       9.616  14.599   6.219  1.00  0.00     0.000 C 
BRANCH   4   5
ATOM      5  C   UNL     1      10.326  13.452   6.960  1.00  0.00     0.001 C 
BRANCH   5   6
ATOM      6  C   UNL     1       9.435  12.793   8.029  1.00  0.00     0.009 C 
BRANCH   6   7
ATOM      7  C   UNL     1       7.978  13.310   8.052  1.00  0.00     0.032 C 
ATOM      8  C   UNL     1       7.677  14.006   9.384  1.00  0.00     0.014 C 
BRANCH   7   9
ATOM      9  C   UNL     1       6.990  12.199   7.821  1.00  0.00     0.044 C 
ATOM     10  O   UNL     1       6.377  12.104   6.723  1.00  0.00    -0.550 OA
ATOM     11  O   UNL     1       6.746  11.268   8.823  1.00  0.00    -0.550 OA
ENDBRANCH   7   9
ENDBRANCH   6   7
ENDBRANCH   5   6
ENDBRANCH   4   5
ENDBRANCH   3   4
ENDBRANCH   2   3
ENDBRANCH   1   2
BRANCH   1  12
ATOM     12  C   UNL     1       8.626  10.935   4.812  1.00  0.00     0.000 C 
BRANCH  12  13
ATOM     13  C   UNL     1       9.998  10.389   5.255  1.00  0.00    -0.000 C 
BRANCH  13  14
ATOM     14  C   UNL     1      11.110  10.476   4.190  1.00  0.00    -0.000 C 
BRANCH  14  15
ATOM     15  C   UNL     1      12.144  11.591   4.419  1.00  0.00    -0.000 C 
BRANCH  15  16
ATOM     16  C   UNL     1      12.386  12.448   3.167  1.00  0.00    -0.000 C 
BRANCH  16  17
ATOM     17  C   UNL     1      13.707  13.218   3.274  1.00  0.00    -0.000 C 
BRANCH  17  18
ATOM     18  C   UNL     1      13.836  13.904   4.639  1.00  0.00    -0.003 C 
ATOM     19  C   UNL     1      13.121  15.252   4.649  1.00  0.00     0.004 C 
ENDBRANCH  17  18
ENDBRANCH  16  17
ENDBRANCH  15  16
ENDBRANCH  14  15
ENDBRANCH  13  14
ENDBRANCH  12  13
ENDBRANCH   1  12
TORSDOF 14
ENDMDL
MODEL 5
REMARK VINA RESULT:    -5.033      3.885      7.349
REMARK INTER + INTRA:         -10.809
REMARK INTER:                  -8.373
REMARK INTRA:                  -2.436
REMARK UNBOUND:                -1.657
REMARK SMILES CCCCCCCCCCCCCC[C@H](C)C(=O)[O-]
REMARK SMILES IDX 9 1 10 2 11 3 12 4 13 5 14 6 15 7 16 8 17 9 18 10 19 11 8 12
REMARK SMILES IDX 7 13 6 14 5 15 4 16 3 17 2 18 1 19
REMARK H PARENT
REMARK Flexibility Score: inf
ROOT
ATOM      1  C   UNL     1      12.088  14.231   5.633  1.00  0.00     0.000 C 
ENDROOT
BRANCH   1   2
ATOM      2  C   UNL     1      12.447  12.760   5.346  1.00  0.00     0.000 C 
BRANCH   2   3
ATOM      3  C   UNL     1      12.504  12.378   3.853  1.00  0.00     0.000 C 
BRANCH   3   4
ATOM      4  C   UNL     1      12.727  13.555   2.884  1.00  0.00     0.000 C 
BRANCH   4   5
ATOM      5  C   UNL     1      13.742  13.229   1.774  1.00  0.00     0.001 C 
BRANCH   5   6
ATOM      6  C   UNL     1      14.916  14.224   1.730  1.00  0.00     0.009 C 
BRANCH   6   7
ATOM      7  C   UNL     1      15.323  14.791   3.109  1.00  0.00     0.032 C 
ATOM      8  C   UNL     1      15.922  16.193   2.957  1.00  0.00     0.014 C 
BRANCH   7   9
ATOM      9  C   UNL     1      16.302  13.890   3.813  1.00  0.00     0.044 C 
ATOM     10  O   UNL     1      17.513  13.860   3.463  1.00  0.00    -0.550 OA
ATOM     11  O   UNL     1      15.872  13.079   4.856  1.00  0.00    -0.550 OA
ENDBRANCH   7   9
ENDBRANCH   6   7
ENDBRANCH   5   6
ENDBRANCH   4   5
ENDBRANCH   3   4
ENDBRANCH   2   3
ENDBRANCH   1   2
BRANCH   1  12
ATOM     12  C   UNL     1      10.591  14.496   5.887  1.00  0.00     0.000 C 
BRANCH  12  13
ATOM     13  C   UNL     1       9.789  14.930   4.644  1.00  0.00    -0.000 C 
BRANCH  13  14
ATOM     14  C   UNL     1       8.555  14.061   4.328  1.00  0.00    -0.000 C 
BRANCH  14  15
ATOM     15  C   UNL     1       8.868  12.650   3.801  1.00  0.00    -0.000 C 
BRANCH  15  16
ATOM     16  C   UNL     1       8.417  11.540   4.761  1.00  0.00    -0.000 C 
BRANCH  16  17
ATOM     17  C   UNL     1       9.531  10.508   4.971  1.00  0.00    -0.000 C 
BRANCH  17  18
ATOM     18  C   UNL     1       9.915  10.404   6.451  1.00  0.00    -0.003 C 
ATOM     19  C   UNL     1       9.078  11.352   7.306  1.00  0.00     0.004 C 
ENDBRANCH  17  18
ENDBRANCH  16  17
ENDBRANCH  15  16
ENDBRANCH  14  15
ENDBRANCH  13  14
ENDBRANCH  12  13
ENDBRANCH   1  12
TORSDOF 14
ENDMDL
MODEL 6
REMARK VINA RESULT:    -5.013      4.255      7.475
REMARK INTER + INTRA:         -10.773
REMARK INTER:                  -8.584
REMARK INTRA:                  -2.189
REMARK UNBOUND:                -1.657
REMARK SMILES CCCCCCCCCCCCCC[C@H](C)C(=O)[O-]
REMARK SMILES IDX 9 1 10 2 11 3 12 4 13 5 14 6 15 7 16 8 17 9 18 10 19 11 8 12
REMARK SMILES IDX 7 13 6 14 5 15 4 16 3 17 2 18 1 19
REMARK H PARENT
REMARK Flexibility Score: inf
ROOT
ATOM      1  C   UNL     1      10.458  15.476   3.449  1.00  0.00     0.000 C 
ENDROOT
BRANCH   1   2
ATOM      2  C   UNL     1      11.287  14.657   2.441  1.00  0.00     0.000 C 
BRANCH   2   3
ATOM      3  C   UNL     1      11.854  15.459   1.253  1.00  0.00     0.000 C 
BRANCH   3   4
ATOM      4  C   UNL     1      12.730  14.654   0.276  1.00  0.00     0.000 C 
BRANCH   4   5
ATOM      5  C   UNL     1      13.896  13.932   0.976  1.00  0.00     0.001 C 
BRANCH   5   6
ATOM      6  C   UNL     1      14.906  14.907   1.607  1.00  0.00     0.009 C 
BRANCH   6   7
ATOM      7  C   UNL     1      15.298  14.564   3.063  1.00  0.00     0.032 C 
ATOM      8  C   UNL     1      14.624  15.532   4.041  1.00  0.00     0.014 C 
BRANCH   7   9
ATOM      9  C   UNL     1      16.790  14.595   3.259  1.00  0.00     0.044 C 
ATOM     10  O   UNL     1      17.447  15.642   3.012  1.00  0.00    -0.550 OA
ATOM     11  O   UNL     1      17.454  13.462   3.712  1.00  0.00    -0.550 OA
ENDBRANCH   7   9
ENDBRANCH   6   7
ENDBRANCH   5   6
ENDBRANCH   4   5
ENDBRANCH   3   4
ENDBRANCH   2   3
ENDBRANCH   1   2
BRANCH   1  12
ATOM     12  C   UNL     1       8.999  15.010   3.620  1.00  0.00     0.000 C 
BRANCH  12  13
ATOM     13  C   UNL     1       8.805  13.823   4.584  1.00  0.00    -0.000 C 
BRANCH  13  14
ATOM     14  C   UNL     1       8.788  12.434   3.915  1.00  0.00    -0.000 C 
BRANCH  14  15
ATOM     15  C   UNL     1       8.965  11.246   4.876  1.00  0.00    -0.000 C 
BRANCH  15  16
ATOM     16  C   UNL     1      10.416  10.745   4.945  1.00  0.00    -0.000 C 
BRANCH  16  17
ATOM     17  C   UNL     1      11.241  11.285   3.772  1.00  0.00    -0.000 C 
BRANCH  17  18
ATOM     18  C   UNL     1      12.608  11.791   4.246  1.00  0.00    -0.003 C 
ATOM     19  C   UNL     1      12.462  12.755   5.420  1.00  0.00     0.004 C 
ENDBRANCH  17  18
ENDBRANCH  16  17
ENDBRANCH  15  16
ENDBRANCH  14  15
ENDBRANCH  13  14
ENDBRANCH  12  13
ENDBRANCH   1  12
TORSDOF 14
ENDMDL
MODEL 7
REMARK VINA RESULT:    -4.954      3.918      7.208
REMARK INTER + INTRA:         -10.666
REMARK INTER:                  -8.114
REMARK INTRA:                  -2.551
REMARK UNBOUND:                -1.657
REMARK SMILES CCCCCCCCCCCCCC[C@H](C)C(=O)[O-]
REMARK SMILES IDX 9 1 10 2 11 3 12 4 13 5 14 6 15 7 16 8 17 9 18 10 19 11 8 12
REMARK SMILES IDX 7 13 6 14 5 15 4 16 3 17 2 18 1 19
REMARK H PARENT
REMARK Flexibility Score: inf
ROOT
ATOM      1  C   UNL     1      10.711  15.485   5.000  1.00  0.00     0.000 C 
ENDROOT
BRANCH   1   2
ATOM      2  C   UNL     1      10.797  14.757   6.357  1.00  0.00     0.000 C 
BRANCH   2   3
ATOM      3  C   UNL     1      12.134  14.041   6.633  1.00  0.00     0.000 C 
BRANCH   3   4
ATOM      4  C   UNL     1      12.364  12.748   5.828  1.00  0.00     0.000 C 
BRANCH   4   5
ATOM      5  C   UNL     1      13.722  12.730   5.104  1.00  0.00     0.001 C 
BRANCH   5   6
ATOM      6  C   UNL     1      13.586  12.483   3.590  1.00  0.00     0.009 C 
BRANCH   6   7
ATOM      7  C   UNL     1      13.771  13.748   2.719  1.00  0.00     0.032 C 
ATOM      8  C   UNL     1      13.042  13.587   1.381  1.00  0.00     0.014 C 
BRANCH   7   9
ATOM      9  C   UNL     1      15.226  14.048   2.478  1.00  0.00     0.044 C 
ATOM     10  O   UNL     1      15.608  15.229   2.256  1.00  0.00    -0.550 OA
ATOM     11  O   UNL     1      16.158  13.018   2.495  1.00  0.00    -0.550 OA
ENDBRANCH   7   9
ENDBRANCH   6   7
ENDBRANCH   5   6
ENDBRANCH   4   5
ENDBRANCH   3   4
ENDBRANCH   2   3
ENDBRANCH   1   2
BRANCH   1  12
ATOM     12  C   UNL     1       9.572  15.007   4.079  1.00  0.00     0.000 C 
BRANCH  12  13
ATOM     13  C   UNL     1       9.833  13.665   3.367  1.00  0.00    -0.000 C 
BRANCH  13  14
ATOM     14  C   UNL     1       8.811  12.552   3.676  1.00  0.00    -0.000 C 
BRANCH  14  15
ATOM     15  C   UNL     1       9.387  11.321   4.398  1.00  0.00    -0.000 C 
BRANCH  15  16
ATOM     16  C   UNL     1       8.865  11.172   5.835  1.00  0.00    -0.000 C 
BRANCH  16  17
ATOM     17  C   UNL     1       7.603  12.016   6.051  1.00  0.00    -0.000 C 
BRANCH  17  18
ATOM     18  C   UNL     1       7.737  12.896   7.299  1.00  0.00    -0.003 C 
ATOM     19  C   UNL     1       6.939  14.189   7.150  1.00  0.00     0.004 C 
ENDBRANCH  17  18
ENDBRANCH  16  17
ENDBRANCH  15  16
ENDBRANCH  14  15
ENDBRANCH  13  14
ENDBRANCH  12  13
ENDBRANCH   1  12
TORSDOF 14
ENDMDL
MODEL 8
REMARK VINA RESULT:    -4.948      1.856      2.476
REMARK INTER + INTRA:         -10.655
REMARK INTER:                  -8.588
REMARK INTRA:                  -2.067
REMARK UNBOUND:                -1.657
REMARK SMILES CCCCCCCCCCCCCC[C@H](C)C(=O)[O-]
REMARK SMILES IDX 9 1 10 2 11 3 12 4 13 5 14 6 15 7 16 8 17 9 18 10 19 11 8 12
REMARK SMILES IDX 7 13 6 14 5 15 4 16 3 17 2 18 1 19
REMARK H PARENT
REMARK Flexibility Score: inf
ROOT
ATOM      1  C   UNL     1      12.012  12.038   3.534  1.00  0.00     0.000 C 
ENDROOT
BRANCH   1   2
ATOM      2  C   UNL     1      10.660  11.336   3.770  1.00  0.00     0.000 C 
BRANCH   2   3
ATOM      3  C   UNL     1      10.420  10.843   5.210  1.00  0.00     0.000 C 
BRANCH   3   4
ATOM      4  C   UNL     1       8.942  10.679   5.610  1.00  0.00     0.000 C 
BRANCH   4   5
ATOM      5  C   UNL     1       8.435  11.824   6.504  1.00  0.00     0.001 C 
BRANCH   5   6
ATOM      6  C   UNL     1       7.800  12.973   5.698  1.00  0.00     0.009 C 
BRANCH   6   7
ATOM      7  C   UNL     1       8.609  14.290   5.721  1.00  0.00     0.032 C 
ATOM      8  C   UNL     1       9.721  14.218   6.773  1.00  0.00     0.014 C 
BRANCH   7   9
ATOM      9  C   UNL     1       7.727  15.479   5.991  1.00  0.00     0.044 C 
ATOM     10  O   UNL     1       7.860  16.541   5.324  1.00  0.00    -0.550 OA
ATOM     11  O   UNL     1       6.758  15.412   6.985  1.00  0.00    -0.550 OA
ENDBRANCH   7   9
ENDBRANCH   6   7
ENDBRANCH   5   6
ENDBRANCH   4   5
ENDBRANCH   3   4
ENDBRANCH   2   3
ENDBRANCH   1   2
BRANCH   1  12
ATOM     12  C   UNL     1      12.134  13.440   4.164  1.00  0.00     0.000 C 
BRANCH  12  13
ATOM     13  C   UNL     1      13.225  13.574   5.244  1.00  0.00    -0.000 C 
BRANCH  13  14
ATOM     14  C   UNL     1      14.554  12.861   4.921  1.00  0.00    -0.000 C 
BRANCH  14  15
ATOM     15  C   UNL     1      15.525  13.662   4.038  1.00  0.00    -0.000 C 
BRANCH  15  16
ATOM     16  C   UNL     1      15.482  13.235   2.563  1.00  0.00    -0.000 C 
BRANCH  16  17
ATOM     17  C   UNL     1      14.844  14.324   1.693  1.00  0.00    -0.000 C 
BRANCH  17  18
ATOM     18  C   UNL     1      13.768  13.735   0.773  1.00  0.00    -0.003 C 
ATOM     19  C   UNL     1      12.595  14.697   0.609  1.00  0.00     0.004 C 
ENDBRANCH  17  18
ENDBRANCH  16  17
ENDBRANCH  15  16
ENDBRANCH  14  15
ENDBRANCH  13  14
ENDBRANCH  12  13
ENDBRANCH   1  12
TORSDOF 14
ENDMDL
MODEL 9
REMARK VINA RESULT:    -4.935      3.501      6.380
REMARK INTER + INTRA:         -10.630
REMARK INTER:                  -8.260
REMARK INTRA:                  -2.370
REMARK UNBOUND:                -1.657
REMARK SMILES CCCCCCCCCCCCCC[C@H](C)C(=O)[O-]
REMARK SMILES IDX 9 1 10 2 11 3 12 4 13 5 14 6 15 7 16 8 17 9 18 10 19 11 8 12
REMARK SMILES IDX 7 13 6 14 5 15 4 16 3 17 2 18 1 19
REMARK H PARENT
REMARK Flexibility Score: inf
ROOT
ATOM      1  C   UNL     1       9.668  11.468   6.901  1.00  0.00     0.000 C 
ENDROOT
BRANCH   1   2
ATOM      2  C   UNL     1       9.925  10.111   6.216  1.00  0.00     0.000 C 
BRANCH   2   3
ATOM      3  C   UNL     1      10.342  10.193   4.735  1.00  0.00     0.000 C 
BRANCH   3   4
ATOM      4  C   UNL     1      10.025  11.529   4.037  1.00  0.00     0.000 C 
BRANCH   4   5
ATOM      5  C   UNL     1      11.290  12.310   3.641  1.00  0.00     0.001 C 
BRANCH   5   6
ATOM      6  C   UNL     1      12.588  11.579   4.031  1.00  0.00     0.009 C 
BRANCH   6   7
ATOM      7  C   UNL     1      13.594  12.445   4.823  1.00  0.00     0.032 C 
ATOM      8  C   UNL     1      12.882  13.190   5.957  1.00  0.00     0.014 C 
BRANCH   7   9
ATOM      9  C   UNL     1      14.304  13.428   3.931  1.00  0.00     0.044 C 
ATOM     10  O   UNL     1      14.338  14.653   4.227  1.00  0.00    -0.550 OA
ATOM     11  O   UNL     1      14.924  12.987   2.769  1.00  0.00    -0.550 OA
ENDBRANCH   7   9
ENDBRANCH   6   7
ENDBRANCH   5   6
ENDBRANCH   4   5
ENDBRANCH   3   4
ENDBRANCH   2   3
ENDBRANCH   1   2
BRANCH   1  12
ATOM     12  C   UNL     1       8.298  11.596   7.595  1.00  0.00     0.000 C 
BRANCH  12  13
ATOM     13  C   UNL     1       7.182  12.202   6.721  1.00  0.00    -0.000 C 
BRANCH  13  14
ATOM     14  C   UNL     1       6.780  13.646   7.085  1.00  0.00    -0.000 C 
BRANCH  14  15
ATOM     15  C   UNL     1       7.829  14.719   6.743  1.00  0.00    -0.000 C 
BRANCH  15  16
ATOM     16  C   UNL     1       8.308  14.643   5.285  1.00  0.00    -0.000 C 
BRANCH  16  17
ATOM     17  C   UNL     1       9.688  15.292   5.126  1.00  0.00    -0.000 C 
BRANCH  17  18
ATOM     18  C   UNL     1      10.235  15.761   6.478  1.00  0.00    -0.003 C 
ATOM     19  C   UNL     1      11.485  16.618   6.300  1.00  0.00     0.004 C 
ENDBRANCH  17  18
ENDBRANCH  16  17
ENDBRANCH  15  16
ENDBRANCH  14  15
ENDBRANCH  13  14
ENDBRANCH  12  13
ENDBRANCH   1  12
TORSDOF 14
ENDMDL
