MODEL 1
REMARK VINA RESULT:    -7.972      0.000      0.000
REMARK INTER + INTRA:          -9.898
REMARK INTER:                  -9.370
REMARK INTRA:                  -0.528
REMARK UNBOUND:                -0.528
REMARK SMILES C=C(C)[C@H]1CC[C@]2(CO)CC[C@@]3(C)[C@H](CC[C@H]4[C@]5(C)CC[C@@H](O)C(C)(C)[C@H]5CC[C@]43C)[C@H]12
REMARK SMILES IDX 4 1 5 2 6 3 7 4 32 5 14 6 15 7 16 8 17 9 18 10 20 11 21 12
REMARK SMILES IDX 22 13 24 14 27 15 28 16 29 17 30 18 12 19 11 20 10 21 13 22
REMARK SMILES IDX 31 23 25 24 26 25 19 26 2 27 3 28 1 29 8 30 9 31 23 33
REMARK H PARENT 9 32 23 34
REMARK Flexibility Score: inf
ROOT
ATOM      1  C   UNL     1      95.022 -62.365 103.054  1.00  0.00     0.018 C 
ATOM      2  C   UNL     1      96.509 -62.681 103.043  1.00  0.00     0.009 C 
ATOM      3  C   UNL     1      96.559 -64.186 103.033  1.00  0.00     0.010 C 
ATOM      4  C   UNL     1      95.404 -64.657 103.946  1.00  0.00    -0.003 C 
ATOM      5  C   UNL     1      94.309 -63.524 103.835  1.00  0.00     0.008 C 
ATOM      6  C   UNL     1      92.819 -63.903 103.361  1.00  0.00    -0.000 C 
ATOM      7  C   UNL     1      92.204 -62.906 102.352  1.00  0.00     0.005 C 
ATOM      8  C   UNL     1      92.334 -63.406 100.919  1.00  0.00     0.005 C 
ATOM      9  C   UNL     1      91.286 -64.513 100.704  1.00  0.00     0.002 C 
ATOM     10  C   UNL     1      91.178 -65.097  99.227  1.00  0.00    -0.026 C 
ATOM     11  C   UNL     1      90.831 -63.978  98.164  1.00  0.00     0.010 C 
ATOM     12  C   UNL     1      89.334 -63.804  97.907  1.00  0.00     0.033 C 
ATOM     13  C   UNL     1      88.705 -65.079  97.299  1.00  0.00     0.120 C 
ATOM     14  C   UNL     1      89.290 -66.429  97.886  1.00  0.00    -0.006 C 
ATOM     15  C   UNL     1      89.980 -66.128  99.271  1.00  0.00     0.003 C 
ATOM     16  C   UNL     1      90.248 -67.345 100.188  1.00  0.00     0.005 C 
ATOM     17  C   UNL     1      91.280 -67.064 101.297  1.00  0.00     0.008 C 
ATOM     18  C   UNL     1      91.284 -65.604 101.898  1.00  0.00    -0.024 C 
ATOM     19  C   UNL     1      92.512 -65.425 102.992  1.00  0.00    -0.024 C 
ATOM     20  C   UNL     1      93.838 -66.080 102.485  1.00  0.00     0.008 C 
ATOM     21  C   UNL     1      94.977 -66.071 103.497  1.00  0.00     0.010 C 
ATOM     22  C   UNL     1      92.131 -66.158 104.329  1.00  0.00     0.012 C 
ATOM     23  C   UNL     1      89.910 -65.453 102.642  1.00  0.00     0.012 C 
ATOM     24  C   UNL     1      90.268 -67.105  96.886  1.00  0.00     0.014 C 
ATOM     25  C   UNL     1      88.105 -67.409  98.091  1.00  0.00     0.014 C 
ATOM     26  C   UNL     1      92.533 -65.754  98.795  1.00  0.00     0.012 C 
ENDROOT
BRANCH   1  27
ATOM     27  C   UNL     1      94.782 -60.961 103.611  1.00  0.00    -0.077 C 
ATOM     28  C   UNL     1      95.482 -60.470 104.856  1.00  0.00     0.039 C 
ATOM     29  C   UNL     1      94.019 -60.091 102.929  1.00  0.00     0.008 C 
ENDBRANCH   1  27
BRANCH   4  30
ATOM     30  C   UNL     1      95.957 -64.753 105.402  1.00  0.00     0.163 C 
BRANCH  30  31
ATOM     31  O   UNL     1      95.300 -63.844 106.248  1.00  0.00    -0.396 OA
ATOM     32  H   UNL     1      94.357 -63.781 105.941  1.00  0.00     0.210 HD
ENDBRANCH  30  31
ENDBRANCH   4  30
BRANCH  13  33
ATOM     33  O   UNL     1      88.824 -65.022  95.898  1.00  0.00    -0.393 OA
ATOM     34  H   UNL     1      89.377 -65.800  95.624  1.00  0.00     0.210 HD
ENDBRANCH  13  33
TORSDOF 4
ENDMDL
MODEL 2
REMARK VINA RESULT:    -7.478      0.917      0.999
REMARK INTER + INTRA:          -9.318
REMARK INTER:                  -8.849
REMARK INTRA:                  -0.468
REMARK UNBOUND:                -0.528
REMARK SMILES C=C(C)[C@H]1CC[C@]2(CO)CC[C@@]3(C)[C@H](CC[C@H]4[C@]5(C)CC[C@@H](O)C(C)(C)[C@H]5CC[C@]43C)[C@H]12
REMARK SMILES IDX 4 1 5 2 6 3 7 4 32 5 14 6 15 7 16 8 17 9 18 10 20 11 21 12
REMARK SMILES IDX 22 13 24 14 27 15 28 16 29 17 30 18 12 19 11 20 10 21 13 22
REMARK SMILES IDX 31 23 25 24 26 25 19 26 2 27 3 28 1 29 8 30 9 31 23 33
REMARK H PARENT 9 32 23 34
REMARK Flexibility Score: inf
ROOT
ATOM      1  C   UNL     1      94.464 -61.915 102.547  1.00  0.00     0.018 C 
ATOM      2  C   UNL     1      95.975 -62.019 102.669  1.00  0.00     0.009 C 
ATOM      3  C   UNL     1      96.215 -63.472 102.980  1.00  0.00     0.010 C 
ATOM      4  C   UNL     1      95.066 -63.902 103.921  1.00  0.00    -0.003 C 
ATOM      5  C   UNL     1      93.848 -62.977 103.524  1.00  0.00     0.008 C 
ATOM      6  C   UNL     1      92.456 -63.646 103.076  1.00  0.00    -0.000 C 
ATOM      7  C   UNL     1      91.794 -62.971 101.853  1.00  0.00     0.005 C 
ATOM      8  C   UNL     1      92.088 -63.730 100.566  1.00  0.00     0.005 C 
ATOM      9  C   UNL     1      91.205 -64.991 100.544  1.00  0.00     0.002 C 
ATOM     10  C   UNL     1      91.277 -65.873  99.221  1.00  0.00    -0.026 C 
ATOM     11  C   UNL     1      90.870 -65.054  97.931  1.00  0.00     0.010 C 
ATOM     12  C   UNL     1      89.385 -65.144  97.578  1.00  0.00     0.033 C 
ATOM     13  C   UNL     1      88.966 -66.590  97.227  1.00  0.00     0.120 C 
ATOM     14  C   UNL     1      89.673 -67.699  98.111  1.00  0.00    -0.006 C 
ATOM     15  C   UNL     1      90.219 -67.029  99.431  1.00  0.00     0.003 C 
ATOM     16  C   UNL     1      90.571 -67.984 100.595  1.00  0.00     0.005 C 
ATOM     17  C   UNL     1      91.477 -67.343 101.663  1.00  0.00     0.008 C 
ATOM     18  C   UNL     1      91.255 -65.805 101.941  1.00  0.00    -0.024 C 
ATOM     19  C   UNL     1      92.369 -65.239 103.025  1.00  0.00    -0.024 C 
ATOM     20  C   UNL     1      93.800 -65.795 102.727  1.00  0.00     0.008 C 
ATOM     21  C   UNL     1      94.853 -65.423 103.763  1.00  0.00     0.010 C 
ATOM     22  C   UNL     1      91.988 -65.729 104.469  1.00  0.00     0.012 C 
ATOM     23  C   UNL     1      89.823 -65.696 102.576  1.00  0.00     0.012 C 
ATOM     24  C   UNL     1      90.797 -68.423  97.322  1.00  0.00     0.014 C 
ATOM     25  C   UNL     1      88.609 -68.769  98.467  1.00  0.00     0.014 C 
ATOM     26  C   UNL     1      92.731 -66.412  98.998  1.00  0.00     0.012 C 
ENDROOT
BRANCH   1  27
ATOM     27  C   UNL     1      94.010 -60.473 102.783  1.00  0.00    -0.077 C 
ATOM     28  C   UNL     1      94.492 -59.674 103.970  1.00  0.00     0.039 C 
ATOM     29  C   UNL     1      93.253 -59.851 101.865  1.00  0.00     0.008 C 
ENDBRANCH   1  27
BRANCH   4  30
ATOM     30  C   UNL     1      95.521 -63.621 105.387  1.00  0.00     0.163 C 
BRANCH  30  31
ATOM     31  O   UNL     1      95.435 -64.785 106.168  1.00  0.00    -0.396 OA
ATOM     32  H   UNL     1      95.510 -65.562 105.554  1.00  0.00     0.210 HD
ENDBRANCH  30  31
ENDBRANCH   4  30
BRANCH  13  33
ATOM     33  O   UNL     1      89.177 -66.805  95.852  1.00  0.00    -0.393 OA
ATOM     34  H   UNL     1      89.103 -67.783  95.699  1.00  0.00     0.210 HD
ENDBRANCH  13  33
TORSDOF 4
ENDMDL
MODEL 3
REMARK VINA RESULT:    -7.373      1.744      8.089
REMARK INTER + INTRA:          -9.194
REMARK INTER:                  -8.811
REMARK INTRA:                  -0.383
REMARK UNBOUND:                -0.528
REMARK SMILES C=C(C)[C@H]1CC[C@]2(CO)CC[C@@]3(C)[C@H](CC[C@H]4[C@]5(C)CC[C@@H](O)C(C)(C)[C@H]5CC[C@]43C)[C@H]12
REMARK SMILES IDX 4 1 5 2 6 3 7 4 32 5 14 6 15 7 16 8 17 9 18 10 20 11 21 12
REMARK SMILES IDX 22 13 24 14 27 15 28 16 29 17 30 18 12 19 11 20 10 21 13 22
REMARK SMILES IDX 31 23 25 24 26 25 19 26 2 27 3 28 1 29 8 30 9 31 23 33
REMARK H PARENT 9 32 23 34
REMARK Flexibility Score: inf
ROOT
ATOM      1  C   UNL     1      90.491 -66.754 102.172  1.00  0.00     0.018 C 
ATOM      2  C   UNL     1      90.461 -67.750 101.024  1.00  0.00     0.009 C 
ATOM      3  C   UNL     1      91.380 -67.145  99.996  1.00  0.00     0.010 C 
ATOM      4  C   UNL     1      91.139 -65.619 100.054  1.00  0.00    -0.003 C 
ATOM      5  C   UNL     1      90.704 -65.332 101.544  1.00  0.00     0.008 C 
ATOM      6  C   UNL     1      91.536 -64.274 102.425  1.00  0.00    -0.000 C 
ATOM      7  C   UNL     1      91.806 -64.732 103.877  1.00  0.00     0.005 C 
ATOM      8  C   UNL     1      93.203 -65.319 104.029  1.00  0.00     0.005 C 
ATOM      9  C   UNL     1      94.210 -64.154 104.044  1.00  0.00     0.002 C 
ATOM     10  C   UNL     1      95.730 -64.546 104.309  1.00  0.00    -0.026 C 
ATOM     11  C   UNL     1      95.926 -65.287 105.692  1.00  0.00     0.010 C 
ATOM     12  C   UNL     1      96.252 -64.354 106.859  1.00  0.00     0.033 C 
ATOM     13  C   UNL     1      97.601 -63.628 106.652  1.00  0.00     0.120 C 
ATOM     14  C   UNL     1      97.879 -63.202 105.151  1.00  0.00    -0.006 C 
ATOM     15  C   UNL     1      96.512 -63.174 104.365  1.00  0.00     0.003 C 
ATOM     16  C   UNL     1      96.502 -62.403 103.024  1.00  0.00     0.005 C 
ATOM     17  C   UNL     1      95.309 -62.761 102.118  1.00  0.00     0.008 C 
ATOM     18  C   UNL     1      93.950 -63.097 102.847  1.00  0.00    -0.024 C 
ATOM     19  C   UNL     1      92.800 -63.566 101.755  1.00  0.00    -0.024 C 
ATOM     20  C   UNL     1      93.387 -64.538 100.679  1.00  0.00     0.008 C 
ATOM     21  C   UNL     1      92.419 -64.907  99.563  1.00  0.00     0.010 C 
ATOM     22  C   UNL     1      92.270 -62.306 100.981  1.00  0.00     0.012 C 
ATOM     23  C   UNL     1      93.495 -61.756 103.524  1.00  0.00     0.012 C 
ATOM     24  C   UNL     1      98.915 -64.142 104.477  1.00  0.00     0.014 C 
ATOM     25  C   UNL     1      98.504 -61.782 105.170  1.00  0.00     0.014 C 
ATOM     26  C   UNL     1      96.256 -65.502 103.184  1.00  0.00     0.012 C 
ENDROOT
BRANCH   1  27
ATOM     27  C   UNL     1      89.238 -66.903 103.037  1.00  0.00    -0.077 C 
ATOM     28  C   UNL     1      87.893 -67.234 102.435  1.00  0.00     0.039 C 
ATOM     29  C   UNL     1      89.338 -66.852 104.375  1.00  0.00     0.008 C 
ENDBRANCH   1  27
BRANCH   4  30
ATOM     30  C   UNL     1      89.982 -65.282  99.063  1.00  0.00     0.163 C 
BRANCH  30  31
ATOM     31  O   UNL     1      89.792 -63.893  98.970  1.00  0.00    -0.396 OA
ATOM     32  H   UNL     1      90.590 -63.456  99.370  1.00  0.00     0.210 HD
ENDBRANCH  30  31
ENDBRANCH   4  30
BRANCH  13  33
ATOM     33  O   UNL     1      98.635 -64.430 107.168  1.00  0.00    -0.393 OA
ATOM     34  H   UNL     1      98.492 -64.490 108.149  1.00  0.00     0.210 HD
ENDBRANCH  13  33
TORSDOF 4
ENDMDL
MODEL 4
REMARK VINA RESULT:    -7.212      2.906      5.058
REMARK INTER + INTRA:          -9.005
REMARK INTER:                  -8.348
REMARK INTRA:                  -0.657
REMARK UNBOUND:                -0.528
REMARK SMILES C=C(C)[C@H]1CC[C@]2(CO)CC[C@@]3(C)[C@H](CC[C@H]4[C@]5(C)CC[C@@H](O)C(C)(C)[C@H]5CC[C@]43C)[C@H]12
REMARK SMILES IDX 4 1 5 2 6 3 7 4 32 5 14 6 15 7 16 8 17 9 18 10 20 11 21 12
REMARK SMILES IDX 22 13 24 14 27 15 28 16 29 17 30 18 12 19 11 20 10 21 13 22
REMARK SMILES IDX 31 23 25 24 26 25 19 26 2 27 3 28 1 29 8 30 9 31 23 33
REMARK H PARENT 9 32 23 34
REMARK Flexibility Score: inf
ROOT
ATOM      1  C   UNL     1      97.653 -65.465 105.030  1.00  0.00     0.018 C 
ATOM      2  C   UNL     1      97.986 -64.874 106.389  1.00  0.00     0.009 C 
ATOM      3  C   UNL     1      96.958 -63.790 106.575  1.00  0.00     0.010 C 
ATOM      4  C   UNL     1      96.760 -63.147 105.184  1.00  0.00    -0.003 C 
ATOM      5  C   UNL     1      97.063 -64.304 104.154  1.00  0.00     0.008 C 
ATOM      6  C   UNL     1      95.948 -64.716 103.069  1.00  0.00    -0.000 C 
ATOM      7  C   UNL     1      95.785 -66.240 102.876  1.00  0.00     0.005 C 
ATOM      8  C   UNL     1      94.606 -66.783 103.672  1.00  0.00     0.005 C 
ATOM      9  C   UNL     1      93.312 -66.393 102.932  1.00  0.00     0.002 C 
ATOM     10  C   UNL     1      91.958 -66.965 103.543  1.00  0.00    -0.026 C 
ATOM     11  C   UNL     1      91.946 -68.546 103.603  1.00  0.00     0.010 C 
ATOM     12  C   UNL     1      91.346 -69.212 102.365  1.00  0.00     0.033 C 
ATOM     13  C   UNL     1      89.852 -68.853 102.189  1.00  0.00     0.120 C 
ATOM     14  C   UNL     1      89.499 -67.357 102.574  1.00  0.00    -0.006 C 
ATOM     15  C   UNL     1      90.821 -66.497 102.549  1.00  0.00     0.003 C 
ATOM     16  C   UNL     1      90.645 -64.961 102.493  1.00  0.00     0.005 C 
ATOM     17  C   UNL     1      91.910 -64.182 102.897  1.00  0.00     0.008 C 
ATOM     18  C   UNL     1      93.292 -64.835 102.501  1.00  0.00    -0.024 C 
ATOM     19  C   UNL     1      94.552 -63.943 103.096  1.00  0.00    -0.024 C 
ATOM     20  C   UNL     1      94.285 -63.472 104.563  1.00  0.00     0.008 C 
ATOM     21  C   UNL     1      95.343 -62.533 105.130  1.00  0.00     0.010 C 
ATOM     22  C   UNL     1      94.725 -62.642 102.231  1.00  0.00     0.012 C 
ATOM     23  C   UNL     1      93.338 -64.802 100.933  1.00  0.00     0.012 C 
ATOM     24  C   UNL     1      88.784 -67.279 103.950  1.00  0.00     0.014 C 
ATOM     25  C   UNL     1      88.502 -66.819 101.515  1.00  0.00     0.014 C 
ATOM     26  C   UNL     1      91.746 -66.436 105.003  1.00  0.00     0.012 C 
ENDROOT
BRANCH   1  27
ATOM     27  C   UNL     1      98.877 -66.168 104.441  1.00  0.00    -0.077 C 
ATOM     28  C   UNL     1      99.624 -65.601 103.257  1.00  0.00     0.039 C 
ATOM     29  C   UNL     1      99.380 -67.256 105.047  1.00  0.00     0.008 C 
ENDBRANCH   1  27
BRANCH   4  30
ATOM     30  C   UNL     1      97.798 -61.991 105.041  1.00  0.00     0.163 C 
BRANCH  30  31
ATOM     31  O   UNL     1      98.698 -62.253 103.995  1.00  0.00    -0.396 OA
ATOM     32  H   UNL     1      98.235 -62.846 103.346  1.00  0.00     0.210 HD
ENDBRANCH  30  31
ENDBRANCH   4  30
BRANCH  13  33
ATOM     33  O   UNL     1      89.073 -69.777 102.910  1.00  0.00    -0.393 OA
ATOM     34  H   UNL     1      89.678 -70.517 103.179  1.00  0.00     0.210 HD
ENDBRANCH  13  33
TORSDOF 4
ENDMDL
MODEL 5
REMARK VINA RESULT:    -7.093      3.264      5.526
REMARK INTER + INTRA:          -8.865
REMARK INTER:                  -8.196
REMARK INTRA:                  -0.669
REMARK UNBOUND:                -0.528
REMARK SMILES C=C(C)[C@H]1CC[C@]2(CO)CC[C@@]3(C)[C@H](CC[C@H]4[C@]5(C)CC[C@@H](O)C(C)(C)[C@H]5CC[C@]43C)[C@H]12
REMARK SMILES IDX 4 1 5 2 6 3 7 4 32 5 14 6 15 7 16 8 17 9 18 10 20 11 21 12
REMARK SMILES IDX 22 13 24 14 27 15 28 16 29 17 30 18 12 19 11 20 10 21 13 22
REMARK SMILES IDX 31 23 25 24 26 25 19 26 2 27 3 28 1 29 8 30 9 31 23 33
REMARK H PARENT 9 32 23 34
REMARK Flexibility Score: inf
ROOT
ATOM      1  C   UNL     1      99.789 -62.317 104.491  1.00  0.00     0.018 C 
ATOM      2  C   UNL     1     100.941 -62.238 103.503  1.00  0.00     0.009 C 
ATOM      3  C   UNL     1     100.977 -63.608 102.878  1.00  0.00     0.010 C 
ATOM      4  C   UNL     1     100.651 -64.604 104.014  1.00  0.00    -0.003 C 
ATOM      5  C   UNL     1      99.726 -63.797 105.009  1.00  0.00     0.008 C 
ATOM      6  C   UNL     1      98.268 -64.369 105.379  1.00  0.00    -0.000 C 
ATOM      7  C   UNL     1      97.155 -63.297 105.400  1.00  0.00     0.005 C 
ATOM      8  C   UNL     1      96.359 -63.289 104.102  1.00  0.00     0.005 C 
ATOM      9  C   UNL     1      95.409 -64.501 104.119  1.00  0.00     0.002 C 
ATOM     10  C   UNL     1      94.400 -64.616 102.893  1.00  0.00    -0.026 C 
ATOM     11  C   UNL     1      93.461 -63.349 102.768  1.00  0.00     0.010 C 
ATOM     12  C   UNL     1      92.134 -63.480 103.515  1.00  0.00     0.033 C 
ATOM     13  C   UNL     1      91.264 -64.623 102.943  1.00  0.00     0.120 C 
ATOM     14  C   UNL     1      92.091 -65.900 102.497  1.00  0.00    -0.006 C 
ATOM     15  C   UNL     1      93.496 -65.874 103.211  1.00  0.00     0.003 C 
ATOM     16  C   UNL     1      94.282 -67.206 103.238  1.00  0.00     0.005 C 
ATOM     17  C   UNL     1      95.781 -67.030 103.549  1.00  0.00     0.008 C 
ATOM     18  C   UNL     1      96.158 -65.868 104.549  1.00  0.00    -0.024 C 
ATOM     19  C   UNL     1      97.800 -65.733 104.697  1.00  0.00    -0.024 C 
ATOM     20  C   UNL     1      98.517 -65.855 103.312  1.00  0.00     0.008 C 
ATOM     21  C   UNL     1     100.038 -65.874 103.385  1.00  0.00     0.010 C 
ATOM     22  C   UNL     1      98.343 -66.908 105.588  1.00  0.00     0.012 C 
ATOM     23  C   UNL     1      95.554 -66.294 105.934  1.00  0.00     0.012 C 
ATOM     24  C   UNL     1      92.227 -65.977 100.952  1.00  0.00     0.014 C 
ATOM     25  C   UNL     1      91.298 -67.156 102.944  1.00  0.00     0.014 C 
ATOM     26  C   UNL     1      95.186 -64.756 101.545  1.00  0.00     0.012 C 
ENDROOT
BRANCH   1  27
ATOM     27  C   UNL     1      99.949 -61.254 105.579  1.00  0.00    -0.077 C 
ATOM     28  C   UNL     1      98.900 -60.192 105.810  1.00  0.00     0.039 C 
ATOM     29  C   UNL     1     100.986 -61.317 106.430  1.00  0.00     0.008 C 
ENDBRANCH   1  27
BRANCH   4  30
ATOM     30  C   UNL     1     101.994 -64.998 104.702  1.00  0.00     0.163 C 
BRANCH  30  31
ATOM     31  O   UNL     1     101.957 -64.707 106.076  1.00  0.00    -0.396 OA
ATOM     32  H   UNL     1     102.798 -64.228 106.302  1.00  0.00     0.210 HD
ENDBRANCH  30  31
ENDBRANCH   4  30
BRANCH  13  33
ATOM     33  O   UNL     1      90.479 -64.116 101.891  1.00  0.00    -0.393 OA
ATOM     34  H   UNL     1      90.137 -63.232 102.187  1.00  0.00     0.210 HD
ENDBRANCH  13  33
TORSDOF 4
ENDMDL
MODEL 6
REMARK VINA RESULT:    -6.600      4.231      7.208
REMARK INTER + INTRA:          -8.285
REMARK INTER:                  -7.622
REMARK INTRA:                  -0.663
REMARK UNBOUND:                -0.528
REMARK SMILES C=C(C)[C@H]1CC[C@]2(CO)CC[C@@]3(C)[C@H](CC[C@H]4[C@]5(C)CC[C@@H](O)C(C)(C)[C@H]5CC[C@]43C)[C@H]12
REMARK SMILES IDX 4 1 5 2 6 3 7 4 32 5 14 6 15 7 16 8 17 9 18 10 20 11 21 12
REMARK SMILES IDX 22 13 24 14 27 15 28 16 29 17 30 18 12 19 11 20 10 21 13 22
REMARK SMILES IDX 31 23 25 24 26 25 19 26 2 27 3 28 1 29 8 30 9 31 23 33
REMARK H PARENT 9 32 23 34
REMARK Flexibility Score: inf
ROOT
ATOM      1  C   UNL     1     101.818 -62.938 105.366  1.00  0.00     0.018 C 
ATOM      2  C   UNL     1     102.902 -63.669 104.591  1.00  0.00     0.009 C 
ATOM      3  C   UNL     1     102.337 -65.051 104.394  1.00  0.00     0.010 C 
ATOM      4  C   UNL     1     101.585 -65.394 105.700  1.00  0.00    -0.003 C 
ATOM      5  C   UNL     1     101.097 -64.003 106.266  1.00  0.00     0.008 C 
ATOM      6  C   UNL     1      99.531 -63.764 106.548  1.00  0.00    -0.000 C 
ATOM      7  C   UNL     1      99.008 -62.385 106.088  1.00  0.00     0.005 C 
ATOM      8  C   UNL     1      98.319 -62.470 104.732  1.00  0.00     0.005 C 
ATOM      9  C   UNL     1      96.930 -63.101 104.941  1.00  0.00     0.002 C 
ATOM     10  C   UNL     1      95.995 -63.178 103.655  1.00  0.00    -0.026 C 
ATOM     11  C   UNL     1      95.718 -61.752 103.029  1.00  0.00     0.010 C 
ATOM     12  C   UNL     1      94.458 -61.071 103.563  1.00  0.00     0.033 C 
ATOM     13  C   UNL     1      93.181 -61.868 103.209  1.00  0.00     0.120 C 
ATOM     14  C   UNL     1      93.364 -63.441 103.280  1.00  0.00    -0.006 C 
ATOM     15  C   UNL     1      94.623 -63.770 104.171  1.00  0.00     0.003 C 
ATOM     16  C   UNL     1      94.736 -65.219 104.699  1.00  0.00     0.005 C 
ATOM     17  C   UNL     1      96.152 -65.590 105.179  1.00  0.00     0.008 C 
ATOM     18  C   UNL     1      96.989 -64.434 105.855  1.00  0.00    -0.024 C 
ATOM     19  C   UNL     1      98.518 -64.952 106.216  1.00  0.00    -0.024 C 
ATOM     20  C   UNL     1      99.129 -65.802 105.054  1.00  0.00     0.008 C 
ATOM     21  C   UNL     1     100.483 -66.425 105.369  1.00  0.00     0.010 C 
ATOM     22  C   UNL     1      98.469 -65.887 107.478  1.00  0.00     0.012 C 
ATOM     23  C   UNL     1      96.235 -64.097 107.190  1.00  0.00     0.012 C 
ATOM     24  C   UNL     1      93.478 -64.064 101.863  1.00  0.00     0.014 C 
ATOM     25  C   UNL     1      92.089 -64.035 103.934  1.00  0.00     0.014 C 
ATOM     26  C   UNL     1      96.660 -64.060 102.544  1.00  0.00     0.012 C 
ENDROOT
BRANCH   1  27
ATOM     27  C   UNL     1     102.414 -61.747 106.118  1.00  0.00    -0.077 C 
ATOM     28  C   UNL     1     103.374 -61.936 107.269  1.00  0.00     0.039 C 
ATOM     29  C   UNL     1     102.178 -60.498 105.688  1.00  0.00     0.008 C 
ENDBRANCH   1  27
BRANCH   4  30
ATOM     30  C   UNL     1     102.603 -66.063 106.675  1.00  0.00     0.163 C 
BRANCH  30  31
ATOM     31  O   UNL     1     102.422 -65.593 107.986  1.00  0.00    -0.396 OA
ATOM     32  H   UNL     1     103.306 -65.280 108.315  1.00  0.00     0.210 HD
ENDBRANCH  30  31
ENDBRANCH   4  30
BRANCH  13  33
ATOM     33  O   UNL     1      92.720 -61.453 101.946  1.00  0.00    -0.393 OA
ATOM     34  H   UNL     1      91.891 -60.928 102.100  1.00  0.00     0.210 HD
ENDBRANCH  13  33
TORSDOF 4
ENDMDL
MODEL 7
REMARK VINA RESULT:    -6.590      2.228      8.351
REMARK INTER + INTRA:          -8.274
REMARK INTER:                  -7.897
REMARK INTRA:                  -0.377
REMARK UNBOUND:                -0.528
REMARK SMILES C=C(C)[C@H]1CC[C@]2(CO)CC[C@@]3(C)[C@H](CC[C@H]4[C@]5(C)CC[C@@H](O)C(C)(C)[C@H]5CC[C@]43C)[C@H]12
REMARK SMILES IDX 4 1 5 2 6 3 7 4 32 5 14 6 15 7 16 8 17 9 18 10 20 11 21 12
REMARK SMILES IDX 22 13 24 14 27 15 28 16 29 17 30 18 12 19 11 20 10 21 13 22
REMARK SMILES IDX 31 23 25 24 26 25 19 26 2 27 3 28 1 29 8 30 9 31 23 33
REMARK H PARENT 9 32 23 34
REMARK Flexibility Score: inf
ROOT
ATOM      1  C   UNL     1      89.806 -68.754 102.381  1.00  0.00     0.018 C 
ATOM      2  C   UNL     1      89.751 -69.570 101.100  1.00  0.00     0.009 C 
ATOM      3  C   UNL     1      90.608 -68.792 100.138  1.00  0.00     0.010 C 
ATOM      4  C   UNL     1      90.332 -67.300 100.430  1.00  0.00    -0.003 C 
ATOM      5  C   UNL     1      89.956 -67.249 101.964  1.00  0.00     0.008 C 
ATOM      6  C   UNL     1      90.799 -66.306 102.958  1.00  0.00    -0.000 C 
ATOM      7  C   UNL     1      91.143 -66.964 104.313  1.00  0.00     0.005 C 
ATOM      8  C   UNL     1      92.560 -67.523 104.321  1.00  0.00     0.005 C 
ATOM      9  C   UNL     1      93.538 -66.341 104.468  1.00  0.00     0.002 C 
ATOM     10  C   UNL     1      95.077 -66.721 104.611  1.00  0.00    -0.026 C 
ATOM     11  C   UNL     1      95.352 -67.651 105.861  1.00  0.00     0.010 C 
ATOM     12  C   UNL     1      95.706 -66.889 107.139  1.00  0.00     0.033 C 
ATOM     13  C   UNL     1      97.025 -66.098 106.988  1.00  0.00     0.120 C 
ATOM     14  C   UNL     1      97.227 -65.448 105.557  1.00  0.00    -0.006 C 
ATOM     15  C   UNL     1      95.826 -65.347 104.839  1.00  0.00     0.003 C 
ATOM     16  C   UNL     1      95.738 -64.388 103.629  1.00  0.00     0.005 C 
ATOM     17  C   UNL     1      94.515 -64.646 102.728  1.00  0.00     0.008 C 
ATOM     18  C   UNL     1      93.198 -65.129 103.453  1.00  0.00    -0.024 C 
ATOM     19  C   UNL     1      92.014 -65.469 102.350  1.00  0.00    -0.024 C 
ATOM     20  C   UNL     1      92.577 -66.252 101.119  1.00  0.00     0.008 C 
ATOM     21  C   UNL     1      91.570 -66.484 100.000  1.00  0.00     0.010 C 
ATOM     22  C   UNL     1      91.418 -64.125 101.793  1.00  0.00     0.012 C 
ATOM     23  C   UNL     1      92.740 -63.917 104.339  1.00  0.00     0.012 C 
ATOM     24  C   UNL     1      98.255 -66.246 104.711  1.00  0.00     0.014 C 
ATOM     25  C   UNL     1      97.815 -64.028 105.762  1.00  0.00     0.014 C 
ATOM     26  C   UNL     1      95.576 -67.483 103.337  1.00  0.00     0.012 C 
ENDROOT
BRANCH   1  27
ATOM     27  C   UNL     1      88.597 -69.068 103.264  1.00  0.00    -0.077 C 
ATOM     28  C   UNL     1      87.855 -67.983 104.007  1.00  0.00     0.039 C 
ATOM     29  C   UNL     1      88.102 -70.315 103.302  1.00  0.00     0.008 C 
ENDBRANCH   1  27
BRANCH   4  30
ATOM     30  C   UNL     1      89.124 -66.857  99.548  1.00  0.00     0.163 C 
BRANCH  30  31
ATOM     31  O   UNL     1      89.442 -65.710  98.803  1.00  0.00    -0.396 OA
ATOM     32  H   UNL     1      88.683 -65.534  98.187  1.00  0.00     0.210 HD
ENDBRANCH  30  31
ENDBRANCH   4  30
BRANCH  13  33
ATOM     33  O   UNL     1      98.101 -66.935 107.338  1.00  0.00    -0.393 OA
ATOM     34  H   UNL     1      98.711 -66.397 107.909  1.00  0.00     0.210 HD
ENDBRANCH  13  33
TORSDOF 4
ENDMDL
MODEL 8
REMARK VINA RESULT:    -6.463      4.099      9.971
REMARK INTER + INTRA:          -8.125
REMARK INTER:                  -7.459
REMARK INTRA:                  -0.665
REMARK UNBOUND:                -0.528
REMARK SMILES C=C(C)[C@H]1CC[C@]2(CO)CC[C@@]3(C)[C@H](CC[C@H]4[C@]5(C)CC[C@@H](O)C(C)(C)[C@H]5CC[C@]43C)[C@H]12
REMARK SMILES IDX 4 1 5 2 6 3 7 4 32 5 14 6 15 7 16 8 17 9 18 10 20 11 21 12
REMARK SMILES IDX 22 13 24 14 27 15 28 16 29 17 30 18 12 19 11 20 10 21 13 22
REMARK SMILES IDX 31 23 25 24 26 25 19 26 2 27 3 28 1 29 8 30 9 31 23 33
REMARK H PARENT 9 32 23 34
REMARK Flexibility Score: inf
ROOT
ATOM      1  C   UNL     1      95.597 -66.405 102.519  1.00  0.00     0.018 C 
ATOM      2  C   UNL     1      95.029 -66.170 101.129  1.00  0.00     0.009 C 
ATOM      3  C   UNL     1      94.997 -64.670 101.000  1.00  0.00     0.010 C 
ATOM      4  C   UNL     1      94.593 -64.131 102.390  1.00  0.00    -0.003 C 
ATOM      5  C   UNL     1      95.135 -65.203 103.416  1.00  0.00     0.008 C 
ATOM      6  C   UNL     1      96.142 -64.747 104.585  1.00  0.00    -0.000 C 
ATOM      7  C   UNL     1      97.324 -65.716 104.815  1.00  0.00     0.005 C 
ATOM      8  C   UNL     1      98.588 -65.234 104.116  1.00  0.00     0.005 C 
ATOM      9  C   UNL     1      99.175 -64.073 104.939  1.00  0.00     0.002 C 
ATOM     10  C   UNL     1     100.571 -63.494 104.438  1.00  0.00    -0.026 C 
ATOM     11  C   UNL     1     101.702 -64.600 104.406  1.00  0.00     0.010 C 
ATOM     12  C   UNL     1     102.519 -64.694 105.695  1.00  0.00     0.033 C 
ATOM     13  C   UNL     1     103.304 -63.391 105.972  1.00  0.00     0.120 C 
ATOM     14  C   UNL     1     102.517 -62.070 105.587  1.00  0.00    -0.006 C 
ATOM     15  C   UNL     1     100.977 -62.399 105.503  1.00  0.00     0.003 C 
ATOM     16  C   UNL     1     100.010 -61.192 105.546  1.00  0.00     0.005 C 
ATOM     17  C   UNL     1      98.593 -61.521 105.039  1.00  0.00     0.008 C 
ATOM     18  C   UNL     1      98.059 -62.975 105.344  1.00  0.00    -0.024 C 
ATOM     19  C   UNL     1      96.578 -63.213 104.646  1.00  0.00    -0.024 C 
ATOM     20  C   UNL     1      96.525 -62.634 103.194  1.00  0.00     0.008 C 
ATOM     21  C   UNL     1      95.152 -62.698 102.536  1.00  0.00     0.010 C 
ATOM     22  C   UNL     1      95.481 -62.451 105.473  1.00  0.00     0.012 C 
ATOM     23  C   UNL     1      97.905 -63.046 106.905  1.00  0.00     0.012 C 
ATOM     24  C   UNL     1     103.052 -61.456 104.266  1.00  0.00     0.014 C 
ATOM     25  C   UNL     1     102.771 -61.027 106.706  1.00  0.00     0.014 C 
ATOM     26  C   UNL     1     100.437 -62.914 102.988  1.00  0.00     0.012 C 
ENDROOT
BRANCH   1  27
ATOM     27  C   UNL     1      95.197 -67.790 103.030  1.00  0.00    -0.077 C 
ATOM     28  C   UNL     1      96.207 -68.903 103.180  1.00  0.00     0.039 C 
ATOM     29  C   UNL     1      93.945 -68.007 103.465  1.00  0.00     0.008 C 
ENDBRANCH   1  27
BRANCH   4  30
ATOM     30  C   UNL     1      93.036 -64.055 102.438  1.00  0.00     0.163 C 
BRANCH  30  31
ATOM     31  O   UNL     1      92.585 -63.853 103.753  1.00  0.00    -0.396 OA
ATOM     32  H   UNL     1      92.961 -64.584 104.312  1.00  0.00     0.210 HD
ENDBRANCH  30  31
ENDBRANCH   4  30
BRANCH  13  33
ATOM     33  O   UNL     1     104.551 -63.464 105.324  1.00  0.00    -0.393 OA
ATOM     34  H   UNL     1     105.242 -63.248 106.004  1.00  0.00     0.210 HD
ENDBRANCH  13  33
TORSDOF 4
ENDMDL
