MODEL 1
REMARK VINA RESULT:    14.538      0.000      0.000
REMARK INTER + INTRA:          37.022
REMARK INTER:                  38.336
REMARK INTRA:                  -1.313
REMARK UNBOUND:                -1.313
REMARK SMILES CCCCCCCCCCCCCCCCCCCCCCCCCCCCCC(=O)[O-]
REMARK SMILES IDX 16 1 17 2 18 3 19 4 20 5 21 6 22 7 23 8 24 9 25 10 26 11
REMARK SMILES IDX 27 12 28 13 29 14 30 15 31 16 32 17 15 18 14 19 13 20 12 21
REMARK SMILES IDX 11 22 10 23 9 24 8 25 7 26 6 27 5 28 4 29 3 30 2 31 1 32
REMARK H PARENT
REMARK Flexibility Score: inf
ROOT
ATOM      1  C   UNL     1      83.937  13.379 108.958  1.00  0.00     0.000 C 
ENDROOT
BRANCH   1   2
ATOM      2  C   UNL     1      83.016  14.478 108.399  1.00  0.00     0.000 C 
BRANCH   2   3
ATOM      3  C   UNL     1      83.137  14.612 106.870  1.00  0.00     0.000 C 
BRANCH   3   4
ATOM      4  C   UNL     1      83.997  15.812 106.442  1.00  0.00     0.000 C 
BRANCH   4   5
ATOM      5  C   UNL     1      84.687  16.500 107.634  1.00  0.00     0.000 C 
BRANCH   5   6
ATOM      6  C   UNL     1      84.389  18.009 107.710  1.00  0.00     0.000 C 
BRANCH   6   7
ATOM      7  C   UNL     1      85.626  18.918 107.874  1.00  0.00     0.000 C 
BRANCH   7   8
ATOM      8  C   UNL     1      86.121  19.097 109.324  1.00  0.00     0.000 C 
BRANCH   8   9
ATOM      9  C   UNL     1      87.319  20.051 109.483  1.00  0.00     0.000 C 
BRANCH   9  10
ATOM     10  C   UNL     1      86.927  21.526 109.297  1.00  0.00     0.000 C 
BRANCH  10  11
ATOM     11  C   UNL     1      87.864  22.477 110.063  1.00  0.00     0.000 C 
BRANCH  11  12
ATOM     12  C   UNL     1      88.398  21.881 111.387  1.00  0.00     0.000 C 
BRANCH  12  13
ATOM     13  C   UNL     1      89.783  22.422 111.789  1.00  0.00     0.006 C 
BRANCH  13  14
ATOM     14  C   UNL     1      90.413  21.691 112.984  1.00  0.00     0.053 C 
BRANCH  14  15
ATOM     15  C   UNL     1      91.088  20.418 112.565  1.00  0.00     0.041 C 
ATOM     16  O   UNL     1      92.150  20.453 111.893  1.00  0.00    -0.550 OA
ATOM     17  O   UNL     1      90.539  19.190 112.920  1.00  0.00    -0.550 OA
ENDBRANCH  14  15
ENDBRANCH  13  14
ENDBRANCH  12  13
ENDBRANCH  11  12
ENDBRANCH  10  11
ENDBRANCH   9  10
ENDBRANCH   8   9
ENDBRANCH   7   8
ENDBRANCH   6   7
ENDBRANCH   5   6
ENDBRANCH   4   5
ENDBRANCH   3   4
ENDBRANCH   2   3
ENDBRANCH   1   2
BRANCH   1  18
ATOM     18  C   UNL     1      85.419  13.791 108.954  1.00  0.00     0.000 C 
BRANCH  18  19
ATOM     19  C   UNL     1      86.265  12.963 107.970  1.00  0.00     0.000 C 
BRANCH  19  20
ATOM     20  C   UNL     1      86.966  13.780 106.872  1.00  0.00     0.000 C 
BRANCH  20  21
ATOM     21  C   UNL     1      88.493  13.585 106.867  1.00  0.00     0.000 C 
BRANCH  21  22
ATOM     22  C   UNL     1      88.969  12.752 105.663  1.00  0.00     0.000 C 
BRANCH  22  23
ATOM     23  C   UNL     1      88.553  11.269 105.730  1.00  0.00     0.000 C 
BRANCH  23  24
ATOM     24  C   UNL     1      89.749  10.336 105.991  1.00  0.00    -0.000 C 
BRANCH  24  25
ATOM     25  C   UNL     1      89.923   9.993 107.486  1.00  0.00    -0.000 C 
BRANCH  25  26
ATOM     26  C   UNL     1      90.809   8.760 107.749  1.00  0.00    -0.000 C 
BRANCH  26  27
ATOM     27  C   UNL     1      90.074   7.408 107.751  1.00  0.00    -0.000 C 
BRANCH  27  28
ATOM     28  C   UNL     1      89.692   6.875 109.145  1.00  0.00    -0.000 C 
BRANCH  28  29
ATOM     29  C   UNL     1      89.019   7.936 110.028  1.00  0.00    -0.000 C 
BRANCH  29  30
ATOM     30  C   UNL     1      87.623   7.478 110.466  1.00  0.00    -0.000 C 
BRANCH  30  31
ATOM     31  C   UNL     1      87.653   6.895 111.882  1.00  0.00    -0.003 C 
ATOM     32  C   UNL     1      86.334   7.143 112.609  1.00  0.00     0.004 C 
ENDBRANCH  30  31
ENDBRANCH  29  30
ENDBRANCH  28  29
ENDBRANCH  27  28
ENDBRANCH  26  27
ENDBRANCH  25  26
ENDBRANCH  24  25
ENDBRANCH  23  24
ENDBRANCH  22  23
ENDBRANCH  21  22
ENDBRANCH  20  21
ENDBRANCH  19  20
ENDBRANCH  18  19
ENDBRANCH   1  18
TORSDOF 28
ENDMDL
MODEL 2
REMARK VINA RESULT:    14.627      0.973      1.974
REMARK INTER + INTRA:          37.255
REMARK INTER:                  38.275
REMARK INTRA:                  -1.020
REMARK UNBOUND:                -1.313
REMARK SMILES CCCCCCCCCCCCCCCCCCCCCCCCCCCCCC(=O)[O-]
REMARK SMILES IDX 16 1 17 2 18 3 19 4 20 5 21 6 22 7 23 8 24 9 25 10 26 11
REMARK SMILES IDX 27 12 28 13 29 14 30 15 31 16 32 17 15 18 14 19 13 20 12 21
REMARK SMILES IDX 11 22 10 23 9 24 8 25 7 26 6 27 5 28 4 29 3 30 2 31 1 32
REMARK H PARENT
REMARK Flexibility Score: inf
ROOT
ATOM      1  C   UNL     1      83.087  14.528 107.289  1.00  0.00     0.000 C 
ENDROOT
BRANCH   1   2
ATOM      2  C   UNL     1      83.741  15.700 106.537  1.00  0.00     0.000 C 
BRANCH   2   3
ATOM      3  C   UNL     1      84.806  16.412 107.390  1.00  0.00     0.000 C 
BRANCH   3   4
ATOM      4  C   UNL     1      84.345  17.790 107.893  1.00  0.00     0.000 C 
BRANCH   4   5
ATOM      5  C   UNL     1      85.434  18.520 108.698  1.00  0.00     0.000 C 
BRANCH   5   6
ATOM      6  C   UNL     1      86.030  19.724 107.945  1.00  0.00     0.000 C 
BRANCH   6   7
ATOM      7  C   UNL     1      85.968  21.071 108.699  1.00  0.00     0.000 C 
BRANCH   7   8
ATOM      8  C   UNL     1      87.287  21.511 109.365  1.00  0.00     0.000 C 
BRANCH   8   9
ATOM      9  C   UNL     1      87.826  20.540 110.431  1.00  0.00     0.000 C 
BRANCH   9  10
ATOM     10  C   UNL     1      88.286  21.263 111.709  1.00  0.00     0.000 C 
BRANCH  10  11
ATOM     11  C   UNL     1      88.840  22.668 111.415  1.00  0.00     0.000 C 
BRANCH  11  12
ATOM     12  C   UNL     1      89.968  23.100 112.383  1.00  0.00     0.000 C 
BRANCH  12  13
ATOM     13  C   UNL     1      90.772  21.917 112.953  1.00  0.00     0.006 C 
BRANCH  13  14
ATOM     14  C   UNL     1      91.703  21.248 111.931  1.00  0.00     0.053 C 
BRANCH  14  15
ATOM     15  C   UNL     1      92.016  19.829 112.306  1.00  0.00     0.041 C 
ATOM     16  O   UNL     1      93.173  19.368 112.135  1.00  0.00    -0.550 OA
ATOM     17  O   UNL     1      91.024  19.017 112.844  1.00  0.00    -0.550 OA
ENDBRANCH  14  15
ENDBRANCH  13  14
ENDBRANCH  12  13
ENDBRANCH  11  12
ENDBRANCH  10  11
ENDBRANCH   9  10
ENDBRANCH   8   9
ENDBRANCH   7   8
ENDBRANCH   6   7
ENDBRANCH   5   6
ENDBRANCH   4   5
ENDBRANCH   3   4
ENDBRANCH   2   3
ENDBRANCH   1   2
BRANCH   1  18
ATOM     18  C   UNL     1      83.510  14.463 108.766  1.00  0.00     0.000 C 
BRANCH  18  19
ATOM     19  C   UNL     1      84.764  13.599 108.989  1.00  0.00     0.000 C 
BRANCH  19  20
ATOM     20  C   UNL     1      85.448  13.107 107.702  1.00  0.00     0.000 C 
BRANCH  20  21
ATOM     21  C   UNL     1      86.856  13.699 107.510  1.00  0.00     0.000 C 
BRANCH  21  22
ATOM     22  C   UNL     1      87.877  12.639 107.060  1.00  0.00     0.000 C 
BRANCH  22  23
ATOM     23  C   UNL     1      88.671  13.036 105.800  1.00  0.00     0.000 C 
BRANCH  23  24
ATOM     24  C   UNL     1      89.398  11.838 105.164  1.00  0.00    -0.000 C 
BRANCH  24  25
ATOM     25  C   UNL     1      89.232  10.537 105.980  1.00  0.00    -0.000 C 
BRANCH  25  26
ATOM     26  C   UNL     1      90.557   9.810 106.279  1.00  0.00    -0.000 C 
BRANCH  26  27
ATOM     27  C   UNL     1      90.497   8.273 106.203  1.00  0.00    -0.000 C 
BRANCH  27  28
ATOM     28  C   UNL     1      90.780   7.543 107.529  1.00  0.00    -0.000 C 
BRANCH  28  29
ATOM     29  C   UNL     1      89.946   8.083 108.699  1.00  0.00    -0.000 C 
BRANCH  29  30
ATOM     30  C   UNL     1      89.015   6.998 109.255  1.00  0.00    -0.000 C 
BRANCH  30  31
ATOM     31  C   UNL     1      88.450   7.403 110.620  1.00  0.00    -0.003 C 
ATOM     32  C   UNL     1      86.965   7.744 110.522  1.00  0.00     0.004 C 
ENDBRANCH  30  31
ENDBRANCH  29  30
ENDBRANCH  28  29
ENDBRANCH  27  28
ENDBRANCH  26  27
ENDBRANCH  25  26
ENDBRANCH  24  25
ENDBRANCH  23  24
ENDBRANCH  22  23
ENDBRANCH  21  22
ENDBRANCH  20  21
ENDBRANCH  19  20
ENDBRANCH  18  19
ENDBRANCH   1  18
TORSDOF 28
ENDMDL
MODEL 3
REMARK VINA RESULT:    15.145      3.353     11.265
REMARK INTER + INTRA:          38.621
REMARK INTER:                  39.282
REMARK INTRA:                  -0.661
REMARK UNBOUND:                -1.313
REMARK SMILES CCCCCCCCCCCCCCCCCCCCCCCCCCCCCC(=O)[O-]
REMARK SMILES IDX 16 1 17 2 18 3 19 4 20 5 21 6 22 7 23 8 24 9 25 10 26 11
REMARK SMILES IDX 27 12 28 13 29 14 30 15 31 16 32 17 15 18 14 19 13 20 12 21
REMARK SMILES IDX 11 22 10 23 9 24 8 25 7 26 6 27 5 28 4 29 3 30 2 31 1 32
REMARK H PARENT
REMARK Flexibility Score: inf
ROOT
ATOM      1  C   UNL     1      85.624  13.365 107.236  1.00  0.00     0.000 C 
ENDROOT
BRANCH   1   2
ATOM      2  C   UNL     1      87.041  12.779 107.359  1.00  0.00     0.000 C 
BRANCH   2   3
ATOM      3  C   UNL     1      88.094  13.661 106.665  1.00  0.00     0.000 C 
BRANCH   3   4
ATOM      4  C   UNL     1      89.185  12.842 105.955  1.00  0.00     0.000 C 
BRANCH   4   5
ATOM      5  C   UNL     1      89.260  11.392 106.464  1.00  0.00     0.000 C 
BRANCH   5   6
ATOM      6  C   UNL     1      88.968  10.354 105.364  1.00  0.00     0.000 C 
BRANCH   6   7
ATOM      7  C   UNL     1      89.758   9.032 105.478  1.00  0.00     0.000 C 
BRANCH   7   8
ATOM      8  C   UNL     1      90.884   9.029 106.533  1.00  0.00     0.000 C 
BRANCH   8   9
ATOM      9  C   UNL     1      91.570   7.667 106.739  1.00  0.00     0.000 C 
BRANCH   9  10
ATOM     10  C   UNL     1      91.257   7.051 108.113  1.00  0.00     0.000 C 
BRANCH  10  11
ATOM     11  C   UNL     1      90.762   8.102 109.122  1.00  0.00     0.000 C 
BRANCH  11  12
ATOM     12  C   UNL     1      89.227   8.301 109.100  1.00  0.00     0.000 C 
BRANCH  12  13
ATOM     13  C   UNL     1      88.440   7.049 109.528  1.00  0.00     0.006 C 
BRANCH  13  14
ATOM     14  C   UNL     1      88.307   6.889 111.050  1.00  0.00     0.053 C 
BRANCH  14  15
ATOM     15  C   UNL     1      87.109   7.618 111.584  1.00  0.00     0.041 C 
ATOM     16  O   UNL     1      86.236   8.066 110.798  1.00  0.00    -0.550 OA
ATOM     17  O   UNL     1      86.960   7.802 112.954  1.00  0.00    -0.550 OA
ENDBRANCH  14  15
ENDBRANCH  13  14
ENDBRANCH  12  13
ENDBRANCH  11  12
ENDBRANCH  10  11
ENDBRANCH   9  10
ENDBRANCH   8   9
ENDBRANCH   7   8
ENDBRANCH   6   7
ENDBRANCH   5   6
ENDBRANCH   4   5
ENDBRANCH   3   4
ENDBRANCH   2   3
ENDBRANCH   1   2
BRANCH   1  18
ATOM     18  C   UNL     1      84.881  13.403 108.583  1.00  0.00     0.000 C 
BRANCH  18  19
ATOM     19  C   UNL     1      83.451  13.961 108.458  1.00  0.00     0.000 C 
BRANCH  19  20
ATOM     20  C   UNL     1      83.277  15.063 107.399  1.00  0.00     0.000 C 
BRANCH  20  21
ATOM     21  C   UNL     1      84.490  16.005 107.313  1.00  0.00     0.000 C 
BRANCH  21  22
ATOM     22  C   UNL     1      84.337  17.236 108.225  1.00  0.00     0.000 C 
BRANCH  22  23
ATOM     23  C   UNL     1      85.027  18.502 107.680  1.00  0.00     0.000 C 
BRANCH  23  24
ATOM     24  C   UNL     1      86.247  18.914 108.524  1.00  0.00    -0.000 C 
BRANCH  24  25
ATOM     25  C   UNL     1      86.086  20.311 109.163  1.00  0.00    -0.000 C 
BRANCH  25  26
ATOM     26  C   UNL     1      86.931  20.521 110.434  1.00  0.00    -0.000 C 
BRANCH  26  27
ATOM     27  C   UNL     1      87.953  21.671 110.364  1.00  0.00    -0.000 C 
BRANCH  27  28
ATOM     28  C   UNL     1      89.313  21.375 111.022  1.00  0.00    -0.000 C 
BRANCH  28  29
ATOM     29  C   UNL     1      89.574  22.233 112.268  1.00  0.00    -0.000 C 
BRANCH  29  30
ATOM     30  C   UNL     1      90.327  21.431 113.336  1.00  0.00    -0.000 C 
BRANCH  30  31
ATOM     31  C   UNL     1      90.940  20.159 112.741  1.00  0.00    -0.003 C 
ATOM     32  C   UNL     1      92.246  20.466 112.011  1.00  0.00     0.004 C 
ENDBRANCH  30  31
ENDBRANCH  29  30
ENDBRANCH  28  29
ENDBRANCH  27  28
ENDBRANCH  26  27
ENDBRANCH  25  26
ENDBRANCH  24  25
ENDBRANCH  23  24
ENDBRANCH  22  23
ENDBRANCH  21  22
ENDBRANCH  20  21
ENDBRANCH  19  20
ENDBRANCH  18  19
ENDBRANCH   1  18
TORSDOF 28
ENDMDL
MODEL 4
REMARK VINA RESULT:    15.258      1.308      3.269
REMARK INTER + INTRA:          38.920
REMARK INTER:                  38.493
REMARK INTRA:                   0.427
REMARK UNBOUND:                -1.313
REMARK SMILES CCCCCCCCCCCCCCCCCCCCCCCCCCCCCC(=O)[O-]
REMARK SMILES IDX 16 1 17 2 18 3 19 4 20 5 21 6 22 7 23 8 24 9 25 10 26 11
REMARK SMILES IDX 27 12 28 13 29 14 30 15 31 16 32 17 15 18 14 19 13 20 12 21
REMARK SMILES IDX 11 22 10 23 9 24 8 25 7 26 6 27 5 28 4 29 3 30 2 31 1 32
REMARK H PARENT
REMARK Flexibility Score: inf
ROOT
ATOM      1  C   UNL     1      82.826  14.371 106.858  1.00  0.00     0.000 C 
ENDROOT
BRANCH   1   2
ATOM      2  C   UNL     1      84.038  15.306 106.702  1.00  0.00     0.000 C 
BRANCH   2   3
ATOM      3  C   UNL     1      83.735  16.732 107.195  1.00  0.00     0.000 C 
BRANCH   3   4
ATOM      4  C   UNL     1      84.987  17.623 107.249  1.00  0.00     0.000 C 
BRANCH   4   5
ATOM      5  C   UNL     1      84.879  18.730 108.313  1.00  0.00     0.000 C 
BRANCH   5   6
ATOM      6  C   UNL     1      86.252  19.221 108.809  1.00  0.00     0.000 C 
BRANCH   6   7
ATOM      7  C   UNL     1      86.327  20.724 109.159  1.00  0.00     0.000 C 
BRANCH   7   8
ATOM      8  C   UNL     1      87.689  21.203 109.702  1.00  0.00     0.000 C 
BRANCH   8   9
ATOM      9  C   UNL     1      87.644  21.792 111.124  1.00  0.00     0.000 C 
BRANCH   9  10
ATOM     10  C   UNL     1      88.944  21.541 111.907  1.00  0.00     0.000 C 
BRANCH  10  11
ATOM     11  C   UNL     1      89.983  22.653 111.680  1.00  0.00     0.000 C 
BRANCH  11  12
ATOM     12  C   UNL     1      90.736  23.065 112.968  1.00  0.00     0.000 C 
BRANCH  12  13
ATOM     13  C   UNL     1      90.760  21.962 114.043  1.00  0.00     0.006 C 
BRANCH  13  14
ATOM     14  C   UNL     1      91.906  20.954 113.873  1.00  0.00     0.053 C 
BRANCH  14  15
ATOM     15  C   UNL     1      91.691  20.061 112.687  1.00  0.00     0.041 C 
ATOM     16  O   UNL     1      92.370  20.221 111.640  1.00  0.00    -0.550 OA
ATOM     17  O   UNL     1      90.739  19.050 112.740  1.00  0.00    -0.550 OA
ENDBRANCH  14  15
ENDBRANCH  13  14
ENDBRANCH  12  13
ENDBRANCH  11  12
ENDBRANCH  10  11
ENDBRANCH   9  10
ENDBRANCH   8   9
ENDBRANCH   7   8
ENDBRANCH   6   7
ENDBRANCH   5   6
ENDBRANCH   4   5
ENDBRANCH   3   4
ENDBRANCH   2   3
ENDBRANCH   1   2
BRANCH   1  18
ATOM     18  C   UNL     1      83.233  12.930 107.214  1.00  0.00     0.000 C 
BRANCH  18  19
ATOM     19  C   UNL     1      83.100  12.628 108.717  1.00  0.00     0.000 C 
BRANCH  19  20
ATOM     20  C   UNL     1      83.478  13.793 109.647  1.00  0.00     0.000 C 
BRANCH  20  21
ATOM     21  C   UNL     1      84.998  14.022 109.728  1.00  0.00     0.000 C 
BRANCH  21  22
ATOM     22  C   UNL     1      85.725  13.566 108.450  1.00  0.00     0.000 C 
BRANCH  22  23
ATOM     23  C   UNL     1      86.849  14.520 108.000  1.00  0.00     0.000 C 
BRANCH  23  24
ATOM     24  C   UNL     1      87.557  14.030 106.724  1.00  0.00    -0.000 C 
BRANCH  24  25
ATOM     25  C   UNL     1      88.632  12.959 107.013  1.00  0.00    -0.000 C 
BRANCH  25  26
ATOM     26  C   UNL     1      88.951  12.049 105.811  1.00  0.00    -0.000 C 
BRANCH  26  27
ATOM     27  C   UNL     1      90.033  10.983 106.060  1.00  0.00    -0.000 C 
BRANCH  27  28
ATOM     28  C   UNL     1      89.652   9.554 105.630  1.00  0.00    -0.000 C 
BRANCH  28  29
ATOM     29  C   UNL     1      90.566   8.481 106.240  1.00  0.00    -0.000 C 
BRANCH  29  30
ATOM     30  C   UNL     1      90.480   8.495 107.771  1.00  0.00    -0.000 C 
BRANCH  30  31
ATOM     31  C   UNL     1      90.407   7.072 108.332  1.00  0.00    -0.003 C 
ATOM     32  C   UNL     1      89.428   6.989 109.500  1.00  0.00     0.004 C 
ENDBRANCH  30  31
ENDBRANCH  29  30
ENDBRANCH  28  29
ENDBRANCH  27  28
ENDBRANCH  26  27
ENDBRANCH  25  26
ENDBRANCH  24  25
ENDBRANCH  23  24
ENDBRANCH  22  23
ENDBRANCH  21  22
ENDBRANCH  20  21
ENDBRANCH  19  20
ENDBRANCH  18  19
ENDBRANCH   1  18
TORSDOF 28
ENDMDL
MODEL 5
REMARK VINA RESULT:    15.487      3.832     10.572
REMARK INTER + INTRA:          39.525
REMARK INTER:                  40.254
REMARK INTRA:                  -0.729
REMARK UNBOUND:                -1.313
REMARK SMILES CCCCCCCCCCCCCCCCCCCCCCCCCCCCCC(=O)[O-]
REMARK SMILES IDX 16 1 17 2 18 3 19 4 20 5 21 6 22 7 23 8 24 9 25 10 26 11
REMARK SMILES IDX 27 12 28 13 29 14 30 15 31 16 32 17 15 18 14 19 13 20 12 21
REMARK SMILES IDX 11 22 10 23 9 24 8 25 7 26 6 27 5 28 4 29 3 30 2 31 1 32
REMARK H PARENT
REMARK Flexibility Score: inf
ROOT
ATOM      1  C   UNL     1      83.172  13.851 106.756  1.00  0.00     0.000 C 
ENDROOT
BRANCH   1   2
ATOM      2  C   UNL     1      82.888  13.008 108.011  1.00  0.00     0.000 C 
BRANCH   2   3
ATOM      3  C   UNL     1      82.883  13.860 109.292  1.00  0.00     0.000 C 
BRANCH   3   4
ATOM      4  C   UNL     1      84.255  13.908 109.983  1.00  0.00     0.000 C 
BRANCH   4   5
ATOM      5  C   UNL     1      85.376  13.316 109.112  1.00  0.00     0.000 C 
BRANCH   5   6
ATOM      6  C   UNL     1      86.375  14.378 108.616  1.00  0.00     0.000 C 
BRANCH   6   7
ATOM      7  C   UNL     1      86.893  14.176 107.175  1.00  0.00     0.000 C 
BRANCH   7   8
ATOM      8  C   UNL     1      88.310  13.576 107.065  1.00  0.00     0.000 C 
BRANCH   8   9
ATOM      9  C   UNL     1      89.031  13.866 105.737  1.00  0.00     0.000 C 
BRANCH   9  10
ATOM     10  C   UNL     1      89.050  12.648 104.798  1.00  0.00     0.000 C 
BRANCH  10  11
ATOM     11  C   UNL     1      88.752  11.336 105.543  1.00  0.00     0.000 C 
BRANCH  11  12
ATOM     12  C   UNL     1      90.017  10.494 105.838  1.00  0.00     0.000 C 
BRANCH  12  13
ATOM     13  C   UNL     1      89.719   9.180 106.585  1.00  0.00     0.006 C 
BRANCH  13  14
ATOM     14  C   UNL     1      90.855   8.150 106.505  1.00  0.00     0.053 C 
BRANCH  14  15
ATOM     15  C   UNL     1      91.153   7.544 107.845  1.00  0.00     0.041 C 
ATOM     16  O   UNL     1      90.241   7.421 108.703  1.00  0.00    -0.550 OA
ATOM     17  O   UNL     1      92.441   7.114 108.144  1.00  0.00    -0.550 OA
ENDBRANCH  14  15
ENDBRANCH  13  14
ENDBRANCH  12  13
ENDBRANCH  11  12
ENDBRANCH  10  11
ENDBRANCH   9  10
ENDBRANCH   8   9
ENDBRANCH   7   8
ENDBRANCH   6   7
ENDBRANCH   5   6
ENDBRANCH   4   5
ENDBRANCH   3   4
ENDBRANCH   2   3
ENDBRANCH   1   2
BRANCH   1  18
ATOM     18  C   UNL     1      83.022  15.361 107.012  1.00  0.00     0.000 C 
BRANCH  18  19
ATOM     19  C   UNL     1      84.367  16.052 107.298  1.00  0.00     0.000 C 
BRANCH  19  20
ATOM     20  C   UNL     1      84.336  17.588 107.218  1.00  0.00     0.000 C 
BRANCH  20  21
ATOM     21  C   UNL     1      84.778  18.263 108.529  1.00  0.00     0.000 C 
BRANCH  21  22
ATOM     22  C   UNL     1      86.201  18.843 108.433  1.00  0.00     0.000 C 
BRANCH  22  23
ATOM     23  C   UNL     1      86.272  20.360 108.699  1.00  0.00     0.000 C 
BRANCH  23  24
ATOM     24  C   UNL     1      87.510  20.752 109.526  1.00  0.00    -0.000 C 
BRANCH  24  25
ATOM     25  C   UNL     1      87.146  21.282 110.930  1.00  0.00    -0.000 C 
BRANCH  25  26
ATOM     26  C   UNL     1      88.357  21.473 111.863  1.00  0.00    -0.000 C 
BRANCH  26  27
ATOM     27  C   UNL     1      89.264  22.671 111.530  1.00  0.00    -0.000 C 
BRANCH  27  28
ATOM     28  C   UNL     1      90.412  22.918 112.527  1.00  0.00    -0.000 C 
BRANCH  28  29
ATOM     29  C   UNL     1      90.939  21.625 113.165  1.00  0.00    -0.000 C 
BRANCH  29  30
ATOM     30  C   UNL     1      92.264  21.198 112.521  1.00  0.00    -0.000 C 
BRANCH  30  31
ATOM     31  C   UNL     1      92.224  19.724 112.105  1.00  0.00    -0.003 C 
ATOM     32  C   UNL     1      93.472  19.341 111.313  1.00  0.00     0.004 C 
ENDBRANCH  30  31
ENDBRANCH  29  30
ENDBRANCH  28  29
ENDBRANCH  27  28
ENDBRANCH  26  27
ENDBRANCH  25  26
ENDBRANCH  24  25
ENDBRANCH  23  24
ENDBRANCH  22  23
ENDBRANCH  21  22
ENDBRANCH  20  21
ENDBRANCH  19  20
ENDBRANCH  18  19
ENDBRANCH   1  18
TORSDOF 28
ENDMDL
MODEL 6
REMARK VINA RESULT:    15.710      3.391     10.991
REMARK INTER + INTRA:          40.113
REMARK INTER:                  41.492
REMARK INTRA:                  -1.379
REMARK UNBOUND:                -1.313
REMARK SMILES CCCCCCCCCCCCCCCCCCCCCCCCCCCCCC(=O)[O-]
REMARK SMILES IDX 16 1 17 2 18 3 19 4 20 5 21 6 22 7 23 8 24 9 25 10 26 11
REMARK SMILES IDX 27 12 28 13 29 14 30 15 31 16 32 17 15 18 14 19 13 20 12 21
REMARK SMILES IDX 11 22 10 23 9 24 8 25 7 26 6 27 5 28 4 29 3 30 2 31 1 32
REMARK H PARENT
REMARK Flexibility Score: inf
ROOT
ATOM      1  C   UNL     1      83.443  14.052 106.935  1.00  0.00     0.000 C 
ENDROOT
BRANCH   1   2
ATOM      2  C   UNL     1      84.045  12.927 107.796  1.00  0.00     0.000 C 
BRANCH   2   3
ATOM      3  C   UNL     1      84.797  13.476 109.022  1.00  0.00     0.000 C 
BRANCH   3   4
ATOM      4  C   UNL     1      86.265  13.816 108.718  1.00  0.00     0.000 C 
BRANCH   4   5
ATOM      5  C   UNL     1      86.704  13.344 107.321  1.00  0.00     0.000 C 
BRANCH   5   6
ATOM      6  C   UNL     1      88.087  13.886 106.912  1.00  0.00     0.000 C 
BRANCH   6   7
ATOM      7  C   UNL     1      88.933  12.939 106.032  1.00  0.00     0.000 C 
BRANCH   7   8
ATOM      8  C   UNL     1      88.622  11.437 106.198  1.00  0.00     0.000 C 
BRANCH   8   9
ATOM      9  C   UNL     1      89.815  10.500 105.939  1.00  0.00     0.000 C 
BRANCH   9  10
ATOM     10  C   UNL     1      90.136   9.606 107.148  1.00  0.00     0.000 C 
BRANCH  10  11
ATOM     11  C   UNL     1      90.625   8.210 106.725  1.00  0.00     0.000 C 
BRANCH  11  12
ATOM     12  C   UNL     1      90.794   7.231 107.911  1.00  0.00     0.000 C 
BRANCH  12  13
ATOM     13  C   UNL     1      89.988   7.635 109.160  1.00  0.00     0.006 C 
BRANCH  13  14
ATOM     14  C   UNL     1      88.467   7.511 108.985  1.00  0.00     0.053 C 
BRANCH  14  15
ATOM     15  C   UNL     1      87.754   7.492 110.304  1.00  0.00     0.041 C 
ATOM     16  O   UNL     1      86.520   7.730 110.363  1.00  0.00    -0.550 OA
ATOM     17  O   UNL     1      88.456   7.212 111.471  1.00  0.00    -0.550 OA
ENDBRANCH  14  15
ENDBRANCH  13  14
ENDBRANCH  12  13
ENDBRANCH  11  12
ENDBRANCH  10  11
ENDBRANCH   9  10
ENDBRANCH   8   9
ENDBRANCH   7   8
ENDBRANCH   6   7
ENDBRANCH   5   6
ENDBRANCH   4   5
ENDBRANCH   3   4
ENDBRANCH   2   3
ENDBRANCH   1   2
BRANCH   1  18
ATOM     18  C   UNL     1      83.330  15.384 107.697  1.00  0.00     0.000 C 
BRANCH  18  19
ATOM     19  C   UNL     1      84.412  16.399 107.285  1.00  0.00     0.000 C 
BRANCH  19  20
ATOM     20  C   UNL     1      83.890  17.815 106.988  1.00  0.00     0.000 C 
BRANCH  20  21
ATOM     21  C   UNL     1      84.838  18.917 107.495  1.00  0.00     0.000 C 
BRANCH  21  22
ATOM     22  C   UNL     1      85.784  18.410 108.598  1.00  0.00     0.000 C 
BRANCH  22  23
ATOM     23  C   UNL     1      86.998  19.327 108.846  1.00  0.00     0.000 C 
BRANCH  23  24
ATOM     24  C   UNL     1      86.607  20.634 109.559  1.00  0.00    -0.000 C 
BRANCH  24  25
ATOM     25  C   UNL     1      87.683  21.733 109.421  1.00  0.00    -0.000 C 
BRANCH  25  26
ATOM     26  C   UNL     1      88.134  22.343 110.763  1.00  0.00    -0.000 C 
BRANCH  26  27
ATOM     27  C   UNL     1      88.056  21.398 111.975  1.00  0.00    -0.000 C 
BRANCH  27  28
ATOM     28  C   UNL     1      89.347  21.298 112.809  1.00  0.00    -0.000 C 
BRANCH  28  29
ATOM     29  C   UNL     1      90.440  22.268 112.339  1.00  0.00    -0.000 C 
BRANCH  29  30
ATOM     30  C   UNL     1      91.834  21.737 112.695  1.00  0.00    -0.000 C 
BRANCH  30  31
ATOM     31  C   UNL     1      91.824  20.211 112.830  1.00  0.00    -0.003 C 
ATOM     32  C   UNL     1      92.811  19.565 111.861  1.00  0.00     0.004 C 
ENDBRANCH  30  31
ENDBRANCH  29  30
ENDBRANCH  28  29
ENDBRANCH  27  28
ENDBRANCH  26  27
ENDBRANCH  25  26
ENDBRANCH  24  25
ENDBRANCH  23  24
ENDBRANCH  22  23
ENDBRANCH  21  22
ENDBRANCH  20  21
ENDBRANCH  19  20
ENDBRANCH  18  19
ENDBRANCH   1  18
TORSDOF 28
ENDMDL
MODEL 7
REMARK VINA RESULT:    15.877      1.554      2.780
REMARK INTER + INTRA:          40.551
REMARK INTER:                  41.103
REMARK INTRA:                  -0.551
REMARK UNBOUND:                -1.313
REMARK SMILES CCCCCCCCCCCCCCCCCCCCCCCCCCCCCC(=O)[O-]
REMARK SMILES IDX 16 1 17 2 18 3 19 4 20 5 21 6 22 7 23 8 24 9 25 10 26 11
REMARK SMILES IDX 27 12 28 13 29 14 30 15 31 16 32 17 15 18 14 19 13 20 12 21
REMARK SMILES IDX 11 22 10 23 9 24 8 25 7 26 6 27 5 28 4 29 3 30 2 31 1 32
REMARK H PARENT
REMARK Flexibility Score: inf
ROOT
ATOM      1  C   UNL     1      82.648  13.841 107.304  1.00  0.00     0.000 C 
ENDROOT
BRANCH   1   2
ATOM      2  C   UNL     1      83.471  14.834 106.465  1.00  0.00     0.000 C 
BRANCH   2   3
ATOM      3  C   UNL     1      83.328  16.279 106.975  1.00  0.00     0.000 C 
BRANCH   3   4
ATOM      4  C   UNL     1      84.617  16.816 107.617  1.00  0.00     0.000 C 
BRANCH   4   5
ATOM      5  C   UNL     1      84.676  18.354 107.628  1.00  0.00     0.000 C 
BRANCH   5   6
ATOM      6  C   UNL     1      86.051  18.899 108.057  1.00  0.00     0.000 C 
BRANCH   6   7
ATOM      7  C   UNL     1      86.011  20.089 109.041  1.00  0.00     0.000 C 
BRANCH   7   8
ATOM      8  C   UNL     1      87.182  20.150 110.043  1.00  0.00     0.000 C 
BRANCH   8   9
ATOM      9  C   UNL     1      87.795  21.549 110.233  1.00  0.00     0.000 C 
BRANCH   9  10
ATOM     10  C   UNL     1      88.034  21.893 111.713  1.00  0.00     0.000 C 
BRANCH  10  11
ATOM     11  C   UNL     1      88.803  23.215 111.886  1.00  0.00     0.000 C 
BRANCH  11  12
ATOM     12  C   UNL     1      90.314  23.016 112.158  1.00  0.00     0.000 C 
BRANCH  12  13
ATOM     13  C   UNL     1      90.617  21.840 113.105  1.00  0.00     0.006 C 
BRANCH  13  14
ATOM     14  C   UNL     1      91.936  21.117 112.793  1.00  0.00     0.053 C 
BRANCH  14  15
ATOM     15  C   UNL     1      91.711  19.675 112.442  1.00  0.00     0.041 C 
ATOM     16  O   UNL     1      92.639  18.993 111.935  1.00  0.00    -0.550 OA
ATOM     17  O   UNL     1      90.474  19.087 112.675  1.00  0.00    -0.550 OA
ENDBRANCH  14  15
ENDBRANCH  13  14
ENDBRANCH  12  13
ENDBRANCH  11  12
ENDBRANCH  10  11
ENDBRANCH   9  10
ENDBRANCH   8   9
ENDBRANCH   7   8
ENDBRANCH   6   7
ENDBRANCH   5   6
ENDBRANCH   4   5
ENDBRANCH   3   4
ENDBRANCH   2   3
ENDBRANCH   1   2
BRANCH   1  18
ATOM     18  C   UNL     1      83.513  13.053 108.304  1.00  0.00     0.000 C 
BRANCH  18  19
ATOM     19  C   UNL     1      84.280  13.967 109.276  1.00  0.00     0.000 C 
BRANCH  19  20
ATOM     20  C   UNL     1      85.812  13.866 109.187  1.00  0.00     0.000 C 
BRANCH  20  21
ATOM     21  C   UNL     1      86.316  13.697 107.743  1.00  0.00     0.000 C 
BRANCH  21  22
ATOM     22  C   UNL     1      87.845  13.842 107.639  1.00  0.00     0.000 C 
BRANCH  22  23
ATOM     23  C   UNL     1      88.354  14.045 106.199  1.00  0.00     0.000 C 
BRANCH  23  24
ATOM     24  C   UNL     1      89.358  12.959 105.773  1.00  0.00    -0.000 C 
BRANCH  24  25
ATOM     25  C   UNL     1      88.717  11.557 105.683  1.00  0.00    -0.000 C 
BRANCH  25  26
ATOM     26  C   UNL     1      89.708  10.435 105.316  1.00  0.00    -0.000 C 
BRANCH  26  27
ATOM     27  C   UNL     1      89.812   9.288 106.337  1.00  0.00    -0.000 C 
BRANCH  27  28
ATOM     28  C   UNL     1      90.093   9.727 107.786  1.00  0.00    -0.000 C 
BRANCH  28  29
ATOM     29  C   UNL     1      89.866   8.604 108.807  1.00  0.00    -0.000 C 
BRANCH  29  30
ATOM     30  C   UNL     1      90.262   7.243 108.221  1.00  0.00    -0.000 C 
BRANCH  30  31
ATOM     31  C   UNL     1      91.471   7.375 107.290  1.00  0.00    -0.003 C 
ATOM     32  C   UNL     1      92.758   6.955 107.995  1.00  0.00     0.004 C 
ENDBRANCH  30  31
ENDBRANCH  29  30
ENDBRANCH  28  29
ENDBRANCH  27  28
ENDBRANCH  26  27
ENDBRANCH  25  26
ENDBRANCH  24  25
ENDBRANCH  23  24
ENDBRANCH  22  23
ENDBRANCH  21  22
ENDBRANCH  20  21
ENDBRANCH  19  20
ENDBRANCH  18  19
ENDBRANCH   1  18
TORSDOF 28
ENDMDL
MODEL 8
REMARK VINA RESULT:    16.611      3.764     10.619
REMARK INTER + INTRA:          42.488
REMARK INTER:                  43.117
REMARK INTRA:                  -0.629
REMARK UNBOUND:                -1.313
REMARK SMILES CCCCCCCCCCCCCCCCCCCCCCCCCCCCCC(=O)[O-]
REMARK SMILES IDX 16 1 17 2 18 3 19 4 20 5 21 6 22 7 23 8 24 9 25 10 26 11
REMARK SMILES IDX 27 12 28 13 29 14 30 15 31 16 32 17 15 18 14 19 13 20 12 21
REMARK SMILES IDX 11 22 10 23 9 24 8 25 7 26 6 27 5 28 4 29 3 30 2 31 1 32
REMARK H PARENT
REMARK Flexibility Score: inf
ROOT
ATOM      1  C   UNL     1      83.180  12.716 108.325  1.00  0.00     0.000 C 
ENDROOT
BRANCH   1   2
ATOM      2  C   UNL     1      82.938  13.882 109.298  1.00  0.00     0.000 C 
BRANCH   2   3
ATOM      3  C   UNL     1      84.114  14.078 110.271  1.00  0.00     0.000 C 
BRANCH   3   4
ATOM      4  C   UNL     1      85.428  13.474 109.749  1.00  0.00     0.000 C 
BRANCH   4   5
ATOM      5  C   UNL     1      86.027  14.280 108.583  1.00  0.00     0.000 C 
BRANCH   5   6
ATOM      6  C   UNL     1      87.379  13.722 108.100  1.00  0.00     0.000 C 
BRANCH   6   7
ATOM      7  C   UNL     1      87.602  13.764 106.573  1.00  0.00     0.000 C 
BRANCH   7   8
ATOM      8  C   UNL     1      88.989  13.285 106.099  1.00  0.00     0.000 C 
BRANCH   8   9
ATOM      9  C   UNL     1      89.021  11.849 105.545  1.00  0.00     0.000 C 
BRANCH   9  10
ATOM     10  C   UNL     1      89.975  10.934 106.332  1.00  0.00     0.000 C 
BRANCH  10  11
ATOM     11  C   UNL     1      89.228   9.804 107.061  1.00  0.00     0.000 C 
BRANCH  11  12
ATOM     12  C   UNL     1      89.978   9.273 108.306  1.00  0.00     0.000 C 
BRANCH  12  13
ATOM     13  C   UNL     1      90.054   7.736 108.367  1.00  0.00     0.006 C 
BRANCH  13  14
ATOM     14  C   UNL     1      91.468   7.194 108.630  1.00  0.00     0.053 C 
BRANCH  14  15
ATOM     15  C   UNL     1      92.334   7.281 107.407  1.00  0.00     0.041 C 
ATOM     16  O   UNL     1      93.525   6.877 107.443  1.00  0.00    -0.550 OA
ATOM     17  O   UNL     1      91.823   7.811 106.228  1.00  0.00    -0.550 OA
ENDBRANCH  14  15
ENDBRANCH  13  14
ENDBRANCH  12  13
ENDBRANCH  11  12
ENDBRANCH  10  11
ENDBRANCH   9  10
ENDBRANCH   8   9
ENDBRANCH   7   8
ENDBRANCH   6   7
ENDBRANCH   5   6
ENDBRANCH   4   5
ENDBRANCH   3   4
ENDBRANCH   2   3
ENDBRANCH   1   2
BRANCH   1  18
ATOM     18  C   UNL     1      83.524  13.193 106.903  1.00  0.00     0.000 C 
BRANCH  18  19
ATOM     19  C   UNL     1      82.995  14.608 106.606  1.00  0.00     0.000 C 
BRANCH  19  20
ATOM     20  C   UNL     1      84.078  15.694 106.498  1.00  0.00     0.000 C 
BRANCH  20  21
ATOM     21  C   UNL     1      84.170  16.572 107.759  1.00  0.00     0.000 C 
BRANCH  21  22
ATOM     22  C   UNL     1      85.226  17.684 107.618  1.00  0.00     0.000 C 
BRANCH  22  23
ATOM     23  C   UNL     1      85.368  18.568 108.872  1.00  0.00     0.000 C 
BRANCH  23  24
ATOM     24  C   UNL     1      86.612  19.473 108.813  1.00  0.00    -0.000 C 
BRANCH  24  25
ATOM     25  C   UNL     1      86.577  20.605 109.863  1.00  0.00    -0.000 C 
BRANCH  25  26
ATOM     26  C   UNL     1      87.900  21.383 109.992  1.00  0.00    -0.000 C 
BRANCH  26  27
ATOM     27  C   UNL     1      88.626  21.230 111.342  1.00  0.00    -0.000 C 
BRANCH  27  28
ATOM     28  C   UNL     1      89.235  22.527 111.906  1.00  0.00    -0.000 C 
BRANCH  28  29
ATOM     29  C   UNL     1      90.624  22.316 112.525  1.00  0.00    -0.000 C 
BRANCH  29  30
ATOM     30  C   UNL     1      90.984  20.826 112.566  1.00  0.00    -0.000 C 
BRANCH  30  31
ATOM     31  C   UNL     1      92.076  20.495 111.543  1.00  0.00    -0.003 C 
ATOM     32  C   UNL     1      93.120  19.552 112.138  1.00  0.00     0.004 C 
ENDBRANCH  30  31
ENDBRANCH  29  30
ENDBRANCH  28  29
ENDBRANCH  27  28
ENDBRANCH  26  27
ENDBRANCH  25  26
ENDBRANCH  24  25
ENDBRANCH  23  24
ENDBRANCH  22  23
ENDBRANCH  21  22
ENDBRANCH  20  21
ENDBRANCH  19  20
ENDBRANCH  18  19
ENDBRANCH   1  18
TORSDOF 28
ENDMDL
MODEL 9
REMARK VINA RESULT:    17.094      3.748     10.526
REMARK INTER + INTRA:          43.761
REMARK INTER:                  42.990
REMARK INTRA:                   0.771
REMARK UNBOUND:                -1.313
REMARK SMILES CCCCCCCCCCCCCCCCCCCCCCCCCCCCCC(=O)[O-]
REMARK SMILES IDX 16 1 17 2 18 3 19 4 20 5 21 6 22 7 23 8 24 9 25 10 26 11
REMARK SMILES IDX 27 12 28 13 29 14 30 15 31 16 32 17 15 18 14 19 13 20 12 21
REMARK SMILES IDX 11 22 10 23 9 24 8 25 7 26 6 27 5 28 4 29 3 30 2 31 1 32
REMARK H PARENT
REMARK Flexibility Score: inf
ROOT
ATOM      1  C   UNL     1      84.667  16.044 107.034  1.00  0.00     0.000 C 
ENDROOT
BRANCH   1   2
ATOM      2  C   UNL     1      83.406  15.358 106.482  1.00  0.00     0.000 C 
BRANCH   2   3
ATOM      3  C   UNL     1      83.136  14.006 107.167  1.00  0.00     0.000 C 
BRANCH   3   4
ATOM      4  C   UNL     1      82.228  14.133 108.401  1.00  0.00     0.000 C 
BRANCH   4   5
ATOM      5  C   UNL     1      82.940  13.725 109.702  1.00  0.00     0.000 C 
BRANCH   5   6
ATOM      6  C   UNL     1      84.273  12.995 109.453  1.00  0.00     0.000 C 
BRANCH   6   7
ATOM      7  C   UNL     1      85.535  13.884 109.516  1.00  0.00     0.000 C 
BRANCH   7   8
ATOM      8  C   UNL     1      86.176  14.209 108.151  1.00  0.00     0.000 C 
BRANCH   8   9
ATOM      9  C   UNL     1      87.267  13.222 107.700  1.00  0.00     0.000 C 
BRANCH   9  10
ATOM     10  C   UNL     1      87.958  13.661 106.398  1.00  0.00     0.000 C 
BRANCH  10  11
ATOM     11  C   UNL     1      89.271  12.898 106.151  1.00  0.00     0.000 C 
BRANCH  11  12
ATOM     12  C   UNL     1      89.056  11.444 105.666  1.00  0.00     0.000 C 
BRANCH  12  13
ATOM     13  C   UNL     1      90.119  10.459 106.190  1.00  0.00     0.006 C 
BRANCH  13  14
ATOM     14  C   UNL     1      89.582   9.042 106.441  1.00  0.00     0.053 C 
BRANCH  14  15
ATOM     15  C   UNL     1      90.551   8.211 107.230  1.00  0.00     0.041 C 
ATOM     16  O   UNL     1      91.561   7.711 106.672  1.00  0.00    -0.550 OA
ATOM     17  O   UNL     1      90.335   7.990 108.586  1.00  0.00    -0.550 OA
ENDBRANCH  14  15
ENDBRANCH  13  14
ENDBRANCH  12  13
ENDBRANCH  11  12
ENDBRANCH  10  11
ENDBRANCH   9  10
ENDBRANCH   8   9
ENDBRANCH   7   8
ENDBRANCH   6   7
ENDBRANCH   5   6
ENDBRANCH   4   5
ENDBRANCH   3   4
ENDBRANCH   2   3
ENDBRANCH   1   2
BRANCH   1  18
ATOM     18  C   UNL     1      84.338  17.201 107.995  1.00  0.00     0.000 C 
BRANCH  18  19
ATOM     19  C   UNL     1      84.999  18.527 107.578  1.00  0.00     0.000 C 
BRANCH  19  20
ATOM     20  C   UNL     1      85.830  19.210 108.677  1.00  0.00     0.000 C 
BRANCH  20  21
ATOM     21  C   UNL     1      85.902  20.738 108.507  1.00  0.00     0.000 C 
BRANCH  21  22
ATOM     22  C   UNL     1      87.089  21.353 109.272  1.00  0.00     0.000 C 
BRANCH  22  23
ATOM     23  C   UNL     1      87.385  20.662 110.618  1.00  0.00     0.000 C 
BRANCH  23  24
ATOM     24  C   UNL     1      88.609  21.266 111.329  1.00  0.00    -0.000 C 
BRANCH  24  25
ATOM     25  C   UNL     1      88.407  22.749 111.709  1.00  0.00    -0.000 C 
BRANCH  25  26
ATOM     26  C   UNL     1      89.714  23.496 112.039  1.00  0.00    -0.000 C 
BRANCH  26  27
ATOM     27  C   UNL     1      90.880  22.609 112.511  1.00  0.00    -0.000 C 
BRANCH  27  28
ATOM     28  C   UNL     1      90.604  21.793 113.788  1.00  0.00    -0.000 C 
BRANCH  28  29
ATOM     29  C   UNL     1      90.342  20.308 113.504  1.00  0.00    -0.000 C 
BRANCH  29  30
ATOM     30  C   UNL     1      91.626  19.602 113.052  1.00  0.00    -0.000 C 
BRANCH  30  31
ATOM     31  C   UNL     1      92.056  20.079 111.661  1.00  0.00    -0.003 C 
ATOM     32  C   UNL     1      93.563  19.932 111.470  1.00  0.00     0.004 C 
ENDBRANCH  30  31
ENDBRANCH  29  30
ENDBRANCH  28  29
ENDBRANCH  27  28
ENDBRANCH  26  27
ENDBRANCH  25  26
ENDBRANCH  24  25
ENDBRANCH  23  24
ENDBRANCH  22  23
ENDBRANCH  21  22
ENDBRANCH  20  21
ENDBRANCH  19  20
ENDBRANCH  18  19
ENDBRANCH   1  18
TORSDOF 28
ENDMDL
