MODEL 1
REMARK VINA RESULT:    -3.864      0.000      0.000
REMARK INTER + INTRA:          -4.491
REMARK INTER:                  -4.429
REMARK INTRA:                  -0.062
REMARK UNBOUND:                -0.062
REMARK SMILES COc1cc(C=O)ccc1O
REMARK SMILES IDX 3 1 10 2 9 3 8 4 5 5 4 6 2 7 1 8 11 9 6 11 7 12
REMARK H PARENT 11 10
REMARK Flexibility Score: inf
ROOT
ATOM      1  C   UNL     1      41.131  30.433  88.574  1.00  0.00     0.161 A 
ATOM      2  C   UNL     1      42.144  31.170  87.932  1.00  0.00     0.157 A 
ATOM      3  C   UNL     1      43.419  31.248  88.500  1.00  0.00     0.051 A 
ATOM      4  C   UNL     1      43.700  30.597  89.703  1.00  0.00     0.015 A 
ATOM      5  C   UNL     1      42.701  29.858  90.356  1.00  0.00     0.018 A 
ATOM      6  C   UNL     1      41.420  29.779  89.789  1.00  0.00     0.062 A 
ENDROOT
BRANCH   1   7
ATOM      7  O   UNL     1      39.859  30.374  87.980  1.00  0.00    -0.493 OA
ATOM      8  C   UNL     1      39.103  29.179  87.811  1.00  0.00     0.278 C 
ENDBRANCH   1   7
BRANCH   2   9
ATOM      9  O   UNL     1      41.902  31.834  86.729  1.00  0.00    -0.504 OA
ATOM     10  H   UNL     1      42.634  32.313  86.219  1.00  0.00     0.293 HD
ENDBRANCH   2   9
BRANCH   5  11
ATOM     11  C   UNL     1      42.979  29.163  91.628  1.00  0.00     0.260 C 
ATOM     12  O   UNL     1      43.722  29.681  92.503  1.00  0.00    -0.298 OA
ENDBRANCH   5  11
TORSDOF 3
ENDMDL
MODEL 2
REMARK VINA RESULT:    -3.584      1.766      5.100
REMARK INTER + INTRA:          -4.170
REMARK INTER:                  -4.099
REMARK INTRA:                  -0.071
REMARK UNBOUND:                -0.062
REMARK SMILES COc1cc(C=O)ccc1O
REMARK SMILES IDX 3 1 10 2 9 3 8 4 5 5 4 6 2 7 1 8 11 9 6 11 7 12
REMARK H PARENT 11 10
REMARK Flexibility Score: inf
ROOT
ATOM      1  C   UNL     1      44.805  30.973  90.530  1.00  0.00     0.161 A 
ATOM      2  C   UNL     1      44.147  30.112  91.429  1.00  0.00     0.157 A 
ATOM      3  C   UNL     1      42.901  29.572  91.096  1.00  0.00     0.051 A 
ATOM      4  C   UNL     1      42.301  29.878  89.873  1.00  0.00     0.015 A 
ATOM      5  C   UNL     1      42.943  30.734  88.966  1.00  0.00     0.018 A 
ATOM      6  C   UNL     1      44.193  31.279  89.298  1.00  0.00     0.062 A 
ENDROOT
BRANCH   1   7
ATOM      7  O   UNL     1      46.055  31.501  90.893  1.00  0.00    -0.493 OA
ATOM      8  C   UNL     1      47.283  31.189  90.242  1.00  0.00     0.278 C 
ENDBRANCH   1   7
BRANCH   2   9
ATOM      9  O   UNL     1      44.716  29.783  92.660  1.00  0.00    -0.504 OA
ATOM     10  H   UNL     1      44.586  28.875  93.089  1.00  0.00     0.293 HD
ENDBRANCH   2   9
BRANCH   5  11
ATOM     11  C   UNL     1      42.324  31.070  87.669  1.00  0.00     0.260 C 
ATOM     12  O   UNL     1      41.110  31.398  87.593  1.00  0.00    -0.298 OA
ENDBRANCH   5  11
TORSDOF 3
ENDMDL
MODEL 3
REMARK VINA RESULT:    -3.492      1.300      4.055
REMARK INTER + INTRA:          -4.065
REMARK INTER:                  -4.005
REMARK INTRA:                  -0.060
REMARK UNBOUND:                -0.062
REMARK SMILES COc1cc(C=O)ccc1O
REMARK SMILES IDX 3 1 10 2 9 3 8 4 5 5 4 6 2 7 1 8 11 9 6 11 7 12
REMARK H PARENT 11 10
REMARK Flexibility Score: inf
ROOT
ATOM      1  C   UNL     1      42.989  29.804  90.884  1.00  0.00     0.161 A 
ATOM      2  C   UNL     1      44.132  30.549  90.535  1.00  0.00     0.157 A 
ATOM      3  C   UNL     1      44.163  31.260  89.332  1.00  0.00     0.051 A 
ATOM      4  C   UNL     1      43.066  31.239  88.469  1.00  0.00     0.015 A 
ATOM      5  C   UNL     1      41.919  30.502  88.801  1.00  0.00     0.018 A 
ATOM      6  C   UNL     1      41.885  29.787  90.008  1.00  0.00     0.062 A 
ENDROOT
BRANCH   1   7
ATOM      7  O   UNL     1      42.987  29.100  92.099  1.00  0.00    -0.493 OA
ATOM      8  C   UNL     1      42.616  27.731  92.238  1.00  0.00     0.278 C 
ENDBRANCH   1   7
BRANCH   2   9
ATOM      9  O   UNL     1      45.247  30.594  91.372  1.00  0.00    -0.504 OA
ATOM     10  H   UNL     1      46.126  31.004  91.080  1.00  0.00     0.293 HD
ENDBRANCH   2   9
BRANCH   5  11
ATOM     11  C   UNL     1      40.750  30.468  87.901  1.00  0.00     0.260 C 
ATOM     12  O   UNL     1      39.622  30.881  88.283  1.00  0.00    -0.298 OA
ENDBRANCH   5  11
TORSDOF 3
ENDMDL
MODEL 4
REMARK VINA RESULT:    -3.464     12.336     14.450
REMARK INTER + INTRA:          -4.032
REMARK INTER:                  -3.975
REMARK INTRA:                  -0.058
REMARK UNBOUND:                -0.062
REMARK SMILES COc1cc(C=O)ccc1O
REMARK SMILES IDX 3 1 10 2 9 3 8 4 5 5 4 6 2 7 1 8 11 9 6 11 7 12
REMARK H PARENT 11 10
REMARK Flexibility Score: inf
ROOT
ATOM      1  C   UNL     1      39.633  19.806  79.487  1.00  0.00     0.161 A 
ATOM      2  C   UNL     1      38.704  18.751  79.563  1.00  0.00     0.157 A 
ATOM      3  C   UNL     1      37.503  18.924  80.256  1.00  0.00     0.051 A 
ATOM      4  C   UNL     1      37.212  20.141  80.875  1.00  0.00     0.015 A 
ATOM      5  C   UNL     1      38.126  21.204  80.810  1.00  0.00     0.018 A 
ATOM      6  C   UNL     1      39.333  21.032  80.116  1.00  0.00     0.062 A 
ENDROOT
BRANCH   1   7
ATOM      7  O   UNL     1      40.832  19.603  78.785  1.00  0.00    -0.493 OA
ATOM      8  C   UNL     1      42.038  20.323  79.021  1.00  0.00     0.278 C 
ENDBRANCH   1   7
BRANCH   2   9
ATOM      9  O   UNL     1      38.960  17.521  78.956  1.00  0.00    -0.504 OA
ATOM     10  H   UNL     1      38.277  16.773  78.943  1.00  0.00     0.293 HD
ENDBRANCH   2   9
BRANCH   5  11
ATOM     11  C   UNL     1      37.836  22.497  81.459  1.00  0.00     0.260 C 
ATOM     12  O   UNL     1      36.823  22.644  82.192  1.00  0.00    -0.298 OA
ENDBRANCH   5  11
TORSDOF 3
ENDMDL
MODEL 5
REMARK VINA RESULT:    -3.455      1.589      4.135
REMARK INTER + INTRA:          -4.022
REMARK INTER:                  -3.945
REMARK INTRA:                  -0.077
REMARK UNBOUND:                -0.062
REMARK SMILES COc1cc(C=O)ccc1O
REMARK SMILES IDX 3 1 10 2 9 3 8 4 5 5 4 6 2 7 1 8 11 9 6 11 7 12
REMARK H PARENT 11 10
REMARK Flexibility Score: inf
ROOT
ATOM      1  C   UNL     1      43.752  30.295  90.629  1.00  0.00     0.161 A 
ATOM      2  C   UNL     1      44.199  31.165  89.617  1.00  0.00     0.157 A 
ATOM      3  C   UNL     1      43.399  31.405  88.497  1.00  0.00     0.051 A 
ATOM      4  C   UNL     1      42.152  30.790  88.372  1.00  0.00     0.015 A 
ATOM      5  C   UNL     1      41.690  29.920  89.372  1.00  0.00     0.018 A 
ATOM      6  C   UNL     1      42.492  29.676  90.497  1.00  0.00     0.062 A 
ENDROOT
BRANCH   1   7
ATOM      7  O   UNL     1      44.578  30.072  91.743  1.00  0.00    -0.493 OA
ATOM      8  C   UNL     1      45.471  28.970  91.878  1.00  0.00     0.278 C 
ENDBRANCH   1   7
BRANCH   2   9
ATOM      9  O   UNL     1      45.439  31.798  89.707  1.00  0.00    -0.504 OA
ATOM     10  H   UNL     1      45.571  32.767  89.443  1.00  0.00     0.293 HD
ENDBRANCH   2   9
BRANCH   5  11
ATOM     11  C   UNL     1      40.375  29.260  89.257  1.00  0.00     0.260 C 
ATOM     12  O   UNL     1      39.568  29.571  88.342  1.00  0.00    -0.298 OA
ENDBRANCH   5  11
TORSDOF 3
ENDMDL
MODEL 6
REMARK VINA RESULT:    -3.441     10.333     12.155
REMARK INTER + INTRA:          -4.006
REMARK INTER:                  -3.948
REMARK INTRA:                  -0.058
REMARK UNBOUND:                -0.062
REMARK SMILES COc1cc(C=O)ccc1O
REMARK SMILES IDX 3 1 10 2 9 3 8 4 5 5 4 6 2 7 1 8 11 9 6 11 7 12
REMARK H PARENT 11 10
REMARK Flexibility Score: inf
ROOT
ATOM      1  C   UNL     1      53.062  34.502  85.244  1.00  0.00     0.161 A 
ATOM      2  C   UNL     1      53.590  34.775  86.520  1.00  0.00     0.157 A 
ATOM      3  C   UNL     1      52.735  35.106  87.576  1.00  0.00     0.051 A 
ATOM      4  C   UNL     1      51.355  35.167  87.376  1.00  0.00     0.015 A 
ATOM      5  C   UNL     1      50.811  34.897  86.111  1.00  0.00     0.018 A 
ATOM      6  C   UNL     1      51.667  34.565  85.050  1.00  0.00     0.062 A 
ENDROOT
BRANCH   1   7
ATOM      7  O   UNL     1      53.945  34.173  84.203  1.00  0.00    -0.493 OA
ATOM      8  C   UNL     1      53.715  34.464  82.828  1.00  0.00     0.278 C 
ENDBRANCH   1   7
BRANCH   2   9
ATOM      9  O   UNL     1      54.964  34.724  86.758  1.00  0.00    -0.504 OA
ATOM     10  H   UNL     1      55.640  35.080  86.093  1.00  0.00     0.293 HD
ENDBRANCH   2   9
BRANCH   5  11
ATOM     11  C   UNL     1      49.354  34.956  85.881  1.00  0.00     0.260 C 
ATOM     12  O   UNL     1      48.542  34.923  86.843  1.00  0.00    -0.298 OA
ENDBRANCH   5  11
TORSDOF 3
ENDMDL
MODEL 7
REMARK VINA RESULT:    -3.419      2.064      3.438
REMARK INTER + INTRA:          -3.980
REMARK INTER:                  -3.915
REMARK INTRA:                  -0.065
REMARK UNBOUND:                -0.062
REMARK SMILES COc1cc(C=O)ccc1O
REMARK SMILES IDX 3 1 10 2 9 3 8 4 5 5 4 6 2 7 1 8 11 9 6 11 7 12
REMARK H PARENT 11 10
REMARK Flexibility Score: inf
ROOT
ATOM      1  C   UNL     1      42.587  30.583  88.297  1.00  0.00     0.161 A 
ATOM      2  C   UNL     1      41.585  31.246  87.562  1.00  0.00     0.157 A 
ATOM      3  C   UNL     1      40.249  30.857  87.692  1.00  0.00     0.051 A 
ATOM      4  C   UNL     1      39.895  29.813  88.549  1.00  0.00     0.015 A 
ATOM      5  C   UNL     1      40.881  29.142  89.289  1.00  0.00     0.018 A 
ATOM      6  C   UNL     1      42.223  29.529  89.160  1.00  0.00     0.062 A 
ENDROOT
BRANCH   1   7
ATOM      7  O   UNL     1      43.921  30.995  88.145  1.00  0.00    -0.493 OA
ATOM      8  C   UNL     1      44.800  31.295  89.225  1.00  0.00     0.278 C 
ENDBRANCH   1   7
BRANCH   2   9
ATOM      9  O   UNL     1      41.901  32.294  86.696  1.00  0.00    -0.504 OA
ATOM     10  H   UNL     1      42.251  33.184  87.030  1.00  0.00     0.293 HD
ENDBRANCH   2   9
BRANCH   5  11
ATOM     11  C   UNL     1      40.526  28.035  90.199  1.00  0.00     0.260 C 
ATOM     12  O   UNL     1      39.351  27.582  90.246  1.00  0.00    -0.298 OA
ENDBRANCH   5  11
TORSDOF 3
ENDMDL
MODEL 8
REMARK VINA RESULT:    -3.366      9.756     11.589
REMARK INTER + INTRA:          -3.920
REMARK INTER:                  -3.866
REMARK INTRA:                  -0.054
REMARK UNBOUND:                -0.062
REMARK SMILES COc1cc(C=O)ccc1O
REMARK SMILES IDX 3 1 10 2 9 3 8 4 5 5 4 6 2 7 1 8 11 9 6 11 7 12
REMARK H PARENT 11 10
REMARK Flexibility Score: inf
ROOT
ATOM      1  C   UNL     1      52.855  33.900  87.823  1.00  0.00     0.161 A 
ATOM      2  C   UNL     1      53.625  34.474  86.794  1.00  0.00     0.157 A 
ATOM      3  C   UNL     1      53.022  34.824  85.582  1.00  0.00     0.051 A 
ATOM      4  C   UNL     1      51.657  34.611  85.382  1.00  0.00     0.015 A 
ATOM      5  C   UNL     1      50.875  34.040  86.398  1.00  0.00     0.018 A 
ATOM      6  C   UNL     1      51.477  33.687  87.615  1.00  0.00     0.062 A 
ENDROOT
BRANCH   1   7
ATOM      7  O   UNL     1      53.487  33.557  89.030  1.00  0.00    -0.493 OA
ATOM      8  C   UNL     1      53.054  32.517  89.901  1.00  0.00     0.278 C 
ENDBRANCH   1   7
BRANCH   2   9
ATOM      9  O   UNL     1      54.991  34.702  86.957  1.00  0.00    -0.504 OA
ATOM     10  H   UNL     1      55.418  34.793  87.871  1.00  0.00     0.293 HD
ENDBRANCH   2   9
BRANCH   5  11
ATOM     11  C   UNL     1      49.430  33.807  86.205  1.00  0.00     0.260 C 
ATOM     12  O   UNL     1      48.610  33.995  87.142  1.00  0.00    -0.298 OA
ENDBRANCH   5  11
TORSDOF 3
ENDMDL
MODEL 9
REMARK VINA RESULT:    -3.353     12.290     14.145
REMARK INTER + INTRA:          -3.904
REMARK INTER:                  -3.829
REMARK INTRA:                  -0.076
REMARK UNBOUND:                -0.062
REMARK SMILES COc1cc(C=O)ccc1O
REMARK SMILES IDX 3 1 10 2 9 3 8 4 5 5 4 6 2 7 1 8 11 9 6 11 7 12
REMARK H PARENT 11 10
REMARK Flexibility Score: inf
ROOT
ATOM      1  C   UNL     1      37.758  21.497  79.937  1.00  0.00     0.161 A 
ATOM      2  C   UNL     1      37.358  20.241  80.431  1.00  0.00     0.157 A 
ATOM      3  C   UNL     1      38.207  19.137  80.306  1.00  0.00     0.051 A 
ATOM      4  C   UNL     1      39.455  19.270  79.694  1.00  0.00     0.015 A 
ATOM      5  C   UNL     1      39.869  20.515  79.196  1.00  0.00     0.018 A 
ATOM      6  C   UNL     1      39.019  21.624  79.320  1.00  0.00     0.062 A 
ENDROOT
BRANCH   1   7
ATOM      7  O   UNL     1      36.884  22.587  80.076  1.00  0.00    -0.493 OA
ATOM      8  C   UNL     1      37.068  23.658  80.998  1.00  0.00     0.278 C 
ENDBRANCH   1   7
BRANCH   2   9
ATOM      9  O   UNL     1      36.119  20.070  81.049  1.00  0.00    -0.504 OA
ATOM     10  H   UNL     1      36.022  19.610  81.946  1.00  0.00     0.293 HD
ENDBRANCH   2   9
BRANCH   5  11
ATOM     11  C   UNL     1      41.185  20.674  78.546  1.00  0.00     0.260 C 
ATOM     12  O   UNL     1      42.157  19.935  78.855  1.00  0.00    -0.298 OA
ENDBRANCH   5  11
TORSDOF 3
ENDMDL
