MODEL 1
REMARK VINA RESULT:    -3.140      0.000      0.000
REMARK INTER + INTRA:          -5.832
REMARK INTER:                  -4.792
REMARK INTRA:                  -1.040
REMARK UNBOUND:                -1.040
REMARK SMILES CCCCCCCCCCC(=O)[O-]
REMARK SMILES IDX 7 1 8 2 9 3 10 4 11 5 12 6 13 7 6 8 5 9 4 10 3 11 2 12 1 13
REMARK H PARENT
REMARK Flexibility Score: inf
ROOT
ATOM      1  C   UNL     1     -23.902   2.225 -33.957  1.00  0.00     0.000 C 
ENDROOT
BRANCH   1   2
ATOM      2  C   UNL     1     -22.767   3.256 -34.003  1.00  0.00     0.000 C 
BRANCH   2   3
ATOM      3  C   UNL     1     -22.718   3.961 -35.363  1.00  0.00     0.006 C 
BRANCH   3   4
ATOM      4  C   UNL     1     -23.004   2.979 -36.502  1.00  0.00     0.053 C 
BRANCH   4   5
ATOM      5  C   UNL     1     -22.806   3.642 -37.829  1.00  0.00     0.041 C 
ATOM      6  O   UNL     1     -22.685   4.893 -37.899  1.00  0.00    -0.550 OA
ATOM      7  O   UNL     1     -22.806   2.883 -38.992  1.00  0.00    -0.550 OA
ENDBRANCH   4   5
ENDBRANCH   3   4
ENDBRANCH   2   3
ENDBRANCH   1   2
BRANCH   1   8
ATOM      8  C   UNL     1     -24.842   2.494 -32.773  1.00  0.00     0.000 C 
BRANCH   8   9
ATOM      9  C   UNL     1     -24.864   3.975 -32.360  1.00  0.00    -0.000 C 
BRANCH   9  10
ATOM     10  C   UNL     1     -26.124   4.707 -32.855  1.00  0.00    -0.000 C 
BRANCH  10  11
ATOM     11  C   UNL     1     -27.049   3.798 -33.680  1.00  0.00    -0.000 C 
BRANCH  11  12
ATOM     12  C   UNL     1     -27.466   4.435 -35.014  1.00  0.00    -0.003 C 
ATOM     13  C   UNL     1     -26.245   4.779 -35.863  1.00  0.00     0.004 C 
ENDBRANCH  11  12
ENDBRANCH  10  11
ENDBRANCH   9  10
ENDBRANCH   8   9
ENDBRANCH   1   8
TORSDOF 9
ENDMDL
MODEL 2
REMARK VINA RESULT:    -3.017      2.881      4.723
REMARK INTER + INTRA:          -5.644
REMARK INTER:                  -4.654
REMARK INTRA:                  -0.990
REMARK UNBOUND:                -1.040
REMARK SMILES CCCCCCCCCCC(=O)[O-]
REMARK SMILES IDX 7 1 8 2 9 3 10 4 11 5 12 6 13 7 6 8 5 9 4 10 3 11 2 12 1 13
REMARK H PARENT
REMARK Flexibility Score: inf
ROOT
ATOM      1  C   UNL     1     -24.573   2.833 -32.769  1.00  0.00     0.000 C 
ENDROOT
BRANCH   1   2
ATOM      2  C   UNL     1     -25.067   4.148 -32.152  1.00  0.00     0.000 C 
BRANCH   2   3
ATOM      3  C   UNL     1     -26.136   4.803 -33.034  1.00  0.00     0.006 C 
BRANCH   3   4
ATOM      4  C   UNL     1     -26.879   3.755 -33.867  1.00  0.00     0.053 C 
BRANCH   4   5
ATOM      5  C   UNL     1     -28.165   4.316 -34.388  1.00  0.00     0.041 C 
ATOM      6  O   UNL     1     -28.414   4.287 -35.622  1.00  0.00    -0.550 OA
ATOM      7  O   UNL     1     -29.067   4.913 -33.517  1.00  0.00    -0.550 OA
ENDBRANCH   4   5
ENDBRANCH   3   4
ENDBRANCH   2   3
ENDBRANCH   1   2
BRANCH   1   8
ATOM      8  C   UNL     1     -23.233   3.034 -33.492  1.00  0.00     0.000 C 
BRANCH   8   9
ATOM      9  C   UNL     1     -23.075   2.111 -34.711  1.00  0.00    -0.000 C 
BRANCH   9  10
ATOM     10  C   UNL     1     -22.718   2.882 -35.993  1.00  0.00    -0.000 C 
BRANCH  10  11
ATOM     11  C   UNL     1     -22.878   4.402 -35.832  1.00  0.00    -0.000 C 
BRANCH  11  12
ATOM     12  C   UNL     1     -23.552   5.056 -37.048  1.00  0.00    -0.003 C 
ATOM     13  C   UNL     1     -25.066   5.121 -36.867  1.00  0.00     0.004 C 
ENDBRANCH  11  12
ENDBRANCH  10  11
ENDBRANCH   9  10
ENDBRANCH   8   9
ENDBRANCH   1   8
TORSDOF 9
ENDMDL
MODEL 3
REMARK VINA RESULT:    -2.750     13.291     15.132
REMARK INTER + INTRA:          -5.236
REMARK INTER:                  -4.600
REMARK INTRA:                  -0.636
REMARK UNBOUND:                -1.040
REMARK SMILES CCCCCCCCCCC(=O)[O-]
REMARK SMILES IDX 7 1 8 2 9 3 10 4 11 5 12 6 13 7 6 8 5 9 4 10 3 11 2 12 1 13
REMARK H PARENT
REMARK Flexibility Score: inf
ROOT
ATOM      1  C   UNL     1     -10.740   0.192 -36.115  1.00  0.00     0.000 C 
ENDROOT
BRANCH   1   2
ATOM      2  C   UNL     1     -10.317  -1.280 -36.208  1.00  0.00     0.000 C 
BRANCH   2   3
ATOM      3  C   UNL     1      -9.897  -1.643 -37.637  1.00  0.00     0.006 C 
BRANCH   3   4
ATOM      4  C   UNL     1      -9.199  -3.005 -37.675  1.00  0.00     0.053 C 
BRANCH   4   5
ATOM      5  C   UNL     1     -10.187  -4.093 -37.955  1.00  0.00     0.041 C 
ATOM      6  O   UNL     1     -10.324  -4.539 -39.125  1.00  0.00    -0.550 OA
ATOM      7  O   UNL     1     -10.991  -4.581 -36.933  1.00  0.00    -0.550 OA
ENDBRANCH   4   5
ENDBRANCH   3   4
ENDBRANCH   2   3
ENDBRANCH   1   2
BRANCH   1   8
ATOM      8  C   UNL     1      -9.558   1.077 -35.692  1.00  0.00     0.000 C 
BRANCH   8   9
ATOM      9  C   UNL     1      -9.284   2.214 -36.691  1.00  0.00    -0.000 C 
BRANCH   9  10
ATOM     10  C   UNL     1      -9.889   3.555 -36.241  1.00  0.00    -0.000 C 
BRANCH  10  11
ATOM     11  C   UNL     1     -10.788   4.187 -37.315  1.00  0.00    -0.000 C 
BRANCH  11  12
ATOM     12  C   UNL     1     -11.383   3.146 -38.275  1.00  0.00    -0.003 C 
ATOM     13  C   UNL     1     -12.772   2.708 -37.818  1.00  0.00     0.004 C 
ENDBRANCH  11  12
ENDBRANCH  10  11
ENDBRANCH   9  10
ENDBRANCH   8   9
ENDBRANCH   1   8
TORSDOF 9
ENDMDL
MODEL 4
REMARK VINA RESULT:    -2.661     13.270     15.380
REMARK INTER + INTRA:          -5.100
REMARK INTER:                  -4.459
REMARK INTRA:                  -0.641
REMARK UNBOUND:                -1.040
REMARK SMILES CCCCCCCCCCC(=O)[O-]
REMARK SMILES IDX 7 1 8 2 9 3 10 4 11 5 12 6 13 7 6 8 5 9 4 10 3 11 2 12 1 13
REMARK H PARENT
REMARK Flexibility Score: inf
ROOT
ATOM      1  C   UNL     1     -10.675   0.136 -36.130  1.00  0.00     0.000 C 
ENDROOT
BRANCH   1   2
ATOM      2  C   UNL     1      -9.633   1.196 -35.751  1.00  0.00     0.000 C 
BRANCH   2   3
ATOM      3  C   UNL     1      -9.675   2.382 -36.722  1.00  0.00     0.006 C 
BRANCH   3   4
ATOM      4  C   UNL     1     -10.983   2.394 -37.518  1.00  0.00     0.053 C 
BRANCH   4   5
ATOM      5  C   UNL     1     -11.573   3.769 -37.536  1.00  0.00     0.041 C 
ATOM      6  O   UNL     1     -11.092   4.674 -36.805  1.00  0.00    -0.550 OA
ATOM      7  O   UNL     1     -12.686   4.037 -38.323  1.00  0.00    -0.550 OA
ENDBRANCH   4   5
ENDBRANCH   3   4
ENDBRANCH   2   3
ENDBRANCH   1   2
BRANCH   1   8
ATOM      8  C   UNL     1      -9.996  -1.157 -36.604  1.00  0.00     0.000 C 
BRANCH   8   9
ATOM      9  C   UNL     1      -9.626  -1.118 -38.096  1.00  0.00    -0.000 C 
BRANCH   9  10
ATOM     10  C   UNL     1      -8.875  -2.381 -38.552  1.00  0.00    -0.000 C 
BRANCH  10  11
ATOM     11  C   UNL     1      -9.817  -3.453 -39.125  1.00  0.00    -0.000 C 
BRANCH  11  12
ATOM     12  C   UNL     1      -9.872  -4.716 -38.253  1.00  0.00    -0.003 C 
ATOM     13  C   UNL     1     -11.029  -4.647 -37.259  1.00  0.00     0.004 C 
ENDBRANCH  11  12
ENDBRANCH  10  11
ENDBRANCH   9  10
ENDBRANCH   8   9
ENDBRANCH   1   8
TORSDOF 9
ENDMDL
MODEL 5
REMARK VINA RESULT:    -2.574      2.451      4.162
REMARK INTER + INTRA:          -4.969
REMARK INTER:                  -4.059
REMARK INTRA:                  -0.910
REMARK UNBOUND:                -1.040
REMARK SMILES CCCCCCCCCCC(=O)[O-]
REMARK SMILES IDX 7 1 8 2 9 3 10 4 11 5 12 6 13 7 6 8 5 9 4 10 3 11 2 12 1 13
REMARK H PARENT
REMARK Flexibility Score: inf
ROOT
ATOM      1  C   UNL     1     -25.907   3.921 -33.126  1.00  0.00     0.000 C 
ENDROOT
BRANCH   1   2
ATOM      2  C   UNL     1     -25.798   4.920 -34.285  1.00  0.00     0.000 C 
BRANCH   2   3
ATOM      3  C   UNL     1     -27.002   4.806 -35.227  1.00  0.00     0.006 C 
BRANCH   3   4
ATOM      4  C   UNL     1     -26.592   5.067 -36.679  1.00  0.00     0.053 C 
BRANCH   4   5
ATOM      5  C   UNL     1     -27.751   4.848 -37.599  1.00  0.00     0.041 C 
ATOM      6  O   UNL     1     -28.912   4.707 -37.133  1.00  0.00    -0.550 OA
ATOM      7  O   UNL     1     -27.542   4.752 -38.969  1.00  0.00    -0.550 OA
ENDBRANCH   4   5
ENDBRANCH   3   4
ENDBRANCH   2   3
ENDBRANCH   1   2
BRANCH   1   8
ATOM      8  C   UNL     1     -24.518   3.540 -32.597  1.00  0.00     0.000 C 
BRANCH   8   9
ATOM      9  C   UNL     1     -24.091   2.125 -33.022  1.00  0.00    -0.000 C 
BRANCH   9  10
ATOM     10  C   UNL     1     -22.965   2.138 -34.071  1.00  0.00    -0.000 C 
BRANCH  10  11
ATOM     11  C   UNL     1     -23.492   2.346 -35.500  1.00  0.00    -0.000 C 
BRANCH  11  12
ATOM     12  C   UNL     1     -22.908   3.600 -36.168  1.00  0.00    -0.003 C 
ATOM     13  C   UNL     1     -23.262   3.648 -37.651  1.00  0.00     0.004 C 
ENDBRANCH  11  12
ENDBRANCH  10  11
ENDBRANCH   9  10
ENDBRANCH   8   9
ENDBRANCH   1   8
TORSDOF 9
ENDMDL
MODEL 6
REMARK VINA RESULT:    -2.525     14.817     15.679
REMARK INTER + INTRA:          -4.892
REMARK INTER:                  -4.415
REMARK INTRA:                  -0.478
REMARK UNBOUND:                -1.040
REMARK SMILES CCCCCCCCCCC(=O)[O-]
REMARK SMILES IDX 7 1 8 2 9 3 10 4 11 5 12 6 13 7 6 8 5 9 4 10 3 11 2 12 1 13
REMARK H PARENT
REMARK Flexibility Score: inf
ROOT
ATOM      1  C   UNL     1     -10.285   0.577 -36.214  1.00  0.00     0.000 C 
ENDROOT
BRANCH   1   2
ATOM      2  C   UNL     1      -9.542  -0.762 -36.107  1.00  0.00     0.000 C 
BRANCH   2   3
ATOM      3  C   UNL     1     -10.395  -1.910 -36.658  1.00  0.00     0.006 C 
BRANCH   3   4
ATOM      4  C   UNL     1      -9.651  -2.665 -37.764  1.00  0.00     0.053 C 
BRANCH   4   5
ATOM      5  C   UNL     1     -10.140  -4.076 -37.856  1.00  0.00     0.041 C 
ATOM      6  O   UNL     1     -11.017  -4.495 -37.056  1.00  0.00    -0.550 OA
ATOM      7  O   UNL     1      -9.591  -4.942 -38.793  1.00  0.00    -0.550 OA
ENDBRANCH   4   5
ENDBRANCH   3   4
ENDBRANCH   2   3
ENDBRANCH   1   2
BRANCH   1   8
ATOM      8  C   UNL     1      -9.730   1.422 -37.370  1.00  0.00     0.000 C 
BRANCH   8   9
ATOM      9  C   UNL     1      -9.096   2.737 -36.890  1.00  0.00    -0.000 C 
BRANCH   9  10
ATOM     10  C   UNL     1     -10.138   3.733 -36.350  1.00  0.00    -0.000 C 
BRANCH  10  11
ATOM     11  C   UNL     1      -9.620   4.532 -35.143  1.00  0.00    -0.000 C 
BRANCH  11  12
ATOM     12  C   UNL     1      -9.007   3.632 -34.059  1.00  0.00    -0.003 C 
ATOM     13  C   UNL     1      -9.610   3.934 -32.690  1.00  0.00     0.004 C 
ENDBRANCH  11  12
ENDBRANCH  10  11
ENDBRANCH   9  10
ENDBRANCH   8   9
ENDBRANCH   1   8
TORSDOF 9
ENDMDL
MODEL 7
REMARK VINA RESULT:    -2.476     13.297     14.807
REMARK INTER + INTRA:          -4.819
REMARK INTER:                  -3.913
REMARK INTRA:                  -0.906
REMARK UNBOUND:                -1.040
REMARK SMILES CCCCCCCCCCC(=O)[O-]
REMARK SMILES IDX 7 1 8 2 9 3 10 4 11 5 12 6 13 7 6 8 5 9 4 10 3 11 2 12 1 13
REMARK H PARENT
REMARK Flexibility Score: inf
ROOT
ATOM      1  C   UNL     1     -12.251   2.917 -38.336  1.00  0.00     0.000 C 
ENDROOT
BRANCH   1   2
ATOM      2  C   UNL     1     -11.615   2.049 -37.242  1.00  0.00     0.000 C 
BRANCH   2   3
ATOM      3  C   UNL     1     -10.351   1.352 -37.757  1.00  0.00     0.006 C 
BRANCH   3   4
ATOM      4  C   UNL     1      -9.679   0.541 -36.645  1.00  0.00     0.053 C 
BRANCH   4   5
ATOM      5  C   UNL     1     -10.115  -0.889 -36.702  1.00  0.00     0.041 C 
ATOM      6  O   UNL     1     -10.768  -1.390 -35.749  1.00  0.00    -0.550 OA
ATOM      7  O   UNL     1      -9.758  -1.682 -37.785  1.00  0.00    -0.550 OA
ENDBRANCH   4   5
ENDBRANCH   3   4
ENDBRANCH   2   3
ENDBRANCH   1   2
BRANCH   1   8
ATOM      8  C   UNL     1     -11.300   4.044 -38.766  1.00  0.00     0.000 C 
BRANCH   8   9
ATOM      9  C   UNL     1     -10.918   4.972 -37.600  1.00  0.00    -0.000 C 
BRANCH   9  10
ATOM     10  C   UNL     1      -9.398   5.047 -37.378  1.00  0.00    -0.000 C 
BRANCH  10  11
ATOM     11  C   UNL     1      -9.022   5.125 -35.890  1.00  0.00    -0.000 C 
BRANCH  11  12
ATOM     12  C   UNL     1     -10.159   4.655 -34.969  1.00  0.00    -0.003 C 
ATOM     13  C   UNL     1      -9.932   5.125 -33.535  1.00  0.00     0.004 C 
ENDBRANCH  11  12
ENDBRANCH  10  11
ENDBRANCH   9  10
ENDBRANCH   8   9
ENDBRANCH   1   8
TORSDOF 9
ENDMDL
MODEL 8
REMARK VINA RESULT:    -2.470     14.435     15.889
REMARK INTER + INTRA:          -4.809
REMARK INTER:                  -4.333
REMARK INTRA:                  -0.475
REMARK UNBOUND:                -1.040
REMARK SMILES CCCCCCCCCCC(=O)[O-]
REMARK SMILES IDX 7 1 8 2 9 3 10 4 11 5 12 6 13 7 6 8 5 9 4 10 3 11 2 12 1 13
REMARK H PARENT
REMARK Flexibility Score: inf
ROOT
ATOM      1  C   UNL     1     -10.724   0.324 -36.165  1.00  0.00     0.000 C 
ENDROOT
BRANCH   1   2
ATOM      2  C   UNL     1     -10.597   1.498 -37.145  1.00  0.00     0.000 C 
BRANCH   2   3
ATOM      3  C   UNL     1      -9.363   2.350 -36.827  1.00  0.00     0.006 C 
BRANCH   3   4
ATOM      4  C   UNL     1      -9.763   3.785 -36.472  1.00  0.00     0.053 C 
BRANCH   4   5
ATOM      5  C   UNL     1      -9.646   4.013 -34.998  1.00  0.00     0.041 C 
ATOM      6  O   UNL     1     -10.203   5.009 -34.466  1.00  0.00    -0.550 OA
ATOM      7  O   UNL     1      -8.881   3.154 -34.221  1.00  0.00    -0.550 OA
ENDBRANCH   4   5
ENDBRANCH   3   4
ENDBRANCH   2   3
ENDBRANCH   1   2
BRANCH   1   8
ATOM      8  C   UNL     1      -9.867  -0.866 -36.618  1.00  0.00     0.000 C 
BRANCH   8   9
ATOM      9  C   UNL     1      -9.598  -0.859 -38.132  1.00  0.00    -0.000 C 
BRANCH   9  10
ATOM     10  C   UNL     1      -8.923  -2.153 -38.618  1.00  0.00    -0.000 C 
BRANCH  10  11
ATOM     11  C   UNL     1      -9.939  -3.229 -39.033  1.00  0.00    -0.000 C 
BRANCH  11  12
ATOM     12  C   UNL     1      -9.802  -4.518 -38.209  1.00  0.00    -0.003 C 
ATOM     13  C   UNL     1     -10.972  -4.678 -37.242  1.00  0.00     0.004 C 
ENDBRANCH  11  12
ENDBRANCH  10  11
ENDBRANCH   9  10
ENDBRANCH   8   9
ENDBRANCH   1   8
TORSDOF 9
ENDMDL
MODEL 9
REMARK VINA RESULT:    -2.449      2.077      3.946
REMARK INTER + INTRA:          -4.777
REMARK INTER:                  -3.927
REMARK INTRA:                  -0.851
REMARK UNBOUND:                -1.040
REMARK SMILES CCCCCCCCCCC(=O)[O-]
REMARK SMILES IDX 7 1 8 2 9 3 10 4 11 5 12 6 13 7 6 8 5 9 4 10 3 11 2 12 1 13
REMARK H PARENT
REMARK Flexibility Score: inf
ROOT
ATOM      1  C   UNL     1     -27.609   3.655 -33.834  1.00  0.00     0.000 C 
ENDROOT
BRANCH   1   2
ATOM      2  C   UNL     1     -26.087   3.851 -33.862  1.00  0.00     0.000 C 
BRANCH   2   3
ATOM      3  C   UNL     1     -25.371   2.549 -34.239  1.00  0.00     0.006 C 
BRANCH   3   4
ATOM      4  C   UNL     1     -24.284   2.804 -35.287  1.00  0.00     0.053 C 
BRANCH   4   5
ATOM      5  C   UNL     1     -23.159   3.594 -34.695  1.00  0.00     0.041 C 
ATOM      6  O   UNL     1     -22.590   3.196 -33.645  1.00  0.00    -0.550 OA
ATOM      7  O   UNL     1     -22.773   4.796 -35.276  1.00  0.00    -0.550 OA
ENDBRANCH   4   5
ENDBRANCH   3   4
ENDBRANCH   2   3
ENDBRANCH   1   2
BRANCH   1   8
ATOM      8  C   UNL     1     -28.297   4.545 -34.879  1.00  0.00     0.000 C 
BRANCH   8   9
ATOM      9  C   UNL     1     -27.308   5.124 -35.905  1.00  0.00    -0.000 C 
BRANCH   9  10
ATOM     10  C   UNL     1     -27.671   4.750 -37.352  1.00  0.00    -0.000 C 
BRANCH  10  11
ATOM     11  C   UNL     1     -26.566   5.125 -38.353  1.00  0.00    -0.000 C 
BRANCH  11  12
ATOM     12  C   UNL     1     -25.161   5.037 -37.740  1.00  0.00    -0.003 C 
ATOM     13  C   UNL     1     -24.100   4.852 -38.822  1.00  0.00     0.004 C 
ENDBRANCH  11  12
ENDBRANCH  10  11
ENDBRANCH   9  10
ENDBRANCH   8   9
ENDBRANCH   1   8
TORSDOF 9
ENDMDL
