MODEL 1
REMARK VINA RESULT:    -4.807      0.000      0.000
REMARK INTER + INTRA:          -6.616
REMARK INTER:                  -6.213
REMARK INTRA:                  -0.404
REMARK UNBOUND:                -0.404
REMARK SMILES CCCCC(=O)c1ccccc1C(=O)[O-]
REMARK SMILES IDX 4 1 5 2 6 3 7 4 12 5 11 6 10 7 8 8 9 9 13 10 14 11 15 12
REMARK SMILES IDX 3 13 2 14 1 15
REMARK H PARENT
REMARK Flexibility Score: inf
ROOT
ATOM      1  C   UNL     1      27.256  19.500  54.390  1.00  0.00     0.081 C 
ENDROOT
BRANCH   1   2
ATOM      2  C   UNL     1      28.274  19.188  55.456  1.00  0.00     0.163 C 
ATOM      3  O   UNL     1      29.125  18.283  55.239  1.00  0.00    -0.294 OA
BRANCH   2   4
ATOM      4  C   UNL     1      28.284  19.901  56.755  1.00  0.00     0.027 A 
ATOM      5  C   UNL     1      27.774  19.314  57.947  1.00  0.00     0.008 A 
ATOM      6  C   UNL     1      27.908  20.012  59.163  1.00  0.00     0.011 A 
ATOM      7  C   UNL     1      28.511  21.270  59.203  1.00  0.00     0.001 A 
ATOM      8  C   UNL     1      28.889  21.171  56.820  1.00  0.00     0.012 A 
ATOM      9  C   UNL     1      28.995  21.849  58.034  1.00  0.00     0.001 A 
BRANCH   5  10
ATOM     10  C   UNL     1      27.060  18.012  57.960  1.00  0.00     0.072 C 
ATOM     11  O   UNL     1      27.709  16.934  57.919  1.00  0.00    -0.545 OA
ATOM     12  O   UNL     1      25.675  17.956  58.067  1.00  0.00    -0.545 OA
ENDBRANCH   5  10
ENDBRANCH   2   4
ENDBRANCH   1   2
BRANCH   1  13
ATOM     13  C   UNL     1      27.914  20.060  53.122  1.00  0.00     0.008 C 
BRANCH  13  14
ATOM     14  C   UNL     1      28.008  19.012  52.004  1.00  0.00    -0.003 C 
ATOM     15  C   UNL     1      26.824  19.120  51.048  1.00  0.00     0.004 C 
ENDBRANCH  13  14
ENDBRANCH   1  13
TORSDOF 5
ENDMDL
MODEL 2
REMARK VINA RESULT:    -3.902      1.741      2.946
REMARK INTER + INTRA:          -5.446
REMARK INTER:                  -5.461
REMARK INTRA:                   0.015
REMARK UNBOUND:                -0.404
REMARK SMILES CCCCC(=O)c1ccccc1C(=O)[O-]
REMARK SMILES IDX 4 1 5 2 6 3 7 4 12 5 11 6 10 7 8 8 9 9 13 10 14 11 15 12
REMARK SMILES IDX 3 13 2 14 1 15
REMARK H PARENT
REMARK Flexibility Score: inf
ROOT
ATOM      1  C   UNL     1      27.277  19.501  54.778  1.00  0.00     0.081 C 
ENDROOT
BRANCH   1   2
ATOM      2  C   UNL     1      27.950  18.695  55.859  1.00  0.00     0.163 C 
ATOM      3  O   UNL     1      29.125  18.279  55.666  1.00  0.00    -0.294 OA
BRANCH   2   4
ATOM      4  C   UNL     1      27.259  18.363  57.127  1.00  0.00     0.027 A 
ATOM      5  C   UNL     1      27.426  19.139  58.308  1.00  0.00     0.008 A 
ATOM      6  C   UNL     1      26.660  18.823  59.447  1.00  0.00     0.011 A 
ATOM      7  C   UNL     1      25.764  17.754  59.432  1.00  0.00     0.001 A 
ATOM      8  C   UNL     1      26.349  17.289  57.135  1.00  0.00     0.012 A 
ATOM      9  C   UNL     1      25.613  16.986  58.281  1.00  0.00     0.001 A 
BRANCH   5  10
ATOM     10  C   UNL     1      28.413  20.244  58.410  1.00  0.00     0.072 C 
ATOM     11  O   UNL     1      29.124  20.364  59.443  1.00  0.00    -0.545 OA
ATOM     12  O   UNL     1      28.605  21.132  57.359  1.00  0.00    -0.545 OA
ENDBRANCH   5  10
ENDBRANCH   2   4
ENDBRANCH   1   2
BRANCH   1  13
ATOM     13  C   UNL     1      28.288  20.036  53.756  1.00  0.00     0.008 C 
BRANCH  13  14
ATOM     14  C   UNL     1      27.617  20.459  52.441  1.00  0.00    -0.003 C 
ATOM     15  C   UNL     1      27.240  19.243  51.601  1.00  0.00     0.004 C 
ENDBRANCH  13  14
ENDBRANCH   1  13
TORSDOF 5
ENDMDL
MODEL 3
REMARK VINA RESULT:    -3.733      2.543      4.180
REMARK INTER + INTRA:          -5.228
REMARK INTER:                  -4.588
REMARK INTRA:                  -0.640
REMARK UNBOUND:                -0.404
REMARK SMILES CCCCC(=O)c1ccccc1C(=O)[O-]
REMARK SMILES IDX 4 1 5 2 6 3 7 4 12 5 11 6 10 7 8 8 9 9 13 10 14 11 15 12
REMARK SMILES IDX 3 13 2 14 1 15
REMARK H PARENT
REMARK Flexibility Score: inf
ROOT
ATOM      1  C   UNL     1      28.147  20.177  57.762  1.00  0.00     0.081 C 
ENDROOT
BRANCH   1   2
ATOM      2  C   UNL     1      28.021  18.890  58.535  1.00  0.00     0.163 C 
ATOM      3  O   UNL     1      29.041  18.162  58.678  1.00  0.00    -0.294 OA
BRANCH   2   4
ATOM      4  C   UNL     1      26.727  18.451  59.110  1.00  0.00     0.027 A 
ATOM      5  C   UNL     1      26.273  18.895  60.383  1.00  0.00     0.008 A 
ATOM      6  C   UNL     1      24.989  18.516  60.820  1.00  0.00     0.011 A 
ATOM      7  C   UNL     1      24.177  17.699  60.032  1.00  0.00     0.001 A 
ATOM      8  C   UNL     1      25.891  17.629  58.331  1.00  0.00     0.012 A 
ATOM      9  C   UNL     1      24.629  17.253  58.793  1.00  0.00     0.001 A 
BRANCH   5  10
ATOM     10  C   UNL     1      27.115  19.706  61.299  1.00  0.00     0.072 C 
ATOM     11  O   UNL     1      26.914  20.944  61.413  1.00  0.00    -0.545 OA
ATOM     12  O   UNL     1      28.101  19.113  62.079  1.00  0.00    -0.545 OA
ENDBRANCH   5  10
ENDBRANCH   2   4
ENDBRANCH   1   2
BRANCH   1  13
ATOM     13  C   UNL     1      28.692  19.939  56.348  1.00  0.00     0.008 C 
BRANCH  13  14
ATOM     14  C   UNL     1      27.668  19.241  55.440  1.00  0.00    -0.003 C 
ATOM     15  C   UNL     1      27.784  19.732  54.001  1.00  0.00     0.004 C 
ENDBRANCH  13  14
ENDBRANCH   1  13
TORSDOF 5
ENDMDL
MODEL 4
REMARK VINA RESULT:    -3.688      1.755      4.788
REMARK INTER + INTRA:          -5.169
REMARK INTER:                  -4.547
REMARK INTRA:                  -0.622
REMARK UNBOUND:                -0.404
REMARK SMILES CCCCC(=O)c1ccccc1C(=O)[O-]
REMARK SMILES IDX 4 1 5 2 6 3 7 4 12 5 11 6 10 7 8 8 9 9 13 10 14 11 15 12
REMARK SMILES IDX 3 13 2 14 1 15
REMARK H PARENT
REMARK Flexibility Score: inf
ROOT
ATOM      1  C   UNL     1      25.889  17.831  57.875  1.00  0.00     0.081 C 
ENDROOT
BRANCH   1   2
ATOM      2  C   UNL     1      27.385  18.004  57.922  1.00  0.00     0.163 C 
ATOM      3  O   UNL     1      28.112  16.983  58.056  1.00  0.00    -0.294 OA
BRANCH   2   4
ATOM      4  C   UNL     1      28.017  19.342  57.838  1.00  0.00     0.027 A 
ATOM      5  C   UNL     1      28.357  19.943  56.593  1.00  0.00     0.008 A 
ATOM      6  C   UNL     1      28.861  21.257  56.586  1.00  0.00     0.011 A 
ATOM      7  C   UNL     1      29.049  21.959  57.777  1.00  0.00     0.001 A 
ATOM      8  C   UNL     1      28.214  20.069  59.027  1.00  0.00     0.012 A 
ATOM      9  C   UNL     1      28.730  21.364  58.995  1.00  0.00     0.001 A 
BRANCH   5  10
ATOM     10  C   UNL     1      28.248  19.225  55.298  1.00  0.00     0.072 C 
ATOM     11  O   UNL     1      27.380  19.573  54.453  1.00  0.00    -0.545 OA
ATOM     12  O   UNL     1      29.124  18.197  54.972  1.00  0.00    -0.545 OA
ENDBRANCH   5  10
ENDBRANCH   2   4
ENDBRANCH   1   2
BRANCH   1  13
ATOM     13  C   UNL     1      25.354  17.164  59.149  1.00  0.00     0.008 C 
BRANCH  13  14
ATOM     14  C   UNL     1      25.286  18.141  60.332  1.00  0.00    -0.003 C 
ATOM     15  C   UNL     1      23.851  18.314  60.821  1.00  0.00     0.004 C 
ENDBRANCH  13  14
ENDBRANCH   1  13
TORSDOF 5
ENDMDL
MODEL 5
REMARK VINA RESULT:    -3.678      2.625      5.203
REMARK INTER + INTRA:          -5.157
REMARK INTER:                  -4.703
REMARK INTRA:                  -0.454
REMARK UNBOUND:                -0.404
REMARK SMILES CCCCC(=O)c1ccccc1C(=O)[O-]
REMARK SMILES IDX 4 1 5 2 6 3 7 4 12 5 11 6 10 7 8 8 9 9 13 10 14 11 15 12
REMARK SMILES IDX 3 13 2 14 1 15
REMARK H PARENT
REMARK Flexibility Score: inf
ROOT
ATOM      1  C   UNL     1      25.176  17.593  58.874  1.00  0.00     0.081 C 
ENDROOT
BRANCH   1   2
ATOM      2  C   UNL     1      26.677  17.703  58.807  1.00  0.00     0.163 C 
ATOM      3  O   UNL     1      27.378  16.892  59.471  1.00  0.00    -0.294 OA
BRANCH   2   4
ATOM      4  C   UNL     1      27.345  18.752  58.000  1.00  0.00     0.027 A 
ATOM      5  C   UNL     1      28.048  19.836  58.596  1.00  0.00     0.008 A 
ATOM      6  C   UNL     1      28.742  20.738  57.767  1.00  0.00     0.011 A 
ATOM      7  C   UNL     1      28.728  20.590  56.380  1.00  0.00     0.001 A 
ATOM      8  C   UNL     1      27.345  18.623  56.598  1.00  0.00     0.012 A 
ATOM      9  C   UNL     1      28.027  19.538  55.797  1.00  0.00     0.001 A 
BRANCH   5  10
ATOM     10  C   UNL     1      28.044  20.088  60.060  1.00  0.00     0.072 C 
ATOM     11  O   UNL     1      27.033  20.600  60.611  1.00  0.00    -0.545 OA
ATOM     12  O   UNL     1      29.125  19.722  60.853  1.00  0.00    -0.545 OA
ENDBRANCH   5  10
ENDBRANCH   2   4
ENDBRANCH   1   2
BRANCH   1  13
ATOM     13  C   UNL     1      24.636  18.020  60.245  1.00  0.00     0.008 C 
BRANCH  13  14
ATOM     14  C   UNL     1      23.169  17.611  60.445  1.00  0.00    -0.003 C 
ATOM     15  C   UNL     1      22.416  17.600  59.118  1.00  0.00     0.004 C 
ENDBRANCH  13  14
ENDBRANCH   1  13
TORSDOF 5
ENDMDL
MODEL 6
REMARK VINA RESULT:    -3.659     16.561     18.263
REMARK INTER + INTRA:          -5.132
REMARK INTER:                  -4.199
REMARK INTRA:                  -0.932
REMARK UNBOUND:                -0.404
REMARK SMILES CCCCC(=O)c1ccccc1C(=O)[O-]
REMARK SMILES IDX 4 1 5 2 6 3 7 4 12 5 11 6 10 7 8 8 9 9 13 10 14 11 15 12
REMARK SMILES IDX 3 13 2 14 1 15
REMARK H PARENT
REMARK Flexibility Score: inf
ROOT
ATOM      1  C   UNL     1      13.773  20.261  43.577  1.00  0.00     0.081 C 
ENDROOT
BRANCH   1   2
ATOM      2  C   UNL     1      12.946  20.145  44.831  1.00  0.00     0.163 C 
ATOM      3  O   UNL     1      11.817  20.706  44.870  1.00  0.00    -0.294 OA
BRANCH   2   4
ATOM      4  C   UNL     1      13.435  19.410  46.022  1.00  0.00     0.027 A 
ATOM      5  C   UNL     1      12.850  18.187  46.452  1.00  0.00     0.008 A 
ATOM      6  C   UNL     1      13.432  17.494  47.530  1.00  0.00     0.011 A 
ATOM      7  C   UNL     1      14.552  18.004  48.188  1.00  0.00     0.001 A 
ATOM      8  C   UNL     1      14.566  19.905  46.699  1.00  0.00     0.012 A 
ATOM      9  C   UNL     1      15.114  19.209  47.775  1.00  0.00     0.001 A 
BRANCH   5  10
ATOM     10  C   UNL     1      11.617  17.627  45.841  1.00  0.00     0.072 C 
ATOM     11  O   UNL     1      10.494  17.846  46.368  1.00  0.00    -0.545 OA
ATOM     12  O   UNL     1      11.671  16.900  44.658  1.00  0.00    -0.545 OA
ENDBRANCH   5  10
ENDBRANCH   2   4
ENDBRANCH   1   2
BRANCH   1  13
ATOM     13  C   UNL     1      13.685  18.991  42.720  1.00  0.00     0.008 C 
BRANCH  13  14
ATOM     14  C   UNL     1      15.025  18.244  42.650  1.00  0.00    -0.003 C 
ATOM     15  C   UNL     1      15.078  17.113  43.672  1.00  0.00     0.004 C 
ENDBRANCH  13  14
ENDBRANCH   1  13
TORSDOF 5
ENDMDL
MODEL 7
REMARK VINA RESULT:    -3.646     15.607     18.830
REMARK INTER + INTRA:          -5.116
REMARK INTER:                  -4.642
REMARK INTRA:                  -0.474
REMARK UNBOUND:                -0.404
REMARK SMILES CCCCC(=O)c1ccccc1C(=O)[O-]
REMARK SMILES IDX 4 1 5 2 6 3 7 4 12 5 11 6 10 7 8 8 9 9 13 10 14 11 15 12
REMARK SMILES IDX 3 13 2 14 1 15
REMARK H PARENT
REMARK Flexibility Score: inf
ROOT
ATOM      1  C   UNL     1      14.503  18.307  46.504  1.00  0.00     0.081 C 
ENDROOT
BRANCH   1   2
ATOM      2  C   UNL     1      14.049  19.600  45.878  1.00  0.00     0.163 C 
ATOM      3  O   UNL     1      14.712  20.650  46.101  1.00  0.00    -0.294 OA
BRANCH   2   4
ATOM      4  C   UNL     1      12.836  19.671  45.030  1.00  0.00     0.027 A 
ATOM      5  C   UNL     1      12.906  19.813  43.616  1.00  0.00     0.008 A 
ATOM      6  C   UNL     1      11.715  19.772  42.866  1.00  0.00     0.011 A 
ATOM      7  C   UNL     1      10.478  19.617  43.494  1.00  0.00     0.001 A 
ATOM      8  C   UNL     1      11.578  19.515  45.643  1.00  0.00     0.012 A 
ATOM      9  C   UNL     1      10.411  19.494  44.880  1.00  0.00     0.001 A 
BRANCH   5  10
ATOM     10  C   UNL     1      14.182  20.051  42.894  1.00  0.00     0.072 C 
ATOM     11  O   UNL     1      14.790  19.091  42.350  1.00  0.00    -0.545 OA
ATOM     12  O   UNL     1      14.702  21.332  42.763  1.00  0.00    -0.545 OA
ENDBRANCH   5  10
ENDBRANCH   2   4
ENDBRANCH   1   2
BRANCH   1  13
ATOM     13  C   UNL     1      14.602  18.419  48.031  1.00  0.00     0.008 C 
BRANCH  13  14
ATOM     14  C   UNL     1      15.998  18.044  48.552  1.00  0.00    -0.003 C 
ATOM     15  C   UNL     1      16.816  19.289  48.877  1.00  0.00     0.004 C 
ENDBRANCH  13  14
ENDBRANCH   1  13
TORSDOF 5
ENDMDL
MODEL 8
REMARK VINA RESULT:    -3.589     14.504     17.898
REMARK INTER + INTRA:          -5.042
REMARK INTER:                  -4.591
REMARK INTRA:                  -0.451
REMARK UNBOUND:                -0.404
REMARK SMILES CCCCC(=O)c1ccccc1C(=O)[O-]
REMARK SMILES IDX 4 1 5 2 6 3 7 4 12 5 11 6 10 7 8 8 9 9 13 10 14 11 15 12
REMARK SMILES IDX 3 13 2 14 1 15
REMARK H PARENT
REMARK Flexibility Score: inf
ROOT
ATOM      1  C   UNL     1      14.876  19.146  47.619  1.00  0.00     0.081 C 
ENDROOT
BRANCH   1   2
ATOM      2  C   UNL     1      13.968  18.224  46.848  1.00  0.00     0.163 C 
ATOM      3  O   UNL     1      13.059  17.607  47.467  1.00  0.00    -0.294 OA
BRANCH   2   4
ATOM      4  C   UNL     1      14.133  18.008  45.391  1.00  0.00     0.027 A 
ATOM      5  C   UNL     1      13.427  18.780  44.426  1.00  0.00     0.008 A 
ATOM      6  C   UNL     1      13.710  18.587  43.060  1.00  0.00     0.011 A 
ATOM      7  C   UNL     1      14.650  17.641  42.650  1.00  0.00     0.001 A 
ATOM      8  C   UNL     1      15.077  17.060  44.955  1.00  0.00     0.012 A 
ATOM      9  C   UNL     1      15.328  16.876  43.595  1.00  0.00     0.001 A 
BRANCH   5  10
ATOM     10  C   UNL     1      12.366  19.752  44.793  1.00  0.00     0.072 C 
ATOM     11  O   UNL     1      12.560  20.987  44.642  1.00  0.00    -0.545 OA
ATOM     12  O   UNL     1      11.131  19.320  45.260  1.00  0.00    -0.545 OA
ENDBRANCH   5  10
ENDBRANCH   2   4
ENDBRANCH   1   2
BRANCH   1  13
ATOM     13  C   UNL     1      15.753  18.378  48.617  1.00  0.00     0.008 C 
BRANCH  13  14
ATOM     14  C   UNL     1      17.012  19.165  49.010  1.00  0.00    -0.003 C 
ATOM     15  C   UNL     1      17.881  18.365  49.975  1.00  0.00     0.004 C 
ENDBRANCH  13  14
ENDBRANCH   1  13
TORSDOF 5
ENDMDL
MODEL 9
REMARK VINA RESULT:    -3.571     14.782     17.828
REMARK INTER + INTRA:          -5.019
REMARK INTER:                  -4.741
REMARK INTRA:                  -0.277
REMARK UNBOUND:                -0.404
REMARK SMILES CCCCC(=O)c1ccccc1C(=O)[O-]
REMARK SMILES IDX 4 1 5 2 6 3 7 4 12 5 11 6 10 7 8 8 9 9 13 10 14 11 15 12
REMARK SMILES IDX 3 13 2 14 1 15
REMARK H PARENT
REMARK Flexibility Score: inf
ROOT
ATOM      1  C   UNL     1      14.878  17.968  48.218  1.00  0.00     0.081 C 
ENDROOT
BRANCH   1   2
ATOM      2  C   UNL     1      14.343  17.638  46.849  1.00  0.00     0.163 C 
ATOM      3  O   UNL     1      15.082  17.011  46.041  1.00  0.00    -0.294 OA
BRANCH   2   4
ATOM      4  C   UNL     1      12.985  18.050  46.424  1.00  0.00     0.027 A 
ATOM      5  C   UNL     1      12.763  19.164  45.567  1.00  0.00     0.008 A 
ATOM      6  C   UNL     1      11.454  19.436  45.124  1.00  0.00     0.011 A 
ATOM      7  C   UNL     1      10.382  18.642  45.533  1.00  0.00     0.001 A 
ATOM      8  C   UNL     1      11.888  17.263  46.823  1.00  0.00     0.012 A 
ATOM      9  C   UNL     1      10.598  17.562  46.384  1.00  0.00     0.001 A 
BRANCH   5  10
ATOM     10  C   UNL     1      13.850  20.088  45.153  1.00  0.00     0.072 C 
ATOM     11  O   UNL     1      14.551  20.671  46.022  1.00  0.00    -0.545 OA
ATOM     12  O   UNL     1      14.146  20.290  43.810  1.00  0.00    -0.545 OA
ENDBRANCH   5  10
ENDBRANCH   2   4
ENDBRANCH   1   2
BRANCH   1  13
ATOM     13  C   UNL     1      15.974  16.986  48.652  1.00  0.00     0.008 C 
BRANCH  13  14
ATOM     14  C   UNL     1      17.156  17.695  49.329  1.00  0.00    -0.003 C 
ATOM     15  C   UNL     1      17.136  19.193  49.043  1.00  0.00     0.004 C 
ENDBRANCH  13  14
ENDBRANCH   1  13
TORSDOF 5
ENDMDL
