MODEL 1
REMARK VINA RESULT:    45.893      0.000      0.000
REMARK INTER + INTRA:          56.975
REMARK INTER:                  56.624
REMARK INTRA:                   0.351
REMARK UNBOUND:                 0.351
REMARK SMILES Oc1cc(O)c2cc(O)c(-c3cc(O)c(O)c(O)c3)[o+]c2c1
REMARK SMILES IDX 10 1 20 2 21 3 22 4 2 5 3 6 4 7 6 8 7 9 8 10 11 11 12 12
REMARK SMILES IDX 13 13 19 14 15 15 17 16 14 17 16 19 18 21 9 23 1 25 5 27
REMARK H PARENT 14 18 16 20 18 22 9 24 1 26 5 28
REMARK Flexibility Score: inf
ROOT
ATOM      1  C   UNL     1      12.140   2.110  27.780  1.00  0.00     0.402 A 
ATOM      2  O   UNL     1      11.551   2.173  26.588  1.00  0.00    -0.202 OA
ATOM      3  C   UNL     1      11.346   3.313  25.936  1.00  0.00     0.368 A 
ATOM      4  C   UNL     1      10.722   3.278  24.686  1.00  0.00     0.162 A 
ATOM      5  C   UNL     1      10.495   4.461  23.977  1.00  0.00     0.128 A 
ATOM      6  C   UNL     1      10.897   5.684  24.519  1.00  0.00     0.093 A 
ATOM      7  C   UNL     1      11.524   5.746  25.770  1.00  0.00     0.136 A 
ATOM      8  C   UNL     1      11.754   4.547  26.495  1.00  0.00     0.125 A 
ATOM      9  C   UNL     1      12.363   4.516  27.760  1.00  0.00     0.078 A 
ATOM     10  C   UNL     1      12.551   3.295  28.415  1.00  0.00     0.223 A 
ENDROOT
BRANCH   1  11
ATOM     11  C   UNL     1      12.321   0.778  28.401  1.00  0.00     0.091 A 
ATOM     12  C   UNL     1      12.240  -0.373  27.602  1.00  0.00     0.068 A 
ATOM     13  C   UNL     1      12.428  -1.646  28.161  1.00  0.00     0.162 A 
ATOM     14  C   UNL     1      12.630   0.643  29.765  1.00  0.00     0.068 A 
ATOM     15  C   UNL     1      12.715  -1.772  29.531  1.00  0.00     0.200 A 
ATOM     16  C   UNL     1      12.820  -0.627  30.329  1.00  0.00     0.162 A 
BRANCH  13  17
ATOM     17  O   UNL     1      12.330  -2.783  27.360  1.00  0.00    -0.504 OA
ATOM     18  H   UNL     1      11.701  -2.822  26.568  1.00  0.00     0.293 HD
ENDBRANCH  13  17
BRANCH  15  19
ATOM     19  O   UNL     1      12.903  -3.027  30.111  1.00  0.00    -0.502 OA
ATOM     20  H   UNL     1      13.505  -3.163  30.915  1.00  0.00     0.293 HD
ENDBRANCH  15  19
BRANCH  16  21
ATOM     21  O   UNL     1      13.119  -0.756  31.685  1.00  0.00    -0.504 OA
ATOM     22  H   UNL     1      12.799  -0.078  32.367  1.00  0.00     0.293 HD
ENDBRANCH  16  21
ENDBRANCH   1  11
BRANCH  10  23
ATOM     23  O   UNL     1      13.111   3.267  29.694  1.00  0.00    -0.500 OA
ATOM     24  H   UNL     1      13.992   2.801  29.879  1.00  0.00     0.294 HD
ENDBRANCH  10  23
BRANCH   5  25
ATOM     25  O   UNL     1       9.873   4.434  22.731  1.00  0.00    -0.507 OA
ATOM     26  H   UNL     1      10.020   5.170  22.049  1.00  0.00     0.293 HD
ENDBRANCH   5  25
BRANCH   7  27
ATOM     27  O   UNL     1      11.898   7.008  26.240  1.00  0.00    -0.507 OA
ATOM     28  H   UNL     1      11.820   7.862  25.708  1.00  0.00     0.293 HD
ENDBRANCH   7  27
TORSDOF 7
ENDMDL
MODEL 2
REMARK VINA RESULT:    47.200      1.088      3.114
REMARK INTER + INTRA:          58.588
REMARK INTER:                  58.271
REMARK INTRA:                   0.317
REMARK UNBOUND:                 0.351
REMARK SMILES Oc1cc(O)c2cc(O)c(-c3cc(O)c(O)c(O)c3)[o+]c2c1
REMARK SMILES IDX 10 1 20 2 21 3 22 4 2 5 3 6 4 7 6 8 7 9 8 10 11 11 12 12
REMARK SMILES IDX 13 13 19 14 15 15 17 16 14 17 16 19 18 21 9 23 1 25 5 27
REMARK H PARENT 14 18 16 20 18 22 9 24 1 26 5 28
REMARK Flexibility Score: inf
ROOT
ATOM      1  C   UNL     1      11.491   1.733  26.912  1.00  0.00     0.402 A 
ATOM      2  O   UNL     1      12.003   2.927  27.200  1.00  0.00    -0.202 OA
ATOM      3  C   UNL     1      11.727   4.025  26.505  1.00  0.00     0.368 A 
ATOM      4  C   UNL     1      12.310   5.237  26.888  1.00  0.00     0.162 A 
ATOM      5  C   UNL     1      12.037   6.408  26.175  1.00  0.00     0.128 A 
ATOM      6  C   UNL     1      11.175   6.369  25.077  1.00  0.00     0.093 A 
ATOM      7  C   UNL     1      10.577   5.168  24.674  1.00  0.00     0.136 A 
ATOM      8  C   UNL     1      10.854   3.975  25.392  1.00  0.00     0.125 A 
ATOM      9  C   UNL     1      10.311   2.726  25.051  1.00  0.00     0.078 A 
ATOM     10  C   UNL     1      10.635   1.593  25.804  1.00  0.00     0.223 A 
ENDROOT
BRANCH   1  11
ATOM     11  C   UNL     1      11.867   0.585  27.768  1.00  0.00     0.091 A 
ATOM     12  C   UNL     1      12.320   0.819  29.076  1.00  0.00     0.068 A 
ATOM     13  C   UNL     1      12.662  -0.251  29.916  1.00  0.00     0.162 A 
ATOM     14  C   UNL     1      11.725  -0.739  27.320  1.00  0.00     0.068 A 
ATOM     15  C   UNL     1      12.538  -1.572  29.452  1.00  0.00     0.200 A 
ATOM     16  C   UNL     1      12.065  -1.813  28.156  1.00  0.00     0.162 A 
BRANCH  13  17
ATOM     17  O   UNL     1      13.125  -0.006  31.208  1.00  0.00    -0.504 OA
ATOM     18  H   UNL     1      14.075   0.298  31.383  1.00  0.00     0.293 HD
ENDBRANCH  13  17
BRANCH  15  19
ATOM     19  O   UNL     1      12.874  -2.653  30.266  1.00  0.00    -0.502 OA
ATOM     20  H   UNL     1      12.186  -3.135  30.832  1.00  0.00     0.293 HD
ENDBRANCH  15  19
BRANCH  16  21
ATOM     21  O   UNL     1      11.929  -3.125  27.705  1.00  0.00    -0.504 OA
ATOM     22  H   UNL     1      11.057  -3.466  27.318  1.00  0.00     0.293 HD
ENDBRANCH  16  21
ENDBRANCH   1  11
BRANCH  10  23
ATOM     23  O   UNL     1      10.136   0.342  25.436  1.00  0.00    -0.500 OA
ATOM     24  H   UNL     1       9.153   0.114  25.526  1.00  0.00     0.294 HD
ENDBRANCH  10  23
BRANCH   5  25
ATOM     25  O   UNL     1      12.615   7.618  26.551  1.00  0.00    -0.507 OA
ATOM     26  H   UNL     1      12.061   8.370  26.946  1.00  0.00     0.293 HD
ENDBRANCH   5  25
BRANCH   7  27
ATOM     27  O   UNL     1       9.724   5.213  23.568  1.00  0.00    -0.507 OA
ATOM     28  H   UNL     1       9.923   5.713  22.713  1.00  0.00     0.293 HD
ENDBRANCH   7  27
TORSDOF 7
ENDMDL
MODEL 3
REMARK VINA RESULT:    48.160     14.427     17.749
REMARK INTER + INTRA:          59.773
REMARK INTER:                  60.020
REMARK INTRA:                  -0.248
REMARK UNBOUND:                 0.351
REMARK SMILES Oc1cc(O)c2cc(O)c(-c3cc(O)c(O)c(O)c3)[o+]c2c1
REMARK SMILES IDX 10 1 20 2 21 3 22 4 2 5 3 6 4 7 6 8 7 9 8 10 11 11 12 12
REMARK SMILES IDX 13 13 19 14 15 15 17 16 14 17 16 19 18 21 9 23 1 25 5 27
REMARK H PARENT 14 18 16 20 18 22 9 24 1 26 5 28
REMARK Flexibility Score: inf
ROOT
ATOM      1  C   UNL     1      -2.313   7.079  21.200  1.00  0.00     0.402 A 
ATOM      2  O   UNL     1      -3.082   7.763  22.043  1.00  0.00    -0.202 OA
ATOM      3  C   UNL     1      -2.785   7.933  23.327  1.00  0.00     0.368 A 
ATOM      4  C   UNL     1      -3.654   8.672  24.135  1.00  0.00     0.162 A 
ATOM      5  C   UNL     1      -3.365   8.867  25.488  1.00  0.00     0.128 A 
ATOM      6  C   UNL     1      -2.201   8.324  26.036  1.00  0.00     0.093 A 
ATOM      7  C   UNL     1      -1.314   7.579  25.249  1.00  0.00     0.136 A 
ATOM      8  C   UNL     1      -1.604   7.376  23.874  1.00  0.00     0.125 A 
ATOM      9  C   UNL     1      -0.779   6.633  23.013  1.00  0.00     0.078 A 
ATOM     10  C   UNL     1      -1.135   6.471  21.671  1.00  0.00     0.223 A 
ENDROOT
BRANCH   1  11
ATOM     11  C   UNL     1      -2.747   6.969  19.788  1.00  0.00     0.091 A 
ATOM     12  C   UNL     1      -1.974   7.565  18.780  1.00  0.00     0.068 A 
ATOM     13  C   UNL     1      -2.350   7.459  17.433  1.00  0.00     0.162 A 
ATOM     14  C   UNL     1      -3.888   6.231  19.429  1.00  0.00     0.068 A 
ATOM     15  C   UNL     1      -3.505   6.737  17.085  1.00  0.00     0.200 A 
ATOM     16  C   UNL     1      -4.269   6.121  18.084  1.00  0.00     0.162 A 
BRANCH  13  17
ATOM     17  O   UNL     1      -1.582   8.068  16.442  1.00  0.00    -0.504 OA
ATOM     18  H   UNL     1      -0.658   7.729  16.204  1.00  0.00     0.293 HD
ENDBRANCH  13  17
BRANCH  15  19
ATOM     19  O   UNL     1      -3.902   6.619  15.754  1.00  0.00    -0.502 OA
ATOM     20  H   UNL     1      -3.291   6.869  14.985  1.00  0.00     0.293 HD
ENDBRANCH  15  19
BRANCH  16  21
ATOM     21  O   UNL     1      -5.405   5.393  17.733  1.00  0.00    -0.504 OA
ATOM     22  H   UNL     1      -5.865   4.775  18.391  1.00  0.00     0.293 HD
ENDBRANCH  16  21
ENDBRANCH   1  11
BRANCH  10  23
ATOM     23  O   UNL     1      -0.343   5.692  20.826  1.00  0.00    -0.500 OA
ATOM     24  H   UNL     1      -0.472   5.696  19.822  1.00  0.00     0.294 HD
ENDBRANCH  10  23
BRANCH   5  25
ATOM     25  O   UNL     1      -4.227   9.602  26.299  1.00  0.00    -0.507 OA
ATOM     26  H   UNL     1      -4.079   9.676  27.300  1.00  0.00     0.293 HD
ENDBRANCH   5  25
BRANCH   7  27
ATOM     27  O   UNL     1      -0.170   7.073  25.872  1.00  0.00    -0.507 OA
ATOM     28  H   UNL     1      -0.179   6.489  26.696  1.00  0.00     0.293 HD
ENDBRANCH   7  27
TORSDOF 7
ENDMDL
MODEL 4
REMARK VINA RESULT:    48.568     14.452     17.800
REMARK INTER + INTRA:          60.276
REMARK INTER:                  60.566
REMARK INTRA:                  -0.290
REMARK UNBOUND:                 0.351
REMARK SMILES Oc1cc(O)c2cc(O)c(-c3cc(O)c(O)c(O)c3)[o+]c2c1
REMARK SMILES IDX 10 1 20 2 21 3 22 4 2 5 3 6 4 7 6 8 7 9 8 10 11 11 12 12
REMARK SMILES IDX 13 13 19 14 15 15 17 16 14 17 16 19 18 21 9 23 1 25 5 27
REMARK H PARENT 14 18 16 20 18 22 9 24 1 26 5 28
REMARK Flexibility Score: inf
ROOT
ATOM      1  C   UNL     1      -2.307   7.034  21.069  1.00  0.00     0.402 A 
ATOM      2  O   UNL     1      -3.088   7.711  21.907  1.00  0.00    -0.202 OA
ATOM      3  C   UNL     1      -2.792   7.899  23.189  1.00  0.00     0.368 A 
ATOM      4  C   UNL     1      -3.674   8.629  23.991  1.00  0.00     0.162 A 
ATOM      5  C   UNL     1      -3.386   8.843  25.342  1.00  0.00     0.128 A 
ATOM      6  C   UNL     1      -2.211   8.328  25.893  1.00  0.00     0.093 A 
ATOM      7  C   UNL     1      -1.310   7.594  25.111  1.00  0.00     0.136 A 
ATOM      8  C   UNL     1      -1.599   7.371  23.739  1.00  0.00     0.125 A 
ATOM      9  C   UNL     1      -0.762   6.636  22.884  1.00  0.00     0.078 A 
ATOM     10  C   UNL     1      -1.117   6.455  21.543  1.00  0.00     0.223 A 
ENDROOT
BRANCH   1  11
ATOM     11  C   UNL     1      -2.742   6.902  19.660  1.00  0.00     0.091 A 
ATOM     12  C   UNL     1      -3.906   6.176  19.362  1.00  0.00     0.068 A 
ATOM     13  C   UNL     1      -4.352   6.052  18.038  1.00  0.00     0.162 A 
ATOM     14  C   UNL     1      -2.046   7.536  18.617  1.00  0.00     0.068 A 
ATOM     15  C   UNL     1      -3.637   6.672  16.999  1.00  0.00     0.200 A 
ATOM     16  C   UNL     1      -2.487   7.417  17.291  1.00  0.00     0.162 A 
BRANCH  13  17
ATOM     17  O   UNL     1      -5.500   5.316  17.752  1.00  0.00    -0.504 OA
ATOM     18  H   UNL     1      -5.553   4.704  16.947  1.00  0.00     0.293 HD
ENDBRANCH  13  17
BRANCH  15  19
ATOM     19  O   UNL     1      -4.058   6.561  15.673  1.00  0.00    -0.502 OA
ATOM     20  H   UNL     1      -4.901   7.011  15.337  1.00  0.00     0.293 HD
ENDBRANCH  15  19
BRANCH  16  21
ATOM     21  O   UNL     1      -1.790   8.042  16.259  1.00  0.00    -0.504 OA
ATOM     22  H   UNL     1      -0.940   7.646  15.876  1.00  0.00     0.293 HD
ENDBRANCH  16  21
ENDBRANCH   1  11
BRANCH  10  23
ATOM     23  O   UNL     1      -0.311   5.683  20.705  1.00  0.00    -0.500 OA
ATOM     24  H   UNL     1      -0.496   5.605  19.712  1.00  0.00     0.294 HD
ENDBRANCH  10  23
BRANCH   5  25
ATOM     25  O   UNL     1      -4.261   9.569  26.148  1.00  0.00    -0.507 OA
ATOM     26  H   UNL     1      -4.232   9.497  27.159  1.00  0.00     0.293 HD
ENDBRANCH   5  25
BRANCH   7  27
ATOM     27  O   UNL     1      -0.155   7.116  25.736  1.00  0.00    -0.507 OA
ATOM     28  H   UNL     1       0.636   6.719  25.249  1.00  0.00     0.293 HD
ENDBRANCH   7  27
TORSDOF 7
ENDMDL
