MODEL 1
REMARK VINA RESULT:    -2.644      0.000      0.000
REMARK INTER + INTRA:          -3.864
REMARK INTER:                  -3.571
REMARK INTRA:                  -0.293
REMARK UNBOUND:                -0.293
REMARK SMILES CCCCCCCC(=O)[O-]
REMARK SMILES IDX 5 1 6 2 7 3 8 4 9 5 10 6 4 7 3 8 2 9 1 10
REMARK H PARENT
REMARK Flexibility Score: inf
ROOT
ATOM      1  C   UNL     1      -8.483  39.268  17.921  1.00  0.00     0.000 C 
ENDROOT
BRANCH   1   2
ATOM      2  C   UNL     1      -8.652  40.434  16.935  1.00  0.00     0.006 C 
BRANCH   2   3
ATOM      3  C   UNL     1      -9.122  39.931  15.567  1.00  0.00     0.053 C 
BRANCH   3   4
ATOM      4  C   UNL     1     -10.545  40.323  15.325  1.00  0.00     0.041 C 
ATOM      5  O   UNL     1     -11.454  39.919  16.097  1.00  0.00    -0.550 OA
ATOM      6  O   UNL     1     -10.875  41.093  14.217  1.00  0.00    -0.550 OA
ENDBRANCH   3   4
ENDBRANCH   2   3
ENDBRANCH   1   2
BRANCH   1   7
ATOM      7  C   UNL     1      -7.501  39.593  19.058  1.00  0.00     0.000 C 
BRANCH   7   8
ATOM      8  C   UNL     1      -6.466  40.660  18.658  1.00  0.00    -0.000 C 
BRANCH   8   9
ATOM      9  C   UNL     1      -5.126  40.047  18.225  1.00  0.00    -0.003 C 
ATOM     10  C   UNL     1      -4.171  41.079  17.626  1.00  0.00     0.004 C 
ENDBRANCH   8   9
ENDBRANCH   7   8
ENDBRANCH   1   7
TORSDOF 6
ENDMDL
MODEL 2
REMARK VINA RESULT:    -2.551      1.781      3.068
REMARK INTER + INTRA:          -3.738
REMARK INTER:                  -3.340
REMARK INTRA:                  -0.398
REMARK UNBOUND:                -0.293
REMARK SMILES CCCCCCCC(=O)[O-]
REMARK SMILES IDX 5 1 6 2 7 3 8 4 9 5 10 6 4 7 3 8 2 9 1 10
REMARK H PARENT
REMARK Flexibility Score: inf
ROOT
ATOM      1  C   UNL     1      -7.974  40.686  16.299  1.00  0.00     0.000 C 
ENDROOT
BRANCH   1   2
ATOM      2  C   UNL     1      -9.076  39.799  15.697  1.00  0.00     0.006 C 
BRANCH   2   3
ATOM      3  C   UNL     1     -10.243  40.648  15.185  1.00  0.00     0.053 C 
BRANCH   3   4
ATOM      4  C   UNL     1     -11.539  40.146  15.738  1.00  0.00     0.041 C 
ATOM      5  O   UNL     1     -11.694  40.030  16.982  1.00  0.00    -0.550 OA
ATOM      6  O   UNL     1     -12.559  39.759  14.878  1.00  0.00    -0.550 OA
ENDBRANCH   3   4
ENDBRANCH   2   3
ENDBRANCH   1   2
BRANCH   1   7
ATOM      7  C   UNL     1      -7.725  40.391  17.787  1.00  0.00     0.000 C 
BRANCH   7   8
ATOM      8  C   UNL     1      -8.573  39.216  18.307  1.00  0.00    -0.000 C 
BRANCH   8   9
ATOM      9  C   UNL     1      -9.148  39.480  19.706  1.00  0.00    -0.003 C 
ATOM     10  C   UNL     1     -10.470  38.751  19.947  1.00  0.00     0.004 C 
ENDBRANCH   8   9
ENDBRANCH   7   8
ENDBRANCH   1   7
TORSDOF 6
ENDMDL
MODEL 3
REMARK VINA RESULT:    -2.478      3.221      4.699
REMARK INTER + INTRA:          -3.640
REMARK INTER:                  -3.242
REMARK INTRA:                  -0.398
REMARK UNBOUND:                -0.293
REMARK SMILES CCCCCCCC(=O)[O-]
REMARK SMILES IDX 5 1 6 2 7 3 8 4 9 5 10 6 4 7 3 8 2 9 1 10
REMARK H PARENT
REMARK Flexibility Score: inf
ROOT
ATOM      1  C   UNL     1      -8.491  39.249  18.304  1.00  0.00     0.000 C 
ENDROOT
BRANCH   1   2
ATOM      2  C   UNL     1      -9.353  39.714  19.488  1.00  0.00     0.006 C 
BRANCH   2   3
ATOM      3  C   UNL     1     -10.781  39.172  19.373  1.00  0.00     0.053 C 
BRANCH   3   4
ATOM      4  C   UNL     1     -11.098  38.278  20.530  1.00  0.00     0.041 C 
ATOM      5  O   UNL     1     -10.520  38.446  21.636  1.00  0.00    -0.550 OA
ATOM      6  O   UNL     1     -11.995  37.230  20.374  1.00  0.00    -0.550 OA
ENDBRANCH   3   4
ENDBRANCH   2   3
ENDBRANCH   1   2
BRANCH   1   7
ATOM      7  C   UNL     1      -7.612  40.374  17.735  1.00  0.00     0.000 C 
BRANCH   7   8
ATOM      8  C   UNL     1      -8.067  40.829  16.337  1.00  0.00    -0.000 C 
BRANCH   8   9
ATOM      9  C   UNL     1      -8.970  39.797  15.647  1.00  0.00    -0.003 C 
ATOM     10  C   UNL     1     -10.367  40.340  15.350  1.00  0.00     0.004 C 
ENDBRANCH   8   9
ENDBRANCH   7   8
ENDBRANCH   1   7
TORSDOF 6
ENDMDL
MODEL 4
REMARK VINA RESULT:    -2.471     22.847     23.463
REMARK INTER + INTRA:          -3.631
REMARK INTER:                  -3.159
REMARK INTRA:                  -0.472
REMARK UNBOUND:                -0.293
REMARK SMILES CCCCCCCC(=O)[O-]
REMARK SMILES IDX 5 1 6 2 7 3 8 4 9 5 10 6 4 7 3 8 2 9 1 10
REMARK H PARENT
REMARK Flexibility Score: inf
ROOT
ATOM      1  C   UNL     1       3.897  22.879   4.427  1.00  0.00     0.000 C 
ENDROOT
BRANCH   1   2
ATOM      2  C   UNL     1       3.305  22.112   5.620  1.00  0.00     0.006 C 
BRANCH   2   3
ATOM      3  C   UNL     1       2.497  23.047   6.524  1.00  0.00     0.053 C 
BRANCH   3   4
ATOM      4  C   UNL     1       1.035  22.750   6.413  1.00  0.00     0.041 C 
ATOM      5  O   UNL     1       0.414  22.251   7.387  1.00  0.00    -0.550 OA
ATOM      6  O   UNL     1       0.368  22.979   5.216  1.00  0.00    -0.550 OA
ENDBRANCH   3   4
ENDBRANCH   2   3
ENDBRANCH   1   2
BRANCH   1   7
ATOM      7  C   UNL     1       4.427  24.267   4.820  1.00  0.00     0.000 C 
BRANCH   7   8
ATOM      8  C   UNL     1       5.962  24.357   4.741  1.00  0.00    -0.000 C 
BRANCH   8   9
ATOM      9  C   UNL     1       6.590  24.861   6.049  1.00  0.00    -0.003 C 
ATOM     10  C   UNL     1       6.006  24.177   7.285  1.00  0.00     0.004 C 
ENDBRANCH   8   9
ENDBRANCH   7   8
ENDBRANCH   1   7
TORSDOF 6
ENDMDL
MODEL 5
REMARK VINA RESULT:    -2.450      2.613      5.072
REMARK INTER + INTRA:          -3.603
REMARK INTER:                  -3.241
REMARK INTRA:                  -0.362
REMARK UNBOUND:                -0.293
REMARK SMILES CCCCCCCC(=O)[O-]
REMARK SMILES IDX 5 1 6 2 7 3 8 4 9 5 10 6 4 7 3 8 2 9 1 10
REMARK H PARENT
REMARK Flexibility Score: inf
ROOT
ATOM      1  C   UNL     1      -7.993  40.738  16.288  1.00  0.00     0.000 C 
ENDROOT
BRANCH   1   2
ATOM      2  C   UNL     1      -7.952  40.439  17.795  1.00  0.00     0.006 C 
BRANCH   2   3
ATOM      3  C   UNL     1      -8.670  39.124  18.111  1.00  0.00     0.053 C 
BRANCH   3   4
ATOM      4  C   UNL     1      -9.579  39.293  19.287  1.00  0.00     0.041 C 
ATOM      5  O   UNL     1     -10.822  39.147  19.152  1.00  0.00    -0.550 OA
ATOM      6  O   UNL     1      -9.059  39.660  20.522  1.00  0.00    -0.550 OA
ENDBRANCH   3   4
ENDBRANCH   2   3
ENDBRANCH   1   2
BRANCH   1   7
ATOM      7  C   UNL     1      -9.014  39.867  15.540  1.00  0.00     0.000 C 
BRANCH   7   8
ATOM      8  C   UNL     1     -10.297  40.637  15.179  1.00  0.00    -0.000 C 
BRANCH   8   9
ATOM      9  C   UNL     1     -11.547  40.043  15.846  1.00  0.00    -0.003 C 
ATOM     10  C   UNL     1     -12.740  39.962  14.895  1.00  0.00     0.004 C 
ENDBRANCH   8   9
ENDBRANCH   7   8
ENDBRANCH   1   7
TORSDOF 6
ENDMDL
MODEL 6
REMARK VINA RESULT:    -2.443     22.470     23.016
REMARK INTER + INTRA:          -3.593
REMARK INTER:                  -3.370
REMARK INTRA:                  -0.223
REMARK UNBOUND:                -0.293
REMARK SMILES CCCCCCCC(=O)[O-]
REMARK SMILES IDX 5 1 6 2 7 3 8 4 9 5 10 6 4 7 3 8 2 9 1 10
REMARK H PARENT
REMARK Flexibility Score: inf
ROOT
ATOM      1  C   UNL     1       2.436  23.134   6.679  1.00  0.00     0.000 C 
ENDROOT
BRANCH   1   2
ATOM      2  C   UNL     1       1.814  21.856   6.095  1.00  0.00     0.006 C 
BRANCH   2   3
ATOM      3  C   UNL     1       1.172  21.007   7.197  1.00  0.00     0.053 C 
BRANCH   3   4
ATOM      4  C   UNL     1      -0.149  21.582   7.600  1.00  0.00     0.041 C 
ATOM      5  O   UNL     1      -0.904  22.099   6.736  1.00  0.00    -0.550 OA
ATOM      6  O   UNL     1      -0.524  21.592   8.937  1.00  0.00    -0.550 OA
ENDBRANCH   3   4
ENDBRANCH   2   3
ENDBRANCH   1   2
BRANCH   1   7
ATOM      7  C   UNL     1       3.909  23.312   6.277  1.00  0.00     0.000 C 
BRANCH   7   8
ATOM      8  C   UNL     1       4.867  23.195   7.476  1.00  0.00    -0.000 C 
BRANCH   8   9
ATOM      9  C   UNL     1       6.173  23.974   7.263  1.00  0.00    -0.003 C 
ATOM     10  C   UNL     1       6.194  24.741   5.942  1.00  0.00     0.004 C 
ENDBRANCH   8   9
ENDBRANCH   7   8
ENDBRANCH   1   7
TORSDOF 6
ENDMDL
MODEL 7
REMARK VINA RESULT:    -2.428      3.583      5.176
REMARK INTER + INTRA:          -3.572
REMARK INTER:                  -3.213
REMARK INTRA:                  -0.359
REMARK UNBOUND:                -0.293
REMARK SMILES CCCCCCCC(=O)[O-]
REMARK SMILES IDX 5 1 6 2 7 3 8 4 9 5 10 6 4 7 3 8 2 9 1 10
REMARK H PARENT
REMARK Flexibility Score: inf
ROOT
ATOM      1  C   UNL     1      -7.995  39.915  19.434  1.00  0.00     0.000 C 
ENDROOT
BRANCH   1   2
ATOM      2  C   UNL     1      -6.677  40.704  19.402  1.00  0.00     0.006 C 
BRANCH   2   3
ATOM      3  C   UNL     1      -6.066  40.692  17.998  1.00  0.00     0.053 C 
BRANCH   3   4
ATOM      4  C   UNL     1      -4.582  40.866  18.070  1.00  0.00     0.041 C 
ATOM      5  O   UNL     1      -4.012  40.993  19.185  1.00  0.00    -0.550 OA
ATOM      6  O   UNL     1      -3.833  40.939  16.902  1.00  0.00    -0.550 OA
ENDBRANCH   3   4
ENDBRANCH   2   3
ENDBRANCH   1   2
BRANCH   1   7
ATOM      7  C   UNL     1      -8.462  39.486  18.034  1.00  0.00     0.000 C 
BRANCH   7   8
ATOM      8  C   UNL     1      -9.873  40.003  17.697  1.00  0.00    -0.000 C 
BRANCH   8   9
ATOM      9  C   UNL     1     -10.147  40.022  16.186  1.00  0.00    -0.003 C 
ATOM     10  C   UNL     1      -8.868  39.940  15.354  1.00  0.00     0.004 C 
ENDBRANCH   8   9
ENDBRANCH   7   8
ENDBRANCH   1   7
TORSDOF 6
ENDMDL
MODEL 8
REMARK VINA RESULT:    -2.404     22.652     23.187
REMARK INTER + INTRA:          -3.541
REMARK INTER:                  -3.211
REMARK INTRA:                  -0.329
REMARK UNBOUND:                -0.293
REMARK SMILES CCCCCCCC(=O)[O-]
REMARK SMILES IDX 5 1 6 2 7 3 8 4 9 5 10 6 4 7 3 8 2 9 1 10
REMARK H PARENT
REMARK Flexibility Score: inf
ROOT
ATOM      1  C   UNL     1       3.390  21.807   6.353  1.00  0.00     0.000 C 
ENDROOT
BRANCH   1   2
ATOM      2  C   UNL     1       1.952  21.457   6.767  1.00  0.00     0.006 C 
BRANCH   2   3
ATOM      3  C   UNL     1       1.061  22.702   6.755  1.00  0.00     0.053 C 
BRANCH   3   4
ATOM      4  C   UNL     1       0.131  22.672   5.583  1.00  0.00     0.041 C 
ATOM      5  O   UNL     1      -1.056  22.277   5.726  1.00  0.00    -0.550 OA
ATOM      6  O   UNL     1       0.590  23.031   4.322  1.00  0.00    -0.550 OA
ENDBRANCH   3   4
ENDBRANCH   2   3
ENDBRANCH   1   2
BRANCH   1   7
ATOM      7  C   UNL     1       3.705  23.302   6.518  1.00  0.00     0.000 C 
BRANCH   7   8
ATOM      8  C   UNL     1       4.470  23.881   5.313  1.00  0.00    -0.000 C 
BRANCH   8   9
ATOM      9  C   UNL     1       5.778  24.573   5.724  1.00  0.00    -0.003 C 
ATOM     10  C   UNL     1       6.160  24.297   7.178  1.00  0.00     0.004 C 
ENDBRANCH   8   9
ENDBRANCH   7   8
ENDBRANCH   1   7
TORSDOF 6
ENDMDL
MODEL 9
REMARK VINA RESULT:    -2.369      2.512      4.247
REMARK INTER + INTRA:          -3.493
REMARK INTER:                  -3.104
REMARK INTRA:                  -0.389
REMARK UNBOUND:                -0.293
REMARK SMILES CCCCCCCC(=O)[O-]
REMARK SMILES IDX 5 1 6 2 7 3 8 4 9 5 10 6 4 7 3 8 2 9 1 10
REMARK H PARENT
REMARK Flexibility Score: inf
ROOT
ATOM      1  C   UNL     1      -7.466  39.537  19.319  1.00  0.00     0.000 C 
ENDROOT
BRANCH   1   2
ATOM      2  C   UNL     1      -7.866  40.308  20.587  1.00  0.00     0.006 C 
BRANCH   2   3
ATOM      3  C   UNL     1      -9.074  39.655  21.266  1.00  0.00     0.053 C 
BRANCH   3   4
ATOM      4  C   UNL     1     -10.247  39.630  20.339  1.00  0.00     0.041 C 
ATOM      5  O   UNL     1     -10.776  40.707  19.958  1.00  0.00    -0.550 OA
ATOM      6  O   UNL     1     -10.788  38.417  19.935  1.00  0.00    -0.550 OA
ENDBRANCH   3   4
ENDBRANCH   2   3
ENDBRANCH   1   2
BRANCH   1   7
ATOM      7  C   UNL     1      -6.599  40.376  18.366  1.00  0.00     0.000 C 
BRANCH   7   8
ATOM      8  C   UNL     1      -7.345  40.767  17.078  1.00  0.00    -0.000 C 
BRANCH   8   9
ATOM      9  C   UNL     1      -8.613  39.929  16.855  1.00  0.00    -0.003 C 
ATOM     10  C   UNL     1      -9.010  39.840  15.382  1.00  0.00     0.004 C 
ENDBRANCH   8   9
ENDBRANCH   7   8
ENDBRANCH   1   7
TORSDOF 6
ENDMDL
