MODEL 1
REMARK VINA RESULT:    -5.047      0.000      0.000
REMARK INTER + INTRA:          -8.806
REMARK INTER:                  -7.112
REMARK INTRA:                  -1.694
REMARK UNBOUND:                -1.694
REMARK SMILES OC[C@H]1O[C@@H](O[C@H]2OC=C[C@H]3[C@H](O)[C@@H]4O[C@]4(CO)[C@H]23)[C@@H](O)[C@H](O)[C@@H]1O
REMARK SMILES IDX 6 1 7 2 10 3 9 4 11 5 8 6 19 7 12 8 16 9 14 10 15 11 13 12
REMARK SMILES IDX 17 14 18 15 5 17 20 18 4 19 22 20 3 21 24 22 21 23 23 25
REMARK SMILES IDX 2 27 1 28 25 30
REMARK H PARENT 13 13 18 16 21 24 23 26 1 29 25 31
REMARK Flexibility Score: inf
ROOT
ATOM      1  O   UNL     1     -14.821 -29.809 -13.276  1.00  0.00    -0.310 OA
ENDROOT
BRANCH   1   2
ATOM      2  C   UNL     1     -15.325 -31.105 -13.597  1.00  0.00     0.315 C 
ATOM      3  C   UNL     1     -14.873 -33.747 -14.736  1.00  0.00     0.018 C 
ATOM      4  C   UNL     1     -14.964 -32.680 -15.542  1.00  0.00     0.186 C 
ATOM      5  C   UNL     1     -15.243 -33.548 -13.300  1.00  0.00     0.059 C 
ATOM      6  O   UNL     1     -15.227 -31.393 -15.011  1.00  0.00    -0.472 OA
ATOM      7  C   UNL     1     -14.645 -32.241 -12.799  1.00  0.00     0.105 C 
ATOM      8  C   UNL     1     -14.797 -34.571 -12.264  1.00  0.00     0.154 C 
ATOM      9  C   UNL     1     -14.812 -32.315 -11.278  1.00  0.00     0.130 C 
ATOM     10  C   UNL     1     -14.791 -33.769 -10.951  1.00  0.00     0.183 C 
ATOM     11  O   UNL     1     -15.952 -32.978 -10.765  1.00  0.00    -0.360 OA
BRANCH   8  12
ATOM     12  O   UNL     1     -15.698 -35.640 -12.172  1.00  0.00    -0.390 OA
ATOM     13  H   UNL     1     -16.011 -35.821 -13.096  1.00  0.00     0.211 HD
ENDBRANCH   8  12
BRANCH   9  14
ATOM     14  C   UNL     1     -14.028 -31.436 -10.301  1.00  0.00     0.195 C 
BRANCH  14  15
ATOM     15  O   UNL     1     -13.189 -30.574 -11.017  1.00  0.00    -0.393 OA
ATOM     16  H   UNL     1     -12.469 -31.144 -11.398  1.00  0.00     0.210 HD
ENDBRANCH  14  15
ENDBRANCH   9  14
ENDBRANCH   1   2
BRANCH   1  17
ATOM     17  C   UNL     1     -15.823 -28.800 -13.187  1.00  0.00     0.286 C 
ATOM     18  C   UNL     1     -15.508 -27.765 -12.077  1.00  0.00     0.202 C 
ATOM     19  O   UNL     1     -16.019 -28.188 -14.459  1.00  0.00    -0.341 OA
ATOM     20  C   UNL     1     -14.327 -26.870 -12.473  1.00  0.00     0.179 C 
ATOM     21  C   UNL     1     -14.957 -27.335 -14.893  1.00  0.00     0.178 C 
ATOM     22  C   UNL     1     -14.567 -26.254 -13.858  1.00  0.00     0.177 C 
BRANCH  18  23
ATOM     23  O   UNL     1     -15.218 -28.420 -10.868  1.00  0.00    -0.385 OA
ATOM     24  H   UNL     1     -15.748 -27.973 -10.156  1.00  0.00     0.211 HD
ENDBRANCH  18  23
BRANCH  20  25
ATOM     25  O   UNL     1     -14.155 -25.841 -11.530  1.00  0.00    -0.387 OA
ATOM     26  H   UNL     1     -14.130 -26.269 -10.634  1.00  0.00     0.211 HD
ENDBRANCH  20  25
BRANCH  21  27
ATOM     27  C   UNL     1     -13.741 -28.114 -15.433  1.00  0.00     0.191 C 
BRANCH  27  28
ATOM     28  O   UNL     1     -14.170 -29.186 -16.229  1.00  0.00    -0.394 OA
ATOM     29  H   UNL     1     -14.955 -28.858 -16.736  1.00  0.00     0.210 HD
ENDBRANCH  27  28
ENDBRANCH  21  27
BRANCH  22  30
ATOM     30  O   UNL     1     -15.535 -25.232 -13.810  1.00  0.00    -0.387 OA
ATOM     31  H   UNL     1     -15.394 -24.632 -14.585  1.00  0.00     0.211 HD
ENDBRANCH  22  30
ENDBRANCH   1  17
TORSDOF 10
ENDMDL
MODEL 2
REMARK VINA RESULT:    -5.046      1.521      3.013
REMARK INTER + INTRA:          -8.804
REMARK INTER:                  -8.657
REMARK INTRA:                  -0.148
REMARK UNBOUND:                -1.694
REMARK SMILES OC[C@H]1O[C@@H](O[C@H]2OC=C[C@H]3[C@H](O)[C@@H]4O[C@]4(CO)[C@H]23)[C@@H](O)[C@H](O)[C@@H]1O
REMARK SMILES IDX 6 1 7 2 10 3 9 4 11 5 8 6 19 7 12 8 16 9 14 10 15 11 13 12
REMARK SMILES IDX 17 14 18 15 5 17 20 18 4 19 22 20 3 21 24 22 21 23 23 25
REMARK SMILES IDX 2 27 1 28 25 30
REMARK H PARENT 13 13 18 16 21 24 23 26 1 29 25 31
REMARK Flexibility Score: inf
ROOT
ATOM      1  O   UNL     1     -14.586 -30.512 -13.391  1.00  0.00    -0.310 OA
ENDROOT
BRANCH   1   2
ATOM      2  C   UNL     1     -14.410 -31.774 -12.750  1.00  0.00     0.315 C 
ATOM      3  C   UNL     1     -15.579 -34.056 -11.367  1.00  0.00     0.018 C 
ATOM      4  C   UNL     1     -15.488 -32.872 -10.744  1.00  0.00     0.186 C 
ATOM      5  C   UNL     1     -14.857 -34.195 -12.669  1.00  0.00     0.059 C 
ATOM      6  O   UNL     1     -14.884 -31.763 -11.383  1.00  0.00    -0.472 OA
ATOM      7  C   UNL     1     -15.078 -32.945 -13.508  1.00  0.00     0.105 C 
ATOM      8  C   UNL     1     -15.225 -35.334 -13.611  1.00  0.00     0.154 C 
ATOM      9  C   UNL     1     -14.578 -33.338 -14.902  1.00  0.00     0.130 C 
ATOM     10  C   UNL     1     -14.782 -34.813 -14.989  1.00  0.00     0.183 C 
ATOM     11  O   UNL     1     -13.487 -34.236 -14.989  1.00  0.00    -0.360 OA
BRANCH   8  12
ATOM     12  O   UNL     1     -14.533 -36.510 -13.295  1.00  0.00    -0.390 OA
ATOM     13  H   UNL     1     -14.117 -36.825 -14.139  1.00  0.00     0.211 HD
ENDBRANCH   8  12
BRANCH   9  14
ATOM     14  C   UNL     1     -14.943 -32.573 -16.176  1.00  0.00     0.195 C 
BRANCH  14  15
ATOM     15  O   UNL     1     -13.818 -32.479 -17.004  1.00  0.00    -0.393 OA
ATOM     16  H   UNL     1     -13.158 -33.133 -16.648  1.00  0.00     0.210 HD
ENDBRANCH  14  15
ENDBRANCH   9  14
ENDBRANCH   1   2
BRANCH   1  17
ATOM     17  C   UNL     1     -15.005 -29.469 -12.516  1.00  0.00     0.286 C 
ATOM     18  C   UNL     1     -13.813 -28.838 -11.751  1.00  0.00     0.202 C 
ATOM     19  O   UNL     1     -15.762 -28.498 -13.234  1.00  0.00    -0.341 OA
ATOM     20  C   UNL     1     -12.934 -28.000 -12.689  1.00  0.00     0.179 C 
ATOM     21  C   UNL     1     -15.007 -27.678 -14.128  1.00  0.00     0.178 C 
ATOM     22  C   UNL     1     -13.792 -26.990 -13.461  1.00  0.00     0.177 C 
BRANCH  18  23
ATOM     23  O   UNL     1     -13.036 -29.841 -11.147  1.00  0.00    -0.385 OA
ATOM     24  H   UNL     1     -13.540 -30.693 -11.228  1.00  0.00     0.211 HD
ENDBRANCH  18  23
BRANCH  20  25
ATOM     25  O   UNL     1     -11.953 -27.312 -11.954  1.00  0.00    -0.387 OA
ATOM     26  H   UNL     1     -11.116 -27.845 -12.015  1.00  0.00     0.211 HD
ENDBRANCH  20  25
BRANCH  21  27
ATOM     27  C   UNL     1     -14.642 -28.396 -15.442  1.00  0.00     0.191 C 
BRANCH  27  28
ATOM     28  O   UNL     1     -13.821 -27.574 -16.228  1.00  0.00    -0.394 OA
ATOM     29  H   UNL     1     -14.233 -27.553 -17.129  1.00  0.00     0.210 HD
ENDBRANCH  27  28
ENDBRANCH  21  27
BRANCH  22  30
ATOM     30  O   UNL     1     -14.208 -25.925 -12.637  1.00  0.00    -0.387 OA
ATOM     31  H   UNL     1     -13.454 -25.675 -12.047  1.00  0.00     0.211 HD
ENDBRANCH  22  30
ENDBRANCH   1  17
TORSDOF 10
ENDMDL
MODEL 3
REMARK VINA RESULT:    -4.544      1.392      3.575
REMARK INTER + INTRA:          -8.098
REMARK INTER:                  -6.750
REMARK INTRA:                  -1.348
REMARK UNBOUND:                -1.694
REMARK SMILES OC[C@H]1O[C@@H](O[C@H]2OC=C[C@H]3[C@H](O)[C@@H]4O[C@]4(CO)[C@H]23)[C@@H](O)[C@H](O)[C@@H]1O
REMARK SMILES IDX 6 1 7 2 10 3 9 4 11 5 8 6 19 7 12 8 16 9 14 10 15 11 13 12
REMARK SMILES IDX 17 14 18 15 5 17 20 18 4 19 22 20 3 21 24 22 21 23 23 25
REMARK SMILES IDX 2 27 1 28 25 30
REMARK H PARENT 13 13 18 16 21 24 23 26 1 29 25 31
REMARK Flexibility Score: inf
ROOT
ATOM      1  O   UNL     1     -14.841 -29.687 -13.334  1.00  0.00    -0.310 OA
ENDROOT
BRANCH   1   2
ATOM      2  C   UNL     1     -14.613 -30.815 -12.490  1.00  0.00     0.315 C 
ATOM      3  C   UNL     1     -15.666 -32.787 -10.622  1.00  0.00     0.018 C 
ATOM      4  C   UNL     1     -15.521 -31.511 -10.235  1.00  0.00     0.186 C 
ATOM      5  C   UNL     1     -15.055 -33.172 -11.932  1.00  0.00     0.059 C 
ATOM      6  O   UNL     1     -14.971 -30.546 -11.114  1.00  0.00    -0.472 OA
ATOM      7  C   UNL     1     -15.344 -32.092 -12.964  1.00  0.00     0.105 C 
ATOM      8  C   UNL     1     -15.503 -34.457 -12.617  1.00  0.00     0.154 C 
ATOM      9  C   UNL     1     -14.964 -32.741 -14.299  1.00  0.00     0.130 C 
ATOM     10  C   UNL     1     -15.177 -34.203 -14.098  1.00  0.00     0.183 C 
ATOM     11  O   UNL     1     -13.886 -33.658 -14.310  1.00  0.00    -0.360 OA
BRANCH   8  12
ATOM     12  O   UNL     1     -14.789 -35.568 -12.149  1.00  0.00    -0.390 OA
ATOM     13  H   UNL     1     -14.211 -35.864 -12.899  1.00  0.00     0.211 HD
ENDBRANCH   8  12
BRANCH   9  14
ATOM     14  C   UNL     1     -15.434 -32.214 -15.656  1.00  0.00     0.195 C 
BRANCH  14  15
ATOM     15  O   UNL     1     -14.336 -32.096 -16.517  1.00  0.00    -0.393 OA
ATOM     16  H   UNL     1     -13.625 -31.636 -15.997  1.00  0.00     0.210 HD
ENDBRANCH  14  15
ENDBRANCH   9  14
ENDBRANCH   1   2
BRANCH   1  17
ATOM     17  C   UNL     1     -13.671 -28.924 -13.615  1.00  0.00     0.286 C 
ATOM     18  C   UNL     1     -13.703 -28.315 -15.040  1.00  0.00     0.202 C 
ATOM     19  O   UNL     1     -13.474 -27.936 -12.607  1.00  0.00    -0.341 OA
ATOM     20  C   UNL     1     -14.732 -27.182 -15.135  1.00  0.00     0.179 C 
ATOM     21  C   UNL     1     -14.398 -26.847 -12.636  1.00  0.00     0.178 C 
ATOM     22  C   UNL     1     -14.501 -26.158 -14.017  1.00  0.00     0.177 C 
BRANCH  18  23
ATOM     23  O   UNL     1     -14.004 -29.307 -15.988  1.00  0.00    -0.385 OA
ATOM     24  H   UNL     1     -13.998 -30.180 -15.513  1.00  0.00     0.211 HD
ENDBRANCH  18  23
BRANCH  20  25
ATOM     25  O   UNL     1     -14.639 -26.540 -16.382  1.00  0.00    -0.387 OA
ATOM     26  H   UNL     1     -15.459 -26.772 -16.892  1.00  0.00     0.211 HD
ENDBRANCH  20  25
BRANCH  21  27
ATOM     27  C   UNL     1     -15.774 -27.207 -12.042  1.00  0.00     0.191 C 
BRANCH  27  28
ATOM     28  O   UNL     1     -15.611 -27.886 -10.826  1.00  0.00    -0.394 OA
ATOM     29  H   UNL     1     -15.163 -28.742 -11.045  1.00  0.00     0.210 HD
ENDBRANCH  27  28
ENDBRANCH  21  27
BRANCH  22  30
ATOM     30  O   UNL     1     -13.365 -25.363 -14.268  1.00  0.00    -0.387 OA
ATOM     31  H   UNL     1     -12.642 -25.949 -14.604  1.00  0.00     0.211 HD
ENDBRANCH  22  30
ENDBRANCH   1  17
TORSDOF 10
ENDMDL
MODEL 4
REMARK VINA RESULT:    -4.374      1.756      6.527
REMARK INTER + INTRA:          -7.857
REMARK INTER:                  -7.934
REMARK INTRA:                   0.077
REMARK UNBOUND:                -1.694
REMARK SMILES OC[C@H]1O[C@@H](O[C@H]2OC=C[C@H]3[C@H](O)[C@@H]4O[C@]4(CO)[C@H]23)[C@@H](O)[C@H](O)[C@@H]1O
REMARK SMILES IDX 6 1 7 2 10 3 9 4 11 5 8 6 19 7 12 8 16 9 14 10 15 11 13 12
REMARK SMILES IDX 17 14 18 15 5 17 20 18 4 19 22 20 3 21 24 22 21 23 23 25
REMARK SMILES IDX 2 27 1 28 25 30
REMARK H PARENT 13 13 18 16 21 24 23 26 1 29 25 31
REMARK Flexibility Score: inf
ROOT
ATOM      1  O   UNL     1     -15.322 -32.781 -13.678  1.00  0.00    -0.310 OA
ENDROOT
BRANCH   1   2
ATOM      2  C   UNL     1     -15.618 -31.879 -12.613  1.00  0.00     0.315 C 
ATOM      3  C   UNL     1     -14.733 -30.449 -10.235  1.00  0.00     0.018 C 
ATOM      4  C   UNL     1     -14.934 -31.773 -10.181  1.00  0.00     0.186 C 
ATOM      5  C   UNL     1     -15.201 -29.740 -11.465  1.00  0.00     0.059 C 
ATOM      6  O   UNL     1     -15.406 -32.480 -11.314  1.00  0.00    -0.472 OA
ATOM      7  C   UNL     1     -14.824 -30.554 -12.694  1.00  0.00     0.105 C 
ATOM      8  C   UNL     1     -14.668 -28.348 -11.776  1.00  0.00     0.154 C 
ATOM      9  C   UNL     1     -15.059 -29.593 -13.864  1.00  0.00     0.130 C 
ATOM     10  C   UNL     1     -14.846 -28.230 -13.299  1.00  0.00     0.183 C 
ATOM     11  O   UNL     1     -16.117 -28.659 -13.757  1.00  0.00    -0.360 OA
BRANCH   8  12
ATOM     12  O   UNL     1     -15.411 -27.354 -11.125  1.00  0.00    -0.390 OA
ATOM     13  H   UNL     1     -15.282 -26.521 -11.649  1.00  0.00     0.211 HD
ENDBRANCH   8  12
BRANCH   9  14
ATOM     14  C   UNL     1     -14.461 -29.800 -15.258  1.00  0.00     0.195 C 
BRANCH  14  15
ATOM     15  O   UNL     1     -14.440 -28.579 -15.943  1.00  0.00    -0.393 OA
ATOM     16  H   UNL     1     -13.562 -28.162 -15.738  1.00  0.00     0.210 HD
ENDBRANCH  14  15
ENDBRANCH   9  14
ENDBRANCH   1   2
BRANCH   1  17
ATOM     17  C   UNL     1     -14.303 -33.729 -13.371  1.00  0.00     0.286 C 
ATOM     18  C   UNL     1     -14.889 -35.126 -13.039  1.00  0.00     0.202 C 
ATOM     19  O   UNL     1     -13.345 -33.780 -14.424  1.00  0.00    -0.341 OA
ATOM     20  C   UNL     1     -15.450 -35.803 -14.295  1.00  0.00     0.179 C 
ATOM     21  C   UNL     1     -13.798 -34.402 -15.628  1.00  0.00     0.178 C 
ATOM     22  C   UNL     1     -14.397 -35.811 -15.411  1.00  0.00     0.177 C 
BRANCH  18  23
ATOM     23  O   UNL     1     -15.901 -35.012 -12.072  1.00  0.00    -0.385 OA
ATOM     24  H   UNL     1     -16.322 -35.907 -11.978  1.00  0.00     0.211 HD
ENDBRANCH  18  23
BRANCH  20  25
ATOM     25  O   UNL     1     -15.833 -37.125 -14.007  1.00  0.00    -0.387 OA
ATOM     26  H   UNL     1     -16.686 -37.077 -13.500  1.00  0.00     0.211 HD
ENDBRANCH  20  25
BRANCH  21  27
ATOM     27  C   UNL     1     -14.709 -33.488 -16.473  1.00  0.00     0.191 C 
BRANCH  27  28
ATOM     28  O   UNL     1     -13.958 -32.444 -17.032  1.00  0.00    -0.394 OA
ATOM     29  H   UNL     1     -14.226 -32.390 -17.984  1.00  0.00     0.210 HD
ENDBRANCH  27  28
ENDBRANCH  21  27
BRANCH  22  30
ATOM     30  O   UNL     1     -13.381 -36.755 -15.159  1.00  0.00    -0.387 OA
ATOM     31  H   UNL     1     -13.621 -37.600 -15.614  1.00  0.00     0.211 HD
ENDBRANCH  22  30
ENDBRANCH   1  17
TORSDOF 10
ENDMDL
MODEL 5
REMARK VINA RESULT:    -4.318      3.195      5.255
REMARK INTER + INTRA:          -7.779
REMARK INTER:                  -6.727
REMARK INTRA:                  -1.052
REMARK UNBOUND:                -1.694
REMARK SMILES OC[C@H]1O[C@@H](O[C@H]2OC=C[C@H]3[C@H](O)[C@@H]4O[C@]4(CO)[C@H]23)[C@@H](O)[C@H](O)[C@@H]1O
REMARK SMILES IDX 6 1 7 2 10 3 9 4 11 5 8 6 19 7 12 8 16 9 14 10 15 11 13 12
REMARK SMILES IDX 17 14 18 15 5 17 20 18 4 19 22 20 3 21 24 22 21 23 23 25
REMARK SMILES IDX 2 27 1 28 25 30
REMARK H PARENT 13 13 18 16 21 24 23 26 1 29 25 31
REMARK Flexibility Score: inf
ROOT
ATOM      1  O   UNL     1     -12.597 -29.885 -11.407  1.00  0.00    -0.310 OA
ENDROOT
BRANCH   1   2
ATOM      2  C   UNL     1     -12.365 -30.587 -10.186  1.00  0.00     0.315 C 
ATOM      3  C   UNL     1     -11.469 -33.003  -8.828  1.00  0.00     0.018 C 
ATOM      4  C   UNL     1     -12.634 -33.003  -9.491  1.00  0.00     0.186 C 
ATOM      5  C   UNL     1     -10.800 -31.680  -8.630  1.00  0.00     0.059 C 
ATOM      6  O   UNL     1     -13.108 -31.827 -10.121  1.00  0.00    -0.472 OA
ATOM      7  C   UNL     1     -10.870 -30.878  -9.921  1.00  0.00     0.105 C 
ATOM      8  C   UNL     1      -9.324 -31.636  -8.256  1.00  0.00     0.154 C 
ATOM      9  C   UNL     1      -9.893 -29.719  -9.693  1.00  0.00     0.130 C 
ATOM     10  C   UNL     1      -8.875 -30.247  -8.741  1.00  0.00     0.183 C 
ATOM     11  O   UNL     1      -9.766 -29.205  -8.381  1.00  0.00    -0.360 OA
BRANCH   8  12
ATOM     12  O   UNL     1      -9.140 -31.746  -6.871  1.00  0.00    -0.390 OA
ATOM     13  H   UNL     1      -9.771 -32.446  -6.560  1.00  0.00     0.211 HD
ENDBRANCH   8  12
BRANCH   9  14
ATOM     14  C   UNL     1      -9.317 -28.867 -10.826  1.00  0.00     0.195 C 
BRANCH  14  15
ATOM     15  O   UNL     1     -10.115 -27.731 -11.009  1.00  0.00    -0.393 OA
ATOM     16  H   UNL     1     -10.984 -27.930 -10.567  1.00  0.00     0.210 HD
ENDBRANCH  14  15
ENDBRANCH   9  14
ENDBRANCH   1   2
BRANCH   1  17
ATOM     17  C   UNL     1     -13.632 -28.909 -11.329  1.00  0.00     0.286 C 
ATOM     18  C   UNL     1     -13.565 -27.897 -12.502  1.00  0.00     0.202 C 
ATOM     19  O   UNL     1     -14.903 -29.545 -11.235  1.00  0.00    -0.341 OA
ATOM     20  C   UNL     1     -13.980 -28.554 -13.824  1.00  0.00     0.179 C 
ATOM     21  C   UNL     1     -15.356 -30.179 -12.433  1.00  0.00     0.178 C 
ATOM     22  C   UNL     1     -15.338 -29.250 -13.670  1.00  0.00     0.177 C 
BRANCH  18  23
ATOM     23  O   UNL     1     -12.266 -27.374 -12.621  1.00  0.00    -0.385 OA
ATOM     24  H   UNL     1     -12.033 -27.381 -13.587  1.00  0.00     0.211 HD
ENDBRANCH  18  23
BRANCH  20  25
ATOM     25  O   UNL     1     -14.064 -27.589 -14.843  1.00  0.00    -0.387 OA
ATOM     26  H   UNL     1     -14.346 -26.738 -14.416  1.00  0.00     0.211 HD
ENDBRANCH  20  25
BRANCH  21  27
ATOM     27  C   UNL     1     -14.673 -31.536 -12.693  1.00  0.00     0.191 C 
BRANCH  27  28
ATOM     28  O   UNL     1     -15.297 -32.542 -11.942  1.00  0.00    -0.394 OA
ATOM     29  H   UNL     1     -16.098 -32.125 -11.533  1.00  0.00     0.210 HD
ENDBRANCH  27  28
ENDBRANCH  21  27
BRANCH  22  30
ATOM     30  O   UNL     1     -16.395 -28.319 -13.614  1.00  0.00    -0.387 OA
ATOM     31  H   UNL     1     -16.127 -27.578 -13.015  1.00  0.00     0.211 HD
ENDBRANCH  22  30
ENDBRANCH   1  17
TORSDOF 10
ENDMDL
MODEL 6
REMARK VINA RESULT:    -4.224      1.755      6.488
REMARK INTER + INTRA:          -7.646
REMARK INTER:                  -6.497
REMARK INTRA:                  -1.150
REMARK UNBOUND:                -1.694
REMARK SMILES OC[C@H]1O[C@@H](O[C@H]2OC=C[C@H]3[C@H](O)[C@@H]4O[C@]4(CO)[C@H]23)[C@@H](O)[C@H](O)[C@@H]1O
REMARK SMILES IDX 6 1 7 2 10 3 9 4 11 5 8 6 19 7 12 8 16 9 14 10 15 11 13 12
REMARK SMILES IDX 17 14 18 15 5 17 20 18 4 19 22 20 3 21 24 22 21 23 23 25
REMARK SMILES IDX 2 27 1 28 25 30
REMARK H PARENT 13 13 18 16 21 24 23 26 1 29 25 31
REMARK Flexibility Score: inf
ROOT
ATOM      1  O   UNL     1     -14.606 -31.695 -14.092  1.00  0.00    -0.310 OA
ENDROOT
BRANCH   1   2
ATOM      2  C   UNL     1     -15.207 -30.963 -13.025  1.00  0.00     0.315 C 
ATOM      3  C   UNL     1     -14.992 -29.807 -10.360  1.00  0.00     0.018 C 
ATOM      4  C   UNL     1     -15.075 -31.137 -10.505  1.00  0.00     0.186 C 
ATOM      5  C   UNL     1     -15.250 -28.973 -11.575  1.00  0.00     0.059 C 
ATOM      6  O   UNL     1     -15.224 -31.716 -11.789  1.00  0.00    -0.472 OA
ATOM      7  C   UNL     1     -14.543 -29.590 -12.773  1.00  0.00     0.105 C 
ATOM      8  C   UNL     1     -14.795 -27.520 -11.595  1.00  0.00     0.154 C 
ATOM      9  C   UNL     1     -14.609 -28.499 -13.847  1.00  0.00     0.130 C 
ATOM     10  C   UNL     1     -14.652 -27.212 -13.095  1.00  0.00     0.183 C 
ATOM     11  O   UNL     1     -15.748 -27.660 -13.874  1.00  0.00    -0.360 OA
BRANCH   8  12
ATOM     12  O   UNL     1     -15.750 -26.672 -11.018  1.00  0.00    -0.390 OA
ATOM     13  H   UNL     1     -16.201 -27.200 -10.309  1.00  0.00     0.211 HD
ENDBRANCH   8  12
BRANCH   9  14
ATOM     14  C   UNL     1     -13.709 -28.480 -15.084  1.00  0.00     0.195 C 
BRANCH  14  15
ATOM     15  O   UNL     1     -14.458 -28.835 -16.212  1.00  0.00    -0.393 OA
ATOM     16  H   UNL     1     -14.025 -29.648 -16.586  1.00  0.00     0.210 HD
ENDBRANCH  14  15
ENDBRANCH   9  14
ENDBRANCH   1   2
BRANCH   1  17
ATOM     17  C   UNL     1     -15.538 -32.237 -15.023  1.00  0.00     0.286 C 
ATOM     18  C   UNL     1     -14.862 -32.621 -16.365  1.00  0.00     0.202 C 
ATOM     19  O   UNL     1     -16.239 -33.331 -14.439  1.00  0.00    -0.341 OA
ATOM     20  C   UNL     1     -13.969 -33.856 -16.202  1.00  0.00     0.179 C 
ATOM     21  C   UNL     1     -15.468 -34.520 -14.258  1.00  0.00     0.178 C 
ATOM     22  C   UNL     1     -14.754 -34.998 -15.544  1.00  0.00     0.177 C 
BRANCH  18  23
ATOM     23  O   UNL     1     -14.098 -31.546 -16.850  1.00  0.00    -0.385 OA
ATOM     24  H   UNL     1     -14.303 -31.451 -17.818  1.00  0.00     0.211 HD
ENDBRANCH  18  23
BRANCH  20  25
ATOM     25  O   UNL     1     -13.489 -34.281 -17.453  1.00  0.00    -0.387 OA
ATOM     26  H   UNL     1     -12.699 -33.719 -17.669  1.00  0.00     0.211 HD
ENDBRANCH  20  25
BRANCH  21  27
ATOM     27  C   UNL     1     -14.524 -34.448 -13.041  1.00  0.00     0.191 C 
BRANCH  27  28
ATOM     28  O   UNL     1     -15.262 -34.540 -11.852  1.00  0.00    -0.394 OA
ATOM     29  H   UNL     1     -15.209 -35.487 -11.566  1.00  0.00     0.210 HD
ENDBRANCH  27  28
ENDBRANCH  21  27
BRANCH  22  30
ATOM     30  O   UNL     1     -15.672 -35.580 -16.441  1.00  0.00    -0.387 OA
ATOM     31  H   UNL     1     -15.682 -36.558 -16.285  1.00  0.00     0.211 HD
ENDBRANCH  22  30
ENDBRANCH   1  17
TORSDOF 10
ENDMDL
MODEL 7
REMARK VINA RESULT:    -4.014      1.127      2.525
REMARK INTER + INTRA:          -7.350
REMARK INTER:                  -6.143
REMARK INTRA:                  -1.207
REMARK UNBOUND:                -1.694
REMARK SMILES OC[C@H]1O[C@@H](O[C@H]2OC=C[C@H]3[C@H](O)[C@@H]4O[C@]4(CO)[C@H]23)[C@@H](O)[C@H](O)[C@@H]1O
REMARK SMILES IDX 6 1 7 2 10 3 9 4 11 5 8 6 19 7 12 8 16 9 14 10 15 11 13 12
REMARK SMILES IDX 17 14 18 15 5 17 20 18 4 19 22 20 3 21 24 22 21 23 23 25
REMARK SMILES IDX 2 27 1 28 25 30
REMARK H PARENT 13 13 18 16 21 24 23 26 1 29 25 31
REMARK Flexibility Score: inf
ROOT
ATOM      1  O   UNL     1     -15.332 -29.534 -13.628  1.00  0.00    -0.310 OA
ENDROOT
BRANCH   1   2
ATOM      2  C   UNL     1     -15.612 -30.921 -13.812  1.00  0.00     0.315 C 
ATOM      3  C   UNL     1     -14.675 -33.580 -14.543  1.00  0.00     0.018 C 
ATOM      4  C   UNL     1     -14.834 -32.645 -15.490  1.00  0.00     0.186 C 
ATOM      5  C   UNL     1     -15.214 -33.268 -13.184  1.00  0.00     0.059 C 
ATOM      6  O   UNL     1     -15.330 -31.359 -15.161  1.00  0.00    -0.472 OA
ATOM      7  C   UNL     1     -14.863 -31.835 -12.815  1.00  0.00     0.105 C 
ATOM      8  C   UNL     1     -14.736 -34.078 -11.985  1.00  0.00     0.154 C 
ATOM      9  C   UNL     1     -15.173 -31.748 -11.317  1.00  0.00     0.130 C 
ATOM     10  C   UNL     1     -14.979 -33.132 -10.797  1.00  0.00     0.183 C 
ATOM     11  O   UNL     1     -16.254 -32.512 -10.815  1.00  0.00    -0.360 OA
BRANCH   8  12
ATOM     12  O   UNL     1     -15.482 -35.254 -11.826  1.00  0.00    -0.390 OA
ATOM     13  H   UNL     1     -16.369 -34.977 -11.480  1.00  0.00     0.211 HD
ENDBRANCH   8  12
BRANCH   9  14
ATOM     14  C   UNL     1     -14.626 -30.648 -10.405  1.00  0.00     0.195 C 
BRANCH  14  15
ATOM     15  O   UNL     1     -13.279 -30.416 -10.709  1.00  0.00    -0.393 OA
ATOM     16  H   UNL     1     -13.009 -29.621 -10.176  1.00  0.00     0.210 HD
ENDBRANCH  14  15
ENDBRANCH   9  14
ENDBRANCH   1   2
BRANCH   1  17
ATOM     17  C   UNL     1     -13.980 -29.173 -13.896  1.00  0.00     0.286 C 
ATOM     18  C   UNL     1     -13.853 -28.299 -15.171  1.00  0.00     0.202 C 
ATOM     19  O   UNL     1     -13.401 -28.549 -12.753  1.00  0.00    -0.341 OA
ATOM     20  C   UNL     1     -14.416 -26.892 -14.936  1.00  0.00     0.179 C 
ATOM     21  C   UNL     1     -13.877 -27.231 -12.473  1.00  0.00     0.178 C 
ATOM     22  C   UNL     1     -13.788 -26.270 -13.682  1.00  0.00     0.177 C 
BRANCH  18  23
ATOM     23  O   UNL     1     -14.528 -28.904 -16.245  1.00  0.00    -0.385 OA
ATOM     24  H   UNL     1     -13.891 -28.949 -17.006  1.00  0.00     0.211 HD
ENDBRANCH  18  23
BRANCH  20  25
ATOM     25  O   UNL     1     -14.153 -26.069 -16.045  1.00  0.00    -0.387 OA
ATOM     26  H   UNL     1     -13.732 -26.642 -16.739  1.00  0.00     0.211 HD
ENDBRANCH  20  25
BRANCH  21  27
ATOM     27  C   UNL     1     -15.265 -27.221 -11.802  1.00  0.00     0.191 C 
BRANCH  27  28
ATOM     28  O   UNL     1     -15.385 -26.107 -10.959  1.00  0.00    -0.394 OA
ATOM     29  H   UNL     1     -16.357 -25.940 -10.858  1.00  0.00     0.210 HD
ENDBRANCH  27  28
ENDBRANCH  21  27
BRANCH  22  30
ATOM     30  O   UNL     1     -12.455 -25.874 -13.911  1.00  0.00    -0.387 OA
ATOM     31  H   UNL     1     -11.892 -26.687 -13.955  1.00  0.00     0.211 HD
ENDBRANCH  22  30
ENDBRANCH   1  17
TORSDOF 10
ENDMDL
MODEL 8
REMARK VINA RESULT:    -3.353      2.497      3.691
REMARK INTER + INTRA:          -6.419
REMARK INTER:                  -5.781
REMARK INTRA:                  -0.638
REMARK UNBOUND:                -1.694
REMARK SMILES OC[C@H]1O[C@@H](O[C@H]2OC=C[C@H]3[C@H](O)[C@@H]4O[C@]4(CO)[C@H]23)[C@@H](O)[C@H](O)[C@@H]1O
REMARK SMILES IDX 6 1 7 2 10 3 9 4 11 5 8 6 19 7 12 8 16 9 14 10 15 11 13 12
REMARK SMILES IDX 17 14 18 15 5 17 20 18 4 19 22 20 3 21 24 22 21 23 23 25
REMARK SMILES IDX 2 27 1 28 25 30
REMARK H PARENT 13 13 18 16 21 24 23 26 1 29 25 31
REMARK Flexibility Score: inf
ROOT
ATOM      1  O   UNL     1     -13.220 -29.170 -12.007  1.00  0.00    -0.310 OA
ENDROOT
BRANCH   1   2
ATOM      2  C   UNL     1     -13.393 -30.161 -10.995  1.00  0.00     0.315 C 
ATOM      3  C   UNL     1     -13.523 -32.975 -10.254  1.00  0.00     0.018 C 
ATOM      4  C   UNL     1     -14.527 -32.421 -10.948  1.00  0.00     0.186 C 
ATOM      5  C   UNL     1     -12.490 -32.049  -9.697  1.00  0.00     0.059 C 
ATOM      6  O   UNL     1     -14.503 -31.044 -11.280  1.00  0.00    -0.472 OA
ATOM      7  C   UNL     1     -12.123 -31.007 -10.744  1.00  0.00     0.105 C 
ATOM      8  C   UNL     1     -11.143 -32.608  -9.255  1.00  0.00     0.154 C 
ATOM      9  C   UNL     1     -10.860 -30.345 -10.185  1.00  0.00     0.130 C 
ATOM     10  C   UNL     1     -10.205 -31.393  -9.351  1.00  0.00     0.183 C 
ATOM     11  O   UNL     1     -10.743 -30.213  -8.780  1.00  0.00    -0.360 OA
BRANCH   8  12
ATOM     12  O   UNL     1     -11.187 -33.081  -7.937  1.00  0.00    -0.390 OA
ATOM     13  H   UNL     1     -10.642 -33.910  -7.919  1.00  0.00     0.211 HD
ENDBRANCH   8  12
BRANCH   9  14
ATOM     14  C   UNL     1      -9.894 -29.519 -11.037  1.00  0.00     0.195 C 
BRANCH  14  15
ATOM     15  O   UNL     1     -10.256 -28.168 -10.977  1.00  0.00    -0.393 OA
ATOM     16  H   UNL     1     -10.758 -28.054 -10.126  1.00  0.00     0.210 HD
ENDBRANCH  14  15
ENDBRANCH   9  14
ENDBRANCH   1   2
BRANCH   1  17
ATOM     17  C   UNL     1     -14.416 -28.840 -12.707  1.00  0.00     0.286 C 
ATOM     18  C   UNL     1     -15.236 -27.747 -11.975  1.00  0.00     0.202 C 
ATOM     19  O   UNL     1     -14.115 -28.481 -14.053  1.00  0.00    -0.341 OA
ATOM     20  C   UNL     1     -14.543 -26.381 -12.065  1.00  0.00     0.179 C 
ATOM     21  C   UNL     1     -13.469 -27.216 -14.214  1.00  0.00     0.178 C 
ATOM     22  C   UNL     1     -14.213 -26.048 -13.525  1.00  0.00     0.177 C 
BRANCH  18  23
ATOM     23  O   UNL     1     -15.418 -28.096 -10.626  1.00  0.00    -0.385 OA
ATOM     24  H   UNL     1     -14.622 -28.621 -10.347  1.00  0.00     0.211 HD
ENDBRANCH  18  23
BRANCH  20  25
ATOM     25  O   UNL     1     -15.371 -25.377 -11.534  1.00  0.00    -0.387 OA
ATOM     26  H   UNL     1     -14.947 -24.505 -11.749  1.00  0.00     0.211 HD
ENDBRANCH  20  25
BRANCH  21  27
ATOM     27  C   UNL     1     -11.967 -27.258 -13.867  1.00  0.00     0.191 C 
BRANCH  27  28
ATOM     28  O   UNL     1     -11.230 -26.559 -14.834  1.00  0.00    -0.394 OA
ATOM     29  H   UNL     1     -10.296 -26.534 -14.504  1.00  0.00     0.210 HD
ENDBRANCH  27  28
ENDBRANCH  21  27
BRANCH  22  30
ATOM     30  O   UNL     1     -15.367 -25.690 -14.250  1.00  0.00    -0.387 OA
ATOM     31  H   UNL     1     -15.556 -24.733 -14.084  1.00  0.00     0.211 HD
ENDBRANCH  22  30
ENDBRANCH   1  17
TORSDOF 10
ENDMDL
MODEL 9
REMARK VINA RESULT:    -3.181      3.305      6.243
REMARK INTER + INTRA:          -6.177
REMARK INTER:                  -5.644
REMARK INTRA:                  -0.533
REMARK UNBOUND:                -1.694
REMARK SMILES OC[C@H]1O[C@@H](O[C@H]2OC=C[C@H]3[C@H](O)[C@@H]4O[C@]4(CO)[C@H]23)[C@@H](O)[C@H](O)[C@@H]1O
REMARK SMILES IDX 6 1 7 2 10 3 9 4 11 5 8 6 19 7 12 8 16 9 14 10 15 11 13 12
REMARK SMILES IDX 17 14 18 15 5 17 20 18 4 19 22 20 3 21 24 22 21 23 23 25
REMARK SMILES IDX 2 27 1 28 25 30
REMARK H PARENT 13 13 18 16 21 24 23 26 1 29 25 31
REMARK Flexibility Score: inf
ROOT
ATOM      1  O   UNL     1     -11.665 -30.911 -10.871  1.00  0.00    -0.310 OA
ENDROOT
BRANCH   1   2
ATOM      2  C   UNL     1     -12.916 -31.261 -11.462  1.00  0.00     0.315 C 
ATOM      3  C   UNL     1     -15.803 -31.555 -11.202  1.00  0.00     0.018 C 
ATOM      4  C   UNL     1     -14.986 -32.424 -10.590  1.00  0.00     0.186 C 
ATOM      5  C   UNL     1     -15.180 -30.611 -12.181  1.00  0.00     0.059 C 
ATOM      6  O   UNL     1     -13.581 -32.324 -10.740  1.00  0.00    -0.472 OA
ATOM      7  C   UNL     1     -13.884 -30.063 -11.604  1.00  0.00     0.105 C 
ATOM      8  C   UNL     1     -15.943 -29.363 -12.607  1.00  0.00     0.154 C 
ATOM      9  C   UNL     1     -13.526 -28.897 -12.531  1.00  0.00     0.130 C 
ATOM     10  C   UNL     1     -14.830 -28.402 -13.058  1.00  0.00     0.183 C 
ATOM     11  O   UNL     1     -13.864 -29.008 -13.900  1.00  0.00    -0.360 OA
BRANCH   8  12
ATOM     12  O   UNL     1     -16.813 -29.629 -13.673  1.00  0.00    -0.390 OA
ATOM     13  H   UNL     1     -16.512 -30.486 -14.072  1.00  0.00     0.211 HD
ENDBRANCH   8  12
BRANCH   9  14
ATOM     14  C   UNL     1     -12.537 -27.792 -12.152  1.00  0.00     0.195 C 
BRANCH  14  15
ATOM     15  O   UNL     1     -12.244 -27.020 -13.283  1.00  0.00    -0.393 OA
ATOM     16  H   UNL     1     -12.306 -26.070 -12.993  1.00  0.00     0.210 HD
ENDBRANCH  14  15
ENDBRANCH   9  14
ENDBRANCH   1   2
BRANCH   1  17
ATOM     17  C   UNL     1     -11.709 -30.776  -9.454  1.00  0.00     0.286 C 
ATOM     18  C   UNL     1     -11.017 -31.964  -8.736  1.00  0.00     0.202 C 
ATOM     19  O   UNL     1     -11.167 -29.518  -9.062  1.00  0.00    -0.341 OA
ATOM     20  C   UNL     1      -9.495 -31.911  -8.917  1.00  0.00     0.179 C 
ATOM     21  C   UNL     1      -9.750 -29.396  -9.201  1.00  0.00     0.178 C 
ATOM     22  C   UNL     1      -8.959 -30.532  -8.511  1.00  0.00     0.177 C 
BRANCH  18  23
ATOM     23  O   UNL     1     -11.509 -33.184  -9.229  1.00  0.00    -0.385 OA
ATOM     24  H   UNL     1     -11.747 -33.746  -8.445  1.00  0.00     0.211 HD
ENDBRANCH  18  23
BRANCH  20  25
ATOM     25  O   UNL     1      -8.875 -32.900  -8.134  1.00  0.00    -0.387 OA
ATOM     26  H   UNL     1      -9.155 -32.746  -7.194  1.00  0.00     0.211 HD
ENDBRANCH  20  25
BRANCH  21  27
ATOM     27  C   UNL     1      -9.306 -29.157 -10.659  1.00  0.00     0.191 C 
BRANCH  27  28
ATOM     28  O   UNL     1      -9.271 -27.782 -10.933  1.00  0.00    -0.394 OA
ATOM     29  H   UNL     1     -10.163 -27.429 -10.687  1.00  0.00     0.210 HD
ENDBRANCH  27  28
ENDBRANCH  21  27
BRANCH  22  30
ATOM     30  O   UNL     1      -8.960 -30.366  -7.112  1.00  0.00    -0.387 OA
ATOM     31  H   UNL     1      -9.898 -30.270  -6.810  1.00  0.00     0.211 HD
ENDBRANCH  22  30
ENDBRANCH   1  17
TORSDOF 10
ENDMDL
