MODEL 1
REMARK VINA RESULT:    -3.537      0.000      0.000
REMARK INTER + INTRA:          -8.552
REMARK INTER:                  -6.639
REMARK INTRA:                  -1.913
REMARK UNBOUND:                -1.913
REMARK SMILES O=C([O-])CCCCCCCCCCCCCCC(=O)[O-]
REMARK SMILES IDX 10 1 9 2 8 3 7 4 6 5 5 6 4 7 2 8 1 9 3 10 11 11 12 12 13 13
REMARK SMILES IDX 14 14 15 15 16 16 17 17 18 18 19 19 20 20
REMARK H PARENT
REMARK Flexibility Score: inf
ROOT
ATOM      1  C   UNL     1      57.688  28.384  51.684  1.00  0.00     0.000 C 
ENDROOT
BRANCH   1   2
ATOM      2  C   UNL     1      57.508  29.415  50.556  1.00  0.00     0.000 C 
BRANCH   2   3
ATOM      3  C   UNL     1      58.779  29.609  49.716  1.00  0.00     0.000 C 
BRANCH   3   4
ATOM      4  C   UNL     1      59.473  28.268  49.452  1.00  0.00     0.000 C 
BRANCH   4   5
ATOM      5  C   UNL     1      60.862  28.231  50.103  1.00  0.00     0.000 C 
BRANCH   5   6
ATOM      6  C   UNL     1      61.277  26.792  50.434  1.00  0.00     0.006 C 
BRANCH   6   7
ATOM      7  C   UNL     1      60.084  25.837  50.323  1.00  0.00     0.053 C 
BRANCH   7   8
ATOM      8  C   UNL     1      60.162  24.778  51.376  1.00  0.00     0.041 C 
ATOM      9  O   UNL     1      60.346  25.096  52.581  1.00  0.00    -0.550 OA
ATOM     10  O   UNL     1      59.986  23.443  51.035  1.00  0.00    -0.550 OA
ENDBRANCH   7   8
ENDBRANCH   6   7
ENDBRANCH   5   6
ENDBRANCH   4   5
ENDBRANCH   3   4
ENDBRANCH   2   3
ENDBRANCH   1   2
BRANCH   1  11
ATOM     11  C   UNL     1      56.598  27.295  51.752  1.00  0.00     0.000 C 
BRANCH  11  12
ATOM     12  C   UNL     1      56.316  26.568  50.422  1.00  0.00     0.000 C 
BRANCH  12  13
ATOM     13  C   UNL     1      54.830  26.482  50.033  1.00  0.00     0.000 C 
BRANCH  13  14
ATOM     14  C   UNL     1      53.912  27.226  51.015  1.00  0.00     0.000 C 
BRANCH  14  15
ATOM     15  C   UNL     1      53.217  28.410  50.329  1.00  0.00     0.000 C 
BRANCH  15  16
ATOM     16  C   UNL     1      53.978  29.732  50.515  1.00  0.00     0.006 C 
BRANCH  16  17
ATOM     17  C   UNL     1      53.294  30.671  51.517  1.00  0.00     0.053 C 
BRANCH  17  18
ATOM     18  C   UNL     1      54.264  31.115  52.566  1.00  0.00     0.041 C 
ATOM     19  O   UNL     1      55.021  30.276  53.123  1.00  0.00    -0.550 OA
ATOM     20  O   UNL     1      54.304  32.446  52.959  1.00  0.00    -0.550 OA
ENDBRANCH  17  18
ENDBRANCH  16  17
ENDBRANCH  15  16
ENDBRANCH  14  15
ENDBRANCH  13  14
ENDBRANCH  12  13
ENDBRANCH  11  12
ENDBRANCH   1  11
TORSDOF 15
ENDMDL
MODEL 2
REMARK VINA RESULT:    -3.379      1.914      6.871
REMARK INTER + INTRA:          -8.254
REMARK INTER:                  -6.244
REMARK INTRA:                  -2.011
REMARK UNBOUND:                -1.913
REMARK SMILES O=C([O-])CCCCCCCCCCCCCCC(=O)[O-]
REMARK SMILES IDX 10 1 9 2 8 3 7 4 6 5 5 6 4 7 2 8 1 9 3 10 11 11 12 12 13 13
REMARK SMILES IDX 14 14 15 15 16 16 17 17 18 18 19 19 20 20
REMARK H PARENT
REMARK Flexibility Score: inf
ROOT
ATOM      1  C   UNL     1      53.588  27.445  50.965  1.00  0.00     0.000 C 
ENDROOT
BRANCH   1   2
ATOM      2  C   UNL     1      52.983  28.648  50.220  1.00  0.00     0.000 C 
BRANCH   2   3
ATOM      3  C   UNL     1      53.569  29.991  50.680  1.00  0.00     0.000 C 
BRANCH   3   4
ATOM      4  C   UNL     1      53.675  30.049  52.208  1.00  0.00     0.000 C 
BRANCH   4   5
ATOM      5  C   UNL     1      53.982  31.474  52.684  1.00  0.00     0.000 C 
BRANCH   5   6
ATOM      6  C   UNL     1      55.406  31.572  53.249  1.00  0.00     0.006 C 
BRANCH   6   7
ATOM      7  C   UNL     1      55.555  32.800  54.151  1.00  0.00     0.053 C 
BRANCH   7   8
ATOM      8  C   UNL     1      56.205  33.922  53.406  1.00  0.00     0.041 C 
ATOM      9  O   UNL     1      55.503  34.737  52.750  1.00  0.00    -0.550 OA
ATOM     10  O   UNL     1      57.582  34.095  53.471  1.00  0.00    -0.550 OA
ENDBRANCH   7   8
ENDBRANCH   6   7
ENDBRANCH   5   6
ENDBRANCH   4   5
ENDBRANCH   3   4
ENDBRANCH   2   3
ENDBRANCH   1   2
BRANCH   1  11
ATOM     11  C   UNL     1      54.568  26.591  50.136  1.00  0.00     0.000 C 
BRANCH  11  12
ATOM     12  C   UNL     1      56.044  26.681  50.570  1.00  0.00     0.000 C 
BRANCH  12  13
ATOM     13  C   UNL     1      56.269  27.215  51.996  1.00  0.00     0.000 C 
BRANCH  13  14
ATOM     14  C   UNL     1      57.062  28.530  52.021  1.00  0.00     0.000 C 
BRANCH  14  15
ATOM     15  C   UNL     1      57.108  29.172  50.627  1.00  0.00     0.000 C 
BRANCH  15  16
ATOM     16  C   UNL     1      58.469  29.812  50.314  1.00  0.00     0.006 C 
BRANCH  16  17
ATOM     17  C   UNL     1      59.281  29.002  49.294  1.00  0.00     0.053 C 
BRANCH  17  18
ATOM     18  C   UNL     1      59.940  27.835  49.958  1.00  0.00     0.041 C 
ATOM     19  O   UNL     1      60.948  28.011  50.694  1.00  0.00    -0.550 OA
ATOM     20  O   UNL     1      59.470  26.548  49.732  1.00  0.00    -0.550 OA
ENDBRANCH  17  18
ENDBRANCH  16  17
ENDBRANCH  15  16
ENDBRANCH  14  15
ENDBRANCH  13  14
ENDBRANCH  12  13
ENDBRANCH  11  12
ENDBRANCH   1  11
TORSDOF 15
ENDMDL
MODEL 3
REMARK VINA RESULT:    -3.302     12.802     15.668
REMARK INTER + INTRA:          -8.110
REMARK INTER:                  -7.205
REMARK INTRA:                  -0.905
REMARK UNBOUND:                -1.913
REMARK SMILES O=C([O-])CCCCCCCCCCCCCCC(=O)[O-]
REMARK SMILES IDX 10 1 9 2 8 3 7 4 6 5 5 6 4 7 2 8 1 9 3 10 11 11 12 12 13 13
REMARK SMILES IDX 14 14 15 15 16 16 17 17 18 18 19 19 20 20
REMARK H PARENT
REMARK Flexibility Score: inf
ROOT
ATOM      1  C   UNL     1      63.570  28.253  59.759  1.00  0.00     0.000 C 
ENDROOT
BRANCH   1   2
ATOM      2  C   UNL     1      62.562  28.989  60.659  1.00  0.00     0.000 C 
BRANCH   2   3
ATOM      3  C   UNL     1      63.169  30.216  61.357  1.00  0.00     0.000 C 
BRANCH   3   4
ATOM      4  C   UNL     1      63.679  31.234  60.331  1.00  0.00     0.000 C 
BRANCH   4   5
ATOM      5  C   UNL     1      62.538  31.730  59.435  1.00  0.00     0.000 C 
BRANCH   5   6
ATOM      6  C   UNL     1      62.408  33.257  59.503  1.00  0.00     0.006 C 
BRANCH   6   7
ATOM      7  C   UNL     1      63.636  33.884  60.168  1.00  0.00     0.053 C 
BRANCH   7   8
ATOM      8  C   UNL     1      63.222  34.792  61.281  1.00  0.00     0.041 C 
ATOM      9  O   UNL     1      63.984  34.971  62.269  1.00  0.00    -0.550 OA
ATOM     10  O   UNL     1      62.016  35.478  61.208  1.00  0.00    -0.550 OA
ENDBRANCH   7   8
ENDBRANCH   6   7
ENDBRANCH   5   6
ENDBRANCH   4   5
ENDBRANCH   3   4
ENDBRANCH   2   3
ENDBRANCH   1   2
BRANCH   1  11
ATOM     11  C   UNL     1      64.395  27.158  60.466  1.00  0.00     0.000 C 
BRANCH  11  12
ATOM     12  C   UNL     1      65.908  27.436  60.561  1.00  0.00     0.000 C 
BRANCH  12  13
ATOM     13  C   UNL     1      66.312  28.464  61.633  1.00  0.00     0.000 C 
BRANCH  13  14
ATOM     14  C   UNL     1      67.725  28.225  62.185  1.00  0.00     0.000 C 
BRANCH  14  15
ATOM     15  C   UNL     1      68.782  28.909  61.305  1.00  0.00     0.000 C 
BRANCH  15  16
ATOM     16  C   UNL     1      69.871  29.615  62.128  1.00  0.00     0.006 C 
BRANCH  16  17
ATOM     17  C   UNL     1      71.283  29.341  61.595  1.00  0.00     0.053 C 
BRANCH  17  18
ATOM     18  C   UNL     1      72.173  30.518  61.841  1.00  0.00     0.041 C 
ATOM     19  O   UNL     1      72.240  31.448  60.993  1.00  0.00    -0.550 OA
ATOM     20  O   UNL     1      72.961  30.570  62.983  1.00  0.00    -0.550 OA
ENDBRANCH  17  18
ENDBRANCH  16  17
ENDBRANCH  15  16
ENDBRANCH  14  15
ENDBRANCH  13  14
ENDBRANCH  12  13
ENDBRANCH  11  12
ENDBRANCH   1  11
TORSDOF 15
ENDMDL
MODEL 4
REMARK VINA RESULT:    -3.288      1.820      5.995
REMARK INTER + INTRA:          -8.084
REMARK INTER:                  -5.871
REMARK INTRA:                  -2.213
REMARK UNBOUND:                -1.913
REMARK SMILES O=C([O-])CCCCCCCCCCCCCCC(=O)[O-]
REMARK SMILES IDX 10 1 9 2 8 3 7 4 6 5 5 6 4 7 2 8 1 9 3 10 11 11 12 12 13 13
REMARK SMILES IDX 14 14 15 15 16 16 17 17 18 18 19 19 20 20
REMARK H PARENT
REMARK Flexibility Score: inf
ROOT
ATOM      1  C   UNL     1      57.445  25.877  51.213  1.00  0.00     0.000 C 
ENDROOT
BRANCH   1   2
ATOM      2  C   UNL     1      56.556  25.950  52.467  1.00  0.00     0.000 C 
BRANCH   2   3
ATOM      3  C   UNL     1      55.117  26.389  52.155  1.00  0.00     0.000 C 
BRANCH   3   4
ATOM      4  C   UNL     1      54.764  26.108  50.689  1.00  0.00     0.000 C 
BRANCH   4   5
ATOM      5  C   UNL     1      54.277  27.382  49.988  1.00  0.00     0.000 C 
BRANCH   5   6
ATOM      6  C   UNL     1      53.523  28.294  50.965  1.00  0.00     0.006 C 
BRANCH   6   7
ATOM      7  C   UNL     1      53.892  29.764  50.740  1.00  0.00     0.053 C 
BRANCH   7   8
ATOM      8  C   UNL     1      54.084  30.462  52.049  1.00  0.00     0.041 C 
ATOM      9  O   UNL     1      53.836  31.693  52.152  1.00  0.00    -0.550 OA
ATOM     10  O   UNL     1      54.492  29.744  53.167  1.00  0.00    -0.550 OA
ENDBRANCH   7   8
ENDBRANCH   6   7
ENDBRANCH   5   6
ENDBRANCH   4   5
ENDBRANCH   3   4
ENDBRANCH   2   3
ENDBRANCH   1   2
BRANCH   1  11
ATOM     11  C   UNL     1      58.926  25.542  51.484  1.00  0.00     0.000 C 
BRANCH  11  12
ATOM     12  C   UNL     1      59.907  25.972  50.375  1.00  0.00     0.000 C 
BRANCH  12  13
ATOM     13  C   UNL     1      60.923  27.051  50.791  1.00  0.00     0.000 C 
BRANCH  13  14
ATOM     14  C   UNL     1      60.812  28.330  49.948  1.00  0.00     0.000 C 
BRANCH  14  15
ATOM     15  C   UNL     1      59.413  28.459  49.326  1.00  0.00     0.000 C 
BRANCH  15  16
ATOM     16  C   UNL     1      58.664  29.711  49.808  1.00  0.00     0.006 C 
BRANCH  16  17
ATOM     17  C   UNL     1      57.527  29.378  50.784  1.00  0.00     0.053 C 
BRANCH  17  18
ATOM     18  C   UNL     1      57.924  29.718  52.186  1.00  0.00     0.041 C 
ATOM     19  O   UNL     1      57.657  30.854  52.661  1.00  0.00    -0.550 OA
ATOM     20  O   UNL     1      58.625  28.797  52.953  1.00  0.00    -0.550 OA
ENDBRANCH  17  18
ENDBRANCH  16  17
ENDBRANCH  15  16
ENDBRANCH  14  15
ENDBRANCH  13  14
ENDBRANCH  12  13
ENDBRANCH  11  12
ENDBRANCH   1  11
TORSDOF 15
ENDMDL
MODEL 5
REMARK VINA RESULT:    -3.288      1.491      6.669
REMARK INTER + INTRA:          -8.084
REMARK INTER:                  -5.448
REMARK INTRA:                  -2.636
REMARK UNBOUND:                -1.913
REMARK SMILES O=C([O-])CCCCCCCCCCCCCCC(=O)[O-]
REMARK SMILES IDX 10 1 9 2 8 3 7 4 6 5 5 6 4 7 2 8 1 9 3 10 11 11 12 12 13 13
REMARK SMILES IDX 14 14 15 15 16 16 17 17 18 18 19 19 20 20
REMARK H PARENT
REMARK Flexibility Score: inf
ROOT
ATOM      1  C   UNL     1      58.574  28.256  53.575  1.00  0.00     0.000 C 
ENDROOT
BRANCH   1   2
ATOM      2  C   UNL     1      58.115  26.843  53.172  1.00  0.00     0.000 C 
BRANCH   2   3
ATOM      3  C   UNL     1      56.678  26.814  52.630  1.00  0.00     0.000 C 
BRANCH   3   4
ATOM      4  C   UNL     1      56.654  26.375  51.162  1.00  0.00     0.000 C 
BRANCH   4   5
ATOM      5  C   UNL     1      55.417  26.930  50.443  1.00  0.00     0.000 C 
BRANCH   5   6
ATOM      6  C   UNL     1      55.397  28.463  50.485  1.00  0.00     0.006 C 
BRANCH   6   7
ATOM      7  C   UNL     1      53.962  28.992  50.564  1.00  0.00     0.053 C 
BRANCH   7   8
ATOM      8  C   UNL     1      53.738  29.707  51.858  1.00  0.00     0.041 C 
ATOM      9  O   UNL     1      53.700  29.062  52.939  1.00  0.00    -0.550 OA
ATOM     10  O   UNL     1      53.617  31.091  51.876  1.00  0.00    -0.550 OA
ENDBRANCH   7   8
ENDBRANCH   6   7
ENDBRANCH   5   6
ENDBRANCH   4   5
ENDBRANCH   3   4
ENDBRANCH   2   3
ENDBRANCH   1   2
BRANCH   1  11
ATOM     11  C   UNL     1      57.644  29.397  53.116  1.00  0.00     0.000 C 
BRANCH  11  12
ATOM     12  C   UNL     1      58.338  30.535  52.341  1.00  0.00     0.000 C 
BRANCH  12  13
ATOM     13  C   UNL     1      59.360  30.073  51.288  1.00  0.00     0.000 C 
BRANCH  13  14
ATOM     14  C   UNL     1      58.715  29.748  49.932  1.00  0.00     0.000 C 
BRANCH  14  15
ATOM     15  C   UNL     1      59.219  28.402  49.392  1.00  0.00     0.000 C 
BRANCH  15  16
ATOM     16  C   UNL     1      60.308  27.779  50.279  1.00  0.00     0.006 C 
BRANCH  16  17
ATOM     17  C   UNL     1      60.291  26.245  50.243  1.00  0.00     0.053 C 
BRANCH  17  18
ATOM     18  C   UNL     1      61.170  25.686  51.317  1.00  0.00     0.041 C 
ATOM     19  O   UNL     1      61.347  24.441  51.405  1.00  0.00    -0.550 OA
ATOM     20  O   UNL     1      61.759  26.533  52.246  1.00  0.00    -0.550 OA
ENDBRANCH  17  18
ENDBRANCH  16  17
ENDBRANCH  15  16
ENDBRANCH  14  15
ENDBRANCH  13  14
ENDBRANCH  12  13
ENDBRANCH  11  12
ENDBRANCH   1  11
TORSDOF 15
ENDMDL
MODEL 6
REMARK VINA RESULT:    -3.230      1.323      2.197
REMARK INTER + INTRA:          -7.975
REMARK INTER:                  -6.619
REMARK INTRA:                  -1.356
REMARK UNBOUND:                -1.913
REMARK SMILES O=C([O-])CCCCCCCCCCCCCCC(=O)[O-]
REMARK SMILES IDX 10 1 9 2 8 3 7 4 6 5 5 6 4 7 2 8 1 9 3 10 11 11 12 12 13 13
REMARK SMILES IDX 14 14 15 15 16 16 17 17 18 18 19 19 20 20
REMARK H PARENT
REMARK Flexibility Score: inf
ROOT
ATOM      1  C   UNL     1      58.810  29.563  49.628  1.00  0.00     0.000 C 
ENDROOT
BRANCH   1   2
ATOM      2  C   UNL     1      59.750  28.363  49.410  1.00  0.00     0.000 C 
BRANCH   2   3
ATOM      3  C   UNL     1      60.929  28.343  50.394  1.00  0.00     0.000 C 
BRANCH   3   4
ATOM      4  C   UNL     1      61.613  26.971  50.402  1.00  0.00     0.000 C 
BRANCH   4   5
ATOM      5  C   UNL     1      60.856  25.985  51.300  1.00  0.00     0.000 C 
BRANCH   5   6
ATOM      6  C   UNL     1      60.075  24.964  50.461  1.00  0.00     0.006 C 
BRANCH   6   7
ATOM      7  C   UNL     1      60.254  23.547  51.014  1.00  0.00     0.053 C 
BRANCH   7   8
ATOM      8  C   UNL     1      61.291  22.807  50.232  1.00  0.00     0.041 C 
ATOM      9  O   UNL     1      62.407  22.541  50.752  1.00  0.00    -0.550 OA
ATOM     10  O   UNL     1      61.010  22.370  48.943  1.00  0.00    -0.550 OA
ENDBRANCH   7   8
ENDBRANCH   6   7
ENDBRANCH   5   6
ENDBRANCH   4   5
ENDBRANCH   3   4
ENDBRANCH   2   3
ENDBRANCH   1   2
BRANCH   1  11
ATOM     11  C   UNL     1      57.591  29.279  50.528  1.00  0.00     0.000 C 
BRANCH  11  12
ATOM     12  C   UNL     1      57.332  27.789  50.829  1.00  0.00     0.000 C 
BRANCH  12  13
ATOM     13  C   UNL     1      55.941  27.477  51.408  1.00  0.00     0.000 C 
BRANCH  13  14
ATOM     14  C   UNL     1      54.834  27.497  50.343  1.00  0.00     0.000 C 
BRANCH  14  15
ATOM     15  C   UNL     1      53.674  28.406  50.772  1.00  0.00     0.000 C 
BRANCH  15  16
ATOM     16  C   UNL     1      53.997  29.899  50.602  1.00  0.00     0.006 C 
BRANCH  16  17
ATOM     17  C   UNL     1      53.518  30.744  51.789  1.00  0.00     0.053 C 
BRANCH  17  18
ATOM     18  C   UNL     1      54.415  30.546  52.970  1.00  0.00     0.041 C 
ATOM     19  O   UNL     1      55.627  30.888  52.909  1.00  0.00    -0.550 OA
ATOM     20  O   UNL     1      53.927  29.944  54.123  1.00  0.00    -0.550 OA
ENDBRANCH  17  18
ENDBRANCH  16  17
ENDBRANCH  15  16
ENDBRANCH  14  15
ENDBRANCH  13  14
ENDBRANCH  12  13
ENDBRANCH  11  12
ENDBRANCH   1  11
TORSDOF 15
ENDMDL
MODEL 7
REMARK VINA RESULT:    -3.194      3.512      7.164
REMARK INTER + INTRA:          -7.908
REMARK INTER:                  -6.506
REMARK INTRA:                  -1.401
REMARK UNBOUND:                -1.913
REMARK SMILES O=C([O-])CCCCCCCCCCCCCCC(=O)[O-]
REMARK SMILES IDX 10 1 9 2 8 3 7 4 6 5 5 6 4 7 2 8 1 9 3 10 11 11 12 12 13 13
REMARK SMILES IDX 14 14 15 15 16 16 17 17 18 18 19 19 20 20
REMARK H PARENT
REMARK Flexibility Score: inf
ROOT
ATOM      1  C   UNL     1      59.383  27.089  49.627  1.00  0.00     0.000 C 
ENDROOT
BRANCH   1   2
ATOM      2  C   UNL     1      59.842  28.558  49.599  1.00  0.00     0.000 C 
BRANCH   2   3
ATOM      3  C   UNL     1      58.669  29.550  49.610  1.00  0.00     0.000 C 
BRANCH   3   4
ATOM      4  C   UNL     1      57.895  29.471  50.931  1.00  0.00     0.000 C 
BRANCH   4   5
ATOM      5  C   UNL     1      56.446  29.028  50.692  1.00  0.00     0.000 C 
BRANCH   5   6
ATOM      6  C   UNL     1      56.146  27.710  51.417  1.00  0.00     0.006 C 
BRANCH   6   7
ATOM      7  C   UNL     1      55.810  26.598  50.419  1.00  0.00     0.053 C 
BRANCH   7   8
ATOM      8  C   UNL     1      54.332  26.380  50.356  1.00  0.00     0.041 C 
ATOM      9  O   UNL     1      53.585  26.845  51.257  1.00  0.00    -0.550 OA
ATOM     10  O   UNL     1      53.774  25.703  49.279  1.00  0.00    -0.550 OA
ENDBRANCH   7   8
ENDBRANCH   6   7
ENDBRANCH   5   6
ENDBRANCH   4   5
ENDBRANCH   3   4
ENDBRANCH   2   3
ENDBRANCH   1   2
BRANCH   1  11
ATOM     11  C   UNL     1      60.129  26.194  50.636  1.00  0.00     0.000 C 
BRANCH  11  12
ATOM     12  C   UNL     1      61.459  26.768  51.164  1.00  0.00     0.000 C 
BRANCH  12  13
ATOM     13  C   UNL     1      62.718  26.004  50.718  1.00  0.00     0.000 C 
BRANCH  13  14
ATOM     14  C   UNL     1      63.918  26.929  50.465  1.00  0.00     0.000 C 
BRANCH  14  15
ATOM     15  C   UNL     1      63.553  28.044  49.475  1.00  0.00     0.000 C 
BRANCH  15  16
ATOM     16  C   UNL     1      64.552  29.212  49.503  1.00  0.00     0.006 C 
BRANCH  16  17
ATOM     17  C   UNL     1      64.021  30.460  48.786  1.00  0.00     0.053 C 
BRANCH  17  18
ATOM     18  C   UNL     1      63.421  31.414  49.771  1.00  0.00     0.041 C 
ATOM     19  O   UNL     1      63.522  31.193  51.007  1.00  0.00    -0.550 OA
ATOM     20  O   UNL     1      62.715  32.523  49.324  1.00  0.00    -0.550 OA
ENDBRANCH  17  18
ENDBRANCH  16  17
ENDBRANCH  15  16
ENDBRANCH  14  15
ENDBRANCH  13  14
ENDBRANCH  12  13
ENDBRANCH  11  12
ENDBRANCH   1  11
TORSDOF 15
ENDMDL
MODEL 8
REMARK VINA RESULT:    -3.174      3.264      6.173
REMARK INTER + INTRA:          -7.871
REMARK INTER:                  -5.436
REMARK INTRA:                  -2.435
REMARK UNBOUND:                -1.913
REMARK SMILES O=C([O-])CCCCCCCCCCCCCCC(=O)[O-]
REMARK SMILES IDX 10 1 9 2 8 3 7 4 6 5 5 6 4 7 2 8 1 9 3 10 11 11 12 12 13 13
REMARK SMILES IDX 14 14 15 15 16 16 17 17 18 18 19 19 20 20
REMARK H PARENT
REMARK Flexibility Score: inf
ROOT
ATOM      1  C   UNL     1      60.155  26.711  52.503  1.00  0.00     0.000 C 
ENDROOT
BRANCH   1   2
ATOM      2  C   UNL     1      59.182  27.359  53.505  1.00  0.00     0.000 C 
BRANCH   2   3
ATOM      3  C   UNL     1      57.739  27.420  52.982  1.00  0.00     0.000 C 
BRANCH   3   4
ATOM      4  C   UNL     1      57.272  28.873  52.830  1.00  0.00     0.000 C 
BRANCH   4   5
ATOM      5  C   UNL     1      56.185  28.990  51.755  1.00  0.00     0.000 C 
BRANCH   5   6
ATOM      6  C   UNL     1      56.210  27.779  50.812  1.00  0.00     0.006 C 
BRANCH   6   7
ATOM      7  C   UNL     1      54.808  27.472  50.276  1.00  0.00     0.053 C 
BRANCH   7   8
ATOM      8  C   UNL     1      54.382  26.098  50.682  1.00  0.00     0.041 C 
ATOM      9  O   UNL     1      54.617  25.681  51.848  1.00  0.00    -0.550 OA
ATOM     10  O   UNL     1      53.685  25.293  49.790  1.00  0.00    -0.550 OA
ENDBRANCH   7   8
ENDBRANCH   6   7
ENDBRANCH   5   6
ENDBRANCH   4   5
ENDBRANCH   3   4
ENDBRANCH   2   3
ENDBRANCH   1   2
BRANCH   1  11
ATOM     11  C   UNL     1      59.494  25.794  51.454  1.00  0.00     0.000 C 
BRANCH  11  12
ATOM     12  C   UNL     1      59.584  26.293  49.999  1.00  0.00     0.000 C 
BRANCH  12  13
ATOM     13  C   UNL     1      60.273  27.658  49.822  1.00  0.00     0.000 C 
BRANCH  13  14
ATOM     14  C   UNL     1      59.310  28.756  49.348  1.00  0.00     0.000 C 
BRANCH  14  15
ATOM     15  C   UNL     1      59.418  30.004  50.236  1.00  0.00     0.000 C 
BRANCH  15  16
ATOM     16  C   UNL     1      60.763  30.089  50.975  1.00  0.00     0.006 C 
BRANCH  16  17
ATOM     17  C   UNL     1      61.605  31.292  50.529  1.00  0.00     0.053 C 
BRANCH  17  18
ATOM     18  C   UNL     1      62.921  30.835  49.982  1.00  0.00     0.041 C 
ATOM     19  O   UNL     1      63.220  29.611  49.991  1.00  0.00    -0.550 OA
ATOM     20  O   UNL     1      63.836  31.764  49.502  1.00  0.00    -0.550 OA
ENDBRANCH  17  18
ENDBRANCH  16  17
ENDBRANCH  15  16
ENDBRANCH  14  15
ENDBRANCH  13  14
ENDBRANCH  12  13
ENDBRANCH  11  12
ENDBRANCH   1  11
TORSDOF 15
ENDMDL
MODEL 9
REMARK VINA RESULT:    -3.120      2.095      3.094
REMARK INTER + INTRA:          -7.769
REMARK INTER:                  -5.674
REMARK INTRA:                  -2.094
REMARK UNBOUND:                -1.913
REMARK SMILES O=C([O-])CCCCCCCCCCCCCCC(=O)[O-]
REMARK SMILES IDX 10 1 9 2 8 3 7 4 6 5 5 6 4 7 2 8 1 9 3 10 11 11 12 12 13 13
REMARK SMILES IDX 14 14 15 15 16 16 17 17 18 18 19 19 20 20
REMARK H PARENT
REMARK Flexibility Score: inf
ROOT
ATOM      1  C   UNL     1      55.972  26.368  52.172  1.00  0.00     0.000 C 
ENDROOT
BRANCH   1   2
ATOM      2  C   UNL     1      57.040  27.476  52.119  1.00  0.00     0.000 C 
BRANCH   2   3
ATOM      3  C   UNL     1      57.586  27.711  50.703  1.00  0.00     0.000 C 
BRANCH   3   4
ATOM      4  C   UNL     1      57.634  29.208  50.374  1.00  0.00     0.000 C 
BRANCH   4   5
ATOM      5  C   UNL     1      58.912  29.561  49.604  1.00  0.00     0.000 C 
BRANCH   5   6
ATOM      6  C   UNL     1      59.892  28.380  49.593  1.00  0.00     0.006 C 
BRANCH   6   7
ATOM      7  C   UNL     1      61.196  28.742  50.311  1.00  0.00     0.053 C 
BRANCH   7   8
ATOM      8  C   UNL     1      62.331  27.928  49.778  1.00  0.00     0.041 C 
ATOM      9  O   UNL     1      63.098  28.409  48.902  1.00  0.00    -0.550 OA
ATOM     10  O   UNL     1      62.571  26.655  50.280  1.00  0.00    -0.550 OA
ENDBRANCH   7   8
ENDBRANCH   6   7
ENDBRANCH   5   6
ENDBRANCH   4   5
ENDBRANCH   3   4
ENDBRANCH   2   3
ENDBRANCH   1   2
BRANCH   1  11
ATOM     11  C   UNL     1      55.040  26.304  50.945  1.00  0.00     0.000 C 
BRANCH  11  12
ATOM     12  C   UNL     1      53.815  27.237  51.004  1.00  0.00     0.000 C 
BRANCH  12  13
ATOM     13  C   UNL     1      54.010  28.608  50.332  1.00  0.00     0.000 C 
BRANCH  13  14
ATOM     14  C   UNL     1      53.861  29.780  51.313  1.00  0.00     0.000 C 
BRANCH  14  15
ATOM     15  C   UNL     1      53.773  29.277  52.761  1.00  0.00     0.000 C 
BRANCH  15  16
ATOM     16  C   UNL     1      54.577  30.146  53.740  1.00  0.00     0.006 C 
BRANCH  16  17
ATOM     17  C   UNL     1      55.614  31.027  53.031  1.00  0.00     0.053 C 
BRANCH  17  18
ATOM     18  C   UNL     1      56.961  30.860  53.661  1.00  0.00     0.041 C 
ATOM     19  O   UNL     1      57.084  30.197  54.726  1.00  0.00    -0.550 OA
ATOM     20  O   UNL     1      58.074  31.471  53.098  1.00  0.00    -0.550 OA
ENDBRANCH  17  18
ENDBRANCH  16  17
ENDBRANCH  15  16
ENDBRANCH  14  15
ENDBRANCH  13  14
ENDBRANCH  12  13
ENDBRANCH  11  12
ENDBRANCH   1  11
TORSDOF 15
ENDMDL
