MODEL 1
REMARK VINA RESULT:    -5.243      0.000      0.000
REMARK INTER + INTRA:          -7.281
REMARK INTER:                  -7.082
REMARK INTRA:                  -0.199
REMARK UNBOUND:                -0.199
REMARK SMILES CCCCCCC=CC(=O)[O-]
REMARK SMILES IDX 5 1 6 2 7 3 8 4 9 5 10 6 11 7 4 8 3 9 2 10 1 11
REMARK H PARENT
REMARK Flexibility Score: inf
ROOT
ATOM      1  C   UNL     1      43.493  45.424  41.496  1.00  0.00     0.004 C 
ENDROOT
BRANCH   1   2
ATOM      2  C   UNL     1      43.341  45.460  43.023  1.00  0.00     0.027 C 
BRANCH   2   3
ATOM      3  C   UNL     1      44.674  45.319  43.707  1.00  0.00    -0.025 C 
ATOM      4  C   UNL     1      44.981  45.768  44.935  1.00  0.00     0.020 C 
BRANCH   4   5
ATOM      5  C   UNL     1      44.073  46.455  45.878  1.00  0.00     0.064 C 
ATOM      6  O   UNL     1      43.697  45.920  46.954  1.00  0.00    -0.545 OA
ATOM      7  O   UNL     1      43.639  47.739  45.577  1.00  0.00    -0.545 OA
ENDBRANCH   4   5
ENDBRANCH   2   3
ENDBRANCH   1   2
BRANCH   1   8
ATOM      8  C   UNL     1      42.124  45.406  40.807  1.00  0.00     0.000 C 
BRANCH   8   9
ATOM      9  C   UNL     1      42.266  45.617  39.292  1.00  0.00    -0.000 C 
BRANCH   9  10
ATOM     10  C   UNL     1      42.490  44.302  38.531  1.00  0.00    -0.003 C 
ATOM     11  C   UNL     1      43.954  44.079  38.153  1.00  0.00     0.004 C 
ENDBRANCH   9  10
ENDBRANCH   8   9
ENDBRANCH   1   8
TORSDOF 6
ENDMDL
MODEL 2
REMARK VINA RESULT:    -5.105      1.887      2.729
REMARK INTER + INTRA:          -7.095
REMARK INTER:                  -6.732
REMARK INTRA:                  -0.363
REMARK UNBOUND:                -0.199
REMARK SMILES CCCCCCC=CC(=O)[O-]
REMARK SMILES IDX 5 1 6 2 7 3 8 4 9 5 10 6 11 7 4 8 3 9 2 10 1 11
REMARK H PARENT
REMARK Flexibility Score: inf
ROOT
ATOM      1  C   UNL     1      44.730  45.481  43.884  1.00  0.00     0.004 C 
ENDROOT
BRANCH   1   2
ATOM      2  C   UNL     1      43.554  46.070  44.675  1.00  0.00     0.027 C 
BRANCH   2   3
ATOM      3  C   UNL     1      44.010  47.176  45.588  1.00  0.00    -0.025 C 
ATOM      4  C   UNL     1      44.300  47.052  46.893  1.00  0.00     0.020 C 
BRANCH   4   5
ATOM      5  C   UNL     1      44.270  45.808  47.691  1.00  0.00     0.064 C 
ATOM      6  O   UNL     1      45.238  45.004  47.714  1.00  0.00    -0.545 OA
ATOM      7  O   UNL     1      43.146  45.529  48.457  1.00  0.00    -0.545 OA
ENDBRANCH   4   5
ENDBRANCH   2   3
ENDBRANCH   1   2
BRANCH   1   8
ATOM      8  C   UNL     1      44.313  45.145  42.448  1.00  0.00     0.000 C 
BRANCH   8   9
ATOM      9  C   UNL     1      42.816  45.415  42.231  1.00  0.00    -0.000 C 
BRANCH   9  10
ATOM     10  C   UNL     1      42.423  45.399  40.747  1.00  0.00    -0.003 C 
ATOM     11  C   UNL     1      41.041  44.791  40.507  1.00  0.00     0.004 C 
ENDBRANCH   9  10
ENDBRANCH   8   9
ENDBRANCH   1   8
TORSDOF 6
ENDMDL
MODEL 3
REMARK VINA RESULT:    -4.983      1.310      2.197
REMARK INTER + INTRA:          -6.930
REMARK INTER:                  -6.560
REMARK INTRA:                  -0.370
REMARK UNBOUND:                -0.199
REMARK SMILES CCCCCCC=CC(=O)[O-]
REMARK SMILES IDX 5 1 6 2 7 3 8 4 9 5 10 6 11 7 4 8 3 9 2 10 1 11
REMARK H PARENT
REMARK Flexibility Score: inf
ROOT
ATOM      1  C   UNL     1      44.734  44.932  42.687  1.00  0.00     0.004 C 
ENDROOT
BRANCH   1   2
ATOM      2  C   UNL     1      44.776  45.441  44.135  1.00  0.00     0.027 C 
BRANCH   2   3
ATOM      3  C   UNL     1      43.477  46.094  44.522  1.00  0.00    -0.025 C 
ATOM      4  C   UNL     1      43.161  46.561  45.741  1.00  0.00     0.020 C 
BRANCH   4   5
ATOM      5  C   UNL     1      44.029  46.565  46.938  1.00  0.00     0.064 C 
ATOM      6  O   UNL     1      44.855  47.488  47.161  1.00  0.00    -0.545 OA
ATOM      7  O   UNL     1      43.913  45.529  47.854  1.00  0.00    -0.545 OA
ENDBRANCH   4   5
ENDBRANCH   2   3
ENDBRANCH   1   2
BRANCH   1   8
ATOM      8  C   UNL     1      43.478  45.434  41.965  1.00  0.00     0.000 C 
BRANCH   8   9
ATOM      9  C   UNL     1      43.583  45.199  40.451  1.00  0.00    -0.000 C 
BRANCH   9  10
ATOM     10  C   UNL     1      42.211  45.183  39.760  1.00  0.00    -0.003 C 
ATOM     11  C   UNL     1      41.073  44.820  40.713  1.00  0.00     0.004 C 
ENDBRANCH   9  10
ENDBRANCH   8   9
ENDBRANCH   1   8
TORSDOF 6
ENDMDL
MODEL 4
REMARK VINA RESULT:    -4.946      3.504      5.937
REMARK INTER + INTRA:          -6.879
REMARK INTER:                  -6.378
REMARK INTRA:                  -0.502
REMARK UNBOUND:                -0.199
REMARK SMILES CCCCCCC=CC(=O)[O-]
REMARK SMILES IDX 5 1 6 2 7 3 8 4 9 5 10 6 11 7 4 8 3 9 2 10 1 11
REMARK H PARENT
REMARK Flexibility Score: inf
ROOT
ATOM      1  C   UNL     1      45.167  44.956  42.380  1.00  0.00     0.004 C 
ENDROOT
BRANCH   1   2
ATOM      2  C   UNL     1      44.052  45.427  41.436  1.00  0.00     0.027 C 
BRANCH   2   3
ATOM      3  C   UNL     1      42.702  45.322  42.092  1.00  0.00    -0.025 C 
ATOM      4  C   UNL     1      41.534  45.115  41.462  1.00  0.00     0.020 C 
BRANCH   4   5
ATOM      5  C   UNL     1      41.335  44.912  40.012  1.00  0.00     0.064 C 
ATOM      6  O   UNL     1      41.524  45.833  39.175  1.00  0.00    -0.545 OA
ATOM      7  O   UNL     1      40.948  43.658  39.557  1.00  0.00    -0.545 OA
ENDBRANCH   4   5
ENDBRANCH   2   3
ENDBRANCH   1   2
BRANCH   1   8
ATOM      8  C   UNL     1      44.749  45.112  43.846  1.00  0.00     0.000 C 
BRANCH   8   9
ATOM      9  C   UNL     1      45.606  46.173  44.553  1.00  0.00    -0.000 C 
BRANCH   9  10
ATOM     10  C   UNL     1      44.827  46.934  45.637  1.00  0.00    -0.003 C 
ATOM     11  C   UNL     1      43.320  46.694  45.561  1.00  0.00     0.004 C 
ENDBRANCH   9  10
ENDBRANCH   8   9
ENDBRANCH   1   8
TORSDOF 6
ENDMDL
MODEL 5
REMARK VINA RESULT:    -4.867      5.027      7.412
REMARK INTER + INTRA:          -6.773
REMARK INTER:                  -5.953
REMARK INTRA:                  -0.820
REMARK UNBOUND:                -0.199
REMARK SMILES CCCCCCC=CC(=O)[O-]
REMARK SMILES IDX 5 1 6 2 7 3 8 4 9 5 10 6 11 7 4 8 3 9 2 10 1 11
REMARK H PARENT
REMARK Flexibility Score: inf
ROOT
ATOM      1  C   UNL     1      46.337  46.933  49.735  1.00  0.00     0.004 C 
ENDROOT
BRANCH   1   2
ATOM      2  C   UNL     1      45.856  47.827  48.584  1.00  0.00     0.027 C 
BRANCH   2   3
ATOM      3  C   UNL     1      46.354  47.322  47.257  1.00  0.00    -0.025 C 
ATOM      4  C   UNL     1      45.590  46.886  46.242  1.00  0.00     0.020 C 
BRANCH   4   5
ATOM      5  C   UNL     1      44.112  46.847  46.202  1.00  0.00     0.064 C 
ATOM      6  O   UNL     1      43.441  47.650  45.503  1.00  0.00    -0.545 OA
ATOM      7  O   UNL     1      43.446  45.880  46.943  1.00  0.00    -0.545 OA
ENDBRANCH   4   5
ENDBRANCH   2   3
ENDBRANCH   1   2
BRANCH   1   8
ATOM      8  C   UNL     1      45.504  45.649  49.818  1.00  0.00     0.000 C 
BRANCH   8   9
ATOM      9  C   UNL     1      46.401  44.425  50.057  1.00  0.00    -0.000 C 
BRANCH   9  10
ATOM     10  C   UNL     1      47.143  43.980  48.787  1.00  0.00    -0.003 C 
ATOM     11  C   UNL     1      46.195  43.578  47.658  1.00  0.00     0.004 C 
ENDBRANCH   9  10
ENDBRANCH   8   9
ENDBRANCH   1   8
TORSDOF 6
ENDMDL
MODEL 6
REMARK VINA RESULT:    -4.860     10.057     11.693
REMARK INTER + INTRA:          -6.764
REMARK INTER:                  -5.857
REMARK INTRA:                  -0.907
REMARK UNBOUND:                -0.199
REMARK SMILES CCCCCCC=CC(=O)[O-]
REMARK SMILES IDX 5 1 6 2 7 3 8 4 9 5 10 6 11 7 4 8 3 9 2 10 1 11
REMARK H PARENT
REMARK Flexibility Score: inf
ROOT
ATOM      1  C   UNL     1      48.338  44.877  34.984  1.00  0.00     0.004 C 
ENDROOT
BRANCH   1   2
ATOM      2  C   UNL     1      48.801  45.215  33.561  1.00  0.00     0.027 C 
BRANCH   2   3
ATOM      3  C   UNL     1      47.749  44.858  32.546  1.00  0.00    -0.025 C 
ATOM      4  C   UNL     1      47.850  43.900  31.610  1.00  0.00     0.020 C 
BRANCH   4   5
ATOM      5  C   UNL     1      48.989  42.979  31.406  1.00  0.00     0.064 C 
ATOM      6  O   UNL     1      49.064  41.868  31.993  1.00  0.00    -0.545 OA
ATOM      7  O   UNL     1      49.996  43.343  30.523  1.00  0.00    -0.545 OA
ENDBRANCH   4   5
ENDBRANCH   2   3
ENDBRANCH   1   2
BRANCH   1   8
ATOM      8  C   UNL     1      49.047  43.624  35.510  1.00  0.00     0.000 C 
BRANCH   8   9
ATOM      9  C   UNL     1      48.178  42.373  35.305  1.00  0.00    -0.000 C 
BRANCH   9  10
ATOM     10  C   UNL     1      46.675  42.679  35.386  1.00  0.00    -0.003 C 
ATOM     11  C   UNL     1      45.876  42.017  34.264  1.00  0.00     0.004 C 
ENDBRANCH   9  10
ENDBRANCH   8   9
ENDBRANCH   1   8
TORSDOF 6
ENDMDL
MODEL 7
REMARK VINA RESULT:    -4.702      6.008      7.387
REMARK INTER + INTRA:          -6.551
REMARK INTER:                  -5.809
REMARK INTRA:                  -0.742
REMARK UNBOUND:                -0.199
REMARK SMILES CCCCCCC=CC(=O)[O-]
REMARK SMILES IDX 5 1 6 2 7 3 8 4 9 5 10 6 11 7 4 8 3 9 2 10 1 11
REMARK H PARENT
REMARK Flexibility Score: inf
ROOT
ATOM      1  C   UNL     1      45.072  45.440  49.690  1.00  0.00     0.004 C 
ENDROOT
BRANCH   1   2
ATOM      2  C   UNL     1      45.623  44.076  49.252  1.00  0.00     0.027 C 
BRANCH   2   3
ATOM      3  C   UNL     1      47.099  44.152  48.966  1.00  0.00    -0.025 C 
ATOM      4  C   UNL     1      47.739  43.531  47.961  1.00  0.00     0.020 C 
BRANCH   4   5
ATOM      5  C   UNL     1      47.130  42.684  46.914  1.00  0.00     0.064 C 
ATOM      6  O   UNL     1      47.226  41.429  46.930  1.00  0.00    -0.545 OA
ATOM      7  O   UNL     1      46.412  43.291  45.893  1.00  0.00    -0.545 OA
ENDBRANCH   4   5
ENDBRANCH   2   3
ENDBRANCH   1   2
BRANCH   1   8
ATOM      8  C   UNL     1      46.001  46.576  49.248  1.00  0.00     0.000 C 
BRANCH   8   9
ATOM      9  C   UNL     1      45.333  47.447  48.172  1.00  0.00    -0.000 C 
BRANCH   9  10
ATOM     10  C   UNL     1      45.455  46.843  46.765  1.00  0.00    -0.003 C 
ATOM     11  C   UNL     1      46.824  47.090  46.131  1.00  0.00     0.004 C 
ENDBRANCH   9  10
ENDBRANCH   8   9
ENDBRANCH   1   8
TORSDOF 6
ENDMDL
MODEL 8
REMARK VINA RESULT:    -4.662      4.596      7.224
REMARK INTER + INTRA:          -6.496
REMARK INTER:                  -5.672
REMARK INTRA:                  -0.824
REMARK UNBOUND:                -0.199
REMARK SMILES CCCCCCC=CC(=O)[O-]
REMARK SMILES IDX 5 1 6 2 7 3 8 4 9 5 10 6 11 7 4 8 3 9 2 10 1 11
REMARK H PARENT
REMARK Flexibility Score: inf
ROOT
ATOM      1  C   UNL     1      47.333  43.600  47.621  1.00  0.00     0.004 C 
ENDROOT
BRANCH   1   2
ATOM      2  C   UNL     1      46.375  44.160  46.560  1.00  0.00     0.027 C 
BRANCH   2   3
ATOM      3  C   UNL     1      46.835  45.504  46.066  1.00  0.00    -0.025 C 
ATOM      4  C   UNL     1      46.043  46.496  45.626  1.00  0.00     0.020 C 
BRANCH   4   5
ATOM      5  C   UNL     1      44.566  46.489  45.571  1.00  0.00     0.064 C 
ATOM      6  O   UNL     1      43.935  45.981  44.608  1.00  0.00    -0.545 OA
ATOM      7  O   UNL     1      43.853  47.041  46.627  1.00  0.00    -0.545 OA
ENDBRANCH   4   5
ENDBRANCH   2   3
ENDBRANCH   1   2
BRANCH   1   8
ATOM      8  C   UNL     1      46.967  44.113  49.018  1.00  0.00     0.000 C 
BRANCH   8   9
ATOM      9  C   UNL     1      45.443  44.224  49.182  1.00  0.00    -0.000 C 
BRANCH   9  10
ATOM     10  C   UNL     1      44.999  45.623  49.637  1.00  0.00    -0.003 C 
ATOM     11  C   UNL     1      46.122  46.655  49.558  1.00  0.00     0.004 C 
ENDBRANCH   9  10
ENDBRANCH   8   9
ENDBRANCH   1   8
TORSDOF 6
ENDMDL
MODEL 9
REMARK VINA RESULT:    -4.652     10.199     11.313
REMARK INTER + INTRA:          -6.483
REMARK INTER:                  -5.860
REMARK INTRA:                  -0.622
REMARK UNBOUND:                -0.199
REMARK SMILES CCCCCCC=CC(=O)[O-]
REMARK SMILES IDX 5 1 6 2 7 3 8 4 9 5 10 6 11 7 4 8 3 9 2 10 1 11
REMARK H PARENT
REMARK Flexibility Score: inf
ROOT
ATOM      1  C   UNL     1      49.378  44.120  35.543  1.00  0.00     0.004 C 
ENDROOT
BRANCH   1   2
ATOM      2  C   UNL     1      48.064  43.411  35.187  1.00  0.00     0.027 C 
BRANCH   2   3
ATOM      3  C   UNL     1      48.319  42.158  34.393  1.00  0.00    -0.025 C 
ATOM      4  C   UNL     1      48.318  42.059  33.054  1.00  0.00     0.020 C 
BRANCH   4   5
ATOM      5  C   UNL     1      48.107  43.157  32.087  1.00  0.00     0.064 C 
ATOM      6  O   UNL     1      49.065  43.791  31.575  1.00  0.00    -0.545 OA
ATOM      7  O   UNL     1      46.809  43.483  31.716  1.00  0.00    -0.545 OA
ENDBRANCH   4   5
ENDBRANCH   2   3
ENDBRANCH   1   2
BRANCH   1   8
ATOM      8  C   UNL     1      49.570  45.381  34.694  1.00  0.00     0.000 C 
BRANCH   8   9
ATOM      9  C   UNL     1      48.238  46.120  34.497  1.00  0.00    -0.000 C 
BRANCH   9  10
ATOM     10  C   UNL     1      48.211  47.486  35.199  1.00  0.00    -0.003 C 
ATOM     11  C   UNL     1      49.461  48.320  34.920  1.00  0.00     0.004 C 
ENDBRANCH   9  10
ENDBRANCH   8   9
ENDBRANCH   1   8
TORSDOF 6
ENDMDL
