MODEL 1
REMARK VINA RESULT:    -5.493      0.000      0.000
REMARK INTER + INTRA:          -8.855
REMARK INTER:                  -7.741
REMARK INTRA:                  -1.114
REMARK UNBOUND:                -1.114
REMARK SMILES OCC1=C[C@H](O)[C@@H]2C=CO[C@H](O[C@@H]3O[C@@H](CO)[C@@H](O)[C@@H](O)[C@@H]3O)[C@H]12
REMARK SMILES IDX 12 1 11 2 8 3 9 4 7 5 10 6 24 7 5 8 3 9 4 10 6 11 2 13 1 14
REMARK SMILES IDX 13 16 22 17 14 18 20 19 15 20 18 21 23 22 21 24 16 26 17 27
REMARK SMILES IDX 19 29
REMARK H PARENT 6 12 1 15 23 23 21 25 17 28 19 30
REMARK Flexibility Score: inf
ROOT
ATOM      1  O   UNL     1      25.383   0.357  36.088  1.00  0.00    -0.310 OA
ENDROOT
BRANCH   1   2
ATOM      2  C   UNL     1      26.336   0.994  36.925  1.00  0.00     0.316 C 
ATOM      3  C   UNL     1      27.977   1.992  34.811  1.00  0.00     0.018 C 
ATOM      4  C   UNL     1      28.332   0.895  35.479  1.00  0.00     0.186 C 
ATOM      5  C   UNL     1      26.909   2.926  35.331  1.00  0.00     0.061 C 
ATOM      6  O   UNL     1      27.641   0.499  36.628  1.00  0.00    -0.472 OA
ATOM      7  C   UNL     1      26.297   2.521  36.690  1.00  0.00     0.096 C 
ATOM      8  C   UNL     1      25.710   3.114  34.383  1.00  0.00     0.145 C 
ATOM      9  C   UNL     1      24.891   3.026  36.579  1.00  0.00    -0.036 C 
ATOM     10  C   UNL     1      24.571   3.333  35.326  1.00  0.00     0.007 C 
BRANCH   8  11
ATOM     11  O   UNL     1      25.477   1.962  33.615  1.00  0.00    -0.388 OA
ATOM     12  H   UNL     1      24.843   2.224  32.897  1.00  0.00     0.211 HD
ENDBRANCH   8  11
BRANCH   9  13
ATOM     13  C   UNL     1      23.921   3.088  37.727  1.00  0.00     0.187 C 
BRANCH  13  14
ATOM     14  O   UNL     1      23.899   1.864  38.409  1.00  0.00    -0.392 OA
ATOM     15  H   UNL     1      24.799   1.458  38.297  1.00  0.00     0.211 HD
ENDBRANCH  13  14
ENDBRANCH   9  13
ENDBRANCH   1   2
BRANCH   1  16
ATOM     16  C   UNL     1      25.123  -0.976  36.501  1.00  0.00     0.286 C 
ATOM     17  C   UNL     1      23.610  -1.273  36.405  1.00  0.00     0.202 C 
ATOM     18  O   UNL     1      25.875  -1.909  35.735  1.00  0.00    -0.341 OA
ATOM     19  C   UNL     1      23.152  -1.304  34.932  1.00  0.00     0.179 C 
ATOM     20  C   UNL     1      25.535  -1.853  34.356  1.00  0.00     0.178 C 
ATOM     21  C   UNL     1      24.059  -2.252  34.132  1.00  0.00     0.177 C 
BRANCH  17  22
ATOM     22  O   UNL     1      22.867  -0.344  37.157  1.00  0.00    -0.385 OA
ATOM     23  H   UNL     1      23.177   0.565  36.910  1.00  0.00     0.211 HD
ENDBRANCH  17  22
BRANCH  19  24
ATOM     24  O   UNL     1      21.819  -1.737  34.845  1.00  0.00    -0.387 OA
ATOM     25  H   UNL     1      21.365  -1.140  34.194  1.00  0.00     0.211 HD
ENDBRANCH  19  24
BRANCH  20  26
ATOM     26  C   UNL     1      26.471  -2.786  33.571  1.00  0.00     0.191 C 
BRANCH  26  27
ATOM     27  O   UNL     1      27.008  -3.770  34.413  1.00  0.00    -0.394 OA
ATOM     28  H   UNL     1      26.741  -3.531  35.339  1.00  0.00     0.210 HD
ENDBRANCH  26  27
ENDBRANCH  20  26
BRANCH  21  29
ATOM     29  O   UNL     1      23.857  -3.582  34.544  1.00  0.00    -0.387 OA
ATOM     30  H   UNL     1      24.631  -3.828  35.116  1.00  0.00     0.211 HD
ENDBRANCH  21  29
ENDBRANCH   1  16
TORSDOF 10
ENDMDL
MODEL 2
REMARK VINA RESULT:    -5.446      1.914      5.675
REMARK INTER + INTRA:          -8.789
REMARK INTER:                  -7.685
REMARK INTRA:                  -1.104
REMARK UNBOUND:                -1.114
REMARK SMILES OCC1=C[C@H](O)[C@@H]2C=CO[C@H](O[C@@H]3O[C@@H](CO)[C@@H](O)[C@@H](O)[C@@H]3O)[C@H]12
REMARK SMILES IDX 12 1 11 2 8 3 9 4 7 5 10 6 24 7 5 8 3 9 4 10 6 11 2 13 1 14
REMARK SMILES IDX 13 16 22 17 14 18 20 19 15 20 18 21 23 22 21 24 16 26 17 27
REMARK SMILES IDX 19 29
REMARK H PARENT 6 12 1 15 23 23 21 25 17 28 19 30
REMARK Flexibility Score: inf
ROOT
ATOM      1  O   UNL     1      25.338   0.125  36.338  1.00  0.00    -0.310 OA
ENDROOT
BRANCH   1   2
ATOM      2  C   UNL     1      24.275  -0.800  36.505  1.00  0.00     0.316 C 
ATOM      3  C   UNL     1      22.263   0.830  35.298  1.00  0.00     0.018 C 
ATOM      4  C   UNL     1      22.356   0.746  36.625  1.00  0.00     0.186 C 
ATOM      5  C   UNL     1      22.965  -0.153  34.391  1.00  0.00     0.061 C 
ATOM      6  O   UNL     1      23.210  -0.182  37.227  1.00  0.00    -0.472 OA
ATOM      7  C   UNL     1      23.761  -1.258  35.120  1.00  0.00     0.096 C 
ATOM      8  C   UNL     1      23.962   0.486  33.407  1.00  0.00     0.145 C 
ATOM      9  C   UNL     1      24.891  -1.525  34.175  1.00  0.00    -0.036 C 
ATOM     10  C   UNL     1      25.006  -0.571  33.256  1.00  0.00     0.007 C 
BRANCH   8  11
ATOM     11  O   UNL     1      24.537   1.649  33.944  1.00  0.00    -0.388 OA
ATOM     12  H   UNL     1      24.318   2.388  33.318  1.00  0.00     0.211 HD
ENDBRANCH   8  11
BRANCH   9  13
ATOM     13  C   UNL     1      25.845  -2.680  34.302  1.00  0.00     0.187 C 
BRANCH  13  14
ATOM     14  O   UNL     1      26.630  -2.790  33.146  1.00  0.00    -0.392 OA
ATOM     15  H   UNL     1      26.780  -3.760  32.993  1.00  0.00     0.211 HD
ENDBRANCH  13  14
ENDBRANCH   9  13
ENDBRANCH   1   2
BRANCH   1  16
ATOM     16  C   UNL     1      26.393  -0.111  37.258  1.00  0.00     0.286 C 
ATOM     17  C   UNL     1      27.738   0.337  36.643  1.00  0.00     0.202 C 
ATOM     18  O   UNL     1      26.155   0.547  38.496  1.00  0.00    -0.341 OA
ATOM     19  C   UNL     1      27.787   1.871  36.494  1.00  0.00     0.179 C 
ATOM     20  C   UNL     1      26.082   1.958  38.337  1.00  0.00     0.178 C 
ATOM     21  C   UNL     1      27.427   2.529  37.835  1.00  0.00     0.177 C 
BRANCH  17  22
ATOM     22  O   UNL     1      27.968  -0.309  35.414  1.00  0.00    -0.385 OA
ATOM     23  H   UNL     1      28.148   0.389  34.732  1.00  0.00     0.211 HD
ENDBRANCH  17  22
BRANCH  19  24
ATOM     24  O   UNL     1      29.068   2.281  36.093  1.00  0.00    -0.387 OA
ATOM     25  H   UNL     1      29.719   1.771  36.641  1.00  0.00     0.211 HD
ENDBRANCH  19  24
BRANCH  20  26
ATOM     26  C   UNL     1      25.695   2.594  39.681  1.00  0.00     0.191 C 
BRANCH  26  27
ATOM     27  O   UNL     1      26.169   1.821  40.750  1.00  0.00    -0.394 OA
ATOM     28  H   UNL     1      26.412   2.454  41.475  1.00  0.00     0.210 HD
ENDBRANCH  26  27
ENDBRANCH  20  26
BRANCH  21  29
ATOM     29  O   UNL     1      28.435   2.282  38.785  1.00  0.00    -0.387 OA
ATOM     30  H   UNL     1      29.179   2.909  38.587  1.00  0.00     0.211 HD
ENDBRANCH  21  29
ENDBRANCH   1  16
TORSDOF 10
ENDMDL
MODEL 3
REMARK VINA RESULT:    -5.027      2.176      4.208
REMARK INTER + INTRA:          -8.199
REMARK INTER:                  -6.913
REMARK INTRA:                  -1.286
REMARK UNBOUND:                -1.114
REMARK SMILES OCC1=C[C@H](O)[C@@H]2C=CO[C@H](O[C@@H]3O[C@@H](CO)[C@@H](O)[C@@H](O)[C@@H]3O)[C@H]12
REMARK SMILES IDX 12 1 11 2 8 3 9 4 7 5 10 6 24 7 5 8 3 9 4 10 6 11 2 13 1 14
REMARK SMILES IDX 13 16 22 17 14 18 20 19 15 20 18 21 23 22 21 24 16 26 17 27
REMARK SMILES IDX 19 29
REMARK H PARENT 6 12 1 15 23 23 21 25 17 28 19 30
REMARK Flexibility Score: inf
ROOT
ATOM      1  O   UNL     1      25.677   1.062  33.786  1.00  0.00    -0.310 OA
ENDROOT
BRANCH   1   2
ATOM      2  C   UNL     1      26.033   1.353  32.444  1.00  0.00     0.316 C 
ATOM      3  C   UNL     1      24.017   3.331  32.017  1.00  0.00     0.018 C 
ATOM      4  C   UNL     1      23.853   2.092  31.556  1.00  0.00     0.186 C 
ATOM      5  C   UNL     1      25.366   3.834  32.474  1.00  0.00     0.061 C 
ATOM      6  O   UNL     1      24.901   1.166  31.596  1.00  0.00    -0.472 OA
ATOM      7  C   UNL     1      26.521   2.817  32.339  1.00  0.00     0.096 C 
ATOM      8  C   UNL     1      25.407   4.306  33.940  1.00  0.00     0.145 C 
ATOM      9  C   UNL     1      27.414   3.182  33.484  1.00  0.00    -0.036 C 
ATOM     10  C   UNL     1      26.804   3.978  34.357  1.00  0.00     0.007 C 
BRANCH   8  11
ATOM     11  O   UNL     1      24.495   3.593  34.734  1.00  0.00    -0.388 OA
ATOM     12  H   UNL     1      24.767   3.737  35.677  1.00  0.00     0.211 HD
ENDBRANCH   8  11
BRANCH   9  13
ATOM     13  C   UNL     1      28.803   2.640  33.679  1.00  0.00     0.187 C 
BRANCH  13  14
ATOM     14  O   UNL     1      29.049   2.416  35.040  1.00  0.00    -0.392 OA
ATOM     15  H   UNL     1      28.339   2.895  35.542  1.00  0.00     0.211 HD
ENDBRANCH  13  14
ENDBRANCH   9  13
ENDBRANCH   1   2
BRANCH   1  16
ATOM     16  C   UNL     1      25.662  -0.335  34.039  1.00  0.00     0.286 C 
ATOM     17  C   UNL     1      26.424  -0.643  35.347  1.00  0.00     0.202 C 
ATOM     18  O   UNL     1      24.331  -0.834  34.095  1.00  0.00    -0.341 OA
ATOM     19  C   UNL     1      25.659  -0.093  36.567  1.00  0.00     0.179 C 
ATOM     20  C   UNL     1      23.589  -0.237  35.150  1.00  0.00     0.178 C 
ATOM     21  C   UNL     1      24.203  -0.584  36.525  1.00  0.00     0.177 C 
BRANCH  17  22
ATOM     22  O   UNL     1      27.738  -0.141  35.293  1.00  0.00    -0.385 OA
ATOM     23  H   UNL     1      27.803   0.613  35.934  1.00  0.00     0.211 HD
ENDBRANCH  17  22
BRANCH  19  24
ATOM     24  O   UNL     1      26.269  -0.519  37.758  1.00  0.00    -0.387 OA
ATOM     25  H   UNL     1      25.786  -1.335  38.053  1.00  0.00     0.211 HD
ENDBRANCH  19  24
BRANCH  20  26
ATOM     26  C   UNL     1      22.132  -0.719  35.074  1.00  0.00     0.191 C 
BRANCH  26  27
ATOM     27  O   UNL     1      22.079  -2.087  34.773  1.00  0.00    -0.394 OA
ATOM     28  H   UNL     1      22.688  -2.234  34.002  1.00  0.00     0.210 HD
ENDBRANCH  26  27
ENDBRANCH  20  26
BRANCH  21  29
ATOM     29  O   UNL     1      24.152  -1.974  36.733  1.00  0.00    -0.387 OA
ATOM     30  H   UNL     1      23.273  -2.286  36.390  1.00  0.00     0.211 HD
ENDBRANCH  21  29
ENDBRANCH   1  16
TORSDOF 10
ENDMDL
MODEL 4
REMARK VINA RESULT:    -4.977      1.809      3.650
REMARK INTER + INTRA:          -8.128
REMARK INTER:                  -6.737
REMARK INTRA:                  -1.391
REMARK UNBOUND:                -1.114
REMARK SMILES OCC1=C[C@H](O)[C@@H]2C=CO[C@H](O[C@@H]3O[C@@H](CO)[C@@H](O)[C@@H](O)[C@@H]3O)[C@H]12
REMARK SMILES IDX 12 1 11 2 8 3 9 4 7 5 10 6 24 7 5 8 3 9 4 10 6 11 2 13 1 14
REMARK SMILES IDX 13 16 22 17 14 18 20 19 15 20 18 21 23 22 21 24 16 26 17 27
REMARK SMILES IDX 19 29
REMARK H PARENT 6 12 1 15 23 23 21 25 17 28 19 30
REMARK Flexibility Score: inf
ROOT
ATOM      1  O   UNL     1      23.417   0.992  36.238  1.00  0.00    -0.310 OA
ENDROOT
BRANCH   1   2
ATOM      2  C   UNL     1      22.332   1.526  36.981  1.00  0.00     0.316 C 
ATOM      3  C   UNL     1      23.654   3.938  37.755  1.00  0.00     0.018 C 
ATOM      4  C   UNL     1      23.554   2.920  38.610  1.00  0.00     0.186 C 
ATOM      5  C   UNL     1      22.816   4.004  36.500  1.00  0.00     0.061 C 
ATOM      6  O   UNL     1      22.757   1.810  38.314  1.00  0.00    -0.472 OA
ATOM      7  C   UNL     1      21.833   2.827  36.311  1.00  0.00     0.096 C 
ATOM      8  C   UNL     1      23.628   4.071  35.193  1.00  0.00     0.145 C 
ATOM      9  C   UNL     1      21.770   2.690  34.821  1.00  0.00    -0.036 C 
ATOM     10  C   UNL     1      22.752   3.354  34.219  1.00  0.00     0.007 C 
BRANCH   8  11
ATOM     11  O   UNL     1      24.854   3.397  35.316  1.00  0.00    -0.388 OA
ATOM     12  H   UNL     1      25.407   3.671  34.538  1.00  0.00     0.211 HD
ENDBRANCH   8  11
BRANCH   9  13
ATOM     13  C   UNL     1      20.776   1.828  34.093  1.00  0.00     0.187 C 
BRANCH  13  14
ATOM     14  O   UNL     1      21.268   0.522  33.968  1.00  0.00    -0.392 OA
ATOM     15  H   UNL     1      21.943   0.400  34.686  1.00  0.00     0.211 HD
ENDBRANCH  13  14
ENDBRANCH   9  13
ENDBRANCH   1   2
BRANCH   1  16
ATOM     16  C   UNL     1      23.932  -0.190  36.831  1.00  0.00     0.286 C 
ATOM     17  C   UNL     1      23.681  -1.399  35.903  1.00  0.00     0.202 C 
ATOM     18  O   UNL     1      25.317  -0.057  37.129  1.00  0.00    -0.341 OA
ATOM     19  C   UNL     1      24.532  -1.291  34.622  1.00  0.00     0.179 C 
ATOM     20  C   UNL     1      26.089   0.162  35.956  1.00  0.00     0.178 C 
ATOM     21  C   UNL     1      26.002  -1.050  35.001  1.00  0.00     0.177 C 
BRANCH  17  22
ATOM     22  O   UNL     1      22.311  -1.526  35.603  1.00  0.00    -0.385 OA
ATOM     23  H   UNL     1      22.233  -1.962  34.715  1.00  0.00     0.211 HD
ENDBRANCH  17  22
BRANCH  19  24
ATOM     24  O   UNL     1      24.425  -2.468  33.864  1.00  0.00    -0.387 OA
ATOM     25  H   UNL     1      25.283  -2.957  33.968  1.00  0.00     0.211 HD
ENDBRANCH  19  24
BRANCH  20  26
ATOM     26  C   UNL     1      27.548   0.428  36.358  1.00  0.00     0.191 C 
BRANCH  26  27
ATOM     27  O   UNL     1      28.428  -0.094  35.400  1.00  0.00    -0.394 OA
ATOM     28  H   UNL     1      28.161  -1.040  35.252  1.00  0.00     0.210 HD
ENDBRANCH  26  27
ENDBRANCH  20  26
BRANCH  21  29
ATOM     29  O   UNL     1      26.536  -2.190  35.629  1.00  0.00    -0.387 OA
ATOM     30  H   UNL     1      25.849  -2.518  36.267  1.00  0.00     0.211 HD
ENDBRANCH  21  29
ENDBRANCH   1  16
TORSDOF 10
ENDMDL
MODEL 5
REMARK VINA RESULT:    -4.971      2.179      5.168
REMARK INTER + INTRA:          -8.120
REMARK INTER:                  -6.799
REMARK INTRA:                  -1.321
REMARK UNBOUND:                -1.114
REMARK SMILES OCC1=C[C@H](O)[C@@H]2C=CO[C@H](O[C@@H]3O[C@@H](CO)[C@@H](O)[C@@H](O)[C@@H]3O)[C@H]12
REMARK SMILES IDX 12 1 11 2 8 3 9 4 7 5 10 6 24 7 5 8 3 9 4 10 6 11 2 13 1 14
REMARK SMILES IDX 13 16 22 17 14 18 20 19 15 20 18 21 23 22 21 24 16 26 17 27
REMARK SMILES IDX 19 29
REMARK H PARENT 6 12 1 15 23 23 21 25 17 28 19 30
REMARK Flexibility Score: inf
ROOT
ATOM      1  O   UNL     1      24.288   1.192  36.070  1.00  0.00    -0.310 OA
ENDROOT
BRANCH   1   2
ATOM      2  C   UNL     1      25.090   1.403  34.919  1.00  0.00     0.316 C 
ATOM      3  C   UNL     1      27.507   1.968  36.335  1.00  0.00     0.018 C 
ATOM      4  C   UNL     1      26.773   2.960  35.832  1.00  0.00     0.186 C 
ATOM      5  C   UNL     1      27.295   0.533  35.913  1.00  0.00     0.061 C 
ATOM      6  O   UNL     1      25.692   2.696  34.985  1.00  0.00    -0.472 OA
ATOM      7  C   UNL     1      26.195   0.323  34.849  1.00  0.00     0.096 C 
ATOM      8  C   UNL     1      26.936  -0.424  37.065  1.00  0.00     0.145 C 
ATOM      9  C   UNL     1      25.661  -1.033  35.193  1.00  0.00    -0.036 C 
ATOM     10  C   UNL     1      26.053  -1.429  36.401  1.00  0.00     0.007 C 
BRANCH   8  11
ATOM     11  O   UNL     1      26.225   0.237  38.079  1.00  0.00    -0.388 OA
ATOM     12  H   UNL     1      25.278  -0.047  37.992  1.00  0.00     0.211 HD
ENDBRANCH   8  11
BRANCH   9  13
ATOM     13  C   UNL     1      24.716  -1.816  34.325  1.00  0.00     0.187 C 
BRANCH  13  14
ATOM     14  O   UNL     1      24.010  -2.749  35.095  1.00  0.00    -0.392 OA
ATOM     15  H   UNL     1      23.225  -3.030  34.556  1.00  0.00     0.211 HD
ENDBRANCH  13  14
ENDBRANCH   9  13
ENDBRANCH   1   2
BRANCH   1  16
ATOM     16  C   UNL     1      22.906   1.139  35.748  1.00  0.00     0.286 C 
ATOM     17  C   UNL     1      22.131   0.411  36.869  1.00  0.00     0.202 C 
ATOM     18  O   UNL     1      22.378   2.441  35.527  1.00  0.00    -0.341 OA
ATOM     19  C   UNL     1      22.122   1.251  38.162  1.00  0.00     0.179 C 
ATOM     20  C   UNL     1      22.479   3.255  36.688  1.00  0.00     0.178 C 
ATOM     21  C   UNL     1      21.636   2.675  37.846  1.00  0.00     0.177 C 
BRANCH  17  22
ATOM     22  O   UNL     1      22.660  -0.874  37.093  1.00  0.00    -0.385 OA
ATOM     23  H   UNL     1      21.969  -1.411  37.560  1.00  0.00     0.211 HD
ENDBRANCH  17  22
BRANCH  19  24
ATOM     24  O   UNL     1      21.280   0.664  39.120  1.00  0.00    -0.387 OA
ATOM     25  H   UNL     1      21.404   1.174  39.963  1.00  0.00     0.211 HD
ENDBRANCH  19  24
BRANCH  20  26
ATOM     26  C   UNL     1      22.014   4.679  36.344  1.00  0.00     0.191 C 
BRANCH  26  27
ATOM     27  O   UNL     1      21.488   5.314  37.477  1.00  0.00    -0.394 OA
ATOM     28  H   UNL     1      21.947   4.919  38.265  1.00  0.00     0.210 HD
ENDBRANCH  26  27
ENDBRANCH  20  26
BRANCH  21  29
ATOM     29  O   UNL     1      20.277   2.656  37.484  1.00  0.00    -0.387 OA
ATOM     30  H   UNL     1      19.893   1.813  37.843  1.00  0.00     0.211 HD
ENDBRANCH  21  29
ENDBRANCH   1  16
TORSDOF 10
ENDMDL
MODEL 6
REMARK VINA RESULT:    -4.913      2.559      5.347
REMARK INTER + INTRA:          -8.038
REMARK INTER:                  -6.657
REMARK INTRA:                  -1.381
REMARK UNBOUND:                -1.114
REMARK SMILES OCC1=C[C@H](O)[C@@H]2C=CO[C@H](O[C@@H]3O[C@@H](CO)[C@@H](O)[C@@H](O)[C@@H]3O)[C@H]12
REMARK SMILES IDX 12 1 11 2 8 3 9 4 7 5 10 6 24 7 5 8 3 9 4 10 6 11 2 13 1 14
REMARK SMILES IDX 13 16 22 17 14 18 20 19 15 20 18 21 23 22 21 24 16 26 17 27
REMARK SMILES IDX 19 29
REMARK H PARENT 6 12 1 15 23 23 21 25 17 28 19 30
REMARK Flexibility Score: inf
ROOT
ATOM      1  O   UNL     1      23.463   1.194  34.857  1.00  0.00    -0.310 OA
ENDROOT
BRANCH   1   2
ATOM      2  C   UNL     1      23.597   0.960  33.464  1.00  0.00     0.316 C 
ATOM      3  C   UNL     1      25.861   2.660  33.087  1.00  0.00     0.018 C 
ATOM      4  C   UNL     1      24.641   3.080  32.755  1.00  0.00     0.186 C 
ATOM      5  C   UNL     1      26.153   1.202  33.352  1.00  0.00     0.061 C 
ATOM      6  O   UNL     1      23.553   2.201  32.761  1.00  0.00    -0.472 OA
ATOM      7  C   UNL     1      24.944   0.255  33.182  1.00  0.00     0.096 C 
ATOM      8  C   UNL     1      26.707   0.907  34.759  1.00  0.00     0.145 C 
ATOM      9  C   UNL     1      25.225  -0.818  34.188  1.00  0.00    -0.036 C 
ATOM     10  C   UNL     1      26.171  -0.456  35.049  1.00  0.00     0.007 C 
BRANCH   8  11
ATOM     11  O   UNL     1      26.217   1.822  35.704  1.00  0.00    -0.388 OA
ATOM     12  H   UNL     1      27.001   2.335  36.034  1.00  0.00     0.211 HD
ENDBRANCH   8  11
BRANCH   9  13
ATOM     13  C   UNL     1      24.465  -2.113  34.278  1.00  0.00     0.187 C 
BRANCH  13  14
ATOM     14  O   UNL     1      24.192  -2.421  35.618  1.00  0.00    -0.392 OA
ATOM     15  H   UNL     1      24.464  -3.367  35.755  1.00  0.00     0.211 HD
ENDBRANCH  13  14
ENDBRANCH   9  13
ENDBRANCH   1   2
BRANCH   1  16
ATOM     16  C   UNL     1      22.161   0.874  35.324  1.00  0.00     0.286 C 
ATOM     17  C   UNL     1      22.200   0.593  36.843  1.00  0.00     0.202 C 
ATOM     18  O   UNL     1      21.234   1.909  35.021  1.00  0.00    -0.341 OA
ATOM     19  C   UNL     1      22.509   1.883  37.629  1.00  0.00     0.179 C 
ATOM     20  C   UNL     1      21.587   3.133  35.653  1.00  0.00     0.178 C 
ATOM     21  C   UNL     1      21.542   2.995  37.192  1.00  0.00     0.177 C 
BRANCH  17  22
ATOM     22  O   UNL     1      23.123  -0.427  37.142  1.00  0.00    -0.385 OA
ATOM     23  H   UNL     1      22.707  -1.027  37.813  1.00  0.00     0.211 HD
ENDBRANCH  17  22
BRANCH  19  24
ATOM     24  O   UNL     1      22.379   1.657  39.009  1.00  0.00    -0.387 OA
ATOM     25  H   UNL     1      21.917   2.450  39.388  1.00  0.00     0.211 HD
ENDBRANCH  19  24
BRANCH  20  26
ATOM     26  C   UNL     1      20.626   4.236  35.183  1.00  0.00     0.191 C 
BRANCH  26  27
ATOM     27  O   UNL     1      19.331   3.726  35.018  1.00  0.00    -0.394 OA
ATOM     28  H   UNL     1      18.847   3.896  35.868  1.00  0.00     0.210 HD
ENDBRANCH  26  27
ENDBRANCH  20  26
BRANCH  21  29
ATOM     29  O   UNL     1      20.231   2.691  37.604  1.00  0.00    -0.387 OA
ATOM     30  H   UNL     1      19.976   3.371  38.282  1.00  0.00     0.211 HD
ENDBRANCH  21  29
ENDBRANCH   1  16
TORSDOF 10
ENDMDL
MODEL 7
REMARK VINA RESULT:    -4.868      1.910      3.576
REMARK INTER + INTRA:          -7.975
REMARK INTER:                  -6.665
REMARK INTRA:                  -1.310
REMARK UNBOUND:                -1.114
REMARK SMILES OCC1=C[C@H](O)[C@@H]2C=CO[C@H](O[C@@H]3O[C@@H](CO)[C@@H](O)[C@@H](O)[C@@H]3O)[C@H]12
REMARK SMILES IDX 12 1 11 2 8 3 9 4 7 5 10 6 24 7 5 8 3 9 4 10 6 11 2 13 1 14
REMARK SMILES IDX 13 16 22 17 14 18 20 19 15 20 18 21 23 22 21 24 16 26 17 27
REMARK SMILES IDX 19 29
REMARK H PARENT 6 12 1 15 23 23 21 25 17 28 19 30
REMARK Flexibility Score: inf
ROOT
ATOM      1  O   UNL     1      24.933   1.178  34.974  1.00  0.00    -0.310 OA
ENDROOT
BRANCH   1   2
ATOM      2  C   UNL     1      24.819   2.542  34.602  1.00  0.00     0.316 C 
ATOM      3  C   UNL     1      22.978   2.119  32.459  1.00  0.00     0.018 C 
ATOM      4  C   UNL     1      24.273   2.305  32.207  1.00  0.00     0.186 C 
ATOM      5  C   UNL     1      22.377   2.444  33.806  1.00  0.00     0.061 C 
ATOM      6  O   UNL     1      25.153   2.693  33.223  1.00  0.00    -0.472 OA
ATOM      7  C   UNL     1      23.369   3.026  34.837  1.00  0.00     0.096 C 
ATOM      8  C   UNL     1      21.709   1.249  34.511  1.00  0.00     0.145 C 
ATOM      9  C   UNL     1      22.824   2.519  36.137  1.00  0.00    -0.036 C 
ATOM     10  C   UNL     1      21.935   1.547  35.958  1.00  0.00     0.007 C 
BRANCH   8  11
ATOM     11  O   UNL     1      22.333   0.039  34.172  1.00  0.00    -0.388 OA
ATOM     12  H   UNL     1      21.852  -0.676  34.665  1.00  0.00     0.211 HD
ENDBRANCH   8  11
BRANCH   9  13
ATOM     13  C   UNL     1      23.292   2.982  37.489  1.00  0.00     0.187 C 
BRANCH  13  14
ATOM     14  O   UNL     1      24.175   2.046  38.043  1.00  0.00    -0.392 OA
ATOM     15  H   UNL     1      23.880   1.152  37.725  1.00  0.00     0.211 HD
ENDBRANCH  13  14
ENDBRANCH   9  13
ENDBRANCH   1   2
BRANCH   1  16
ATOM     16  C   UNL     1      26.252   0.687  34.784  1.00  0.00     0.286 C 
ATOM     17  C   UNL     1      26.945   0.496  36.152  1.00  0.00     0.202 C 
ATOM     18  O   UNL     1      26.249  -0.526  34.041  1.00  0.00    -0.341 OA
ATOM     19  C   UNL     1      26.290  -0.656  36.941  1.00  0.00     0.179 C 
ATOM     20  C   UNL     1      25.541  -1.556  34.718  1.00  0.00     0.178 C 
ATOM     21  C   UNL     1      26.225  -1.912  36.057  1.00  0.00     0.177 C 
BRANCH  17  22
ATOM     22  O   UNL     1      26.940   1.695  36.889  1.00  0.00    -0.385 OA
ATOM     23  H   UNL     1      26.034   2.094  36.816  1.00  0.00     0.211 HD
ENDBRANCH  17  22
BRANCH  19  24
ATOM     24  O   UNL     1      27.027  -0.932  38.104  1.00  0.00    -0.387 OA
ATOM     25  H   UNL     1      27.435  -1.827  37.980  1.00  0.00     0.211 HD
ENDBRANCH  19  24
BRANCH  20  26
ATOM     26  C   UNL     1      25.464  -2.792  33.808  1.00  0.00     0.191 C 
BRANCH  26  27
ATOM     27  O   UNL     1      26.735  -3.128  33.320  1.00  0.00    -0.394 OA
ATOM     28  H   UNL     1      27.370  -2.466  33.701  1.00  0.00     0.210 HD
ENDBRANCH  26  27
ENDBRANCH  20  26
BRANCH  21  29
ATOM     29  O   UNL     1      27.520  -2.404  35.815  1.00  0.00    -0.387 OA
ATOM     30  H   UNL     1      28.146  -1.641  35.928  1.00  0.00     0.211 HD
ENDBRANCH  21  29
ENDBRANCH   1  16
TORSDOF 10
ENDMDL
MODEL 8
REMARK VINA RESULT:    -4.848      2.048      5.446
REMARK INTER + INTRA:          -7.946
REMARK INTER:                  -6.606
REMARK INTRA:                  -1.340
REMARK UNBOUND:                -1.114
REMARK SMILES OCC1=C[C@H](O)[C@@H]2C=CO[C@H](O[C@@H]3O[C@@H](CO)[C@@H](O)[C@@H](O)[C@@H]3O)[C@H]12
REMARK SMILES IDX 12 1 11 2 8 3 9 4 7 5 10 6 24 7 5 8 3 9 4 10 6 11 2 13 1 14
REMARK SMILES IDX 13 16 22 17 14 18 20 19 15 20 18 21 23 22 21 24 16 26 17 27
REMARK SMILES IDX 19 29
REMARK H PARENT 6 12 1 15 23 23 21 25 17 28 19 30
REMARK Flexibility Score: inf
ROOT
ATOM      1  O   UNL     1      26.119   0.646  35.318  1.00  0.00    -0.310 OA
ENDROOT
BRANCH   1   2
ATOM      2  C   UNL     1      25.673  -0.530  34.660  1.00  0.00     0.316 C 
ATOM      3  C   UNL     1      23.257  -0.816  36.157  1.00  0.00     0.018 C 
ATOM      4  C   UNL     1      24.325  -1.557  36.452  1.00  0.00     0.186 C 
ATOM      5  C   UNL     1      23.154  -0.059  34.854  1.00  0.00     0.061 C 
ATOM      6  O   UNL     1      25.448  -1.561  35.620  1.00  0.00    -0.472 OA
ATOM      7  C   UNL     1      24.358  -0.235  33.902  1.00  0.00     0.096 C 
ATOM      8  C   UNL     1      22.980   1.464  35.013  1.00  0.00     0.145 C 
ATOM      9  C   UNL     1      24.414   1.085  33.196  1.00  0.00    -0.036 C 
ATOM     10  C   UNL     1      23.677   2.007  33.809  1.00  0.00     0.007 C 
BRANCH   8  11
ATOM     11  O   UNL     1      23.609   1.932  36.178  1.00  0.00    -0.388 OA
ATOM     12  H   UNL     1      22.959   1.809  36.919  1.00  0.00     0.211 HD
ENDBRANCH   8  11
BRANCH   9  13
ATOM     13  C   UNL     1      25.273   1.367  31.995  1.00  0.00     0.187 C 
BRANCH  13  14
ATOM     14  O   UNL     1      26.399   2.112  32.369  1.00  0.00    -0.392 OA
ATOM     15  H   UNL     1      26.756   1.696  33.197  1.00  0.00     0.211 HD
ENDBRANCH  13  14
ENDBRANCH   9  13
ENDBRANCH   1   2
BRANCH   1  16
ATOM     16  C   UNL     1      27.365   0.447  35.968  1.00  0.00     0.286 C 
ATOM     17  C   UNL     1      28.371   1.533  35.526  1.00  0.00     0.202 C 
ATOM     18  O   UNL     1      27.213   0.440  37.383  1.00  0.00    -0.341 OA
ATOM     19  C   UNL     1      27.952   2.917  36.062  1.00  0.00     0.179 C 
ATOM     20  C   UNL     1      26.713   1.681  37.864  1.00  0.00     0.178 C 
ATOM     21  C   UNL     1      27.707   2.828  37.576  1.00  0.00     0.177 C 
BRANCH  17  22
ATOM     22  O   UNL     1      28.515   1.544  34.126  1.00  0.00    -0.385 OA
ATOM     23  H   UNL     1      28.942   2.402  33.870  1.00  0.00     0.211 HD
ENDBRANCH  17  22
BRANCH  19  24
ATOM     24  O   UNL     1      28.953   3.866  35.798  1.00  0.00    -0.387 OA
ATOM     25  H   UNL     1      29.818   3.378  35.792  1.00  0.00     0.211 HD
ENDBRANCH  19  24
BRANCH  20  26
ATOM     26  C   UNL     1      26.449   1.563  39.374  1.00  0.00     0.191 C 
BRANCH  26  27
ATOM     27  O   UNL     1      27.127   0.459  39.909  1.00  0.00    -0.394 OA
ATOM     28  H   UNL     1      27.293  -0.167  39.157  1.00  0.00     0.210 HD
ENDBRANCH  26  27
ENDBRANCH  20  26
BRANCH  21  29
ATOM     29  O   UNL     1      28.917   2.591  38.253  1.00  0.00    -0.387 OA
ATOM     30  H   UNL     1      28.682   2.271  39.163  1.00  0.00     0.211 HD
ENDBRANCH  21  29
ENDBRANCH   1  16
TORSDOF 10
ENDMDL
MODEL 9
REMARK VINA RESULT:    -4.785      2.335      3.833
REMARK INTER + INTRA:          -7.857
REMARK INTER:                  -6.513
REMARK INTRA:                  -1.344
REMARK UNBOUND:                -1.114
REMARK SMILES OCC1=C[C@H](O)[C@@H]2C=CO[C@H](O[C@@H]3O[C@@H](CO)[C@@H](O)[C@@H](O)[C@@H]3O)[C@H]12
REMARK SMILES IDX 12 1 11 2 8 3 9 4 7 5 10 6 24 7 5 8 3 9 4 10 6 11 2 13 1 14
REMARK SMILES IDX 13 16 22 17 14 18 20 19 15 20 18 21 23 22 21 24 16 26 17 27
REMARK SMILES IDX 19 29
REMARK H PARENT 6 12 1 15 23 23 21 25 17 28 19 30
REMARK Flexibility Score: inf
ROOT
ATOM      1  O   UNL     1      23.653   1.488  34.720  1.00  0.00    -0.310 OA
ENDROOT
BRANCH   1   2
ATOM      2  C   UNL     1      23.400   2.864  34.957  1.00  0.00     0.316 C 
ATOM      3  C   UNL     1      25.197   3.850  32.967  1.00  0.00     0.018 C 
ATOM      4  C   UNL     1      25.553   3.839  34.251  1.00  0.00     0.186 C 
ATOM      5  C   UNL     1      23.759   3.667  32.542  1.00  0.00     0.061 C 
ATOM      6  O   UNL     1      24.625   3.534  35.251  1.00  0.00    -0.472 OA
ATOM      7  C   UNL     1      22.754   3.499  33.703  1.00  0.00     0.096 C 
ATOM      8  C   UNL     1      23.515   2.462  31.614  1.00  0.00     0.145 C 
ATOM      9  C   UNL     1      21.713   2.602  33.107  1.00  0.00    -0.036 C 
ATOM     10  C   UNL     1      22.134   2.031  31.983  1.00  0.00     0.007 C 
BRANCH   8  11
ATOM     11  O   UNL     1      24.423   1.423  31.874  1.00  0.00    -0.388 OA
ATOM     12  H   UNL     1      23.997   0.839  32.554  1.00  0.00     0.211 HD
ENDBRANCH   8  11
BRANCH   9  13
ATOM     13  C   UNL     1      20.386   2.302  33.749  1.00  0.00     0.187 C 
BRANCH  13  14
ATOM     14  O   UNL     1      20.005   0.981  33.480  1.00  0.00    -0.392 OA
ATOM     15  H   UNL     1      20.835   0.484  33.253  1.00  0.00     0.211 HD
ENDBRANCH  13  14
ENDBRANCH   9  13
ENDBRANCH   1   2
BRANCH   1  16
ATOM     16  C   UNL     1      23.438   0.704  35.883  1.00  0.00     0.286 C 
ATOM     17  C   UNL     1      23.087  -0.747  35.484  1.00  0.00     0.202 C 
ATOM     18  O   UNL     1      24.570   0.735  36.743  1.00  0.00    -0.341 OA
ATOM     19  C   UNL     1      24.306  -1.449  34.850  1.00  0.00     0.179 C 
ATOM     20  C   UNL     1      25.725   0.195  36.114  1.00  0.00     0.178 C 
ATOM     21  C   UNL     1      25.523  -1.299  35.775  1.00  0.00     0.177 C 
BRANCH  17  22
ATOM     22  O   UNL     1      21.972  -0.776  34.627  1.00  0.00    -0.385 OA
ATOM     23  H   UNL     1      21.218  -0.329  35.092  1.00  0.00     0.211 HD
ENDBRANCH  17  22
BRANCH  19  24
ATOM     24  O   UNL     1      24.031  -2.810  34.643  1.00  0.00    -0.387 OA
ATOM     25  H   UNL     1      23.080  -2.873  34.366  1.00  0.00     0.211 HD
ENDBRANCH  19  24
BRANCH  20  26
ATOM     26  C   UNL     1      26.935   0.379  37.043  1.00  0.00     0.191 C 
BRANCH  26  27
ATOM     27  O   UNL     1      26.562   0.196  38.382  1.00  0.00    -0.394 OA
ATOM     28  H   UNL     1      27.013  -0.632  38.694  1.00  0.00     0.210 HD
ENDBRANCH  26  27
ENDBRANCH  20  26
BRANCH  21  29
ATOM     29  O   UNL     1      25.329  -2.034  36.959  1.00  0.00    -0.387 OA
ATOM     30  H   UNL     1      24.363  -2.265  37.001  1.00  0.00     0.211 HD
ENDBRANCH  21  29
ENDBRANCH   1  16
TORSDOF 10
ENDMDL
