MODEL 1
REMARK VINA RESULT:    -3.251      0.000      0.000
REMARK INTER + INTRA:          -7.193
REMARK INTER:                  -5.531
REMARK INTRA:                  -1.662
REMARK UNBOUND:                -1.662
REMARK SMILES CCCCCCCCCCCCCC(=O)[O-]
REMARK SMILES IDX 8 1 9 2 10 3 11 4 12 5 13 6 14 7 15 8 16 9 7 10 6 11 5 12
REMARK SMILES IDX 4 13 3 14 2 15 1 16
REMARK H PARENT
REMARK Flexibility Score: inf
ROOT
ATOM      1  C   UNL     1     -98.007 -43.630  -8.901  1.00  0.00     0.000 C 
ENDROOT
BRANCH   1   2
ATOM      2  C   UNL     1     -97.429 -44.818  -8.117  1.00  0.00     0.000 C 
BRANCH   2   3
ATOM      3  C   UNL     1     -95.923 -45.021  -8.357  1.00  0.00     0.000 C 
BRANCH   3   4
ATOM      4  C   UNL     1     -95.525 -46.424  -8.850  1.00  0.00     0.000 C 
BRANCH   4   5
ATOM      5  C   UNL     1     -94.221 -46.425  -9.667  1.00  0.00     0.006 C 
BRANCH   5   6
ATOM      6  C   UNL     1     -94.029 -47.729 -10.451  1.00  0.00     0.053 C 
BRANCH   6   7
ATOM      7  C   UNL     1     -94.136 -47.513 -11.930  1.00  0.00     0.041 C 
ATOM      8  O   UNL     1     -93.632 -46.487 -12.458  1.00  0.00    -0.550 OA
ATOM      9  O   UNL     1     -94.817 -48.431 -12.720  1.00  0.00    -0.550 OA
ENDBRANCH   6   7
ENDBRANCH   5   6
ENDBRANCH   4   5
ENDBRANCH   3   4
ENDBRANCH   2   3
ENDBRANCH   1   2
BRANCH   1  10
ATOM     10  C   UNL     1     -97.026 -43.157  -9.984  1.00  0.00     0.000 C 
BRANCH  10  11
ATOM     11  C   UNL     1     -97.474 -43.547 -11.402  1.00  0.00    -0.000 C 
BRANCH  11  12
ATOM     12  C   UNL     1     -96.648 -44.703 -11.988  1.00  0.00    -0.000 C 
BRANCH  12  13
ATOM     13  C   UNL     1     -97.470 -46.000 -12.025  1.00  0.00    -0.000 C 
BRANCH  13  14
ATOM     14  C   UNL     1     -98.970 -45.744 -12.241  1.00  0.00    -0.000 C 
BRANCH  14  15
ATOM     15  C   UNL     1     -99.729 -47.006 -12.680  1.00  0.00    -0.003 C 
ATOM     16  C   UNL     1     -98.762 -48.135 -13.025  1.00  0.00     0.004 C 
ENDBRANCH  14  15
ENDBRANCH  13  14
ENDBRANCH  12  13
ENDBRANCH  11  12
ENDBRANCH  10  11
ENDBRANCH   1  10
TORSDOF 12
ENDMDL
MODEL 2
REMARK VINA RESULT:    -3.237      2.690      5.002
REMARK INTER + INTRA:          -7.169
REMARK INTER:                  -5.627
REMARK INTRA:                  -1.542
REMARK UNBOUND:                -1.662
REMARK SMILES CCCCCCCCCCCCCC(=O)[O-]
REMARK SMILES IDX 8 1 9 2 10 3 11 4 12 5 13 6 14 7 15 8 16 9 7 10 6 11 5 12
REMARK SMILES IDX 4 13 3 14 2 15 1 16
REMARK H PARENT
REMARK Flexibility Score: inf
ROOT
ATOM      1  C   UNL     1     -97.219 -43.738 -11.491  1.00  0.00     0.000 C 
ENDROOT
BRANCH   1   2
ATOM      2  C   UNL     1     -98.658 -43.690 -12.029  1.00  0.00     0.000 C 
BRANCH   2   3
ATOM      3  C   UNL     1     -99.234 -45.084 -12.332  1.00  0.00     0.000 C 
BRANCH   3   4
ATOM      4  C   UNL     1     -98.210 -46.234 -12.301  1.00  0.00     0.000 C 
BRANCH   4   5
ATOM      5  C   UNL     1     -98.860 -47.609 -12.068  1.00  0.00     0.006 C 
BRANCH   5   6
ATOM      6  C   UNL     1     -99.064 -48.382 -13.377  1.00  0.00     0.053 C 
BRANCH   6   7
ATOM      7  C   UNL     1    -100.516 -48.542 -13.711  1.00  0.00     0.041 C 
ATOM      8  O   UNL     1    -101.043 -49.685 -13.708  1.00  0.00    -0.550 OA
ATOM      9  O   UNL     1    -101.278 -47.433 -14.054  1.00  0.00    -0.550 OA
ENDBRANCH   6   7
ENDBRANCH   5   6
ENDBRANCH   4   5
ENDBRANCH   3   4
ENDBRANCH   2   3
ENDBRANCH   1   2
BRANCH   1  10
ATOM     10  C   UNL     1     -97.139 -43.126 -10.084  1.00  0.00     0.000 C 
BRANCH  10  11
ATOM     11  C   UNL     1     -96.359 -44.009  -9.097  1.00  0.00    -0.000 C 
BRANCH  11  12
ATOM     12  C   UNL     1     -96.834 -45.471  -9.105  1.00  0.00    -0.000 C 
BRANCH  12  13
ATOM     13  C   UNL     1     -95.675 -46.425  -8.783  1.00  0.00    -0.000 C 
BRANCH  13  14
ATOM     14  C   UNL     1     -94.446 -46.186  -9.675  1.00  0.00    -0.000 C 
BRANCH  14  15
ATOM     15  C   UNL     1     -94.428 -47.095 -10.913  1.00  0.00    -0.003 C 
ATOM     16  C   UNL     1     -94.573 -46.279 -12.195  1.00  0.00     0.004 C 
ENDBRANCH  14  15
ENDBRANCH  13  14
ENDBRANCH  12  13
ENDBRANCH  11  12
ENDBRANCH  10  11
ENDBRANCH   1  10
TORSDOF 12
ENDMDL
MODEL 3
REMARK VINA RESULT:    -3.167      1.194      1.666
REMARK INTER + INTRA:          -7.050
REMARK INTER:                  -5.241
REMARK INTRA:                  -1.809
REMARK UNBOUND:                -1.662
REMARK SMILES CCCCCCCCCCCCCC(=O)[O-]
REMARK SMILES IDX 8 1 9 2 10 3 11 4 12 5 13 6 14 7 15 8 16 9 7 10 6 11 5 12
REMARK SMILES IDX 4 13 3 14 2 15 1 16
REMARK H PARENT
REMARK Flexibility Score: inf
ROOT
ATOM      1  C   UNL     1     -97.503 -43.741  -8.852  1.00  0.00     0.000 C 
ENDROOT
BRANCH   1   2
ATOM      2  C   UNL     1     -96.945 -45.169  -8.949  1.00  0.00     0.000 C 
BRANCH   2   3
ATOM      3  C   UNL     1     -95.408 -45.216  -8.952  1.00  0.00     0.000 C 
BRANCH   3   4
ATOM      4  C   UNL     1     -94.797 -46.590  -9.281  1.00  0.00     0.000 C 
BRANCH   4   5
ATOM      5  C   UNL     1     -95.349 -47.194 -10.584  1.00  0.00     0.006 C 
BRANCH   5   6
ATOM      6  C   UNL     1     -95.079 -46.297 -11.798  1.00  0.00     0.053 C 
BRANCH   6   7
ATOM      7  C   UNL     1     -93.758 -46.603 -12.437  1.00  0.00     0.041 C 
ATOM      8  O   UNL     1     -93.231 -45.777 -13.228  1.00  0.00    -0.550 OA
ATOM      9  O   UNL     1     -93.126 -47.813 -12.182  1.00  0.00    -0.550 OA
ENDBRANCH   6   7
ENDBRANCH   5   6
ENDBRANCH   4   5
ENDBRANCH   3   4
ENDBRANCH   2   3
ENDBRANCH   1   2
BRANCH   1  10
ATOM     10  C   UNL     1     -97.030 -42.885 -10.037  1.00  0.00     0.000 C 
BRANCH  10  11
ATOM     11  C   UNL     1     -97.377 -43.512 -11.396  1.00  0.00    -0.000 C 
BRANCH  11  12
ATOM     12  C   UNL     1     -98.818 -43.210 -11.839  1.00  0.00    -0.000 C 
BRANCH  12  13
ATOM     13  C   UNL     1     -99.520 -44.485 -12.328  1.00  0.00    -0.000 C 
BRANCH  13  14
ATOM     14  C   UNL     1     -98.603 -45.718 -12.288  1.00  0.00    -0.000 C 
BRANCH  14  15
ATOM     15  C   UNL     1     -99.151 -46.836 -11.388  1.00  0.00    -0.003 C 
ATOM     16  C   UNL     1    -100.212 -46.299 -10.432  1.00  0.00     0.004 C 
ENDBRANCH  14  15
ENDBRANCH  13  14
ENDBRANCH  12  13
ENDBRANCH  11  12
ENDBRANCH  10  11
ENDBRANCH   1  10
TORSDOF 12
ENDMDL
MODEL 4
REMARK VINA RESULT:    -3.139      2.555      4.647
REMARK INTER + INTRA:          -7.003
REMARK INTER:                  -5.033
REMARK INTRA:                  -1.970
REMARK UNBOUND:                -1.662
REMARK SMILES CCCCCCCCCCCCCC(=O)[O-]
REMARK SMILES IDX 8 1 9 2 10 3 11 4 12 5 13 6 14 7 15 8 16 9 7 10 6 11 5 12
REMARK SMILES IDX 4 13 3 14 2 15 1 16
REMARK H PARENT
REMARK Flexibility Score: inf
ROOT
ATOM      1  C   UNL     1     -97.712 -43.229 -10.497  1.00  0.00     0.000 C 
ENDROOT
BRANCH   1   2
ATOM      2  C   UNL     1     -97.363 -43.949 -11.809  1.00  0.00     0.000 C 
BRANCH   2   3
ATOM      3  C   UNL     1     -98.504 -44.842 -12.327  1.00  0.00     0.000 C 
BRANCH   3   4
ATOM      4  C   UNL     1     -99.299 -45.582 -11.236  1.00  0.00     0.000 C 
BRANCH   4   5
ATOM      5  C   UNL     1     -99.180 -47.112 -11.342  1.00  0.00     0.006 C 
BRANCH   5   6
ATOM      6  C   UNL     1     -98.968 -47.578 -12.788  1.00  0.00     0.053 C 
BRANCH   6   7
ATOM      7  C   UNL     1    -100.190 -48.241 -13.347  1.00  0.00     0.041 C 
ATOM      8  O   UNL     1    -101.069 -47.556 -13.933  1.00  0.00    -0.550 OA
ATOM      9  O   UNL     1    -100.372 -49.610 -13.193  1.00  0.00    -0.550 OA
ENDBRANCH   6   7
ENDBRANCH   5   6
ENDBRANCH   4   5
ENDBRANCH   3   4
ENDBRANCH   2   3
ENDBRANCH   1   2
BRANCH   1  10
ATOM     10  C   UNL     1     -96.633 -43.478  -9.432  1.00  0.00     0.000 C 
BRANCH  10  11
ATOM     11  C   UNL     1     -96.841 -44.799  -8.675  1.00  0.00    -0.000 C 
BRANCH  11  12
ATOM     12  C   UNL     1     -95.523 -45.543  -8.407  1.00  0.00    -0.000 C 
BRANCH  12  13
ATOM     13  C   UNL     1     -94.850 -45.955  -9.724  1.00  0.00    -0.000 C 
BRANCH  13  14
ATOM     14  C   UNL     1     -95.571 -47.121 -10.419  1.00  0.00    -0.000 C 
BRANCH  14  15
ATOM     15  C   UNL     1     -95.446 -47.067 -11.949  1.00  0.00    -0.003 C 
ATOM     16  C   UNL     1     -94.209 -46.279 -12.371  1.00  0.00     0.004 C 
ENDBRANCH  14  15
ENDBRANCH  13  14
ENDBRANCH  12  13
ENDBRANCH  11  12
ENDBRANCH  10  11
ENDBRANCH   1  10
TORSDOF 12
ENDMDL
MODEL 5
REMARK VINA RESULT:    -3.096      1.249      3.678
REMARK INTER + INTRA:          -6.930
REMARK INTER:                  -5.088
REMARK INTRA:                  -1.841
REMARK UNBOUND:                -1.662
REMARK SMILES CCCCCCCCCCCCCC(=O)[O-]
REMARK SMILES IDX 8 1 9 2 10 3 11 4 12 5 13 6 14 7 15 8 16 9 7 10 6 11 5 12
REMARK SMILES IDX 4 13 3 14 2 15 1 16
REMARK H PARENT
REMARK Flexibility Score: inf
ROOT
ATOM      1  C   UNL     1     -99.590 -44.794 -12.260  1.00  0.00     0.000 C 
ENDROOT
BRANCH   1   2
ATOM      2  C   UNL     1     -98.516 -45.887 -12.365  1.00  0.00     0.000 C 
BRANCH   2   3
ATOM      3  C   UNL     1     -98.628 -46.950 -11.257  1.00  0.00     0.000 C 
BRANCH   3   4
ATOM      4  C   UNL     1     -97.312 -47.665 -10.903  1.00  0.00     0.000 C 
BRANCH   4   5
ATOM      5  C   UNL     1     -96.164 -47.319 -11.866  1.00  0.00     0.006 C 
BRANCH   5   6
ATOM      6  C   UNL     1     -95.456 -48.573 -12.397  1.00  0.00     0.053 C 
BRANCH   6   7
ATOM      7  C   UNL     1     -93.966 -48.460 -12.290  1.00  0.00     0.041 C 
ATOM      8  O   UNL     1     -93.252 -49.498 -12.284  1.00  0.00    -0.550 OA
ATOM      9  O   UNL     1     -93.369 -47.213 -12.166  1.00  0.00    -0.550 OA
ENDBRANCH   6   7
ENDBRANCH   5   6
ENDBRANCH   4   5
ENDBRANCH   3   4
ENDBRANCH   2   3
ENDBRANCH   1   2
BRANCH   1  10
ATOM     10  C   UNL     1     -98.989 -43.483 -11.730  1.00  0.00     0.000 C 
BRANCH  10  11
ATOM     11  C   UNL     1     -97.458 -43.537 -11.614  1.00  0.00    -0.000 C 
BRANCH  11  12
ATOM     12  C   UNL     1     -96.956 -43.172 -10.208  1.00  0.00    -0.000 C 
BRANCH  12  13
ATOM     13  C   UNL     1     -97.689 -43.990  -9.136  1.00  0.00    -0.000 C 
BRANCH  13  14
ATOM     14  C   UNL     1     -96.738 -44.871  -8.309  1.00  0.00    -0.000 C 
BRANCH  14  15
ATOM     15  C   UNL     1     -95.378 -45.076  -8.992  1.00  0.00    -0.003 C 
ATOM     16  C   UNL     1     -94.716 -46.368  -8.520  1.00  0.00     0.004 C 
ENDBRANCH  14  15
ENDBRANCH  13  14
ENDBRANCH  12  13
ENDBRANCH  11  12
ENDBRANCH  10  11
ENDBRANCH   1  10
TORSDOF 12
ENDMDL
MODEL 6
REMARK VINA RESULT:    -3.060      1.641      4.122
REMARK INTER + INTRA:          -6.868
REMARK INTER:                  -4.764
REMARK INTRA:                  -2.104
REMARK UNBOUND:                -1.662
REMARK SMILES CCCCCCCCCCCCCC(=O)[O-]
REMARK SMILES IDX 8 1 9 2 10 3 11 4 12 5 13 6 14 7 15 8 16 9 7 10 6 11 5 12
REMARK SMILES IDX 4 13 3 14 2 15 1 16
REMARK H PARENT
REMARK Flexibility Score: inf
ROOT
ATOM      1  C   UNL     1     -99.343 -44.735 -12.391  1.00  0.00     0.000 C 
ENDROOT
BRANCH   1   2
ATOM      2  C   UNL     1    -100.113 -45.480 -11.290  1.00  0.00     0.000 C 
BRANCH   2   3
ATOM      3  C   UNL     1     -99.954 -47.008 -11.372  1.00  0.00     0.000 C 
BRANCH   3   4
ATOM      4  C   UNL     1     -99.803 -47.572 -12.796  1.00  0.00     0.000 C 
BRANCH   4   5
ATOM      5  C   UNL     1     -98.452 -48.273 -13.023  1.00  0.00     0.006 C 
BRANCH   5   6
ATOM      6  C   UNL     1     -97.934 -48.957 -11.751  1.00  0.00     0.053 C 
BRANCH   6   7
ATOM      7  C   UNL     1     -96.471 -49.270 -11.842  1.00  0.00     0.041 C 
ATOM      8  O   UNL     1     -95.877 -49.801 -10.867  1.00  0.00    -0.550 OA
ATOM      9  O   UNL     1     -95.760 -48.947 -12.990  1.00  0.00    -0.550 OA
ENDBRANCH   6   7
ENDBRANCH   5   6
ENDBRANCH   4   5
ENDBRANCH   3   4
ENDBRANCH   2   3
ENDBRANCH   1   2
BRANCH   1  10
ATOM     10  C   UNL     1     -98.529 -43.573 -11.802  1.00  0.00     0.000 C 
BRANCH  10  11
ATOM     11  C   UNL     1     -97.013 -43.801 -11.902  1.00  0.00    -0.000 C 
BRANCH  11  12
ATOM     12  C   UNL     1     -96.642 -45.289 -12.005  1.00  0.00    -0.000 C 
BRANCH  12  13
ATOM     13  C   UNL     1     -95.860 -45.746 -10.765  1.00  0.00    -0.000 C 
BRANCH  13  14
ATOM     14  C   UNL     1     -96.772 -46.022  -9.559  1.00  0.00    -0.000 C 
BRANCH  14  15
ATOM     15  C   UNL     1     -96.561 -45.019  -8.415  1.00  0.00    -0.003 C 
ATOM     16  C   UNL     1     -97.805 -44.162  -8.200  1.00  0.00     0.004 C 
ENDBRANCH  14  15
ENDBRANCH  13  14
ENDBRANCH  12  13
ENDBRANCH  11  12
ENDBRANCH  10  11
ENDBRANCH   1  10
TORSDOF 12
ENDMDL
MODEL 7
REMARK VINA RESULT:    -3.050      1.313      3.416
REMARK INTER + INTRA:          -6.851
REMARK INTER:                  -4.880
REMARK INTRA:                  -1.971
REMARK UNBOUND:                -1.662
REMARK SMILES CCCCCCCCCCCCCC(=O)[O-]
REMARK SMILES IDX 8 1 9 2 10 3 11 4 12 5 13 6 14 7 15 8 16 9 7 10 6 11 5 12
REMARK SMILES IDX 4 13 3 14 2 15 1 16
REMARK H PARENT
REMARK Flexibility Score: inf
ROOT
ATOM      1  C   UNL     1     -99.363 -47.082 -11.913  1.00  0.00     0.000 C 
ENDROOT
BRANCH   1   2
ATOM      2  C   UNL     1     -98.731 -47.654 -10.635  1.00  0.00     0.000 C 
BRANCH   2   3
ATOM      3  C   UNL     1     -97.231 -47.957 -10.790  1.00  0.00     0.000 C 
BRANCH   3   4
ATOM      4  C   UNL     1     -96.359 -47.566  -9.583  1.00  0.00     0.000 C 
BRANCH   4   5
ATOM      5  C   UNL     1     -95.011 -46.949  -9.993  1.00  0.00     0.006 C 
BRANCH   5   6
ATOM      6  C   UNL     1     -95.074 -46.281 -11.372  1.00  0.00     0.053 C 
BRANCH   6   7
ATOM      7  C   UNL     1     -93.974 -46.753 -12.273  1.00  0.00     0.041 C 
ATOM      8  O   UNL     1     -93.635 -47.966 -12.275  1.00  0.00    -0.550 OA
ATOM      9  O   UNL     1     -93.305 -45.850 -13.089  1.00  0.00    -0.550 OA
ENDBRANCH   6   7
ENDBRANCH   5   6
ENDBRANCH   4   5
ENDBRANCH   3   4
ENDBRANCH   2   3
ENDBRANCH   1   2
BRANCH   1  10
ATOM     10  C   UNL     1     -98.636 -45.805 -12.362  1.00  0.00     0.000 C 
BRANCH  10  11
ATOM     11  C   UNL     1     -99.549 -44.569 -12.355  1.00  0.00    -0.000 C 
BRANCH  11  12
ATOM     12  C   UNL     1     -98.802 -43.282 -11.969  1.00  0.00    -0.000 C 
BRANCH  12  13
ATOM     13  C   UNL     1     -97.385 -43.600 -11.471  1.00  0.00    -0.000 C 
BRANCH  13  14
ATOM     14  C   UNL     1     -97.092 -42.991 -10.090  1.00  0.00    -0.000 C 
BRANCH  14  15
ATOM     15  C   UNL     1     -97.091 -44.041  -8.969  1.00  0.00    -0.003 C 
ATOM     16  C   UNL     1     -98.510 -44.499  -8.645  1.00  0.00     0.004 C 
ENDBRANCH  14  15
ENDBRANCH  13  14
ENDBRANCH  12  13
ENDBRANCH  11  12
ENDBRANCH  10  11
ENDBRANCH   1  10
TORSDOF 12
ENDMDL
MODEL 8
REMARK VINA RESULT:    -3.050      1.501      2.192
REMARK INTER + INTRA:          -6.851
REMARK INTER:                  -4.603
REMARK INTRA:                  -2.248
REMARK UNBOUND:                -1.662
REMARK SMILES CCCCCCCCCCCCCC(=O)[O-]
REMARK SMILES IDX 8 1 9 2 10 3 11 4 12 5 13 6 14 7 15 8 16 9 7 10 6 11 5 12
REMARK SMILES IDX 4 13 3 14 2 15 1 16
REMARK H PARENT
REMARK Flexibility Score: inf
ROOT
ATOM      1  C   UNL     1     -98.086 -43.162 -10.499  1.00  0.00     0.000 C 
ENDROOT
BRANCH   1   2
ATOM      2  C   UNL     1     -96.964 -43.261  -9.454  1.00  0.00     0.000 C 
BRANCH   2   3
ATOM      3  C   UNL     1     -97.293 -44.234  -8.309  1.00  0.00     0.000 C 
BRANCH   3   4
ATOM      4  C   UNL     1     -96.317 -45.415  -8.155  1.00  0.00     0.000 C 
BRANCH   4   5
ATOM      5  C   UNL     1     -95.081 -45.292  -9.063  1.00  0.00     0.006 C 
BRANCH   5   6
ATOM      6  C   UNL     1     -94.262 -46.589  -9.105  1.00  0.00     0.053 C 
BRANCH   6   7
ATOM      7  C   UNL     1     -94.318 -47.242 -10.452  1.00  0.00     0.041 C 
ATOM      8  O   UNL     1     -94.034 -46.584 -11.487  1.00  0.00    -0.550 OA
ATOM      9  O   UNL     1     -94.713 -48.569 -10.566  1.00  0.00    -0.550 OA
ENDBRANCH   6   7
ENDBRANCH   5   6
ENDBRANCH   4   5
ENDBRANCH   3   4
ENDBRANCH   2   3
ENDBRANCH   1   2
BRANCH   1  10
ATOM     10  C   UNL     1     -97.560 -43.500 -11.902  1.00  0.00     0.000 C 
BRANCH  10  11
ATOM     11  C   UNL     1     -97.021 -44.936 -12.003  1.00  0.00    -0.000 C 
BRANCH  11  12
ATOM     12  C   UNL     1     -98.138 -45.980 -12.155  1.00  0.00    -0.000 C 
BRANCH  12  13
ATOM     13  C   UNL     1     -97.976 -47.109 -11.126  1.00  0.00    -0.000 C 
BRANCH  13  14
ATOM     14  C   UNL     1     -99.051 -47.069 -10.029  1.00  0.00    -0.000 C 
BRANCH  14  15
ATOM     15  C   UNL     1    -100.262 -46.207 -10.417  1.00  0.00    -0.003 C 
ATOM     16  C   UNL     1    -100.766 -45.400  -9.223  1.00  0.00     0.004 C 
ENDBRANCH  14  15
ENDBRANCH  13  14
ENDBRANCH  12  13
ENDBRANCH  11  12
ENDBRANCH  10  11
ENDBRANCH   1  10
TORSDOF 12
ENDMDL
MODEL 9
REMARK VINA RESULT:    -3.002      1.279      2.421
REMARK INTER + INTRA:          -6.769
REMARK INTER:                  -4.681
REMARK INTRA:                  -2.088
REMARK UNBOUND:                -1.662
REMARK SMILES CCCCCCCCCCCCCC(=O)[O-]
REMARK SMILES IDX 8 1 9 2 10 3 11 4 12 5 13 6 14 7 15 8 16 9 7 10 6 11 5 12
REMARK SMILES IDX 4 13 3 14 2 15 1 16
REMARK H PARENT
REMARK Flexibility Score: inf
ROOT
ATOM      1  C   UNL     1     -98.896 -44.856  -8.513  1.00  0.00     0.000 C 
ENDROOT
BRANCH   1   2
ATOM      2  C   UNL     1     -97.492 -44.277  -8.283  1.00  0.00     0.000 C 
BRANCH   2   3
ATOM      3  C   UNL     1     -96.441 -45.355  -7.964  1.00  0.00     0.000 C 
BRANCH   3   4
ATOM      4  C   UNL     1     -95.315 -45.496  -9.004  1.00  0.00     0.000 C 
BRANCH   4   5
ATOM      5  C   UNL     1     -95.145 -46.939  -9.510  1.00  0.00     0.006 C 
BRANCH   5   6
ATOM      6  C   UNL     1     -93.930 -47.090 -10.434  1.00  0.00     0.053 C 
BRANCH   6   7
ATOM      7  C   UNL     1     -94.315 -47.006 -11.880  1.00  0.00     0.041 C 
ATOM      8  O   UNL     1     -93.771 -46.153 -12.631  1.00  0.00    -0.550 OA
ATOM      9  O   UNL     1     -95.294 -47.848 -12.390  1.00  0.00    -0.550 OA
ENDBRANCH   6   7
ENDBRANCH   5   6
ENDBRANCH   4   5
ENDBRANCH   3   4
ENDBRANCH   2   3
ENDBRANCH   1   2
BRANCH   1  10
ATOM     10  C   UNL     1     -98.862 -46.392  -8.519  1.00  0.00     0.000 C 
BRANCH  10  11
ATOM     11  C   UNL     1     -99.528 -46.995  -9.766  1.00  0.00    -0.000 C 
BRANCH  11  12
ATOM     12  C   UNL     1     -98.509 -47.533 -10.781  1.00  0.00    -0.000 C 
BRANCH  12  13
ATOM     13  C   UNL     1     -98.811 -47.008 -12.192  1.00  0.00    -0.000 C 
BRANCH  13  14
ATOM     14  C   UNL     1     -98.724 -45.476 -12.285  1.00  0.00    -0.000 C 
BRANCH  14  15
ATOM     15  C   UNL     1     -97.312 -44.945 -11.997  1.00  0.00    -0.003 C 
ATOM     16  C   UNL     1     -97.310 -43.423 -11.886  1.00  0.00     0.004 C 
ENDBRANCH  14  15
ENDBRANCH  13  14
ENDBRANCH  12  13
ENDBRANCH  11  12
ENDBRANCH  10  11
ENDBRANCH   1  10
TORSDOF 12
ENDMDL
