MODEL 1
REMARK VINA RESULT:    -2.114      0.000      0.000
REMARK INTER + INTRA:          -2.114
REMARK INTER:                  -2.114
REMARK INTRA:                   0.000
REMARK UNBOUND:                 0.000
REMARK SMILES CC(=O)[O-]
REMARK SMILES IDX 1 1 2 2 3 3 4 4
REMARK H PARENT
REMARK Flexibility Score: inf
ROOT
ATOM      1  C   UNL     1      12.848  13.124  38.502  1.00  0.00     0.063 C 
ATOM      2  C   UNL     1      11.914  12.743  37.403  1.00  0.00     0.038 C 
ATOM      3  O   UNL     1      10.675  12.916  37.540  1.00  0.00    -0.550 OA
ATOM      4  O   UNL     1      12.413  12.246  36.206  1.00  0.00    -0.550 OA
ENDROOT
TORSDOF 0
ENDMDL
MODEL 2
REMARK VINA RESULT:    -2.095      0.155      1.622
REMARK INTER + INTRA:          -2.095
REMARK INTER:                  -2.095
REMARK INTRA:                   0.000
REMARK UNBOUND:                 0.000
REMARK SMILES CC(=O)[O-]
REMARK SMILES IDX 1 1 2 2 3 3 4 4
REMARK H PARENT
REMARK Flexibility Score: inf
ROOT
ATOM      1  C   UNL     1      12.775  13.091  38.463  1.00  0.00     0.063 C 
ATOM      2  C   UNL     1      11.874  12.786  37.314  1.00  0.00     0.038 C 
ATOM      3  O   UNL     1      12.334  12.233  36.281  1.00  0.00    -0.550 OA
ATOM      4  O   UNL     1      10.516  13.061  37.402  1.00  0.00    -0.550 OA
ENDROOT
TORSDOF 0
ENDMDL
MODEL 3
REMARK VINA RESULT:    -2.023      1.302      2.170
REMARK INTER + INTRA:          -2.023
REMARK INTER:                  -2.023
REMARK INTRA:                   0.000
REMARK UNBOUND:                 0.000
REMARK SMILES CC(=O)[O-]
REMARK SMILES IDX 1 1 2 2 3 3 4 4
REMARK H PARENT
REMARK Flexibility Score: inf
ROOT
ATOM      1  C   UNL     1      10.369  13.125  37.150  1.00  0.00     0.063 C 
ATOM      2  C   UNL     1      11.796  12.719  37.307  1.00  0.00     0.038 C 
ATOM      3  O   UNL     1      12.466  12.368  36.301  1.00  0.00    -0.550 OA
ATOM      4  O   UNL     1      12.404  12.780  38.554  1.00  0.00    -0.550 OA
ENDROOT
TORSDOF 0
ENDMDL
MODEL 4
REMARK VINA RESULT:    -1.967      4.614      4.801
REMARK INTER + INTRA:          -1.967
REMARK INTER:                  -1.967
REMARK INTRA:                   0.000
REMARK UNBOUND:                 0.000
REMARK SMILES CC(=O)[O-]
REMARK SMILES IDX 1 1 2 2 3 3 4 4
REMARK H PARENT
REMARK Flexibility Score: inf
ROOT
ATOM      1  C   UNL     1       8.360  13.125  36.025  1.00  0.00     0.063 C 
ATOM      2  C   UNL     1       8.103  12.409  34.743  1.00  0.00     0.038 C 
ATOM      3  O   UNL     1       7.615  11.249  34.755  1.00  0.00    -0.550 OA
ATOM      4  O   UNL     1       8.349  13.041  33.531  1.00  0.00    -0.550 OA
ENDROOT
TORSDOF 0
ENDMDL
MODEL 5
REMARK VINA RESULT:    -1.921      1.329      1.720
REMARK INTER + INTRA:          -1.921
REMARK INTER:                  -1.921
REMARK INTRA:                   0.000
REMARK UNBOUND:                 0.000
REMARK SMILES CC(=O)[O-]
REMARK SMILES IDX 1 1 2 2 3 3 4 4
REMARK H PARENT
REMARK Flexibility Score: inf
ROOT
ATOM      1  C   UNL     1      12.807  12.786  36.416  1.00  0.00     0.063 C 
ATOM      2  C   UNL     1      11.943  12.818  37.631  1.00  0.00     0.038 C 
ATOM      3  O   UNL     1      10.703  13.002  37.519  1.00  0.00    -0.550 OA
ATOM      4  O   UNL     1      12.495  12.590  38.885  1.00  0.00    -0.550 OA
ENDROOT
TORSDOF 0
ENDMDL
MODEL 6
REMARK VINA RESULT:    -1.871      4.247      4.615
REMARK INTER + INTRA:          -1.871
REMARK INTER:                  -1.871
REMARK INTRA:                   0.000
REMARK UNBOUND:                 0.000
REMARK SMILES CC(=O)[O-]
REMARK SMILES IDX 1 1 2 2 3 3 4 4
REMARK H PARENT
REMARK Flexibility Score: inf
ROOT
ATOM      1  C   UNL     1       8.743  13.125  36.175  1.00  0.00     0.063 C 
ATOM      2  C   UNL     1       8.344  12.541  34.863  1.00  0.00     0.038 C 
ATOM      3  O   UNL     1       8.712  13.089  33.791  1.00  0.00    -0.550 OA
ATOM      4  O   UNL     1       7.611  11.362  34.819  1.00  0.00    -0.550 OA
ENDROOT
TORSDOF 0
ENDMDL
MODEL 7
REMARK VINA RESULT:    -1.784      4.030      4.540
REMARK INTER + INTRA:          -1.784
REMARK INTER:                  -1.784
REMARK INTRA:                   0.000
REMARK UNBOUND:                 0.000
REMARK SMILES CC(=O)[O-]
REMARK SMILES IDX 1 1 2 2 3 3 4 4
REMARK H PARENT
REMARK Flexibility Score: inf
ROOT
ATOM      1  C   UNL     1      10.416  13.060  34.770  1.00  0.00     0.063 C 
ATOM      2  C   UNL     1       9.309  12.380  34.038  1.00  0.00     0.038 C 
ATOM      3  O   UNL     1       9.432  11.178  33.682  1.00  0.00    -0.550 OA
ATOM      4  O   UNL     1       8.119  13.052  33.793  1.00  0.00    -0.550 OA
ENDROOT
TORSDOF 0
ENDMDL
MODEL 8
REMARK VINA RESULT:    -1.733      4.460      4.930
REMARK INTER + INTRA:          -1.733
REMARK INTER:                  -1.733
REMARK INTRA:                   0.000
REMARK UNBOUND:                 0.000
REMARK SMILES CC(=O)[O-]
REMARK SMILES IDX 1 1 2 2 3 3 4 4
REMARK H PARENT
REMARK Flexibility Score: inf
ROOT
ATOM      1  C   UNL     1       8.750  13.018  33.383  1.00  0.00     0.063 C 
ATOM      2  C   UNL     1       8.313  12.475  34.702  1.00  0.00     0.038 C 
ATOM      3  O   UNL     1       8.537  13.125  35.757  1.00  0.00    -0.550 OA
ATOM      4  O   UNL     1       7.611  11.278  34.765  1.00  0.00    -0.550 OA
ENDROOT
TORSDOF 0
ENDMDL
MODEL 9
REMARK VINA RESULT:    -1.621      1.498      2.144
REMARK INTER + INTRA:          -1.621
REMARK INTER:                  -1.621
REMARK INTRA:                   0.000
REMARK UNBOUND:                 0.000
REMARK SMILES CC(=O)[O-]
REMARK SMILES IDX 1 1 2 2 3 3 4 4
REMARK H PARENT
REMARK Flexibility Score: inf
ROOT
ATOM      1  C   UNL     1      10.667  13.125  35.062  1.00  0.00     0.063 C 
ATOM      2  C   UNL     1      11.505  12.837  36.262  1.00  0.00     0.038 C 
ATOM      3  O   UNL     1      11.030  12.997  37.416  1.00  0.00    -0.550 OA
ATOM      4  O   UNL     1      12.794  12.342  36.109  1.00  0.00    -0.550 OA
ENDROOT
TORSDOF 0
ENDMDL
