MODEL 1
REMARK VINA RESULT:    -4.535      0.000      0.000
REMARK INTER + INTRA:          -5.960
REMARK INTER:                  -5.861
REMARK INTRA:                  -0.099
REMARK UNBOUND:                -0.099
REMARK SMILES CCCCCCC(=O)[O-]
REMARK SMILES IDX 5 1 6 2 7 3 8 4 9 5 4 6 3 7 2 8 1 9
REMARK H PARENT
REMARK Flexibility Score: inf
ROOT
ATOM      1  C   UNL     1      35.884  44.044  46.070  1.00  0.00     0.006 C 
ENDROOT
BRANCH   1   2
ATOM      2  C   UNL     1      36.007  42.637  46.678  1.00  0.00     0.053 C 
BRANCH   2   3
ATOM      3  C   UNL     1      36.615  42.667  48.046  1.00  0.00     0.041 C 
ATOM      4  O   UNL     1      37.775  42.216  48.234  1.00  0.00    -0.550 OA
ATOM      5  O   UNL     1      35.885  43.159  49.121  1.00  0.00    -0.550 OA
ENDBRANCH   2   3
ENDBRANCH   1   2
BRANCH   1   6
ATOM      6  C   UNL     1      34.442  44.460  45.726  1.00  0.00     0.000 C 
BRANCH   6   7
ATOM      7  C   UNL     1      34.265  44.814  44.239  1.00  0.00    -0.000 C 
BRANCH   7   8
ATOM      8  C   UNL     1      32.848  44.509  43.727  1.00  0.00    -0.003 C 
ATOM      9  C   UNL     1      32.348  45.547  42.723  1.00  0.00     0.004 C 
ENDBRANCH   7   8
ENDBRANCH   6   7
ENDBRANCH   1   6
TORSDOF 5
ENDMDL
MODEL 2
REMARK VINA RESULT:    -4.489      2.711      5.738
REMARK INTER + INTRA:          -5.900
REMARK INTER:                  -5.779
REMARK INTRA:                  -0.121
REMARK UNBOUND:                -0.099
REMARK SMILES CCCCCCC(=O)[O-]
REMARK SMILES IDX 5 1 6 2 7 3 8 4 9 5 4 6 3 7 2 8 1 9
REMARK H PARENT
REMARK Flexibility Score: inf
ROOT
ATOM      1  C   UNL     1      36.027  42.623  46.747  1.00  0.00     0.006 C 
ENDROOT
BRANCH   1   2
ATOM      2  C   UNL     1      35.923  44.090  46.298  1.00  0.00     0.053 C 
BRANCH   2   3
ATOM      3  C   UNL     1      34.626  44.376  45.605  1.00  0.00     0.041 C 
ATOM      4  O   UNL     1      34.622  44.840  44.434  1.00  0.00    -0.550 OA
ATOM      5  O   UNL     1      33.423  44.165  46.266  1.00  0.00    -0.550 OA
ENDBRANCH   2   3
ENDBRANCH   1   2
BRANCH   1   6
ATOM      6  C   UNL     1      37.125  42.359  47.793  1.00  0.00     0.000 C 
BRANCH   6   7
ATOM      7  C   UNL     1      36.674  42.694  49.226  1.00  0.00    -0.000 C 
BRANCH   7   8
ATOM      8  C   UNL     1      37.825  42.603  50.240  1.00  0.00    -0.003 C 
ATOM      9  C   UNL     1      38.777  41.443  49.950  1.00  0.00     0.004 C 
ENDBRANCH   7   8
ENDBRANCH   6   7
ENDBRANCH   1   6
TORSDOF 5
ENDMDL
MODEL 3
REMARK VINA RESULT:    -4.326      2.251      3.789
REMARK INTER + INTRA:          -5.689
REMARK INTER:                  -5.613
REMARK INTRA:                  -0.076
REMARK UNBOUND:                -0.099
REMARK SMILES CCCCCCC(=O)[O-]
REMARK SMILES IDX 5 1 6 2 7 3 8 4 9 5 4 6 3 7 2 8 1 9
REMARK H PARENT
REMARK Flexibility Score: inf
ROOT
ATOM      1  C   UNL     1      38.075  42.363  48.260  1.00  0.00     0.006 C 
ENDROOT
BRANCH   1   2
ATOM      2  C   UNL     1      38.512  41.343  49.324  1.00  0.00     0.053 C 
BRANCH   2   3
ATOM      3  C   UNL     1      38.918  42.005  50.605  1.00  0.00     0.041 C 
ATOM      4  O   UNL     1      38.549  43.183  50.854  1.00  0.00    -0.550 OA
ATOM      5  O   UNL     1      39.735  41.334  51.506  1.00  0.00    -0.550 OA
ENDBRANCH   2   3
ENDBRANCH   1   2
BRANCH   1   6
ATOM      6  C   UNL     1      36.551  42.548  48.149  1.00  0.00     0.000 C 
BRANCH   6   7
ATOM      7  C   UNL     1      36.079  42.731  46.696  1.00  0.00    -0.000 C 
BRANCH   7   8
ATOM      8  C   UNL     1      35.861  44.208  46.330  1.00  0.00    -0.003 C 
ATOM      9  C   UNL     1      34.710  44.408  45.346  1.00  0.00     0.004 C 
ENDBRANCH   7   8
ENDBRANCH   6   7
ENDBRANCH   1   6
TORSDOF 5
ENDMDL
MODEL 4
REMARK VINA RESULT:    -4.293      1.164      1.868
REMARK INTER + INTRA:          -5.646
REMARK INTER:                  -5.440
REMARK INTRA:                  -0.206
REMARK UNBOUND:                -0.099
REMARK SMILES CCCCCCC(=O)[O-]
REMARK SMILES IDX 5 1 6 2 7 3 8 4 9 5 4 6 3 7 2 8 1 9
REMARK H PARENT
REMARK Flexibility Score: inf
ROOT
ATOM      1  C   UNL     1      34.541  44.514  45.181  1.00  0.00     0.006 C 
ENDROOT
BRANCH   1   2
ATOM      2  C   UNL     1      35.685  44.614  46.204  1.00  0.00     0.053 C 
BRANCH   2   3
ATOM      3  C   UNL     1      35.656  43.488  47.192  1.00  0.00     0.041 C 
ATOM      4  O   UNL     1      35.396  43.714  48.403  1.00  0.00    -0.550 OA
ATOM      5  O   UNL     1      35.952  42.194  46.781  1.00  0.00    -0.550 OA
ENDBRANCH   2   3
ENDBRANCH   1   2
BRANCH   1   6
ATOM      6  C   UNL     1      33.168  44.189  45.798  1.00  0.00     0.000 C 
BRANCH   6   7
ATOM      7  C   UNL     1      32.030  44.225  44.763  1.00  0.00    -0.000 C 
BRANCH   7   8
ATOM      8  C   UNL     1      32.550  44.261  43.318  1.00  0.00    -0.003 C 
ATOM      9  C   UNL     1      32.155  45.540  42.581  1.00  0.00     0.004 C 
ENDBRANCH   7   8
ENDBRANCH   6   7
ENDBRANCH   1   6
TORSDOF 5
ENDMDL
MODEL 5
REMARK VINA RESULT:    -4.186      3.668      6.180
REMARK INTER + INTRA:          -5.508
REMARK INTER:                  -5.274
REMARK INTRA:                  -0.234
REMARK UNBOUND:                -0.099
REMARK SMILES CCCCCCC(=O)[O-]
REMARK SMILES IDX 5 1 6 2 7 3 8 4 9 5 4 6 3 7 2 8 1 9
REMARK H PARENT
REMARK Flexibility Score: inf
ROOT
ATOM      1  C   UNL     1      35.714  42.998  50.171  1.00  0.00     0.006 C 
ENDROOT
BRANCH   1   2
ATOM      2  C   UNL     1      35.094  43.041  48.764  1.00  0.00     0.053 C 
BRANCH   2   3
ATOM      3  C   UNL     1      35.027  44.436  48.221  1.00  0.00     0.041 C 
ATOM      4  O   UNL     1      34.775  45.403  48.988  1.00  0.00    -0.550 OA
ATOM      5  O   UNL     1      35.207  44.663  46.863  1.00  0.00    -0.550 OA
ENDBRANCH   2   3
ENDBRANCH   1   2
BRANCH   1   6
ATOM      6  C   UNL     1      37.253  42.965  50.183  1.00  0.00     0.000 C 
BRANCH   6   7
ATOM      7  C   UNL     1      37.839  42.156  49.012  1.00  0.00    -0.000 C 
BRANCH   7   8
ATOM      8  C   UNL     1      38.943  41.187  49.462  1.00  0.00    -0.003 C 
ATOM      9  C   UNL     1      39.250  41.295  50.955  1.00  0.00     0.004 C 
ENDBRANCH   7   8
ENDBRANCH   6   7
ENDBRANCH   1   6
TORSDOF 5
ENDMDL
MODEL 6
REMARK VINA RESULT:    -4.155      1.571      2.024
REMARK INTER + INTRA:          -5.469
REMARK INTER:                  -5.205
REMARK INTRA:                  -0.264
REMARK UNBOUND:                -0.099
REMARK SMILES CCCCCCC(=O)[O-]
REMARK SMILES IDX 5 1 6 2 7 3 8 4 9 5 4 6 3 7 2 8 1 9
REMARK H PARENT
REMARK Flexibility Score: inf
ROOT
ATOM      1  C   UNL     1      36.025  42.770  46.687  1.00  0.00     0.006 C 
ENDROOT
BRANCH   1   2
ATOM      2  C   UNL     1      36.615  42.585  48.095  1.00  0.00     0.053 C 
BRANCH   2   3
ATOM      3  C   UNL     1      35.652  42.992  49.167  1.00  0.00     0.041 C 
ATOM      4  O   UNL     1      34.461  42.582  49.137  1.00  0.00    -0.550 OA
ATOM      5  O   UNL     1      36.058  43.854  50.178  1.00  0.00    -0.550 OA
ENDBRANCH   2   3
ENDBRANCH   1   2
BRANCH   1   6
ATOM      6  C   UNL     1      35.908  44.238  46.238  1.00  0.00     0.000 C 
BRANCH   6   7
ATOM      7  C   UNL     1      34.701  44.483  45.315  1.00  0.00    -0.000 C 
BRANCH   7   8
ATOM      8  C   UNL     1      33.369  44.096  45.976  1.00  0.00    -0.003 C 
ATOM      9  C   UNL     1      32.194  44.131  44.999  1.00  0.00     0.004 C 
ENDBRANCH   7   8
ENDBRANCH   6   7
ENDBRANCH   1   6
TORSDOF 5
ENDMDL
MODEL 7
REMARK VINA RESULT:    -4.151      2.737      5.487
REMARK INTER + INTRA:          -5.463
REMARK INTER:                  -5.335
REMARK INTRA:                  -0.128
REMARK UNBOUND:                -0.099
REMARK SMILES CCCCCCC(=O)[O-]
REMARK SMILES IDX 5 1 6 2 7 3 8 4 9 5 4 6 3 7 2 8 1 9
REMARK H PARENT
REMARK Flexibility Score: inf
ROOT
ATOM      1  C   UNL     1      35.339  44.461  46.395  1.00  0.00     0.006 C 
ENDROOT
BRANCH   1   2
ATOM      2  C   UNL     1      34.549  44.532  45.077  1.00  0.00     0.053 C 
BRANCH   2   3
ATOM      3  C   UNL     1      33.094  44.238  45.277  1.00  0.00     0.041 C 
ATOM      4  O   UNL     1      32.708  43.627  46.308  1.00  0.00    -0.550 OA
ATOM      5  O   UNL     1      32.170  44.605  44.307  1.00  0.00    -0.550 OA
ENDBRANCH   2   3
ENDBRANCH   1   2
BRANCH   1   6
ATOM      6  C   UNL     1      36.308  43.269  46.487  1.00  0.00     0.000 C 
BRANCH   6   7
ATOM      7  C   UNL     1      36.281  42.587  47.866  1.00  0.00    -0.000 C 
BRANCH   7   8
ATOM      8  C   UNL     1      37.677  42.139  48.327  1.00  0.00    -0.003 C 
ATOM      9  C   UNL     1      37.909  42.376  49.819  1.00  0.00     0.004 C 
ENDBRANCH   7   8
ENDBRANCH   6   7
ENDBRANCH   1   6
TORSDOF 5
ENDMDL
MODEL 8
REMARK VINA RESULT:    -4.022      2.849      5.285
REMARK INTER + INTRA:          -5.297
REMARK INTER:                  -4.985
REMARK INTRA:                  -0.311
REMARK UNBOUND:                -0.099
REMARK SMILES CCCCCCC(=O)[O-]
REMARK SMILES IDX 5 1 6 2 7 3 8 4 9 5 4 6 3 7 2 8 1 9
REMARK H PARENT
REMARK Flexibility Score: inf
ROOT
ATOM      1  C   UNL     1      34.823  44.825  48.400  1.00  0.00     0.006 C 
ENDROOT
BRANCH   1   2
ATOM      2  C   UNL     1      34.656  43.626  47.453  1.00  0.00     0.053 C 
BRANCH   2   3
ATOM      3  C   UNL     1      35.681  43.625  46.361  1.00  0.00     0.041 C 
ATOM      4  O   UNL     1      36.710  42.905  46.458  1.00  0.00    -0.550 OA
ATOM      5  O   UNL     1      35.519  44.449  45.254  1.00  0.00    -0.550 OA
ENDBRANCH   2   3
ENDBRANCH   1   2
BRANCH   1   6
ATOM      6  C   UNL     1      35.162  44.442  49.853  1.00  0.00     0.000 C 
BRANCH   6   7
ATOM      7  C   UNL     1      35.684  43.000  49.979  1.00  0.00    -0.000 C 
BRANCH   7   8
ATOM      8  C   UNL     1      37.104  42.939  50.565  1.00  0.00    -0.003 C 
ATOM      9  C   UNL     1      38.101  42.262  49.625  1.00  0.00     0.004 C 
ENDBRANCH   7   8
ENDBRANCH   6   7
ENDBRANCH   1   6
TORSDOF 5
ENDMDL
