MODEL 1
REMARK VINA RESULT:    -5.210      0.000      0.000
REMARK INTER + INTRA:          -5.825
REMARK INTER:                  -5.667
REMARK INTRA:                  -0.158
REMARK UNBOUND:                -0.158
REMARK SMILES O=C([O-])c1ccccc1O
REMARK SMILES IDX 4 1 9 2 5 3 8 4 6 5 7 6 2 7 1 8 3 9 10 10
REMARK H PARENT 10 11
REMARK Flexibility Score: inf
ROOT
ATOM      1  C   UNL     1     -40.348  37.939  48.207  1.00  0.00     0.039 A 
ATOM      2  C   UNL     1     -38.978  38.253  48.372  1.00  0.00     0.124 A 
ATOM      3  C   UNL     1     -40.970  38.243  46.978  1.00  0.00     0.014 A 
ATOM      4  C   UNL     1     -38.266  38.854  47.323  1.00  0.00     0.047 A 
ATOM      5  C   UNL     1     -40.248  38.840  45.943  1.00  0.00     0.001 A 
ATOM      6  C   UNL     1     -38.898  39.145  46.114  1.00  0.00     0.004 A 
ENDROOT
BRANCH   1   7
ATOM      7  C   UNL     1     -41.141  37.303  49.290  1.00  0.00     0.075 C 
ATOM      8  O   UNL     1     -41.508  36.101  49.189  1.00  0.00    -0.545 OA
ATOM      9  O   UNL     1     -41.496  38.013  50.432  1.00  0.00    -0.545 OA
ENDBRANCH   1   7
BRANCH   2  10
ATOM     10  O   UNL     1     -38.322  37.972  49.571  1.00  0.00    -0.507 OA
ATOM     11  H   UNL     1     -37.333  38.157  49.693  1.00  0.00     0.293 HD
ENDBRANCH   2  10
TORSDOF 2
ENDMDL
MODEL 2
REMARK VINA RESULT:    -5.129     11.539     13.278
REMARK INTER + INTRA:          -5.737
REMARK INTER:                  -5.560
REMARK INTRA:                  -0.177
REMARK UNBOUND:                -0.158
REMARK SMILES O=C([O-])c1ccccc1O
REMARK SMILES IDX 4 1 9 2 5 3 8 4 6 5 7 6 2 7 1 8 3 9 10 10
REMARK H PARENT 10 11
REMARK Flexibility Score: inf
ROOT
ATOM      1  C   UNL     1     -34.439  44.978  38.634  1.00  0.00     0.039 A 
ATOM      2  C   UNL     1     -34.464  43.568  38.747  1.00  0.00     0.124 A 
ATOM      3  C   UNL     1     -34.802  45.755  39.754  1.00  0.00     0.014 A 
ATOM      4  C   UNL     1     -34.846  42.969  39.958  1.00  0.00     0.047 A 
ATOM      5  C   UNL     1     -35.179  45.145  40.952  1.00  0.00     0.001 A 
ATOM      6  C   UNL     1     -35.201  43.755  41.054  1.00  0.00     0.004 A 
ENDROOT
BRANCH   1   7
ATOM      7  C   UNL     1     -34.041  45.654  37.373  1.00  0.00     0.075 C 
ATOM      8  O   UNL     1     -34.895  46.283  36.691  1.00  0.00    -0.545 OA
ATOM      9  O   UNL     1     -32.729  45.609  36.917  1.00  0.00    -0.545 OA
ENDBRANCH   1   7
BRANCH   2  10
ATOM     10  O   UNL     1     -34.113  42.759  37.666  1.00  0.00    -0.507 OA
ATOM     11  H   UNL     1     -33.293  42.949  37.102  1.00  0.00     0.293 HD
ENDBRANCH   2  10
TORSDOF 2
ENDMDL
MODEL 3
REMARK VINA RESULT:    -5.012      2.480      3.780
REMARK INTER + INTRA:          -5.610
REMARK INTER:                  -5.356
REMARK INTRA:                  -0.254
REMARK UNBOUND:                -0.158
REMARK SMILES O=C([O-])c1ccccc1O
REMARK SMILES IDX 4 1 9 2 5 3 8 4 6 5 7 6 2 7 1 8 3 9 10 10
REMARK H PARENT 10 11
REMARK Flexibility Score: inf
ROOT
ATOM      1  C   UNL     1     -39.013  36.967  47.416  1.00  0.00     0.039 A 
ATOM      2  C   UNL     1     -39.298  38.205  48.038  1.00  0.00     0.124 A 
ATOM      3  C   UNL     1     -39.816  35.850  47.727  1.00  0.00     0.014 A 
ATOM      4  C   UNL     1     -40.365  38.303  48.946  1.00  0.00     0.047 A 
ATOM      5  C   UNL     1     -40.874  35.963  48.631  1.00  0.00     0.001 A 
ATOM      6  C   UNL     1     -41.148  37.187  49.240  1.00  0.00     0.004 A 
ENDROOT
BRANCH   1   7
ATOM      7  C   UNL     1     -37.894  36.817  46.450  1.00  0.00     0.075 C 
ATOM      8  O   UNL     1     -37.140  35.808  46.500  1.00  0.00    -0.545 OA
ATOM      9  O   UNL     1     -37.654  37.778  45.475  1.00  0.00    -0.545 OA
ENDBRANCH   1   7
BRANCH   2  10
ATOM     10  O   UNL     1     -38.530  39.336  47.762  1.00  0.00    -0.507 OA
ATOM     11  H   UNL     1     -38.940  40.263  47.725  1.00  0.00     0.293 HD
ENDBRANCH   2  10
TORSDOF 2
ENDMDL
MODEL 4
REMARK VINA RESULT:    -4.987     11.812     13.458
REMARK INTER + INTRA:          -5.582
REMARK INTER:                  -5.388
REMARK INTRA:                  -0.194
REMARK UNBOUND:                -0.158
REMARK SMILES O=C([O-])c1ccccc1O
REMARK SMILES IDX 4 1 9 2 5 3 8 4 6 5 7 6 2 7 1 8 3 9 10 10
REMARK H PARENT 10 11
REMARK Flexibility Score: inf
ROOT
ATOM      1  C   UNL     1     -33.954  45.084  39.088  1.00  0.00     0.039 A 
ATOM      2  C   UNL     1     -34.532  45.781  38.000  1.00  0.00     0.124 A 
ATOM      3  C   UNL     1     -32.572  44.805  39.057  1.00  0.00     0.014 A 
ATOM      4  C   UNL     1     -33.731  46.180  36.919  1.00  0.00     0.047 A 
ATOM      5  C   UNL     1     -31.788  45.209  37.975  1.00  0.00     0.001 A 
ATOM      6  C   UNL     1     -32.365  45.895  36.908  1.00  0.00     0.004 A 
ENDROOT
BRANCH   1   7
ATOM      7  C   UNL     1     -34.764  44.643  40.252  1.00  0.00     0.075 C 
ATOM      8  O   UNL     1     -35.215  45.489  41.072  1.00  0.00    -0.545 OA
ATOM      9  O   UNL     1     -35.041  43.298  40.466  1.00  0.00    -0.545 OA
ENDBRANCH   1   7
BRANCH   2  10
ATOM     10  O   UNL     1     -35.895  46.078  37.987  1.00  0.00    -0.507 OA
ATOM     11  H   UNL     1     -36.510  45.725  37.262  1.00  0.00     0.293 HD
ENDBRANCH   2  10
TORSDOF 2
ENDMDL
MODEL 5
REMARK VINA RESULT:    -4.961     10.565     12.300
REMARK INTER + INTRA:          -5.555
REMARK INTER:                  -5.299
REMARK INTRA:                  -0.255
REMARK UNBOUND:                -0.158
REMARK SMILES O=C([O-])c1ccccc1O
REMARK SMILES IDX 4 1 9 2 5 3 8 4 6 5 7 6 2 7 1 8 3 9 10 10
REMARK H PARENT 10 11
REMARK Flexibility Score: inf
ROOT
ATOM      1  C   UNL     1     -34.661  44.330  39.463  1.00  0.00     0.039 A 
ATOM      2  C   UNL     1     -34.533  42.924  39.552  1.00  0.00     0.124 A 
ATOM      3  C   UNL     1     -35.083  45.046  40.602  1.00  0.00     0.014 A 
ATOM      4  C   UNL     1     -34.825  42.269  40.758  1.00  0.00     0.047 A 
ATOM      5  C   UNL     1     -35.369  44.381  41.796  1.00  0.00     0.001 A 
ATOM      6  C   UNL     1     -35.240  42.995  41.875  1.00  0.00     0.004 A 
ENDROOT
BRANCH   1   7
ATOM      7  C   UNL     1     -34.363  45.064  38.206  1.00  0.00     0.075 C 
ATOM      8  O   UNL     1     -35.159  45.944  37.779  1.00  0.00    -0.545 OA
ATOM      9  O   UNL     1     -33.210  44.801  37.477  1.00  0.00    -0.545 OA
ENDBRANCH   1   7
BRANCH   2  10
ATOM     10  O   UNL     1     -34.120  42.174  38.451  1.00  0.00    -0.507 OA
ATOM     11  H   UNL     1     -33.678  42.606  37.647  1.00  0.00     0.293 HD
ENDBRANCH   2  10
TORSDOF 2
ENDMDL
MODEL 6
REMARK VINA RESULT:    -4.904     11.775     13.375
REMARK INTER + INTRA:          -5.492
REMARK INTER:                  -5.240
REMARK INTRA:                  -0.251
REMARK UNBOUND:                -0.158
REMARK SMILES O=C([O-])c1ccccc1O
REMARK SMILES IDX 4 1 9 2 5 3 8 4 6 5 7 6 2 7 1 8 3 9 10 10
REMARK H PARENT 10 11
REMARK Flexibility Score: inf
ROOT
ATOM      1  C   UNL     1     -33.855  44.795  38.874  1.00  0.00     0.039 A 
ATOM      2  C   UNL     1     -32.502  44.837  38.464  1.00  0.00     0.124 A 
ATOM      3  C   UNL     1     -34.820  45.474  38.101  1.00  0.00     0.014 A 
ATOM      4  C   UNL     1     -32.142  45.545  37.307  1.00  0.00     0.047 A 
ATOM      5  C   UNL     1     -34.447  46.174  36.952  1.00  0.00     0.001 A 
ATOM      6  C   UNL     1     -33.111  46.210  36.555  1.00  0.00     0.004 A 
ENDROOT
BRANCH   1   7
ATOM      7  C   UNL     1     -34.281  44.057  40.091  1.00  0.00     0.075 C 
ATOM      8  O   UNL     1     -35.146  44.551  40.865  1.00  0.00    -0.545 OA
ATOM      9  O   UNL     1     -33.740  42.816  40.405  1.00  0.00    -0.545 OA
ENDBRANCH   1   7
BRANCH   2  10
ATOM     10  O   UNL     1     -31.514  44.181  39.198  1.00  0.00    -0.507 OA
ATOM     11  H   UNL     1     -31.028  43.370  38.832  1.00  0.00     0.293 HD
ENDBRANCH   2  10
TORSDOF 2
ENDMDL
MODEL 7
REMARK VINA RESULT:    -4.833      9.777     11.429
REMARK INTER + INTRA:          -5.415
REMARK INTER:                  -5.163
REMARK INTRA:                  -0.251
REMARK UNBOUND:                -0.158
REMARK SMILES O=C([O-])c1ccccc1O
REMARK SMILES IDX 4 1 9 2 5 3 8 4 6 5 7 6 2 7 1 8 3 9 10 10
REMARK H PARENT 10 11
REMARK Flexibility Score: inf
ROOT
ATOM      1  C   UNL     1     -34.706  43.600  40.318  1.00  0.00     0.039 A 
ATOM      2  C   UNL     1     -34.333  43.152  39.029  1.00  0.00     0.124 A 
ATOM      3  C   UNL     1     -35.032  44.960  40.496  1.00  0.00     0.014 A 
ATOM      4  C   UNL     1     -34.293  44.058  37.957  1.00  0.00     0.047 A 
ATOM      5  C   UNL     1     -34.989  45.849  39.420  1.00  0.00     0.001 A 
ATOM      6  C   UNL     1     -34.619  45.400  38.153  1.00  0.00     0.004 A 
ENDROOT
BRANCH   1   7
ATOM      7  C   UNL     1     -34.762  42.676  41.481  1.00  0.00     0.075 C 
ATOM      8  O   UNL     1     -35.796  42.619  42.199  1.00  0.00    -0.545 OA
ATOM      9  O   UNL     1     -33.683  41.860  41.802  1.00  0.00    -0.545 OA
ENDBRANCH   1   7
BRANCH   2  10
ATOM     10  O   UNL     1     -34.000  41.816  38.806  1.00  0.00    -0.507 OA
ATOM     11  H   UNL     1     -33.792  41.466  37.878  1.00  0.00     0.293 HD
ENDBRANCH   2  10
TORSDOF 2
ENDMDL
MODEL 8
REMARK VINA RESULT:    -4.811      1.794      3.802
REMARK INTER + INTRA:          -5.391
REMARK INTER:                  -5.136
REMARK INTRA:                  -0.255
REMARK UNBOUND:                -0.158
REMARK SMILES O=C([O-])c1ccccc1O
REMARK SMILES IDX 4 1 9 2 5 3 8 4 6 5 7 6 2 7 1 8 3 9 10 10
REMARK H PARENT 10 11
REMARK Flexibility Score: inf
ROOT
ATOM      1  C   UNL     1     -37.971  38.723  46.979  1.00  0.00     0.039 A 
ATOM      2  C   UNL     1     -38.812  38.346  48.053  1.00  0.00     0.124 A 
ATOM      3  C   UNL     1     -38.559  39.060  45.743  1.00  0.00     0.014 A 
ATOM      4  C   UNL     1     -40.204  38.314  47.874  1.00  0.00     0.047 A 
ATOM      5  C   UNL     1     -39.945  39.025  45.580  1.00  0.00     0.001 A 
ATOM      6  C   UNL     1     -40.767  38.652  46.643  1.00  0.00     0.004 A 
ENDROOT
BRANCH   1   7
ATOM      7  C   UNL     1     -36.493  38.770  47.124  1.00  0.00     0.075 C 
ATOM      8  O   UNL     1     -35.841  39.753  46.678  1.00  0.00    -0.545 OA
ATOM      9  O   UNL     1     -35.800  37.741  47.748  1.00  0.00    -0.545 OA
ENDBRANCH   1   7
BRANCH   2  10
ATOM     10  O   UNL     1     -38.276  38.003  49.293  1.00  0.00    -0.507 OA
ATOM     11  H   UNL     1     -38.834  38.020  50.139  1.00  0.00     0.293 HD
ENDBRANCH   2  10
TORSDOF 2
ENDMDL
MODEL 9
REMARK VINA RESULT:    -4.653     10.530     12.288
REMARK INTER + INTRA:          -5.219
REMARK INTER:                  -4.968
REMARK INTRA:                  -0.251
REMARK UNBOUND:                -0.158
REMARK SMILES O=C([O-])c1ccccc1O
REMARK SMILES IDX 4 1 9 2 5 3 8 4 6 5 7 6 2 7 1 8 3 9 10 10
REMARK H PARENT 10 11
REMARK Flexibility Score: inf
ROOT
ATOM      1  C   UNL     1     -34.391  44.351  39.630  1.00  0.00     0.039 A 
ATOM      2  C   UNL     1     -35.112  44.914  40.709  1.00  0.00     0.124 A 
ATOM      3  C   UNL     1     -34.023  42.992  39.696  1.00  0.00     0.014 A 
ATOM      4  C   UNL     1     -35.446  44.121  41.818  1.00  0.00     0.047 A 
ATOM      5  C   UNL     1     -34.363  42.215  40.805  1.00  0.00     0.001 A 
ATOM      6  C   UNL     1     -35.073  42.778  41.864  1.00  0.00     0.004 A 
ENDROOT
BRANCH   1   7
ATOM      7  C   UNL     1     -34.016  45.153  38.437  1.00  0.00     0.075 C 
ATOM      8  O   UNL     1     -32.821  45.180  38.037  1.00  0.00    -0.545 OA
ATOM      9  O   UNL     1     -34.966  45.889  37.739  1.00  0.00    -0.545 OA
ENDBRANCH   1   7
BRANCH   2  10
ATOM     10  O   UNL     1     -35.496  46.255  40.688  1.00  0.00    -0.507 OA
ATOM     11  H   UNL     1     -35.870  46.715  41.511  1.00  0.00     0.293 HD
ENDBRANCH   2  10
TORSDOF 2
ENDMDL
