MODEL 1
REMARK VINA RESULT:    -2.702      0.000      0.000
REMARK INTER + INTRA:          -3.282
REMARK INTER:                  -3.255
REMARK INTRA:                  -0.026
REMARK UNBOUND:                -0.026
REMARK SMILES CCCCCO
REMARK SMILES IDX 4 1 3 2 2 3 1 4 5 5 6 6
REMARK H PARENT 6 7
REMARK Flexibility Score: inf
ROOT
ATOM      1  C   UNL     1       0.008   2.215   8.124  1.00  0.00     0.028 C 
ENDROOT
BRANCH   1   2
ATOM      2  C   UNL     1      -1.526   2.250   8.110  1.00  0.00     0.002 C 
BRANCH   2   3
ATOM      3  C   UNL     1      -2.071   1.844   6.736  1.00  0.00    -0.003 C 
ATOM      4  C   UNL     1      -1.143   0.848   6.047  1.00  0.00     0.004 C 
ENDBRANCH   2   3
ENDBRANCH   1   2
BRANCH   1   5
ATOM      5  C   UNL     1       0.595   3.397   8.897  1.00  0.00     0.156 C 
BRANCH   5   6
ATOM      6  O   UNL     1       1.425   4.155   8.061  1.00  0.00    -0.396 OA
ATOM      7  H   UNL     1       1.949   4.749   8.659  1.00  0.00     0.210 HD
ENDBRANCH   5   6
ENDBRANCH   1   5
TORSDOF 4
ENDMDL
MODEL 2
REMARK VINA RESULT:    -2.633     11.595     12.028
REMARK INTER + INTRA:          -3.199
REMARK INTER:                  -3.189
REMARK INTRA:                  -0.010
REMARK UNBOUND:                -0.026
REMARK SMILES CCCCCO
REMARK SMILES IDX 4 1 3 2 2 3 1 4 5 5 6 6
REMARK H PARENT 6 7
REMARK Flexibility Score: inf
ROOT
ATOM      1  C   UNL     1       1.376   2.163  -4.318  1.00  0.00     0.028 C 
ENDROOT
BRANCH   1   2
ATOM      2  C   UNL     1       1.907   1.009  -3.456  1.00  0.00     0.002 C 
BRANCH   2   3
ATOM      3  C   UNL     1       3.417   1.144  -3.230  1.00  0.00    -0.003 C 
ATOM      4  C   UNL     1       4.087  -0.226  -3.151  1.00  0.00     0.004 C 
ENDBRANCH   2   3
ENDBRANCH   1   2
BRANCH   1   5
ATOM      5  C   UNL     1      -0.144   2.103  -4.471  1.00  0.00     0.156 C 
BRANCH   5   6
ATOM      6  O   UNL     1      -0.758   2.926  -3.519  1.00  0.00    -0.396 OA
ATOM      7  H   UNL     1      -1.700   3.030  -3.812  1.00  0.00     0.210 HD
ENDBRANCH   5   6
ENDBRANCH   1   5
TORSDOF 4
ENDMDL
MODEL 3
REMARK VINA RESULT:    -2.579     12.013     12.453
REMARK INTER + INTRA:          -3.133
REMARK INTER:                  -3.109
REMARK INTRA:                  -0.024
REMARK UNBOUND:                -0.026
REMARK SMILES CCCCCO
REMARK SMILES IDX 4 1 3 2 2 3 1 4 5 5 6 6
REMARK H PARENT 6 7
REMARK Flexibility Score: inf
ROOT
ATOM      1  C   UNL     1      -0.502   3.287  -4.312  1.00  0.00     0.028 C 
ENDROOT
BRANCH   1   2
ATOM      2  C   UNL     1       0.146   1.913  -4.091  1.00  0.00     0.002 C 
BRANCH   2   3
ATOM      3  C   UNL     1       1.675   2.013  -4.139  1.00  0.00    -0.003 C 
ATOM      4  C   UNL     1       2.326   0.856  -3.386  1.00  0.00     0.004 C 
ENDBRANCH   2   3
ENDBRANCH   1   2
BRANCH   1   5
ATOM      5  C   UNL     1      -1.926   3.161  -4.856  1.00  0.00     0.156 C 
BRANCH   5   6
ATOM      6  O   UNL     1      -2.204   1.826  -5.175  1.00  0.00    -0.396 OA
ATOM      7  H   UNL     1      -3.135   1.814  -5.517  1.00  0.00     0.210 HD
ENDBRANCH   5   6
ENDBRANCH   1   5
TORSDOF 4
ENDMDL
MODEL 4
REMARK VINA RESULT:    -2.547     11.712     12.012
REMARK INTER + INTRA:          -3.095
REMARK INTER:                  -3.072
REMARK INTRA:                  -0.023
REMARK UNBOUND:                -0.026
REMARK SMILES CCCCCO
REMARK SMILES IDX 4 1 3 2 2 3 1 4 5 5 6 6
REMARK H PARENT 6 7
REMARK Flexibility Score: inf
ROOT
ATOM      1  C   UNL     1       1.608   2.311  -4.564  1.00  0.00     0.028 C 
ENDROOT
BRANCH   1   2
ATOM      2  C   UNL     1       0.196   1.977  -4.063  1.00  0.00     0.002 C 
BRANCH   2   3
ATOM      3  C   UNL     1      -0.752   3.166  -4.264  1.00  0.00    -0.003 C 
ATOM      4  C   UNL     1      -1.963   2.770  -5.105  1.00  0.00     0.004 C 
ENDBRANCH   2   3
ENDBRANCH   1   2
BRANCH   1   5
ATOM      5  C   UNL     1       2.685   1.667  -3.690  1.00  0.00     0.156 C 
BRANCH   5   6
ATOM      6  O   UNL     1       2.116   0.689  -2.865  1.00  0.00    -0.396 OA
ATOM      7  H   UNL     1       2.704   0.626  -2.068  1.00  0.00     0.210 HD
ENDBRANCH   5   6
ENDBRANCH   1   5
TORSDOF 4
ENDMDL
MODEL 5
REMARK VINA RESULT:    -2.455     12.515     13.377
REMARK INTER + INTRA:          -2.983
REMARK INTER:                  -2.967
REMARK INTRA:                  -0.017
REMARK UNBOUND:                -0.026
REMARK SMILES CCCCCO
REMARK SMILES IDX 4 1 3 2 2 3 1 4 5 5 6 6
REMARK H PARENT 6 7
REMARK Flexibility Score: inf
ROOT
ATOM      1  C   UNL     1      -2.032   3.010  -4.981  1.00  0.00     0.028 C 
ENDROOT
BRANCH   1   2
ATOM      2  C   UNL     1      -0.623   2.511  -5.330  1.00  0.00     0.002 C 
BRANCH   2   3
ATOM      3  C   UNL     1       0.062   1.901  -4.101  1.00  0.00    -0.003 C 
ATOM      4  C   UNL     1       1.578   2.059  -4.180  1.00  0.00     0.004 C 
ENDBRANCH   2   3
ENDBRANCH   1   2
BRANCH   1   5
ATOM      5  C   UNL     1      -2.961   2.977  -6.196  1.00  0.00     0.156 C 
BRANCH   5   6
ATOM      6  O   UNL     1      -3.404   1.669  -6.428  1.00  0.00    -0.396 OA
ATOM      7  H   UNL     1      -2.645   1.193  -6.854  1.00  0.00     0.210 HD
ENDBRANCH   5   6
ENDBRANCH   1   5
TORSDOF 4
ENDMDL
MODEL 6
REMARK VINA RESULT:    -2.346     12.687     13.843
REMARK INTER + INTRA:          -2.853
REMARK INTER:                  -2.844
REMARK INTRA:                  -0.009
REMARK UNBOUND:                -0.026
REMARK SMILES CCCCCO
REMARK SMILES IDX 4 1 3 2 2 3 1 4 5 5 6 6
REMARK H PARENT 6 7
REMARK Flexibility Score: inf
ROOT
ATOM      1  C   UNL     1       1.020   2.534  -5.249  1.00  0.00     0.028 C 
ENDROOT
BRANCH   1   2
ATOM      2  C   UNL     1       0.060   2.656  -6.442  1.00  0.00     0.002 C 
BRANCH   2   3
ATOM      3  C   UNL     1       0.836   2.801  -7.756  1.00  0.00    -0.003 C 
ATOM      4  C   UNL     1       0.110   2.102  -8.904  1.00  0.00     0.004 C 
ENDBRANCH   2   3
ENDBRANCH   1   2
BRANCH   1   5
ATOM      5  C   UNL     1       0.325   1.945  -4.021  1.00  0.00     0.156 C 
BRANCH   5   6
ATOM      6  O   UNL     1      -0.629   2.845  -3.529  1.00  0.00    -0.396 OA
ATOM      7  H   UNL     1      -0.158   3.712  -3.417  1.00  0.00     0.210 HD
ENDBRANCH   5   6
ENDBRANCH   1   5
TORSDOF 4
ENDMDL
MODEL 7
REMARK VINA RESULT:    -2.338      2.078      3.386
REMARK INTER + INTRA:          -2.843
REMARK INTER:                  -2.766
REMARK INTRA:                  -0.077
REMARK UNBOUND:                -0.026
REMARK SMILES CCCCCO
REMARK SMILES IDX 4 1 3 2 2 3 1 4 5 5 6 6
REMARK H PARENT 6 7
REMARK Flexibility Score: inf
ROOT
ATOM      1  C   UNL     1      -2.542   2.291   8.453  1.00  0.00     0.028 C 
ENDROOT
BRANCH   1   2
ATOM      2  C   UNL     1      -1.291   2.183   9.336  1.00  0.00     0.002 C 
BRANCH   2   3
ATOM      3  C   UNL     1      -0.015   2.228   8.487  1.00  0.00    -0.003 C 
ATOM      4  C   UNL     1       0.786   3.497   8.764  1.00  0.00     0.004 C 
ENDBRANCH   2   3
ENDBRANCH   1   2
BRANCH   1   5
ATOM      5  C   UNL     1      -2.244   1.918   7.000  1.00  0.00     0.156 C 
BRANCH   5   6
ATOM      6  O   UNL     1      -2.594   2.975   6.150  1.00  0.00    -0.396 OA
ATOM      7  H   UNL     1      -1.828   3.094   5.530  1.00  0.00     0.210 HD
ENDBRANCH   5   6
ENDBRANCH   1   5
TORSDOF 4
ENDMDL
MODEL 8
REMARK VINA RESULT:    -2.300     11.918     12.908
REMARK INTER + INTRA:          -2.797
REMARK INTER:                  -2.746
REMARK INTRA:                  -0.051
REMARK UNBOUND:                -0.026
REMARK SMILES CCCCCO
REMARK SMILES IDX 4 1 3 2 2 3 1 4 5 5 6 6
REMARK H PARENT 6 7
REMARK Flexibility Score: inf
ROOT
ATOM      1  C   UNL     1       0.197   2.561  -5.623  1.00  0.00     0.028 C 
ENDROOT
BRANCH   1   2
ATOM      2  C   UNL     1       1.679   2.931  -5.769  1.00  0.00     0.002 C 
BRANCH   2   3
ATOM      3  C   UNL     1       2.463   2.565  -4.503  1.00  0.00    -0.003 C 
ATOM      4  C   UNL     1       3.955   2.836  -4.681  1.00  0.00     0.004 C 
ENDBRANCH   2   3
ENDBRANCH   1   2
BRANCH   1   5
ATOM      5  C   UNL     1      -0.128   2.069  -4.212  1.00  0.00     0.156 C 
BRANCH   5   6
ATOM      6  O   UNL     1      -0.869   3.038  -3.523  1.00  0.00    -0.396 OA
ATOM      7  H   UNL     1      -0.235   3.774  -3.318  1.00  0.00     0.210 HD
ENDBRANCH   5   6
ENDBRANCH   1   5
TORSDOF 4
ENDMDL
MODEL 9
REMARK VINA RESULT:    -2.275     11.353     12.469
REMARK INTER + INTRA:          -2.767
REMARK INTER:                  -2.691
REMARK INTRA:                  -0.077
REMARK UNBOUND:                -0.026
REMARK SMILES CCCCCO
REMARK SMILES IDX 4 1 3 2 2 3 1 4 5 5 6 6
REMARK H PARENT 6 7
REMARK Flexibility Score: inf
ROOT
ATOM      1  C   UNL     1       2.714  -6.621  -0.465  1.00  0.00     0.028 C 
ENDROOT
BRANCH   1   2
ATOM      2  C   UNL     1       2.034  -5.467   0.284  1.00  0.00     0.002 C 
BRANCH   2   3
ATOM      3  C   UNL     1       0.513  -5.511   0.096  1.00  0.00    -0.003 C 
ATOM      4  C   UNL     1      -0.027  -4.154  -0.348  1.00  0.00     0.004 C 
ENDBRANCH   2   3
ENDBRANCH   1   2
BRANCH   1   5
ATOM      5  C   UNL     1       1.723  -7.390  -1.341  1.00  0.00     0.156 C 
BRANCH   5   6
ATOM      6  O   UNL     1       2.055  -7.236  -2.693  1.00  0.00    -0.396 OA
ATOM      7  H   UNL     1       3.031  -7.062  -2.718  1.00  0.00     0.210 HD
ENDBRANCH   5   6
ENDBRANCH   1   5
TORSDOF 4
ENDMDL
