MODEL 1
REMARK VINA RESULT:    -7.782      0.000      0.000
REMARK INTER + INTRA:         -13.128
REMARK INTER:                 -12.105
REMARK INTRA:                  -1.024
REMARK UNBOUND:                -1.024
REMARK SMILES COc1cc(CNC(=O)CCCCC=CC(C)C)ccc1O
REMARK SMILES IDX 11 1 12 2 13 3 14 4 15 5 16 6 17 7 18 8 10 9 8 10 9 11 7 12
REMARK SMILES IDX 6 14 5 15 4 16 19 17 3 18 20 19 21 20 2 21 1 22 22 23
REMARK H PARENT 7 13 22 24
REMARK Flexibility Score: inf
ROOT
ATOM      1  C   UNL     1     -25.150 -19.216 -12.709  1.00  0.00     0.010 C 
ENDROOT
BRANCH   1   2
ATOM      2  C   UNL     1     -25.711 -20.638 -12.577  1.00  0.00     0.005 C 
BRANCH   2   3
ATOM      3  C   UNL     1     -24.789 -21.524 -11.732  1.00  0.00     0.027 C 
BRANCH   3   4
ATOM      4  C   UNL     1     -23.451 -21.692 -12.404  1.00  0.00    -0.031 C 
ATOM      5  C   UNL     1     -23.178 -22.600 -13.360  1.00  0.00    -0.028 C 
BRANCH   5   6
ATOM      6  C   UNL     1     -24.138 -23.673 -13.833  1.00  0.00     0.005 C 
ATOM      7  C   UNL     1     -24.790 -23.242 -15.150  1.00  0.00     0.012 C 
ATOM      8  C   UNL     1     -23.387 -24.993 -14.015  1.00  0.00     0.012 C 
ENDBRANCH   5   6
ENDBRANCH   3   4
ENDBRANCH   2   3
ENDBRANCH   1   2
BRANCH   1   9
ATOM      9  C   UNL     1     -24.920 -18.857 -14.186  1.00  0.00     0.100 C 
BRANCH   9  10
ATOM     10  C   UNL     1     -24.517 -17.420 -14.373  1.00  0.00     0.220 C 
ATOM     11  O   UNL     1     -25.398 -16.516 -14.431  1.00  0.00    -0.275 OA
ATOM     12  N   UNL     1     -23.126 -17.070 -14.380  1.00  0.00    -0.352 N 
ATOM     13  H   UNL     1     -22.411 -17.825 -14.277  1.00  0.00     0.163 HD
BRANCH  12  14
ATOM     14  C   UNL     1     -22.663 -15.684 -14.426  1.00  0.00     0.151 C 
BRANCH  14  15
ATOM     15  C   UNL     1     -22.038 -15.298 -13.114  1.00  0.00    -0.025 A 
ATOM     16  C   UNL     1     -20.650 -15.110 -13.026  1.00  0.00     0.056 A 
ATOM     17  C   UNL     1     -22.832 -15.106 -11.973  1.00  0.00     0.009 A 
ATOM     18  C   UNL     1     -20.050 -14.753 -11.801  1.00  0.00     0.160 A 
ATOM     19  C   UNL     1     -22.245 -14.751 -10.758  1.00  0.00     0.050 A 
ATOM     20  C   UNL     1     -20.860 -14.576 -10.664  1.00  0.00     0.157 A 
BRANCH  18  21
ATOM     21  O   UNL     1     -18.662 -14.568 -11.678  1.00  0.00    -0.493 OA
ATOM     22  C   UNL     1     -17.702 -15.025 -12.625  1.00  0.00     0.278 C 
ENDBRANCH  18  21
BRANCH  20  23
ATOM     23  O   UNL     1     -20.308 -14.229  -9.430  1.00  0.00    -0.504 OA
ATOM     24  H   UNL     1     -19.506 -13.616  -9.351  1.00  0.00     0.293 HD
ENDBRANCH  20  23
ENDBRANCH  14  15
ENDBRANCH  12  14
ENDBRANCH   9  10
ENDBRANCH   1   9
TORSDOF 10
ENDMDL
MODEL 2
REMARK VINA RESULT:    -7.637      1.538      2.383
REMARK INTER + INTRA:         -12.902
REMARK INTER:                 -12.078
REMARK INTRA:                  -0.825
REMARK UNBOUND:                -1.024
REMARK SMILES COc1cc(CNC(=O)CCCCC=CC(C)C)ccc1O
REMARK SMILES IDX 11 1 12 2 13 3 14 4 15 5 16 6 17 7 18 8 10 9 8 10 9 11 7 12
REMARK SMILES IDX 6 14 5 15 4 16 19 17 3 18 20 19 21 20 2 21 1 22 22 23
REMARK H PARENT 7 13 22 24
REMARK Flexibility Score: inf
ROOT
ATOM      1  C   UNL     1     -24.767 -20.225 -13.370  1.00  0.00     0.010 C 
ENDROOT
BRANCH   1   2
ATOM      2  C   UNL     1     -24.630 -21.735 -13.600  1.00  0.00     0.005 C 
BRANCH   2   3
ATOM      3  C   UNL     1     -23.990 -22.427 -12.391  1.00  0.00     0.027 C 
BRANCH   3   4
ATOM      4  C   UNL     1     -23.975 -21.506 -11.199  1.00  0.00    -0.031 C 
ATOM      5  C   UNL     1     -24.253 -21.878  -9.935  1.00  0.00    -0.028 C 
BRANCH   5   6
ATOM      6  C   UNL     1     -24.736 -23.254  -9.524  1.00  0.00     0.005 C 
ATOM      7  C   UNL     1     -23.540 -24.133  -9.150  1.00  0.00     0.012 C 
ATOM      8  C   UNL     1     -25.700 -23.131  -8.343  1.00  0.00     0.012 C 
ENDBRANCH   5   6
ENDBRANCH   3   4
ENDBRANCH   2   3
ENDBRANCH   1   2
BRANCH   1   9
ATOM      9  C   UNL     1     -23.907 -19.442 -14.377  1.00  0.00     0.100 C 
BRANCH   9  10
ATOM     10  C   UNL     1     -24.067 -17.953 -14.234  1.00  0.00     0.220 C 
ATOM     11  O   UNL     1     -25.115 -17.473 -13.717  1.00  0.00    -0.275 OA
ATOM     12  N   UNL     1     -22.981 -17.087 -14.593  1.00  0.00    -0.352 N 
ATOM     13  H   UNL     1     -22.100 -17.504 -14.971  1.00  0.00     0.163 HD
BRANCH  12  14
ATOM     14  C   UNL     1     -23.015 -15.644 -14.361  1.00  0.00     0.151 C 
BRANCH  14  15
ATOM     15  C   UNL     1     -22.346 -15.308 -13.057  1.00  0.00    -0.025 A 
ATOM     16  C   UNL     1     -20.948 -15.210 -12.990  1.00  0.00     0.056 A 
ATOM     17  C   UNL     1     -23.109 -15.076 -11.903  1.00  0.00     0.009 A 
ATOM     18  C   UNL     1     -20.308 -14.901 -11.771  1.00  0.00     0.160 A 
ATOM     19  C   UNL     1     -22.482 -14.768 -10.694  1.00  0.00     0.050 A 
ATOM     20  C   UNL     1     -21.088 -14.682 -10.621  1.00  0.00     0.157 A 
BRANCH  18  21
ATOM     21  O   UNL     1     -18.910 -14.806 -11.669  1.00  0.00    -0.493 OA
ATOM     22  C   UNL     1     -18.012 -14.925 -12.768  1.00  0.00     0.278 C 
ENDBRANCH  18  21
BRANCH  20  23
ATOM     23  O   UNL     1     -20.496 -14.381  -9.393  1.00  0.00    -0.504 OA
ATOM     24  H   UNL     1     -20.462 -15.049  -8.632  1.00  0.00     0.293 HD
ENDBRANCH  20  23
ENDBRANCH  14  15
ENDBRANCH  12  14
ENDBRANCH   9  10
ENDBRANCH   1   9
TORSDOF 10
ENDMDL
MODEL 3
REMARK VINA RESULT:    -7.617      2.419      8.008
REMARK INTER + INTRA:         -12.870
REMARK INTER:                 -12.024
REMARK INTRA:                  -0.847
REMARK UNBOUND:                -1.024
REMARK SMILES COc1cc(CNC(=O)CCCCC=CC(C)C)ccc1O
REMARK SMILES IDX 11 1 12 2 13 3 14 4 15 5 16 6 17 7 18 8 10 9 8 10 9 11 7 12
REMARK SMILES IDX 6 14 5 15 4 16 19 17 3 18 20 19 21 20 2 21 1 22 22 23
REMARK H PARENT 7 13 22 24
REMARK Flexibility Score: inf
ROOT
ATOM      1  C   UNL     1     -21.321 -13.960 -13.498  1.00  0.00     0.010 C 
ENDROOT
BRANCH   1   2
ATOM      2  C   UNL     1     -19.867 -13.698 -13.085  1.00  0.00     0.005 C 
BRANCH   2   3
ATOM      3  C   UNL     1     -19.770 -13.303 -11.607  1.00  0.00     0.027 C 
BRANCH   3   4
ATOM      4  C   UNL     1     -20.072 -14.483 -10.721  1.00  0.00    -0.031 C 
ATOM      5  C   UNL     1     -20.714 -14.414  -9.540  1.00  0.00    -0.028 C 
BRANCH   5   6
ATOM      6  C   UNL     1     -21.135 -13.130  -8.857  1.00  0.00     0.005 C 
ATOM      7  C   UNL     1     -22.639 -12.911  -9.042  1.00  0.00     0.012 C 
ATOM      8  C   UNL     1     -20.784 -13.196  -7.370  1.00  0.00     0.012 C 
ENDBRANCH   5   6
ENDBRANCH   3   4
ENDBRANCH   2   3
ENDBRANCH   1   2
BRANCH   1   9
ATOM      9  C   UNL     1     -21.509 -15.426 -13.923  1.00  0.00     0.100 C 
BRANCH   9  10
ATOM     10  C   UNL     1     -22.912 -15.916 -13.691  1.00  0.00     0.220 C 
ATOM     11  O   UNL     1     -23.683 -15.291 -12.911  1.00  0.00    -0.275 OA
ATOM     12  N   UNL     1     -23.402 -17.038 -14.441  1.00  0.00    -0.352 N 
ATOM     13  H   UNL     1     -22.767 -17.511 -15.122  1.00  0.00     0.163 HD
BRANCH  12  14
ATOM     14  C   UNL     1     -24.790 -17.488 -14.365  1.00  0.00     0.151 C 
BRANCH  14  15
ATOM     15  C   UNL     1     -24.888 -18.744 -13.543  1.00  0.00    -0.025 A 
ATOM     16  C   UNL     1     -24.364 -19.948 -14.036  1.00  0.00     0.056 A 
ATOM     17  C   UNL     1     -25.488 -18.721 -12.274  1.00  0.00     0.009 A 
ATOM     18  C   UNL     1     -24.454 -21.134 -13.278  1.00  0.00     0.160 A 
ATOM     19  C   UNL     1     -25.578 -19.892 -11.518  1.00  0.00     0.050 A 
ATOM     20  C   UNL     1     -25.068 -21.097 -12.012  1.00  0.00     0.157 A 
BRANCH  18  21
ATOM     21  O   UNL     1     -23.948 -22.358 -13.748  1.00  0.00    -0.493 OA
ATOM     22  C   UNL     1     -22.640 -22.849 -13.472  1.00  0.00     0.278 C 
ENDBRANCH  18  21
BRANCH  20  23
ATOM     23  O   UNL     1     -25.185 -22.247 -11.231  1.00  0.00    -0.504 OA
ATOM     24  H   UNL     1     -24.908 -22.268 -10.257  1.00  0.00     0.293 HD
ENDBRANCH  20  23
ENDBRANCH  14  15
ENDBRANCH  12  14
ENDBRANCH   9  10
ENDBRANCH   1   9
TORSDOF 10
ENDMDL
MODEL 4
REMARK VINA RESULT:    -7.569      2.470      7.759
REMARK INTER + INTRA:         -12.796
REMARK INTER:                 -11.673
REMARK INTRA:                  -1.123
REMARK UNBOUND:                -1.024
REMARK SMILES COc1cc(CNC(=O)CCCCC=CC(C)C)ccc1O
REMARK SMILES IDX 11 1 12 2 13 3 14 4 15 5 16 6 17 7 18 8 10 9 8 10 9 11 7 12
REMARK SMILES IDX 6 14 5 15 4 16 19 17 3 18 20 19 21 20 2 21 1 22 22 23
REMARK H PARENT 7 13 22 24
REMARK Flexibility Score: inf
ROOT
ATOM      1  C   UNL     1     -23.489 -14.216 -13.142  1.00  0.00     0.010 C 
ENDROOT
BRANCH   1   2
ATOM      2  C   UNL     1     -23.036 -13.967 -11.698  1.00  0.00     0.005 C 
BRANCH   2   3
ATOM      3  C   UNL     1     -22.134 -15.100 -11.195  1.00  0.00     0.027 C 
BRANCH   3   4
ATOM      4  C   UNL     1     -20.947 -14.543 -10.452  1.00  0.00    -0.031 C 
ATOM      5  C   UNL     1     -19.737 -14.313 -10.997  1.00  0.00    -0.028 C 
BRANCH   5   6
ATOM      6  C   UNL     1     -19.340 -14.681 -12.411  1.00  0.00     0.005 C 
ATOM      7  C   UNL     1     -19.682 -13.531 -13.363  1.00  0.00     0.012 C 
ATOM      8  C   UNL     1     -17.844 -14.992 -12.463  1.00  0.00     0.012 C 
ENDBRANCH   5   6
ENDBRANCH   3   4
ENDBRANCH   2   3
ENDBRANCH   1   2
BRANCH   1   9
ATOM      9  C   UNL     1     -23.004 -15.589 -13.634  1.00  0.00     0.100 C 
BRANCH   9  10
ATOM     10  C   UNL     1     -24.141 -16.505 -13.997  1.00  0.00     0.220 C 
ATOM     11  O   UNL     1     -24.644 -16.467 -15.155  1.00  0.00    -0.275 OA
ATOM     12  N   UNL     1     -24.582 -17.494 -13.054  1.00  0.00    -0.352 N 
ATOM     13  H   UNL     1     -24.119 -17.547 -12.119  1.00  0.00     0.163 HD
BRANCH  12  14
ATOM     14  C   UNL     1     -25.590 -18.500 -13.383  1.00  0.00     0.151 C 
BRANCH  14  15
ATOM     15  C   UNL     1     -25.164 -19.851 -12.876  1.00  0.00    -0.025 A 
ATOM     16  C   UNL     1     -24.644 -20.802 -13.767  1.00  0.00     0.056 A 
ATOM     17  C   UNL     1     -25.268 -20.167 -11.514  1.00  0.00     0.009 A 
ATOM     18  C   UNL     1     -24.247 -22.075 -13.306  1.00  0.00     0.160 A 
ATOM     19  C   UNL     1     -24.874 -21.424 -11.051  1.00  0.00     0.050 A 
ATOM     20  C   UNL     1     -24.368 -22.380 -11.938  1.00  0.00     0.157 A 
BRANCH  18  21
ATOM     21  O   UNL     1     -23.732 -23.052 -14.174  1.00  0.00    -0.493 OA
ATOM     22  C   UNL     1     -24.447 -23.612 -15.272  1.00  0.00     0.278 C 
ENDBRANCH  18  21
BRANCH  20  23
ATOM     23  O   UNL     1     -23.993 -23.628 -11.440  1.00  0.00    -0.504 OA
ATOM     24  H   UNL     1     -23.026 -23.931 -11.415  1.00  0.00     0.293 HD
ENDBRANCH  20  23
ENDBRANCH  14  15
ENDBRANCH  12  14
ENDBRANCH   9  10
ENDBRANCH   1   9
TORSDOF 10
ENDMDL
MODEL 5
REMARK VINA RESULT:    -7.410      2.888      7.872
REMARK INTER + INTRA:         -12.549
REMARK INTER:                 -11.594
REMARK INTRA:                  -0.954
REMARK UNBOUND:                -1.024
REMARK SMILES COc1cc(CNC(=O)CCCCC=CC(C)C)ccc1O
REMARK SMILES IDX 11 1 12 2 13 3 14 4 15 5 16 6 17 7 18 8 10 9 8 10 9 11 7 12
REMARK SMILES IDX 6 14 5 15 4 16 19 17 3 18 20 19 21 20 2 21 1 22 22 23
REMARK H PARENT 7 13 22 24
REMARK Flexibility Score: inf
ROOT
ATOM      1  C   UNL     1     -23.464 -15.856 -12.948  1.00  0.00     0.010 C 
ENDROOT
BRANCH   1   2
ATOM      2  C   UNL     1     -23.182 -14.481 -13.566  1.00  0.00     0.005 C 
BRANCH   2   3
ATOM      3  C   UNL     1     -21.944 -14.521 -14.470  1.00  0.00     0.027 C 
BRANCH   3   4
ATOM      4  C   UNL     1     -21.011 -13.384 -14.143  1.00  0.00    -0.031 C 
ATOM      5  C   UNL     1     -19.944 -13.475 -13.327  1.00  0.00    -0.028 C 
BRANCH   5   6
ATOM      6  C   UNL     1     -19.574 -14.701 -12.519  1.00  0.00     0.005 C 
ATOM      7  C   UNL     1     -18.052 -14.867 -12.493  1.00  0.00     0.012 C 
ATOM      8  C   UNL     1     -20.121 -14.567 -11.097  1.00  0.00     0.012 C 
ENDBRANCH   5   6
ENDBRANCH   3   4
ENDBRANCH   2   3
ENDBRANCH   1   2
BRANCH   1   9
ATOM      9  C   UNL     1     -23.820 -16.880 -14.038  1.00  0.00     0.100 C 
BRANCH   9  10
ATOM     10  C   UNL     1     -24.958 -17.778 -13.634  1.00  0.00     0.220 C 
ATOM     11  O   UNL     1     -25.791 -18.175 -14.496  1.00  0.00    -0.275 OA
ATOM     12  N   UNL     1     -25.030 -18.265 -12.286  1.00  0.00    -0.352 N 
ATOM     13  H   UNL     1     -24.302 -17.969 -11.598  1.00  0.00     0.163 HD
BRANCH  12  14
ATOM     14  C   UNL     1     -26.029 -19.241 -11.855  1.00  0.00     0.151 C 
BRANCH  14  15
ATOM     15  C   UNL     1     -25.357 -20.493 -11.361  1.00  0.00    -0.025 A 
ATOM     16  C   UNL     1     -24.521 -21.225 -12.218  1.00  0.00     0.056 A 
ATOM     17  C   UNL     1     -25.546 -20.932 -10.042  1.00  0.00     0.009 A 
ATOM     18  C   UNL     1     -23.890 -22.404 -11.770  1.00  0.00     0.160 A 
ATOM     19  C   UNL     1     -24.921 -22.097  -9.592  1.00  0.00     0.050 A 
ATOM     20  C   UNL     1     -24.098 -22.836 -10.447  1.00  0.00     0.157 A 
BRANCH  18  21
ATOM     21  O   UNL     1     -23.056 -23.165 -12.607  1.00  0.00    -0.493 OA
ATOM     22  C   UNL     1     -23.472 -23.767 -13.828  1.00  0.00     0.278 C 
ENDBRANCH  18  21
BRANCH  20  23
ATOM     23  O   UNL     1     -23.499 -24.000  -9.964  1.00  0.00    -0.504 OA
ATOM     24  H   UNL     1     -22.692 -24.418 -10.413  1.00  0.00     0.293 HD
ENDBRANCH  20  23
ENDBRANCH  14  15
ENDBRANCH  12  14
ENDBRANCH   9  10
ENDBRANCH   1   9
TORSDOF 10
ENDMDL
MODEL 6
REMARK VINA RESULT:    -7.408      2.587      7.786
REMARK INTER + INTRA:         -12.545
REMARK INTER:                 -11.374
REMARK INTRA:                  -1.171
REMARK UNBOUND:                -1.024
REMARK SMILES COc1cc(CNC(=O)CCCCC=CC(C)C)ccc1O
REMARK SMILES IDX 11 1 12 2 13 3 14 4 15 5 16 6 17 7 18 8 10 9 8 10 9 11 7 12
REMARK SMILES IDX 6 14 5 15 4 16 19 17 3 18 20 19 21 20 2 21 1 22 22 23
REMARK H PARENT 7 13 22 24
REMARK Flexibility Score: inf
ROOT
ATOM      1  C   UNL     1     -23.412 -14.156 -13.086  1.00  0.00     0.010 C 
ENDROOT
BRANCH   1   2
ATOM      2  C   UNL     1     -23.105 -14.073 -11.586  1.00  0.00     0.005 C 
BRANCH   2   3
ATOM      3  C   UNL     1     -22.103 -15.152 -11.161  1.00  0.00     0.027 C 
BRANCH   3   4
ATOM      4  C   UNL     1     -20.920 -14.534 -10.463  1.00  0.00    -0.031 C 
ATOM      5  C   UNL     1     -19.731 -14.279 -11.041  1.00  0.00    -0.028 C 
BRANCH   5   6
ATOM      6  C   UNL     1     -19.354 -14.674 -12.454  1.00  0.00     0.005 C 
ATOM      7  C   UNL     1     -19.682 -13.532 -13.419  1.00  0.00     0.012 C 
ATOM      8  C   UNL     1     -17.863 -15.013 -12.514  1.00  0.00     0.012 C 
ENDBRANCH   5   6
ENDBRANCH   3   4
ENDBRANCH   2   3
ENDBRANCH   1   2
BRANCH   1   9
ATOM      9  C   UNL     1     -22.923 -15.493 -13.667  1.00  0.00     0.100 C 
BRANCH   9  10
ATOM     10  C   UNL     1     -24.057 -16.426 -13.995  1.00  0.00     0.220 C 
ATOM     11  O   UNL     1     -24.629 -16.360 -15.120  1.00  0.00    -0.275 OA
ATOM     12  N   UNL     1     -24.417 -17.457 -13.065  1.00  0.00    -0.352 N 
ATOM     13  H   UNL     1     -23.898 -17.531 -12.161  1.00  0.00     0.163 HD
BRANCH  12  14
ATOM     14  C   UNL     1     -25.417 -18.478 -13.370  1.00  0.00     0.151 C 
BRANCH  14  15
ATOM     15  C   UNL     1     -25.007 -19.803 -12.787  1.00  0.00    -0.025 A 
ATOM     16  C   UNL     1     -25.357 -20.127 -11.468  1.00  0.00     0.056 A 
ATOM     17  C   UNL     1     -24.289 -20.729 -13.557  1.00  0.00     0.009 A 
ATOM     18  C   UNL     1     -24.974 -21.364 -10.907  1.00  0.00     0.160 A 
ATOM     19  C   UNL     1     -23.909 -21.956 -13.009  1.00  0.00     0.050 A 
ATOM     20  C   UNL     1     -24.244 -22.277 -11.689  1.00  0.00     0.157 A 
BRANCH  18  21
ATOM     21  O   UNL     1     -25.299 -21.713  -9.585  1.00  0.00    -0.493 OA
ATOM     22  C   UNL     1     -26.584 -22.158  -9.163  1.00  0.00     0.278 C 
ENDBRANCH  18  21
BRANCH  20  23
ATOM     23  O   UNL     1     -23.839 -23.509 -11.173  1.00  0.00    -0.504 OA
ATOM     24  H   UNL     1     -24.320 -24.372 -11.396  1.00  0.00     0.293 HD
ENDBRANCH  20  23
ENDBRANCH  14  15
ENDBRANCH  12  14
ENDBRANCH   9  10
ENDBRANCH   1   9
TORSDOF 10
ENDMDL
MODEL 7
REMARK VINA RESULT:    -7.385      1.675      3.142
REMARK INTER + INTRA:         -12.511
REMARK INTER:                 -11.800
REMARK INTRA:                  -0.711
REMARK UNBOUND:                -1.024
REMARK SMILES COc1cc(CNC(=O)CCCCC=CC(C)C)ccc1O
REMARK SMILES IDX 11 1 12 2 13 3 14 4 15 5 16 6 17 7 18 8 10 9 8 10 9 11 7 12
REMARK SMILES IDX 6 14 5 15 4 16 19 17 3 18 20 19 21 20 2 21 1 22 22 23
REMARK H PARENT 7 13 22 24
REMARK Flexibility Score: inf
ROOT
ATOM      1  C   UNL     1     -25.176 -19.395 -12.929  1.00  0.00     0.010 C 
ENDROOT
BRANCH   1   2
ATOM      2  C   UNL     1     -24.596 -20.797 -13.147  1.00  0.00     0.005 C 
BRANCH   2   3
ATOM      3  C   UNL     1     -24.375 -21.523 -11.815  1.00  0.00     0.027 C 
BRANCH   3   4
ATOM      4  C   UNL     1     -25.173 -20.869 -10.716  1.00  0.00    -0.031 C 
ATOM      5  C   UNL     1     -25.518 -21.463  -9.558  1.00  0.00    -0.028 C 
BRANCH   5   6
ATOM      6  C   UNL     1     -25.258 -22.916  -9.219  1.00  0.00     0.005 C 
ATOM      7  C   UNL     1     -23.934 -23.044  -8.461  1.00  0.00     0.012 C 
ATOM      8  C   UNL     1     -26.411 -23.464  -8.377  1.00  0.00     0.012 C 
ENDBRANCH   5   6
ENDBRANCH   3   4
ENDBRANCH   2   3
ENDBRANCH   1   2
BRANCH   1   9
ATOM      9  C   UNL     1     -25.426 -18.695 -14.275  1.00  0.00     0.100 C 
BRANCH   9  10
ATOM     10  C   UNL     1     -25.070 -17.233 -14.238  1.00  0.00     0.220 C 
ATOM     11  O   UNL     1     -25.623 -16.424 -15.035  1.00  0.00    -0.275 OA
ATOM     12  N   UNL     1     -24.178 -16.748 -13.224  1.00  0.00    -0.352 N 
ATOM     13  H   UNL     1     -23.770 -17.424 -12.539  1.00  0.00     0.163 HD
BRANCH  12  14
ATOM     14  C   UNL     1     -23.889 -15.327 -13.046  1.00  0.00     0.151 C 
BRANCH  14  15
ATOM     15  C   UNL     1     -22.461 -15.134 -12.612  1.00  0.00    -0.025 A 
ATOM     16  C   UNL     1     -22.167 -14.871 -11.266  1.00  0.00     0.056 A 
ATOM     17  C   UNL     1     -21.414 -15.229 -13.541  1.00  0.00     0.009 A 
ATOM     18  C   UNL     1     -20.833 -14.683 -10.846  1.00  0.00     0.160 A 
ATOM     19  C   UNL     1     -20.092 -15.045 -13.131  1.00  0.00     0.050 A 
ATOM     20  C   UNL     1     -19.796 -14.770 -11.792  1.00  0.00     0.157 A 
BRANCH  18  21
ATOM     21  O   UNL     1     -20.507 -14.408  -9.507  1.00  0.00    -0.493 OA
ATOM     22  C   UNL     1     -20.931 -13.250  -8.795  1.00  0.00     0.278 C 
ENDBRANCH  18  21
BRANCH  20  23
ATOM     23  O   UNL     1     -18.463 -14.584 -11.423  1.00  0.00    -0.504 OA
ATOM     24  H   UNL     1     -18.154 -14.659 -10.461  1.00  0.00     0.293 HD
ENDBRANCH  20  23
ENDBRANCH  14  15
ENDBRANCH  12  14
ENDBRANCH   9  10
ENDBRANCH   1   9
TORSDOF 10
ENDMDL
MODEL 8
REMARK VINA RESULT:    -7.377      2.814      7.952
REMARK INTER + INTRA:         -12.499
REMARK INTER:                 -11.686
REMARK INTRA:                  -0.813
REMARK UNBOUND:                -1.024
REMARK SMILES COc1cc(CNC(=O)CCCCC=CC(C)C)ccc1O
REMARK SMILES IDX 11 1 12 2 13 3 14 4 15 5 16 6 17 7 18 8 10 9 8 10 9 11 7 12
REMARK SMILES IDX 6 14 5 15 4 16 19 17 3 18 20 19 21 20 2 21 1 22 22 23
REMARK H PARENT 7 13 22 24
REMARK Flexibility Score: inf
ROOT
ATOM      1  C   UNL     1     -23.857 -15.893 -12.988  1.00  0.00     0.010 C 
ENDROOT
BRANCH   1   2
ATOM      2  C   UNL     1     -22.824 -14.767 -12.862  1.00  0.00     0.005 C 
BRANCH   2   3
ATOM      3  C   UNL     1     -21.860 -14.760 -14.054  1.00  0.00     0.027 C 
BRANCH   3   4
ATOM      4  C   UNL     1     -20.902 -13.601 -13.956  1.00  0.00    -0.031 C 
ATOM      5  C   UNL     1     -19.746 -13.614 -13.267  1.00  0.00    -0.028 C 
BRANCH   5   6
ATOM      6  C   UNL     1     -19.275 -14.754 -12.387  1.00  0.00     0.005 C 
ATOM      7  C   UNL     1     -17.761 -14.925 -12.525  1.00  0.00     0.012 C 
ATOM      8  C   UNL     1     -19.651 -14.472 -10.932  1.00  0.00     0.012 C 
ENDBRANCH   5   6
ENDBRANCH   3   4
ENDBRANCH   2   3
ENDBRANCH   1   2
BRANCH   1   9
ATOM      9  C   UNL     1     -23.618 -16.710 -14.269  1.00  0.00     0.100 C 
BRANCH   9  10
ATOM     10  C   UNL     1     -24.445 -17.966 -14.313  1.00  0.00     0.220 C 
ATOM     11  O   UNL     1     -25.706 -17.895 -14.345  1.00  0.00    -0.275 OA
ATOM     12  N   UNL     1     -23.793 -19.239 -14.424  1.00  0.00    -0.352 N 
ATOM     13  H   UNL     1     -22.749 -19.276 -14.449  1.00  0.00     0.163 HD
BRANCH  12  14
ATOM     14  C   UNL     1     -24.531 -20.488 -14.602  1.00  0.00     0.151 C 
BRANCH  14  15
ATOM     15  C   UNL     1     -24.300 -21.403 -13.431  1.00  0.00    -0.025 A 
ATOM     16  C   UNL     1     -24.821 -21.074 -12.171  1.00  0.00     0.056 A 
ATOM     17  C   UNL     1     -23.581 -22.597 -13.590  1.00  0.00     0.009 A 
ATOM     18  C   UNL     1     -24.607 -21.921 -11.063  1.00  0.00     0.160 A 
ATOM     19  C   UNL     1     -23.368 -23.441 -12.497  1.00  0.00     0.050 A 
ATOM     20  C   UNL     1     -23.874 -23.109 -11.236  1.00  0.00     0.157 A 
BRANCH  18  21
ATOM     21  O   UNL     1     -25.106 -21.614  -9.785  1.00  0.00    -0.493 OA
ATOM     22  C   UNL     1     -26.118 -20.646  -9.527  1.00  0.00     0.278 C 
ENDBRANCH  18  21
BRANCH  20  23
ATOM     23  O   UNL     1     -23.633 -23.973 -10.166  1.00  0.00    -0.504 OA
ATOM     24  H   UNL     1     -23.933 -23.758  -9.223  1.00  0.00     0.293 HD
ENDBRANCH  20  23
ENDBRANCH  14  15
ENDBRANCH  12  14
ENDBRANCH   9  10
ENDBRANCH   1   9
TORSDOF 10
ENDMDL
MODEL 9
REMARK VINA RESULT:    -7.262      2.881      8.037
REMARK INTER + INTRA:         -12.320
REMARK INTER:                 -11.397
REMARK INTRA:                  -0.922
REMARK UNBOUND:                -1.024
REMARK SMILES COc1cc(CNC(=O)CCCCC=CC(C)C)ccc1O
REMARK SMILES IDX 11 1 12 2 13 3 14 4 15 5 16 6 17 7 18 8 10 9 8 10 9 11 7 12
REMARK SMILES IDX 6 14 5 15 4 16 19 17 3 18 20 19 21 20 2 21 1 22 22 23
REMARK H PARENT 7 13 22 24
REMARK Flexibility Score: inf
ROOT
ATOM      1  C   UNL     1     -23.636 -15.873 -12.990  1.00  0.00     0.010 C 
ENDROOT
BRANCH   1   2
ATOM      2  C   UNL     1     -23.246 -14.408 -13.219  1.00  0.00     0.005 C 
BRANCH   2   3
ATOM      3  C   UNL     1     -21.780 -14.156 -12.845  1.00  0.00     0.027 C 
BRANCH   3   4
ATOM      4  C   UNL     1     -21.358 -15.059 -11.715  1.00  0.00    -0.031 C 
ATOM      5  C   UNL     1     -21.397 -14.729 -10.411  1.00  0.00    -0.028 C 
BRANCH   5   6
ATOM      6  C   UNL     1     -21.763 -13.360  -9.875  1.00  0.00     0.005 C 
ATOM      7  C   UNL     1     -23.266 -13.299  -9.589  1.00  0.00     0.012 C 
ATOM      8  C   UNL     1     -20.965 -13.074  -8.602  1.00  0.00     0.012 C 
ENDBRANCH   5   6
ENDBRANCH   3   4
ENDBRANCH   2   3
ENDBRANCH   1   2
BRANCH   1   9
ATOM      9  C   UNL     1     -23.494 -16.682 -14.290  1.00  0.00     0.100 C 
BRANCH   9  10
ATOM     10  C   UNL     1     -24.370 -17.906 -14.304  1.00  0.00     0.220 C 
ATOM     11  O   UNL     1     -25.627 -17.787 -14.331  1.00  0.00    -0.275 OA
ATOM     12  N   UNL     1     -23.768 -19.205 -14.391  1.00  0.00    -0.352 N 
ATOM     13  H   UNL     1     -22.727 -19.283 -14.421  1.00  0.00     0.163 HD
BRANCH  12  14
ATOM     14  C   UNL     1     -24.555 -20.428 -14.540  1.00  0.00     0.151 C 
BRANCH  14  15
ATOM     15  C   UNL     1     -24.331 -21.340 -13.365  1.00  0.00    -0.025 A 
ATOM     16  C   UNL     1     -24.878 -21.018 -12.113  1.00  0.00     0.056 A 
ATOM     17  C   UNL     1     -23.592 -22.523 -13.511  1.00  0.00     0.009 A 
ATOM     18  C   UNL     1     -24.671 -21.862 -11.002  1.00  0.00     0.160 A 
ATOM     19  C   UNL     1     -23.386 -23.364 -12.415  1.00  0.00     0.050 A 
ATOM     20  C   UNL     1     -23.917 -23.040 -11.162  1.00  0.00     0.157 A 
BRANCH  18  21
ATOM     21  O   UNL     1     -25.195 -21.562  -9.733  1.00  0.00    -0.493 OA
ATOM     22  C   UNL     1     -26.167 -20.552  -9.481  1.00  0.00     0.278 C 
ENDBRANCH  18  21
BRANCH  20  23
ATOM     23  O   UNL     1     -23.683 -23.900 -10.089  1.00  0.00    -0.504 OA
ATOM     24  H   UNL     1     -24.189 -23.822  -9.215  1.00  0.00     0.293 HD
ENDBRANCH  20  23
ENDBRANCH  14  15
ENDBRANCH  12  14
ENDBRANCH   9  10
ENDBRANCH   1   9
TORSDOF 10
ENDMDL
