MODEL 1
REMARK VINA RESULT:    -5.669      0.000      0.000
REMARK INTER + INTRA:          -9.017
REMARK INTER:                  -8.652
REMARK INTRA:                  -0.365
REMARK UNBOUND:                -0.365
REMARK SMILES O=C([O-])CCCCCCCCC(=O)[O-]
REMARK SMILES IDX 7 1 6 2 5 3 4 4 2 5 1 6 3 7 8 8 9 9 10 10 11 11 12 12 13 13
REMARK SMILES IDX 14 14
REMARK H PARENT
REMARK Flexibility Score: inf
ROOT
ATOM      1  C   UNL     1      -5.815 -31.303 -50.356  1.00  0.00     0.000 C 
ENDROOT
BRANCH   1   2
ATOM      2  C   UNL     1      -7.249 -31.201 -49.799  1.00  0.00     0.000 C 
BRANCH   2   3
ATOM      3  C   UNL     1      -7.570 -29.886 -49.061  1.00  0.00     0.006 C 
BRANCH   3   4
ATOM      4  C   UNL     1      -6.343 -29.007 -48.770  1.00  0.00     0.053 C 
BRANCH   4   5
ATOM      5  C   UNL     1      -6.314 -27.782 -49.632  1.00  0.00     0.041 C 
ATOM      6  O   UNL     1      -6.710 -26.677 -49.177  1.00  0.00    -0.550 OA
ATOM      7  O   UNL     1      -5.880 -27.868 -50.948  1.00  0.00    -0.550 OA
ENDBRANCH   4   5
ENDBRANCH   3   4
ENDBRANCH   2   3
ENDBRANCH   1   2
BRANCH   1   8
ATOM      8  C   UNL     1      -5.663 -32.173 -51.620  1.00  0.00     0.000 C 
BRANCH   8   9
ATOM      9  C   UNL     1      -4.725 -31.596 -52.695  1.00  0.00     0.000 C 
BRANCH   9  10
ATOM     10  C   UNL     1      -3.315 -32.204 -52.647  1.00  0.00     0.006 C 
BRANCH  10  11
ATOM     11  C   UNL     1      -3.204 -33.240 -51.524  1.00  0.00     0.053 C 
BRANCH  11  12
ATOM     12  C   UNL     1      -1.942 -33.037 -50.748  1.00  0.00     0.041 C 
ATOM     13  O   UNL     1      -1.596 -33.873 -49.871  1.00  0.00    -0.550 OA
ATOM     14  O   UNL     1      -1.121 -31.952 -51.025  1.00  0.00    -0.550 OA
ENDBRANCH  11  12
ENDBRANCH  10  11
ENDBRANCH   9  10
ENDBRANCH   8   9
ENDBRANCH   1   8
TORSDOF 9
ENDMDL
MODEL 2
REMARK VINA RESULT:    -5.558      0.679      6.136
REMARK INTER + INTRA:          -8.847
REMARK INTER:                  -8.464
REMARK INTRA:                  -0.383
REMARK UNBOUND:                -0.365
REMARK SMILES O=C([O-])CCCCCCCCC(=O)[O-]
REMARK SMILES IDX 7 1 6 2 5 3 4 4 2 5 1 6 3 7 8 8 9 9 10 10 11 11 12 12 13 13
REMARK SMILES IDX 14 14
REMARK H PARENT
REMARK Flexibility Score: inf
ROOT
ATOM      1  C   UNL     1      -5.040 -32.037 -50.810  1.00  0.00     0.000 C 
ENDROOT
BRANCH   1   2
ATOM      2  C   UNL     1      -4.711 -32.375 -52.278  1.00  0.00     0.000 C 
BRANCH   2   3
ATOM      3  C   UNL     1      -3.282 -32.012 -52.726  1.00  0.00     0.006 C 
BRANCH   3   4
ATOM      4  C   UNL     1      -2.246 -33.126 -52.504  1.00  0.00     0.053 C 
BRANCH   4   5
ATOM      5  C   UNL     1      -1.522 -32.966 -51.202  1.00  0.00     0.041 C 
ATOM      6  O   UNL     1      -0.656 -32.063 -51.065  1.00  0.00    -0.550 OA
ATOM      7  O   UNL     1      -1.782 -33.835 -50.150  1.00  0.00    -0.550 OA
ENDBRANCH   4   5
ENDBRANCH   3   4
ENDBRANCH   2   3
ENDBRANCH   1   2
BRANCH   1   8
ATOM      8  C   UNL     1      -6.435 -31.425 -50.575  1.00  0.00     0.000 C 
BRANCH   8   9
ATOM      9  C   UNL     1      -6.789 -31.164 -49.099  1.00  0.00     0.000 C 
BRANCH   9  10
ATOM     10  C   UNL     1      -7.436 -29.790 -48.874  1.00  0.00     0.006 C 
BRANCH  10  11
ATOM     11  C   UNL     1      -6.375 -28.726 -48.578  1.00  0.00     0.053 C 
BRANCH  11  12
ATOM     12  C   UNL     1      -6.196 -27.822 -49.757  1.00  0.00     0.041 C 
ATOM     13  O   UNL     1      -5.583 -28.228 -50.779  1.00  0.00    -0.550 OA
ATOM     14  O   UNL     1      -6.750 -26.549 -49.747  1.00  0.00    -0.550 OA
ENDBRANCH  11  12
ENDBRANCH  10  11
ENDBRANCH   9  10
ENDBRANCH   8   9
ENDBRANCH   1   8
TORSDOF 9
ENDMDL
MODEL 3
REMARK VINA RESULT:    -5.547      2.426      3.864
REMARK INTER + INTRA:          -8.830
REMARK INTER:                  -8.052
REMARK INTRA:                  -0.779
REMARK UNBOUND:                -0.365
REMARK SMILES O=C([O-])CCCCCCCCC(=O)[O-]
REMARK SMILES IDX 7 1 6 2 5 3 4 4 2 5 1 6 3 7 8 8 9 9 10 10 11 11 12 12 13 13
REMARK SMILES IDX 14 14
REMARK H PARENT
REMARK Flexibility Score: inf
ROOT
ATOM      1  C   UNL     1      -5.955 -28.798 -49.983  1.00  0.00     0.000 C 
ENDROOT
BRANCH   1   2
ATOM      2  C   UNL     1      -6.341 -27.558 -50.814  1.00  0.00     0.000 C 
BRANCH   2   3
ATOM      3  C   UNL     1      -5.656 -27.458 -52.191  1.00  0.00     0.006 C 
BRANCH   3   4
ATOM      4  C   UNL     1      -5.229 -28.809 -52.787  1.00  0.00     0.053 C 
BRANCH   4   5
ATOM      5  C   UNL     1      -5.297 -28.809 -54.284  1.00  0.00     0.041 C 
ATOM      6  O   UNL     1      -5.220 -29.891 -54.922  1.00  0.00    -0.550 OA
ATOM      7  O   UNL     1      -5.414 -27.610 -54.975  1.00  0.00    -0.550 OA
ENDBRANCH   4   5
ENDBRANCH   3   4
ENDBRANCH   2   3
ENDBRANCH   1   2
BRANCH   1   8
ATOM      8  C   UNL     1      -7.138 -29.677 -49.530  1.00  0.00     0.000 C 
BRANCH   8   9
ATOM      9  C   UNL     1      -7.029 -31.163 -49.918  1.00  0.00     0.000 C 
BRANCH   9  10
ATOM     10  C   UNL     1      -5.587 -31.597 -50.222  1.00  0.00     0.006 C 
BRANCH  10  11
ATOM     11  C   UNL     1      -5.490 -32.244 -51.607  1.00  0.00     0.053 C 
BRANCH  11  12
ATOM     12  C   UNL     1      -4.067 -32.572 -51.932  1.00  0.00     0.041 C 
ATOM     13  O   UNL     1      -3.404 -33.331 -51.177  1.00  0.00    -0.550 OA
ATOM     14  O   UNL     1      -3.488 -32.081 -53.095  1.00  0.00    -0.550 OA
ENDBRANCH  11  12
ENDBRANCH  10  11
ENDBRANCH   9  10
ENDBRANCH   8   9
ENDBRANCH   1   8
TORSDOF 9
ENDMDL
MODEL 4
REMARK VINA RESULT:    -5.518      1.520      2.566
REMARK INTER + INTRA:          -8.787
REMARK INTER:                  -8.098
REMARK INTRA:                  -0.688
REMARK UNBOUND:                -0.365
REMARK SMILES O=C([O-])CCCCCCCCC(=O)[O-]
REMARK SMILES IDX 7 1 6 2 5 3 4 4 2 5 1 6 3 7 8 8 9 9 10 10 11 11 12 12 13 13
REMARK SMILES IDX 14 14
REMARK H PARENT
REMARK Flexibility Score: inf
ROOT
ATOM      1  C   UNL     1      -5.308 -30.188 -54.029  1.00  0.00     0.000 C 
ENDROOT
BRANCH   1   2
ATOM      2  C   UNL     1      -4.465 -29.132 -53.286  1.00  0.00     0.000 C 
BRANCH   2   3
ATOM      3  C   UNL     1      -5.269 -28.171 -52.387  1.00  0.00     0.006 C 
BRANCH   3   4
ATOM      4  C   UNL     1      -5.336 -28.592 -50.911  1.00  0.00     0.053 C 
BRANCH   4   5
ATOM      5  C   UNL     1      -6.356 -27.802 -50.149  1.00  0.00     0.041 C 
ATOM      6  O   UNL     1      -6.678 -26.647 -50.531  1.00  0.00    -0.550 OA
ATOM      7  O   UNL     1      -6.927 -28.330 -48.998  1.00  0.00    -0.550 OA
ENDBRANCH   4   5
ENDBRANCH   3   4
ENDBRANCH   2   3
ENDBRANCH   1   2
BRANCH   1   8
ATOM      8  C   UNL     1      -5.044 -31.648 -53.612  1.00  0.00     0.000 C 
BRANCH   8   9
ATOM      9  C   UNL     1      -5.423 -31.987 -52.159  1.00  0.00     0.000 C 
BRANCH   9  10
ATOM     10  C   UNL     1      -4.268 -32.628 -51.374  1.00  0.00     0.006 C 
BRANCH  10  11
ATOM     11  C   UNL     1      -2.915 -32.253 -51.986  1.00  0.00     0.053 C 
BRANCH  11  12
ATOM     12  C   UNL     1      -1.825 -32.392 -50.971  1.00  0.00     0.041 C 
ATOM     13  O   UNL     1      -0.886 -31.554 -50.932  1.00  0.00    -0.550 OA
ATOM     14  O   UNL     1      -1.872 -33.417 -50.035  1.00  0.00    -0.550 OA
ENDBRANCH  11  12
ENDBRANCH  10  11
ENDBRANCH   9  10
ENDBRANCH   8   9
ENDBRANCH   1   8
TORSDOF 9
ENDMDL
MODEL 5
REMARK VINA RESULT:    -5.457      2.411      5.449
REMARK INTER + INTRA:          -8.694
REMARK INTER:                  -8.202
REMARK INTRA:                  -0.492
REMARK UNBOUND:                -0.365
REMARK SMILES O=C([O-])CCCCCCCCC(=O)[O-]
REMARK SMILES IDX 7 1 6 2 5 3 4 4 2 5 1 6 3 7 8 8 9 9 10 10 11 11 12 12 13 13
REMARK SMILES IDX 14 14
REMARK H PARENT
REMARK Flexibility Score: inf
ROOT
ATOM      1  C   UNL     1      -5.969 -31.399 -51.089  1.00  0.00     0.000 C 
ENDROOT
BRANCH   1   2
ATOM      2  C   UNL     1      -4.939 -32.345 -51.738  1.00  0.00     0.000 C 
BRANCH   2   3
ATOM      3  C   UNL     1      -4.285 -31.811 -53.027  1.00  0.00     0.006 C 
BRANCH   3   4
ATOM      4  C   UNL     1      -5.256 -31.100 -53.984  1.00  0.00     0.053 C 
BRANCH   4   5
ATOM      5  C   UNL     1      -4.929 -29.646 -54.136  1.00  0.00     0.041 C 
ATOM      6  O   UNL     1      -3.997 -29.133 -53.464  1.00  0.00    -0.550 OA
ATOM      7  O   UNL     1      -5.675 -28.852 -54.996  1.00  0.00    -0.550 OA
ENDBRANCH   4   5
ENDBRANCH   3   4
ENDBRANCH   2   3
ENDBRANCH   1   2
BRANCH   1   8
ATOM      8  C   UNL     1      -6.099 -31.523 -49.558  1.00  0.00     0.000 C 
BRANCH   8   9
ATOM      9  C   UNL     1      -7.496 -31.199 -48.997  1.00  0.00     0.000 C 
BRANCH   9  10
ATOM     10  C   UNL     1      -7.745 -29.691 -48.847  1.00  0.00     0.006 C 
BRANCH  10  11
ATOM     11  C   UNL     1      -6.432 -28.941 -48.600  1.00  0.00     0.053 C 
BRANCH  11  12
ATOM     12  C   UNL     1      -6.292 -27.802 -49.559  1.00  0.00     0.041 C 
ATOM     13  O   UNL     1      -6.761 -26.669 -49.270  1.00  0.00    -0.550 OA
ATOM     14  O   UNL     1      -5.599 -27.976 -50.751  1.00  0.00    -0.550 OA
ENDBRANCH  11  12
ENDBRANCH  10  11
ENDBRANCH   9  10
ENDBRANCH   8   9
ENDBRANCH   1   8
TORSDOF 9
ENDMDL
MODEL 6
REMARK VINA RESULT:    -5.451      1.571      5.846
REMARK INTER + INTRA:          -8.684
REMARK INTER:                  -8.090
REMARK INTRA:                  -0.594
REMARK UNBOUND:                -0.365
REMARK SMILES O=C([O-])CCCCCCCCC(=O)[O-]
REMARK SMILES IDX 7 1 6 2 5 3 4 4 2 5 1 6 3 7 8 8 9 9 10 10 11 11 12 12 13 13
REMARK SMILES IDX 14 14
REMARK H PARENT
REMARK Flexibility Score: inf
ROOT
ATOM      1  C   UNL     1      -5.198 -31.684 -53.508  1.00  0.00     0.000 C 
ENDROOT
BRANCH   1   2
ATOM      2  C   UNL     1      -5.311 -32.126 -52.036  1.00  0.00     0.000 C 
BRANCH   2   3
ATOM      3  C   UNL     1      -4.074 -32.857 -51.478  1.00  0.00     0.006 C 
BRANCH   3   4
ATOM      4  C   UNL     1      -2.757 -32.078 -51.627  1.00  0.00     0.053 C 
BRANCH   4   5
ATOM      5  C   UNL     1      -1.606 -32.797 -50.991  1.00  0.00     0.041 C 
ATOM      6  O   UNL     1      -0.423 -32.499 -51.302  1.00  0.00    -0.550 OA
ATOM      7  O   UNL     1      -1.841 -33.817 -50.079  1.00  0.00    -0.550 OA
ENDBRANCH   4   5
ENDBRANCH   3   4
ENDBRANCH   2   3
ENDBRANCH   1   2
BRANCH   1   8
ATOM      8  C   UNL     1      -5.539 -30.204 -53.777  1.00  0.00     0.000 C 
BRANCH   8   9
ATOM      9  C   UNL     1      -4.425 -29.206 -53.414  1.00  0.00     0.000 C 
BRANCH   9  10
ATOM     10  C   UNL     1      -4.523 -28.700 -51.967  1.00  0.00     0.006 C 
BRANCH  10  11
ATOM     11  C   UNL     1      -5.670 -27.697 -51.814  1.00  0.00     0.053 C 
BRANCH  11  12
ATOM     12  C   UNL     1      -6.174 -27.687 -50.406  1.00  0.00     0.041 C 
ATOM     13  O   UNL     1      -6.025 -28.700 -49.673  1.00  0.00    -0.550 OA
ATOM     14  O   UNL     1      -6.764 -26.542 -49.886  1.00  0.00    -0.550 OA
ENDBRANCH  11  12
ENDBRANCH  10  11
ENDBRANCH   9  10
ENDBRANCH   8   9
ENDBRANCH   1   8
TORSDOF 9
ENDMDL
MODEL 7
REMARK VINA RESULT:    -5.426      2.660      3.469
REMARK INTER + INTRA:          -8.645
REMARK INTER:                  -8.038
REMARK INTRA:                  -0.608
REMARK UNBOUND:                -0.365
REMARK SMILES O=C([O-])CCCCCCCCC(=O)[O-]
REMARK SMILES IDX 7 1 6 2 5 3 4 4 2 5 1 6 3 7 8 8 9 9 10 10 11 11 12 12 13 13
REMARK SMILES IDX 14 14
REMARK H PARENT
REMARK Flexibility Score: inf
ROOT
ATOM      1  C   UNL     1      -5.822 -31.565 -51.221  1.00  0.00     0.000 C 
ENDROOT
BRANCH   1   2
ATOM      2  C   UNL     1      -5.565 -30.046 -51.241  1.00  0.00     0.000 C 
BRANCH   2   3
ATOM      3  C   UNL     1      -4.522 -29.575 -52.275  1.00  0.00     0.006 C 
BRANCH   3   4
ATOM      4  C   UNL     1      -4.979 -28.392 -53.143  1.00  0.00     0.053 C 
BRANCH   4   5
ATOM      5  C   UNL     1      -5.554 -28.845 -54.450  1.00  0.00     0.041 C 
ATOM      6  O   UNL     1      -6.400 -28.131 -55.051  1.00  0.00    -0.550 OA
ATOM      7  O   UNL     1      -5.181 -30.069 -54.988  1.00  0.00    -0.550 OA
ENDBRANCH   4   5
ENDBRANCH   3   4
ENDBRANCH   2   3
ENDBRANCH   1   2
BRANCH   1   8
ATOM      8  C   UNL     1      -4.694 -32.429 -51.819  1.00  0.00     0.000 C 
BRANCH   8   9
ATOM      9  C   UNL     1      -3.692 -32.988 -50.792  1.00  0.00     0.000 C 
BRANCH   9  10
ATOM     10  C   UNL     1      -2.476 -33.660 -51.448  1.00  0.00     0.006 C 
BRANCH  10  11
ATOM     11  C   UNL     1      -2.162 -33.020 -52.804  1.00  0.00     0.053 C 
BRANCH  11  12
ATOM     12  C   UNL     1      -0.855 -32.295 -52.750  1.00  0.00     0.041 C 
ATOM     13  O   UNL     1      -0.156 -32.326 -51.704  1.00  0.00    -0.550 OA
ATOM     14  O   UNL     1      -0.385 -31.624 -53.872  1.00  0.00    -0.550 OA
ENDBRANCH  11  12
ENDBRANCH  10  11
ENDBRANCH   9  10
ENDBRANCH   8   9
ENDBRANCH   1   8
TORSDOF 9
ENDMDL
MODEL 8
REMARK VINA RESULT:    -5.366      1.870      2.830
REMARK INTER + INTRA:          -8.554
REMARK INTER:                  -8.038
REMARK INTRA:                  -0.515
REMARK UNBOUND:                -0.365
REMARK SMILES O=C([O-])CCCCCCCCC(=O)[O-]
REMARK SMILES IDX 7 1 6 2 5 3 4 4 2 5 1 6 3 7 8 8 9 9 10 10 11 11 12 12 13 13
REMARK SMILES IDX 14 14
REMARK H PARENT
REMARK Flexibility Score: inf
ROOT
ATOM      1  C   UNL     1      -4.234 -32.310 -52.062  1.00  0.00     0.000 C 
ENDROOT
BRANCH   1   2
ATOM      2  C   UNL     1      -5.721 -31.979 -51.824  1.00  0.00     0.000 C 
BRANCH   2   3
ATOM      3  C   UNL     1      -5.985 -30.884 -50.771  1.00  0.00     0.006 C 
BRANCH   3   4
ATOM      4  C   UNL     1      -7.055 -31.250 -49.730  1.00  0.00     0.053 C 
BRANCH   4   5
ATOM      5  C   UNL     1      -7.606 -30.038 -49.043  1.00  0.00     0.041 C 
ATOM      6  O   UNL     1      -8.723 -30.091 -48.464  1.00  0.00    -0.550 OA
ATOM      7  O   UNL     1      -6.901 -28.842 -49.070  1.00  0.00    -0.550 OA
ENDBRANCH   4   5
ENDBRANCH   3   4
ENDBRANCH   2   3
ENDBRANCH   1   2
BRANCH   1   8
ATOM      8  C   UNL     1      -3.508 -32.960 -50.867  1.00  0.00     0.000 C 
BRANCH   8   9
ATOM      9  C   UNL     1      -2.157 -33.614 -51.207  1.00  0.00     0.000 C 
BRANCH   9  10
ATOM     10  C   UNL     1      -1.798 -33.505 -52.696  1.00  0.00     0.006 C 
BRANCH  10  11
ATOM     11  C   UNL     1      -0.410 -32.884 -52.882  1.00  0.00     0.053 C 
BRANCH  11  12
ATOM     12  C   UNL     1      -0.345 -31.543 -52.224  1.00  0.00     0.041 C 
ATOM     13  O   UNL     1       0.455 -31.342 -51.271  1.00  0.00    -0.550 OA
ATOM     14  O   UNL     1      -1.130 -30.498 -52.694  1.00  0.00    -0.550 OA
ENDBRANCH  11  12
ENDBRANCH  10  11
ENDBRANCH   9  10
ENDBRANCH   8   9
ENDBRANCH   1   8
TORSDOF 9
ENDMDL
MODEL 9
REMARK VINA RESULT:    -5.364      1.955      2.500
REMARK INTER + INTRA:          -8.552
REMARK INTER:                  -7.685
REMARK INTRA:                  -0.866
REMARK UNBOUND:                -0.365
REMARK SMILES O=C([O-])CCCCCCCCC(=O)[O-]
REMARK SMILES IDX 7 1 6 2 5 3 4 4 2 5 1 6 3 7 8 8 9 9 10 10 11 11 12 12 13 13
REMARK SMILES IDX 14 14
REMARK H PARENT
REMARK Flexibility Score: inf
ROOT
ATOM      1  C   UNL     1      -4.598 -29.580 -51.915  1.00  0.00     0.000 C 
ENDROOT
BRANCH   1   2
ATOM      2  C   UNL     1      -5.321 -28.252 -51.614  1.00  0.00     0.000 C 
BRANCH   2   3
ATOM      3  C   UNL     1      -6.346 -28.315 -50.464  1.00  0.00     0.006 C 
BRANCH   3   4
ATOM      4  C   UNL     1      -6.152 -29.501 -49.505  1.00  0.00     0.053 C 
BRANCH   4   5
ATOM      5  C   UNL     1      -7.424 -30.265 -49.295  1.00  0.00     0.041 C 
ATOM      6  O   UNL     1      -8.367 -29.755 -48.634  1.00  0.00    -0.550 OA
ATOM      7  O   UNL     1      -7.554 -31.552 -49.799  1.00  0.00    -0.550 OA
ENDBRANCH   4   5
ENDBRANCH   3   4
ENDBRANCH   2   3
ENDBRANCH   1   2
BRANCH   1   8
ATOM      8  C   UNL     1      -5.343 -30.528 -52.876  1.00  0.00     0.000 C 
BRANCH   8   9
ATOM      9  C   UNL     1      -5.257 -32.021 -52.511  1.00  0.00     0.000 C 
BRANCH   9  10
ATOM     10  C   UNL     1      -4.373 -32.286 -51.283  1.00  0.00     0.006 C 
BRANCH  10  11
ATOM     11  C   UNL     1      -3.149 -33.125 -51.660  1.00  0.00     0.053 C 
BRANCH  11  12
ATOM     12  C   UNL     1      -1.981 -32.241 -51.963  1.00  0.00     0.041 C 
ATOM     13  O   UNL     1      -1.055 -32.104 -51.120  1.00  0.00    -0.550 OA
ATOM     14  O   UNL     1      -1.888 -31.607 -53.196  1.00  0.00    -0.550 OA
ENDBRANCH  11  12
ENDBRANCH  10  11
ENDBRANCH   9  10
ENDBRANCH   8   9
ENDBRANCH   1   8
TORSDOF 9
ENDMDL
