MODEL 1
REMARK VINA RESULT:    -3.165      0.000      0.000
REMARK INTER + INTRA:          -6.073
REMARK INTER:                  -4.830
REMARK INTRA:                  -1.243
REMARK UNBOUND:                -1.243
REMARK SMILES CCCCCCCCCCC(=O)[O-]
REMARK SMILES IDX 7 1 8 2 9 3 10 4 11 5 12 6 13 7 6 8 5 9 4 10 3 11 2 12 1 13
REMARK H PARENT
REMARK Flexibility Score: inf
ROOT
ATOM      1  C   UNL     1     -95.131 147.951 238.835  1.00  0.00     0.000 C 
ENDROOT
BRANCH   1   2
ATOM      2  C   UNL     1     -96.528 148.553 239.053  1.00  0.00     0.000 C 
BRANCH   2   3
ATOM      3  C   UNL     1     -96.517 150.090 239.069  1.00  0.00     0.006 C 
BRANCH   3   4
ATOM      4  C   UNL     1     -97.933 150.649 238.908  1.00  0.00     0.053 C 
BRANCH   4   5
ATOM      5  C   UNL     1     -98.812 150.180 240.024  1.00  0.00     0.041 C 
ATOM      6  O   UNL     1     -98.525 150.460 241.218  1.00  0.00    -0.550 OA
ATOM      7  O   UNL     1     -99.923 149.392 239.749  1.00  0.00    -0.550 OA
ENDBRANCH   4   5
ENDBRANCH   3   4
ENDBRANCH   2   3
ENDBRANCH   1   2
BRANCH   1   8
ATOM      8  C   UNL     1     -94.281 148.771 237.849  1.00  0.00     0.000 C 
BRANCH   8   9
ATOM      9  C   UNL     1     -93.790 147.936 236.656  1.00  0.00    -0.000 C 
BRANCH   9  10
ATOM     10  C   UNL     1     -94.712 148.049 235.431  1.00  0.00    -0.000 C 
BRANCH  10  11
ATOM     11  C   UNL     1     -95.362 149.435 235.360  1.00  0.00    -0.000 C 
BRANCH  11  12
ATOM     12  C   UNL     1     -96.858 149.327 235.043  1.00  0.00    -0.003 C 
ATOM     13  C   UNL     1     -97.440 148.017 235.563  1.00  0.00     0.004 C 
ENDBRANCH  11  12
ENDBRANCH  10  11
ENDBRANCH   9  10
ENDBRANCH   8   9
ENDBRANCH   1   8
TORSDOF 9
ENDMDL
MODEL 2
REMARK VINA RESULT:    -3.142      1.194      1.749
REMARK INTER + INTRA:          -6.039
REMARK INTER:                  -5.204
REMARK INTRA:                  -0.835
REMARK UNBOUND:                -1.243
REMARK SMILES CCCCCCCCCCC(=O)[O-]
REMARK SMILES IDX 7 1 8 2 9 3 10 4 11 5 12 6 13 7 6 8 5 9 4 10 3 11 2 12 1 13
REMARK H PARENT
REMARK Flexibility Score: inf
ROOT
ATOM      1  C   UNL     1     -95.257 149.529 238.759  1.00  0.00     0.000 C 
ENDROOT
BRANCH   1   2
ATOM      2  C   UNL     1     -96.565 150.273 239.075  1.00  0.00     0.000 C 
BRANCH   2   3
ATOM      3  C   UNL     1     -97.524 149.444 239.945  1.00  0.00     0.006 C 
BRANCH   3   4
ATOM      4  C   UNL     1     -98.703 150.296 240.422  1.00  0.00     0.053 C 
BRANCH   4   5
ATOM      5  C   UNL     1     -98.896 150.144 241.898  1.00  0.00     0.041 C 
ATOM      6  O   UNL     1     -98.862 151.154 242.649  1.00  0.00    -0.550 OA
ATOM      7  O   UNL     1     -99.064 148.880 242.451  1.00  0.00    -0.550 OA
ENDBRANCH   4   5
ENDBRANCH   3   4
ENDBRANCH   2   3
ENDBRANCH   1   2
BRANCH   1   8
ATOM      8  C   UNL     1     -95.414 148.000 238.834  1.00  0.00     0.000 C 
BRANCH   8   9
ATOM      9  C   UNL     1     -94.498 147.263 237.844  1.00  0.00    -0.000 C 
BRANCH   9  10
ATOM     10  C   UNL     1     -93.850 148.207 236.819  1.00  0.00    -0.000 C 
BRANCH  10  11
ATOM     11  C   UNL     1     -94.516 148.067 235.446  1.00  0.00    -0.000 C 
BRANCH  11  12
ATOM     12  C   UNL     1     -95.312 149.328 235.087  1.00  0.00    -0.003 C 
ATOM     13  C   UNL     1     -96.799 149.141 235.369  1.00  0.00     0.004 C 
ENDBRANCH  11  12
ENDBRANCH  10  11
ENDBRANCH   9  10
ENDBRANCH   8   9
ENDBRANCH   1   8
TORSDOF 9
ENDMDL
MODEL 3
REMARK VINA RESULT:    -3.061      1.222      1.428
REMARK INTER + INTRA:          -5.915
REMARK INTER:                  -4.568
REMARK INTRA:                  -1.347
REMARK UNBOUND:                -1.243
REMARK SMILES CCCCCCCCCCC(=O)[O-]
REMARK SMILES IDX 7 1 8 2 9 3 10 4 11 5 12 6 13 7 6 8 5 9 4 10 3 11 2 12 1 13
REMARK H PARENT
REMARK Flexibility Score: inf
ROOT
ATOM      1  C   UNL     1     -95.600 147.907 238.836  1.00  0.00     0.000 C 
ENDROOT
BRANCH   1   2
ATOM      2  C   UNL     1     -96.777 148.679 239.456  1.00  0.00     0.000 C 
BRANCH   2   3
ATOM      3  C   UNL     1     -96.877 150.123 238.939  1.00  0.00     0.006 C 
BRANCH   3   4
ATOM      4  C   UNL     1     -98.261 150.711 239.225  1.00  0.00     0.053 C 
BRANCH   4   5
ATOM      5  C   UNL     1     -99.185 150.463 238.075  1.00  0.00     0.041 C 
ATOM      6  O   UNL     1     -99.306 151.322 237.162  1.00  0.00    -0.550 OA
ATOM      7  O   UNL     1     -99.951 149.304 238.036  1.00  0.00    -0.550 OA
ENDBRANCH   4   5
ENDBRANCH   3   4
ENDBRANCH   2   3
ENDBRANCH   1   2
BRANCH   1   8
ATOM      8  C   UNL     1     -94.486 148.838 238.326  1.00  0.00     0.000 C 
BRANCH   8   9
ATOM      9  C   UNL     1     -93.854 148.339 237.017  1.00  0.00    -0.000 C 
BRANCH   9  10
ATOM     10  C   UNL     1     -94.896 148.063 235.921  1.00  0.00    -0.000 C 
BRANCH  10  11
ATOM     11  C   UNL     1     -95.452 149.372 235.351  1.00  0.00    -0.000 C 
BRANCH  11  12
ATOM     12  C   UNL     1     -96.977 149.307 235.205  1.00  0.00    -0.003 C 
ATOM     13  C   UNL     1     -97.527 147.990 235.742  1.00  0.00     0.004 C 
ENDBRANCH  11  12
ENDBRANCH  10  11
ENDBRANCH   9  10
ENDBRANCH   8   9
ENDBRANCH   1   8
TORSDOF 9
ENDMDL
MODEL 4
REMARK VINA RESULT:    -3.037      2.392      4.433
REMARK INTER + INTRA:          -5.879
REMARK INTER:                  -4.885
REMARK INTRA:                  -0.994
REMARK UNBOUND:                -1.243
REMARK SMILES CCCCCCCCCCC(=O)[O-]
REMARK SMILES IDX 7 1 8 2 9 3 10 4 11 5 12 6 13 7 6 8 5 9 4 10 3 11 2 12 1 13
REMARK H PARENT
REMARK Flexibility Score: inf
ROOT
ATOM      1  C   UNL     1     -94.574 148.845 238.127  1.00  0.00     0.000 C 
ENDROOT
BRANCH   1   2
ATOM      2  C   UNL     1     -93.818 148.068 237.036  1.00  0.00     0.000 C 
BRANCH   2   3
ATOM      3  C   UNL     1     -94.451 148.232 235.645  1.00  0.00     0.006 C 
BRANCH   3   4
ATOM      4  C   UNL     1     -95.356 149.466 235.598  1.00  0.00     0.053 C 
BRANCH   4   5
ATOM      5  C   UNL     1     -96.726 149.094 235.125  1.00  0.00     0.041 C 
ATOM      6  O   UNL     1     -97.333 148.119 235.643  1.00  0.00    -0.550 OA
ATOM      7  O   UNL     1     -97.314 149.793 234.078  1.00  0.00    -0.550 OA
ENDBRANCH   4   5
ENDBRANCH   3   4
ENDBRANCH   2   3
ENDBRANCH   1   2
BRANCH   1   8
ATOM      8  C   UNL     1     -95.503 147.943 238.957  1.00  0.00     0.000 C 
BRANCH   8   9
ATOM      9  C   UNL     1     -96.792 148.662 239.388  1.00  0.00    -0.000 C 
BRANCH   9  10
ATOM     10  C   UNL     1     -96.771 150.164 239.067  1.00  0.00    -0.000 C 
BRANCH  10  11
ATOM     11  C   UNL     1     -98.187 150.750 239.085  1.00  0.00    -0.000 C 
BRANCH  11  12
ATOM     12  C   UNL     1     -99.037 150.171 237.948  1.00  0.00    -0.003 C 
ATOM     13  C   UNL     1     -99.571 151.275 237.041  1.00  0.00     0.004 C 
ENDBRANCH  11  12
ENDBRANCH  10  11
ENDBRANCH   9  10
ENDBRANCH   8   9
ENDBRANCH   1   8
TORSDOF 9
ENDMDL
MODEL 5
REMARK VINA RESULT:    -3.032      2.254      3.963
REMARK INTER + INTRA:          -5.870
REMARK INTER:                  -5.378
REMARK INTRA:                  -0.492
REMARK UNBOUND:                -1.243
REMARK SMILES CCCCCCCCCCC(=O)[O-]
REMARK SMILES IDX 7 1 8 2 9 3 10 4 11 5 12 6 13 7 6 8 5 9 4 10 3 11 2 12 1 13
REMARK H PARENT
REMARK Flexibility Score: inf
ROOT
ATOM      1  C   UNL     1     -98.797 150.463 240.201  1.00  0.00     0.000 C 
ENDROOT
BRANCH   1   2
ATOM      2  C   UNL     1     -98.476 149.419 241.282  1.00  0.00     0.000 C 
BRANCH   2   3
ATOM      3  C   UNL     1     -98.986 149.829 242.673  1.00  0.00     0.006 C 
BRANCH   3   4
ATOM      4  C   UNL     1     -99.780 151.136 242.601  1.00  0.00     0.053 C 
BRANCH   4   5
ATOM      5  C   UNL     1     -99.263 152.119 243.603  1.00  0.00     0.041 C 
ATOM      6  O   UNL     1     -99.831 153.234 243.748  1.00  0.00    -0.550 OA
ATOM      7  O   UNL     1     -98.124 151.826 244.342  1.00  0.00    -0.550 OA
ENDBRANCH   4   5
ENDBRANCH   3   4
ENDBRANCH   2   3
ENDBRANCH   1   2
BRANCH   1   8
ATOM      8  C   UNL     1     -97.718 150.532 239.107  1.00  0.00     0.000 C 
BRANCH   8   9
ATOM      9  C   UNL     1     -96.801 149.298 239.104  1.00  0.00    -0.000 C 
BRANCH   9  10
ATOM     10  C   UNL     1     -95.399 149.601 238.554  1.00  0.00    -0.000 C 
BRANCH  10  11
ATOM     11  C   UNL     1     -94.689 148.313 238.121  1.00  0.00    -0.000 C 
BRANCH  11  12
ATOM     12  C   UNL     1     -94.116 148.449 236.705  1.00  0.00    -0.003 C 
ATOM     13  C   UNL     1     -95.039 149.271 235.812  1.00  0.00     0.004 C 
ENDBRANCH  11  12
ENDBRANCH  10  11
ENDBRANCH   9  10
ENDBRANCH   8   9
ENDBRANCH   1   8
TORSDOF 9
ENDMDL
MODEL 6
REMARK VINA RESULT:    -3.020     13.344     14.403
REMARK INTER + INTRA:          -5.853
REMARK INTER:                  -4.981
REMARK INTRA:                  -0.872
REMARK UNBOUND:                -1.243
REMARK SMILES CCCCCCCCCCC(=O)[O-]
REMARK SMILES IDX 7 1 8 2 9 3 10 4 11 5 12 6 13 7 6 8 5 9 4 10 3 11 2 12 1 13
REMARK H PARENT
REMARK Flexibility Score: inf
ROOT
ATOM      1  C   UNL     1     -91.106 161.977 231.885  1.00  0.00     0.000 C 
ENDROOT
BRANCH   1   2
ATOM      2  C   UNL     1     -91.146 161.598 233.375  1.00  0.00     0.000 C 
BRANCH   2   3
ATOM      3  C   UNL     1     -91.188 162.826 234.299  1.00  0.00     0.006 C 
BRANCH   3   4
ATOM      4  C   UNL     1     -91.071 162.409 235.767  1.00  0.00     0.053 C 
BRANCH   4   5
ATOM      5  C   UNL     1     -91.718 163.425 236.654  1.00  0.00     0.041 C 
ATOM      6  O   UNL     1     -92.496 163.060 237.574  1.00  0.00    -0.550 OA
ATOM      7  O   UNL     1     -91.500 164.780 236.434  1.00  0.00    -0.550 OA
ENDBRANCH   4   5
ENDBRANCH   3   4
ENDBRANCH   2   3
ENDBRANCH   1   2
BRANCH   1   8
ATOM      8  C   UNL     1     -91.372 160.776 230.963  1.00  0.00     0.000 C 
BRANCH   8   9
ATOM      9  C   UNL     1     -92.135 159.644 231.672  1.00  0.00    -0.000 C 
BRANCH   9  10
ATOM     10  C   UNL     1     -93.496 159.349 231.024  1.00  0.00    -0.000 C 
BRANCH  10  11
ATOM     11  C   UNL     1     -94.632 160.021 231.803  1.00  0.00    -0.000 C 
BRANCH  11  12
ATOM     12  C   UNL     1     -95.101 161.301 231.102  1.00  0.00    -0.003 C 
ATOM     13  C   UNL     1     -94.794 162.536 231.944  1.00  0.00     0.004 C 
ENDBRANCH  11  12
ENDBRANCH  10  11
ENDBRANCH   9  10
ENDBRANCH   8   9
ENDBRANCH   1   8
TORSDOF 9
ENDMDL
MODEL 7
REMARK VINA RESULT:    -3.019      2.284      4.942
REMARK INTER + INTRA:          -5.851
REMARK INTER:                  -4.977
REMARK INTRA:                  -0.874
REMARK UNBOUND:                -1.243
REMARK SMILES CCCCCCCCCCC(=O)[O-]
REMARK SMILES IDX 7 1 8 2 9 3 10 4 11 5 12 6 13 7 6 8 5 9 4 10 3 11 2 12 1 13
REMARK H PARENT
REMARK Flexibility Score: inf
ROOT
ATOM      1  C   UNL     1     -94.637 148.971 238.173  1.00  0.00     0.000 C 
ENDROOT
BRANCH   1   2
ATOM      2  C   UNL     1     -93.753 148.353 237.077  1.00  0.00     0.000 C 
BRANCH   2   3
ATOM      3  C   UNL     1     -94.489 148.199 235.737  1.00  0.00     0.006 C 
BRANCH   3   4
ATOM      4  C   UNL     1     -95.337 149.437 235.434  1.00  0.00     0.053 C 
BRANCH   4   5
ATOM      5  C   UNL     1     -96.756 149.048 235.162  1.00  0.00     0.041 C 
ATOM      6  O   UNL     1     -97.433 149.675 234.306  1.00  0.00    -0.550 OA
ATOM      7  O   UNL     1     -97.347 148.023 235.891  1.00  0.00    -0.550 OA
ENDBRANCH   4   5
ENDBRANCH   3   4
ENDBRANCH   2   3
ENDBRANCH   1   2
BRANCH   1   8
ATOM      8  C   UNL     1     -95.457 147.916 238.934  1.00  0.00     0.000 C 
BRANCH   8   9
ATOM      9  C   UNL     1     -96.824 148.450 239.395  1.00  0.00    -0.000 C 
BRANCH   9  10
ATOM     10  C   UNL     1     -97.075 149.900 238.951  1.00  0.00    -0.000 C 
BRANCH  10  11
ATOM     11  C   UNL     1     -98.182 150.546 239.791  1.00  0.00    -0.000 C 
BRANCH  11  12
ATOM     12  C   UNL     1     -98.391 149.787 241.107  1.00  0.00    -0.003 C 
ATOM     13  C   UNL     1     -99.060 150.671 242.154  1.00  0.00     0.004 C 
ENDBRANCH  11  12
ENDBRANCH  10  11
ENDBRANCH   9  10
ENDBRANCH   8   9
ENDBRANCH   1   8
TORSDOF 9
ENDMDL
MODEL 8
REMARK VINA RESULT:    -2.993      1.477      2.257
REMARK INTER + INTRA:          -5.810
REMARK INTER:                  -5.262
REMARK INTRA:                  -0.549
REMARK UNBOUND:                -1.243
REMARK SMILES CCCCCCCCCCC(=O)[O-]
REMARK SMILES IDX 7 1 8 2 9 3 10 4 11 5 12 6 13 7 6 8 5 9 4 10 3 11 2 12 1 13
REMARK H PARENT
REMARK Flexibility Score: inf
ROOT
ATOM      1  C   UNL     1     -94.610 148.825 238.282  1.00  0.00     0.000 C 
ENDROOT
BRANCH   1   2
ATOM      2  C   UNL     1     -96.137 149.003 238.320  1.00  0.00     0.000 C 
BRANCH   2   3
ATOM      3  C   UNL     1     -96.568 150.270 239.076  1.00  0.00     0.006 C 
BRANCH   3   4
ATOM      4  C   UNL     1     -98.072 150.252 239.359  1.00  0.00     0.053 C 
BRANCH   4   5
ATOM      5  C   UNL     1     -98.337 149.816 240.765  1.00  0.00     0.041 C 
ATOM      6  O   UNL     1     -98.779 150.637 241.611  1.00  0.00    -0.550 OA
ATOM      7  O   UNL     1     -98.047 148.514 241.155  1.00  0.00    -0.550 OA
ENDBRANCH   4   5
ENDBRANCH   3   4
ENDBRANCH   2   3
ENDBRANCH   1   2
BRANCH   1   8
ATOM      8  C   UNL     1     -94.076 148.605 236.856  1.00  0.00     0.000 C 
BRANCH   8   9
ATOM      9  C   UNL     1     -94.948 149.284 235.788  1.00  0.00    -0.000 C 
BRANCH   9  10
ATOM     10  C   UNL     1     -95.231 148.371 234.584  1.00  0.00    -0.000 C 
BRANCH  10  11
ATOM     11  C   UNL     1     -94.370 147.104 234.643  1.00  0.00    -0.000 C 
BRANCH  11  12
ATOM     12  C   UNL     1     -93.370 147.063 233.481  1.00  0.00    -0.003 C 
ATOM     13  C   UNL     1     -94.018 147.521 232.178  1.00  0.00     0.004 C 
ENDBRANCH  11  12
ENDBRANCH  10  11
ENDBRANCH   9  10
ENDBRANCH   8   9
ENDBRANCH   1   8
TORSDOF 9
ENDMDL
MODEL 9
REMARK VINA RESULT:    -2.959      3.665      5.461
REMARK INTER + INTRA:          -5.759
REMARK INTER:                  -5.103
REMARK INTRA:                  -0.656
REMARK UNBOUND:                -1.243
REMARK SMILES CCCCCCCCCCC(=O)[O-]
REMARK SMILES IDX 7 1 8 2 9 3 10 4 11 5 12 6 13 7 6 8 5 9 4 10 3 11 2 12 1 13
REMARK H PARENT
REMARK Flexibility Score: inf
ROOT
ATOM      1  C   UNL     1     -94.056 147.591 235.975  1.00  0.00     0.000 C 
ENDROOT
BRANCH   1   2
ATOM      2  C   UNL     1     -95.051 148.050 234.896  1.00  0.00     0.000 C 
BRANCH   2   3
ATOM      3  C   UNL     1     -95.337 149.558 234.956  1.00  0.00     0.006 C 
BRANCH   3   4
ATOM      4  C   UNL     1     -96.339 149.968 233.873  1.00  0.00     0.053 C 
BRANCH   4   5
ATOM      5  C   UNL     1     -95.667 150.790 232.820  1.00  0.00     0.041 C 
ATOM      6  O   UNL     1     -94.896 150.245 231.986  1.00  0.00    -0.550 OA
ATOM      7  O   UNL     1     -95.853 152.166 232.788  1.00  0.00    -0.550 OA
ENDBRANCH   4   5
ENDBRANCH   3   4
ENDBRANCH   2   3
ENDBRANCH   1   2
BRANCH   1   8
ATOM      8  C   UNL     1     -93.928 148.601 237.128  1.00  0.00     0.000 C 
BRANCH   8   9
ATOM      9  C   UNL     1     -94.919 148.322 238.270  1.00  0.00    -0.000 C 
BRANCH   9  10
ATOM     10  C   UNL     1     -95.660 149.585 238.736  1.00  0.00    -0.000 C 
BRANCH  10  11
ATOM     11  C   UNL     1     -97.122 149.564 238.275  1.00  0.00    -0.000 C 
BRANCH  11  12
ATOM     12  C   UNL     1     -97.951 150.615 239.022  1.00  0.00    -0.003 C 
ATOM     13  C   UNL     1     -98.291 150.149 240.434  1.00  0.00     0.004 C 
ENDBRANCH  11  12
ENDBRANCH  10  11
ENDBRANCH   9  10
ENDBRANCH   8   9
ENDBRANCH   1   8
TORSDOF 9
ENDMDL
