MODEL 1
REMARK VINA RESULT:    -3.910      0.000      0.000
REMARK INTER + INTRA:          -5.294
REMARK INTER:                  -4.824
REMARK INTRA:                  -0.470
REMARK UNBOUND:                -0.470
REMARK SMILES C=CC[C@@H](C)C(=O)CC
REMARK SMILES IDX 4 1 5 2 6 3 7 4 8 5 9 6 3 7 2 8 1 9
REMARK H PARENT
REMARK Flexibility Score: inf
ROOT
ATOM      1  C   UNL     1      -0.127 -23.375  23.003  1.00  0.00     0.057 C 
ATOM      2  C   UNL     1       0.907 -22.465  23.679  1.00  0.00     0.016 C 
ENDROOT
BRANCH   1   3
ATOM      3  C   UNL     1       0.564 -24.579  22.397  1.00  0.00     0.135 C 
ATOM      4  O   UNL     1       1.596 -24.428  21.759  1.00  0.00    -0.299 OA
BRANCH   3   5
ATOM      5  C   UNL     1      -0.000 -25.966  22.559  1.00  0.00     0.072 C 
ATOM      6  C   UNL     1       0.968 -26.857  23.330  1.00  0.00     0.012 C 
ENDBRANCH   3   5
ENDBRANCH   1   3
BRANCH   1   7
ATOM      7  C   UNL     1      -1.215 -23.838  23.992  1.00  0.00     0.038 C 
BRANCH   7   8
ATOM      8  C   UNL     1      -0.745 -23.736  25.420  1.00  0.00    -0.034 C 
ATOM      9  C   UNL     1      -0.794 -24.777  26.255  1.00  0.00     0.004 C 
ENDBRANCH   7   8
ENDBRANCH   1   7
TORSDOF 4
ENDMDL
MODEL 2
REMARK VINA RESULT:    -3.790     11.271     12.745
REMARK INTER + INTRA:          -5.147
REMARK INTER:                  -4.777
REMARK INTRA:                  -0.370
REMARK UNBOUND:                -0.470
REMARK SMILES C=CC[C@@H](C)C(=O)CC
REMARK SMILES IDX 4 1 5 2 6 3 7 4 8 5 9 6 3 7 2 8 1 9
REMARK H PARENT
REMARK Flexibility Score: inf
ROOT
ATOM      1  C   UNL     1       5.399 -14.743  28.037  1.00  0.00     0.057 C 
ATOM      2  C   UNL     1       5.902 -15.567  26.845  1.00  0.00     0.016 C 
ENDROOT
BRANCH   1   3
ATOM      3  C   UNL     1       5.247 -15.633  29.252  1.00  0.00     0.135 C 
ATOM      4  O   UNL     1       6.236 -16.151  29.750  1.00  0.00    -0.299 OA
BRANCH   3   5
ATOM      5  C   UNL     1       3.894 -15.903  29.858  1.00  0.00     0.072 C 
ATOM      6  C   UNL     1       3.151 -14.598  30.123  1.00  0.00     0.012 C 
ENDBRANCH   3   5
ENDBRANCH   1   3
BRANCH   1   7
ATOM      7  C   UNL     1       6.344 -13.569  28.361  1.00  0.00     0.038 C 
BRANCH   7   8
ATOM      8  C   UNL     1       5.711 -12.242  28.034  1.00  0.00    -0.034 C 
ATOM      9  C   UNL     1       4.911 -11.609  28.895  1.00  0.00     0.004 C 
ENDBRANCH   7   8
ENDBRANCH   1   7
TORSDOF 4
ENDMDL
MODEL 3
REMARK VINA RESULT:    -3.763      1.670      3.304
REMARK INTER + INTRA:          -5.113
REMARK INTER:                  -4.612
REMARK INTRA:                  -0.501
REMARK UNBOUND:                -0.470
REMARK SMILES C=CC[C@@H](C)C(=O)CC
REMARK SMILES IDX 4 1 5 2 6 3 7 4 8 5 9 6 3 7 2 8 1 9
REMARK H PARENT
REMARK Flexibility Score: inf
ROOT
ATOM      1  C   UNL     1       0.147 -23.319  23.001  1.00  0.00     0.057 C 
ATOM      2  C   UNL     1      -1.190 -23.913  23.464  1.00  0.00     0.016 C 
ENDROOT
BRANCH   1   3
ATOM      3  C   UNL     1       0.861 -22.681  24.173  1.00  0.00     0.135 C 
ATOM      4  O   UNL     1       1.531 -21.673  24.000  1.00  0.00    -0.299 OA
BRANCH   3   5
ATOM      5  C   UNL     1       0.770 -23.270  25.557  1.00  0.00     0.072 C 
ATOM      6  C   UNL     1       2.087 -23.929  25.952  1.00  0.00     0.012 C 
ENDBRANCH   3   5
ENDBRANCH   1   3
BRANCH   1   7
ATOM      7  C   UNL     1       1.052 -24.385  22.352  1.00  0.00     0.038 C 
BRANCH   7   8
ATOM      8  C   UNL     1       0.609 -25.780  22.711  1.00  0.00    -0.034 C 
ATOM      9  C   UNL     1       1.429 -26.651  23.303  1.00  0.00     0.004 C 
ENDBRANCH   7   8
ENDBRANCH   1   7
TORSDOF 4
ENDMDL
MODEL 4
REMARK VINA RESULT:    -3.743      1.375      1.797
REMARK INTER + INTRA:          -5.088
REMARK INTER:                  -4.585
REMARK INTRA:                  -0.503
REMARK UNBOUND:                -0.470
REMARK SMILES C=CC[C@@H](C)C(=O)CC
REMARK SMILES IDX 4 1 5 2 6 3 7 4 8 5 9 6 3 7 2 8 1 9
REMARK H PARENT
REMARK Flexibility Score: inf
ROOT
ATOM      1  C   UNL     1       0.538 -23.111  23.367  1.00  0.00     0.057 C 
ATOM      2  C   UNL     1       0.978 -22.859  24.815  1.00  0.00     0.016 C 
ENDROOT
BRANCH   1   3
ATOM      3  C   UNL     1       1.497 -24.073  22.698  1.00  0.00     0.135 C 
ATOM      4  O   UNL     1       1.313 -24.400  21.534  1.00  0.00    -0.299 OA
BRANCH   3   5
ATOM      5  C   UNL     1       2.674 -24.647  23.443  1.00  0.00     0.072 C 
ATOM      6  C   UNL     1       2.577 -26.166  23.521  1.00  0.00     0.012 C 
ENDBRANCH   3   5
ENDBRANCH   1   3
BRANCH   1   7
ATOM      7  C   UNL     1      -0.898 -23.665  23.294  1.00  0.00     0.038 C 
BRANCH   7   8
ATOM      8  C   UNL     1      -1.057 -24.905  24.135  1.00  0.00    -0.034 C 
ATOM      9  C   UNL     1      -1.364 -26.089  23.598  1.00  0.00     0.004 C 
ENDBRANCH   7   8
ENDBRANCH   1   7
TORSDOF 4
ENDMDL
MODEL 5
REMARK VINA RESULT:    -3.728      2.208      3.861
REMARK INTER + INTRA:          -5.070
REMARK INTER:                  -4.871
REMARK INTRA:                  -0.198
REMARK UNBOUND:                -0.470
REMARK SMILES C=CC[C@@H](C)C(=O)CC
REMARK SMILES IDX 4 1 5 2 6 3 7 4 8 5 9 6 3 7 2 8 1 9
REMARK H PARENT
REMARK Flexibility Score: inf
ROOT
ATOM      1  C   UNL     1       1.342 -24.638  22.529  1.00  0.00     0.057 C 
ATOM      2  C   UNL     1       0.839 -26.054  22.836  1.00  0.00     0.016 C 
ENDROOT
BRANCH   1   3
ATOM      3  C   UNL     1       0.254 -23.629  22.831  1.00  0.00     0.135 C 
ATOM      4  O   UNL     1       0.406 -22.459  22.507  1.00  0.00    -0.299 OA
BRANCH   3   5
ATOM      5  C   UNL     1      -1.016 -24.036  23.532  1.00  0.00     0.072 C 
ATOM      6  C   UNL     1      -0.915 -23.771  25.030  1.00  0.00     0.012 C 
ENDBRANCH   3   5
ENDBRANCH   1   3
BRANCH   1   7
ATOM      7  C   UNL     1       2.613 -24.295  23.333  1.00  0.00     0.038 C 
BRANCH   7   8
ATOM      8  C   UNL     1       3.858 -24.758  22.622  1.00  0.00    -0.034 C 
ATOM      9  C   UNL     1       5.003 -24.978  23.274  1.00  0.00     0.004 C 
ENDBRANCH   7   8
ENDBRANCH   1   7
TORSDOF 4
ENDMDL
MODEL 6
REMARK VINA RESULT:    -3.594      2.495      3.955
REMARK INTER + INTRA:          -4.904
REMARK INTER:                  -4.612
REMARK INTRA:                  -0.293
REMARK UNBOUND:                -0.470
REMARK SMILES C=CC[C@@H](C)C(=O)CC
REMARK SMILES IDX 4 1 5 2 6 3 7 4 8 5 9 6 3 7 2 8 1 9
REMARK H PARENT
REMARK Flexibility Score: inf
ROOT
ATOM      1  C   UNL     1       1.553 -23.971  24.863  1.00  0.00     0.057 C 
ATOM      2  C   UNL     1       1.296 -23.759  26.361  1.00  0.00     0.016 C 
ENDROOT
BRANCH   1   3
ATOM      3  C   UNL     1       1.121 -22.744  24.089  1.00  0.00     0.135 C 
ATOM      4  O   UNL     1       1.634 -21.662  24.333  1.00  0.00    -0.299 OA
BRANCH   3   5
ATOM      5  C   UNL     1       0.060 -22.828  23.021  1.00  0.00     0.072 C 
ATOM      6  C   UNL     1      -1.041 -23.801  23.429  1.00  0.00     0.012 C 
ENDBRANCH   3   5
ENDBRANCH   1   3
BRANCH   1   7
ATOM      7  C   UNL     1       3.035 -24.279  24.575  1.00  0.00     0.038 C 
BRANCH   7   8
ATOM      8  C   UNL     1       3.268 -24.560  23.113  1.00  0.00    -0.034 C 
ATOM      9  C   UNL     1       4.422 -25.061  22.665  1.00  0.00     0.004 C 
ENDBRANCH   7   8
ENDBRANCH   1   7
TORSDOF 4
ENDMDL
MODEL 7
REMARK VINA RESULT:    -3.484     10.022     11.463
REMARK INTER + INTRA:          -4.768
REMARK INTER:                  -4.313
REMARK INTRA:                  -0.456
REMARK UNBOUND:                -0.470
REMARK SMILES C=CC[C@@H](C)C(=O)CC
REMARK SMILES IDX 4 1 5 2 6 3 7 4 8 5 9 6 3 7 2 8 1 9
REMARK H PARENT
REMARK Flexibility Score: inf
ROOT
ATOM      1  C   UNL     1       5.811 -16.378  27.631  1.00  0.00     0.057 C 
ATOM      2  C   UNL     1       6.299 -17.686  26.995  1.00  0.00     0.016 C 
ENDROOT
BRANCH   1   3
ATOM      3  C   UNL     1       5.717 -15.296  26.576  1.00  0.00     0.135 C 
ATOM      4  O   UNL     1       5.062 -15.493  25.562  1.00  0.00    -0.299 OA
BRANCH   3   5
ATOM      5  C   UNL     1       6.423 -13.975  26.747  1.00  0.00     0.072 C 
ATOM      6  C   UNL     1       7.111 -13.902  28.105  1.00  0.00     0.012 C 
ENDBRANCH   3   5
ENDBRANCH   1   3
BRANCH   1   7
ATOM      7  C   UNL     1       4.446 -16.554  28.326  1.00  0.00     0.038 C 
BRANCH   7   8
ATOM      8  C   UNL     1       4.380 -15.783  29.619  1.00  0.00    -0.034 C 
ATOM      9  C   UNL     1       3.728 -14.621  29.716  1.00  0.00     0.004 C 
ENDBRANCH   7   8
ENDBRANCH   1   7
TORSDOF 4
ENDMDL
MODEL 8
REMARK VINA RESULT:    -3.456     10.232     12.197
REMARK INTER + INTRA:          -4.734
REMARK INTER:                  -4.406
REMARK INTRA:                  -0.328
REMARK UNBOUND:                -0.470
REMARK SMILES C=CC[C@@H](C)C(=O)CC
REMARK SMILES IDX 4 1 5 2 6 3 7 4 8 5 9 6 3 7 2 8 1 9
REMARK H PARENT
REMARK Flexibility Score: inf
ROOT
ATOM      1  C   UNL     1       5.371 -15.734  27.484  1.00  0.00     0.057 C 
ATOM      2  C   UNL     1       4.524 -16.918  27.967  1.00  0.00     0.016 C 
ENDROOT
BRANCH   1   3
ATOM      3  C   UNL     1       6.398 -15.372  28.536  1.00  0.00     0.135 C 
ATOM      4  O   UNL     1       6.745 -16.210  29.357  1.00  0.00    -0.299 OA
BRANCH   3   5
ATOM      5  C   UNL     1       7.000 -13.992  28.598  1.00  0.00     0.072 C 
ATOM      6  C   UNL     1       5.962 -12.934  28.242  1.00  0.00     0.012 C 
ENDBRANCH   3   5
ENDBRANCH   1   3
BRANCH   1   7
ATOM      7  C   UNL     1       6.076 -16.042  26.148  1.00  0.00     0.038 C 
BRANCH   7   8
ATOM      8  C   UNL     1       5.723 -15.029  25.090  1.00  0.00    -0.034 C 
ATOM      9  C   UNL     1       6.328 -15.011  23.899  1.00  0.00     0.004 C 
ENDBRANCH   7   8
ENDBRANCH   1   7
TORSDOF 4
ENDMDL
