MODEL 1
REMARK VINA RESULT:    -4.857      0.000      0.000
REMARK INTER + INTRA:          -7.420
REMARK INTER:                  -7.412
REMARK INTRA:                  -0.008
REMARK UNBOUND:                -0.008
REMARK SMILES CC1=CCC[C@H](C)C(=O)C[C@H](C(C)C)C(=O)C1
REMARK SMILES IDX 8 1 9 2 6 3 7 4 5 5 4 6 3 7 2 8 1 9 10 11 11 12 15 13 16 14
REMARK SMILES IDX 17 15 12 17 13 18 14 19
REMARK H PARENT
REMARK Flexibility Score: 70.00
ROOT
ATOM      1  C   UNL     1      34.095  20.583  23.840  1.00  0.00     0.136 C 
ATOM      2  O   UNL     1      33.678  21.400  24.646  1.00  0.00    -0.299 OA
ENDROOT
BRANCH   1   3
ATOM      3  C   UNL     1      34.874  19.383  24.350  1.00  0.00     0.053 C 
ATOM      4  C   UNL     1      36.155  19.846  25.059  1.00  0.00     0.016 C 
BRANCH   3   5
ATOM      5  C   UNL     1      34.003  18.526  25.295  1.00  0.00     0.015 C 
BRANCH   5   6
ATOM      6  C   UNL     1      32.766  17.956  24.571  1.00  0.00     0.028 C 
BRANCH   6   7
ATOM      7  C   UNL     1      31.467  18.514  25.098  1.00  0.00    -0.028 C 
ATOM      8  C   UNL     1      30.452  18.982  24.331  1.00  0.00    -0.070 CG0
ATOM      9  C   UNL     1      29.193  19.431  25.028  1.00  0.00     0.039 C 
ATOM     10  G   UNL     1      30.539  19.104  22.816  1.00  0.00     0.000 G0
ENDBRANCH   6   7
ENDBRANCH   5   6
ENDBRANCH   3   5
ENDBRANCH   1   3
BRANCH   1  11
ATOM     11  C   UNL     1      33.912  20.836  22.358  1.00  0.00     0.087 C 
BRANCH  11  12
ATOM     12  C   UNL     1      32.703  20.139  21.655  1.00  0.00     0.066 C 
BRANCH  12  13
ATOM     13  C   UNL     1      31.360  20.286  22.368  1.00  0.00     0.140 C 
ATOM     14  O   UNL     1      30.983  21.412  22.668  1.00  0.00    -0.299 OA
BRANCH  13  15
ATOM     15  C   UNL     1      30.534  19.106  22.824  1.00  0.00     0.106 CG0
ATOM     16  G   UNL     1      30.444  18.985  24.339  1.00  0.00     0.000 G0
ENDBRANCH  13  15
ENDBRANCH  12  13
BRANCH  12  17
ATOM     17  C   UNL     1      32.591  20.309  20.102  1.00  0.00    -0.006 C 
ATOM     18  C   UNL     1      33.726  21.107  19.447  1.00  0.00     0.008 C 
ATOM     19  C   UNL     1      32.448  18.951  19.391  1.00  0.00     0.008 C 
ENDBRANCH  12  17
ENDBRANCH  11  12
ENDBRANCH   1  11
TORSDOF 1
ENDMDL
MODEL 2
REMARK VINA RESULT:    -4.654      1.886      4.735
REMARK INTER + INTRA:          -7.111
REMARK INTER:                  -7.535
REMARK INTRA:                   0.424
REMARK UNBOUND:                -0.008
REMARK SMILES CC1=CCC[C@H](C)C(=O)C[C@H](C(C)C)C(=O)C1
REMARK SMILES IDX 8 1 9 2 6 3 7 4 5 5 4 6 3 7 2 8 1 9 10 11 11 12 15 13 16 14
REMARK SMILES IDX 17 15 12 17 13 18 14 19
REMARK H PARENT
REMARK Flexibility Score: 70.00
ROOT
ATOM      1  C   UNL     1      31.566  19.788  21.598  1.00  0.00     0.136 C 
ATOM      2  O   UNL     1      31.388  19.020  20.666  1.00  0.00    -0.299 OA
ENDROOT
BRANCH   1   3
ATOM      3  C   UNL     1      32.837  20.619  21.630  1.00  0.00     0.053 C 
ATOM      4  C   UNL     1      33.267  20.986  20.203  1.00  0.00     0.016 C 
BRANCH   3   5
ATOM      5  C   UNL     1      32.640  21.889  22.487  1.00  0.00     0.015 C 
BRANCH   5   6
ATOM      6  C   UNL     1      33.030  21.650  23.960  1.00  0.00     0.028 C 
BRANCH   6   7
ATOM      7  C   UNL     1      34.204  20.715  24.114  1.00  0.00    -0.028 C 
ATOM      8  C   UNL     1      34.138  19.456  24.611  1.00  0.00    -0.070 CG0
ATOM      9  C   UNL     1      35.403  18.635  24.618  1.00  0.00     0.039 C 
ATOM     10  G   UNL     1      32.864  18.852  25.186  1.00  0.00     0.000 G0
ENDBRANCH   6   7
ENDBRANCH   5   6
ENDBRANCH   3   5
ENDBRANCH   1   3
BRANCH   1  11
ATOM     11  C   UNL     1      30.570  19.823  22.739  1.00  0.00     0.087 C 
BRANCH  11  12
ATOM     12  C   UNL     1      30.611  18.644  23.763  1.00  0.00     0.066 C 
BRANCH  12  13
ATOM     13  C   UNL     1      32.008  18.150  24.133  1.00  0.00     0.140 C 
ATOM     14  O   UNL     1      32.406  17.106  23.634  1.00  0.00    -0.299 OA
BRANCH  13  15
ATOM     15  C   UNL     1      32.873  18.825  25.173  1.00  0.00     0.106 CG0
ATOM     16  G   UNL     1      34.134  19.451  24.592  1.00  0.00     0.000 G0
ENDBRANCH  13  15
ENDBRANCH  12  13
BRANCH  12  17
ATOM     17  C   UNL     1      29.652  18.743  24.998  1.00  0.00    -0.006 C 
ATOM     18  C   UNL     1      30.175  18.093  26.285  1.00  0.00     0.008 C 
ATOM     19  C   UNL     1      29.253  20.201  25.290  1.00  0.00     0.008 C 
ENDBRANCH  12  17
ENDBRANCH  11  12
ENDBRANCH   1  11
TORSDOF 1
ENDMDL
MODEL 3
REMARK VINA RESULT:    -4.511      1.601      4.243
REMARK INTER + INTRA:          -6.892
REMARK INTER:                  -7.070
REMARK INTRA:                   0.178
REMARK UNBOUND:                -0.008
REMARK SMILES CC1=CCC[C@H](C)C(=O)C[C@H](C(C)C)C(=O)C1
REMARK SMILES IDX 8 1 9 2 6 3 7 4 5 5 4 6 3 7 2 8 1 9 10 11 11 12 15 13 16 14
REMARK SMILES IDX 17 15 12 17 13 18 14 19
REMARK H PARENT
REMARK Flexibility Score: 70.00
ROOT
ATOM      1  C   UNL     1      33.442  18.292  24.646  1.00  0.00     0.136 C 
ATOM      2  O   UNL     1      33.916  17.894  23.594  1.00  0.00    -0.299 OA
ENDROOT
BRANCH   1   3
ATOM      3  C   UNL     1      34.322  19.094  25.589  1.00  0.00     0.053 C 
ATOM      4  C   UNL     1      35.402  18.192  26.202  1.00  0.00     0.016 C 
BRANCH   3   5
ATOM      5  C   UNL     1      34.961  20.293  24.854  1.00  0.00     0.015 C 
BRANCH   5   6
ATOM      6  C   UNL     1      33.894  21.209  24.220  1.00  0.00     0.028 C 
BRANCH   6   7
ATOM      7  C   UNL     1      33.674  20.928  22.754  1.00  0.00    -0.028 C 
ATOM      8  C   UNL     1      32.464  20.804  22.156  1.00  0.00    -0.070 CG0
ATOM      9  C   UNL     1      32.433  20.600  20.663  1.00  0.00     0.039 C 
ATOM     10  G   UNL     1      31.149  20.828  22.924  1.00  0.00     0.000 G0
ENDBRANCH   6   7
ENDBRANCH   5   6
ENDBRANCH   3   5
ENDBRANCH   1   3
BRANCH   1  11
ATOM     11  C   UNL     1      32.030  17.896  25.026  1.00  0.00     0.087 C 
BRANCH  11  12
ATOM     12  C   UNL     1      30.910  18.971  24.845  1.00  0.00     0.066 C 
BRANCH  12  13
ATOM     13  C   UNL     1      30.701  19.460  23.414  1.00  0.00     0.140 C 
ATOM     14  O   UNL     1      30.234  18.678  22.595  1.00  0.00    -0.299 OA
BRANCH  13  15
ATOM     15  C   UNL     1      31.151  20.820  22.932  1.00  0.00     0.106 CG0
ATOM     16  G   UNL     1      32.464  20.782  22.163  1.00  0.00     0.000 G0
ENDBRANCH  13  15
ENDBRANCH  12  13
BRANCH  12  17
ATOM     17  C   UNL     1      29.565  18.728  25.609  1.00  0.00    -0.006 C 
ATOM     18  C   UNL     1      29.712  18.316  27.080  1.00  0.00     0.008 C 
ATOM     19  C   UNL     1      28.631  19.949  25.515  1.00  0.00     0.008 C 
ENDBRANCH  12  17
ENDBRANCH  11  12
ENDBRANCH   1  11
TORSDOF 1
ENDMDL
MODEL 4
REMARK VINA RESULT:    -4.435      1.741      3.808
REMARK INTER + INTRA:          -6.776
REMARK INTER:                  -7.126
REMARK INTRA:                   0.350
REMARK UNBOUND:                -0.008
REMARK SMILES CC1=CCC[C@H](C)C(=O)C[C@H](C(C)C)C(=O)C1
REMARK SMILES IDX 8 1 9 2 6 3 7 4 5 5 4 6 3 7 2 8 1 9 10 11 11 12 15 13 16 14
REMARK SMILES IDX 17 15 12 17 13 18 14 19
REMARK H PARENT
REMARK Flexibility Score: 70.00
ROOT
ATOM      1  C   UNL     1      30.465  19.212  23.363  1.00  0.00     0.136 C 
ATOM      2  O   UNL     1      30.049  18.235  22.761  1.00  0.00    -0.299 OA
ENDROOT
BRANCH   1   3
ATOM      3  C   UNL     1      30.707  19.103  24.859  1.00  0.00     0.053 C 
ATOM      4  C   UNL     1      29.373  18.934  25.599  1.00  0.00     0.016 C 
BRANCH   3   5
ATOM      5  C   UNL     1      31.662  17.930  25.174  1.00  0.00     0.015 C 
BRANCH   5   6
ATOM      6  C   UNL     1      32.962  18.015  24.348  1.00  0.00     0.028 C 
BRANCH   6   7
ATOM      7  C   UNL     1      34.097  18.663  25.101  1.00  0.00    -0.028 C 
ATOM      8  C   UNL     1      34.728  19.804  24.730  1.00  0.00    -0.070 CG0
ATOM      9  C   UNL     1      35.792  20.351  25.648  1.00  0.00     0.039 C 
ATOM     10  G   UNL     1      34.436  20.532  23.425  1.00  0.00     0.000 G0
ENDBRANCH   6   7
ENDBRANCH   5   6
ENDBRANCH   3   5
ENDBRANCH   1   3
BRANCH   1  11
ATOM     11  C   UNL     1      30.636  20.526  22.628  1.00  0.00     0.087 C 
BRANCH  11  12
ATOM     12  C   UNL     1      32.086  20.938  22.221  1.00  0.00     0.066 C 
BRANCH  12  13
ATOM     13  C   UNL     1      33.055  21.150  23.383  1.00  0.00     0.140 C 
ATOM     14  O   UNL     1      32.732  21.926  24.273  1.00  0.00    -0.299 OA
BRANCH  13  15
ATOM     15  C   UNL     1      34.437  20.541  23.427  1.00  0.00     0.106 CG0
ATOM     16  G   UNL     1      34.729  19.804  24.727  1.00  0.00     0.000 G0
ENDBRANCH  13  15
ENDBRANCH  12  13
BRANCH  12  17
ATOM     17  C   UNL     1      32.733  20.164  21.022  1.00  0.00    -0.006 C 
ATOM     18  C   UNL     1      31.751  19.377  20.145  1.00  0.00     0.008 C 
ATOM     19  C   UNL     1      33.574  21.098  20.132  1.00  0.00     0.008 C 
ENDBRANCH  12  17
ENDBRANCH  11  12
ENDBRANCH   1  11
TORSDOF 1
ENDMDL
MODEL 5
REMARK VINA RESULT:    -4.292      4.683      7.842
REMARK INTER + INTRA:          -6.558
REMARK INTER:                  -6.477
REMARK INTRA:                  -0.081
REMARK UNBOUND:                -0.008
REMARK SMILES CC1=CCC[C@H](C)C(=O)C[C@H](C(C)C)C(=O)C1
REMARK SMILES IDX 8 1 9 2 6 3 7 4 5 5 4 6 3 7 2 8 1 9 10 11 11 12 15 13 16 14
REMARK SMILES IDX 17 15 12 17 13 18 14 19
REMARK H PARENT
REMARK Flexibility Score: 70.00
ROOT
ATOM      1  C   UNL     1      35.797  20.276  24.924  1.00  0.00     0.136 C 
ATOM      2  O   UNL     1      35.043  20.881  24.179  1.00  0.00    -0.299 OA
ENDROOT
BRANCH   1   3
ATOM      3  C   UNL     1      35.343  18.949  25.507  1.00  0.00     0.053 C 
ATOM      4  C   UNL     1      33.836  18.759  25.280  1.00  0.00     0.016 C 
BRANCH   3   5
ATOM      5  C   UNL     1      36.142  17.778  24.891  1.00  0.00     0.015 C 
BRANCH   5   6
ATOM      6  C   UNL     1      37.188  17.221  25.878  1.00  0.00     0.028 C 
BRANCH   6   7
ATOM      7  C   UNL     1      38.576  17.156  25.289  1.00  0.00    -0.028 C 
ATOM      8  C   UNL     1      39.672  17.761  25.808  1.00  0.00    -0.070 CG0
ATOM      9  C   UNL     1      40.996  17.523  25.128  1.00  0.00     0.039 C 
ATOM     10  G   UNL     1      39.621  18.685  27.017  1.00  0.00     0.000 G0
ENDBRANCH   6   7
ENDBRANCH   5   6
ENDBRANCH   3   5
ENDBRANCH   1   3
BRANCH   1  11
ATOM     11  C   UNL     1      37.117  20.904  25.323  1.00  0.00     0.087 C 
BRANCH  11  12
ATOM     12  C   UNL     1      37.711  20.505  26.711  1.00  0.00     0.066 C 
BRANCH  12  13
ATOM     13  C   UNL     1      39.180  20.089  26.697  1.00  0.00     0.140 C 
ATOM     14  O   UNL     1      40.010  20.900  26.307  1.00  0.00    -0.299 OA
BRANCH  13  15
ATOM     15  C   UNL     1      39.645  18.688  27.026  1.00  0.00     0.106 CG0
ATOM     16  G   UNL     1      39.682  17.766  25.815  1.00  0.00     0.000 G0
ENDBRANCH  13  15
ENDBRANCH  12  13
BRANCH  12  17
ATOM     17  C   UNL     1      37.350  21.423  27.928  1.00  0.00    -0.006 C 
ATOM     18  C   UNL     1      38.156  21.162  29.207  1.00  0.00     0.008 C 
ATOM     19  C   UNL     1      37.447  22.915  27.561  1.00  0.00     0.008 C 
ENDBRANCH  12  17
ENDBRANCH  11  12
ENDBRANCH   1  11
TORSDOF 1
ENDMDL
MODEL 6
REMARK VINA RESULT:    -4.265      4.916      7.683
REMARK INTER + INTRA:          -6.516
REMARK INTER:                  -6.183
REMARK INTRA:                  -0.333
REMARK UNBOUND:                -0.008
REMARK SMILES CC1=CCC[C@H](C)C(=O)C[C@H](C(C)C)C(=O)C1
REMARK SMILES IDX 8 1 9 2 6 3 7 4 5 5 4 6 3 7 2 8 1 9 10 11 11 12 15 13 16 14
REMARK SMILES IDX 17 15 12 17 13 18 14 19
REMARK H PARENT
REMARK Flexibility Score: 70.00
ROOT
ATOM      1  C   UNL     1      37.691  21.074  27.153  1.00  0.00     0.136 C 
ATOM      2  O   UNL     1      37.159  22.013  27.725  1.00  0.00    -0.299 OA
ENDROOT
BRANCH   1   3
ATOM      3  C   UNL     1      39.026  21.297  26.465  1.00  0.00     0.053 C 
ATOM      4  C   UNL     1      39.083  22.709  25.865  1.00  0.00     0.016 C 
BRANCH   3   5
ATOM      5  C   UNL     1      40.194  21.071  27.450  1.00  0.00     0.015 C 
BRANCH   5   6
ATOM      6  C   UNL     1      40.227  19.621  27.974  1.00  0.00     0.028 C 
BRANCH   6   7
ATOM      7  C   UNL     1      40.825  18.651  26.984  1.00  0.00    -0.028 C 
ATOM      8  C   UNL     1      40.164  17.615  26.411  1.00  0.00    -0.070 CG0
ATOM      9  C   UNL     1      40.899  16.794  25.382  1.00  0.00     0.039 C 
ATOM     10  G   UNL     1      38.739  17.229  26.781  1.00  0.00     0.000 G0
ENDBRANCH   6   7
ENDBRANCH   5   6
ENDBRANCH   3   5
ENDBRANCH   1   3
BRANCH   1  11
ATOM     11  C   UNL     1      36.965  19.747  27.061  1.00  0.00     0.087 C 
BRANCH  11  12
ATOM     12  C   UNL     1      37.026  18.989  25.697  1.00  0.00     0.066 C 
BRANCH  12  13
ATOM     13  C   UNL     1      37.694  17.616  25.743  1.00  0.00     0.140 C 
ATOM     14  O   UNL     1      37.312  16.757  24.958  1.00  0.00    -0.299 OA
BRANCH  13  15
ATOM     15  C   UNL     1      38.718  17.230  26.786  1.00  0.00     0.106 CG0
ATOM     16  G   UNL     1      40.141  17.613  26.402  1.00  0.00     0.000 G0
ENDBRANCH  13  15
ENDBRANCH  12  13
BRANCH  12  17
ATOM     17  C   UNL     1      35.731  19.007  24.816  1.00  0.00    -0.006 C 
ATOM     18  C   UNL     1      34.414  18.847  25.586  1.00  0.00     0.008 C 
ATOM     19  C   UNL     1      35.658  20.273  23.942  1.00  0.00     0.008 C 
ENDBRANCH  12  17
ENDBRANCH  11  12
ENDBRANCH   1  11
TORSDOF 1
ENDMDL
MODEL 7
REMARK VINA RESULT:    -4.137      4.827      7.050
REMARK INTER + INTRA:          -6.322
REMARK INTER:                  -6.349
REMARK INTRA:                   0.027
REMARK UNBOUND:                -0.008
REMARK SMILES CC1=CCC[C@H](C)C(=O)C[C@H](C(C)C)C(=O)C1
REMARK SMILES IDX 8 1 9 2 6 3 7 4 5 5 4 6 3 7 2 8 1 9 10 11 11 12 15 13 16 14
REMARK SMILES IDX 17 15 12 17 13 18 14 19
REMARK H PARENT
REMARK Flexibility Score: 70.00
ROOT
ATOM      1  C   UNL     1      38.869  20.931  25.183  1.00  0.00     0.136 C 
ATOM      2  O   UNL     1      39.866  20.329  24.818  1.00  0.00    -0.299 OA
ENDROOT
BRANCH   1   3
ATOM      3  C   UNL     1      38.957  21.815  26.416  1.00  0.00     0.053 C 
ATOM      4  C   UNL     1      39.405  23.230  26.021  1.00  0.00     0.016 C 
BRANCH   3   5
ATOM      5  C   UNL     1      37.604  21.855  27.159  1.00  0.00     0.015 C 
BRANCH   5   6
ATOM      6  C   UNL     1      37.660  21.078  28.490  1.00  0.00     0.028 C 
BRANCH   6   7
ATOM      7  C   UNL     1      38.733  20.017  28.507  1.00  0.00    -0.028 C 
ATOM      8  C   UNL     1      38.645  18.811  27.895  1.00  0.00    -0.070 CG0
ATOM      9  C   UNL     1      39.849  17.904  27.952  1.00  0.00     0.039 C 
ATOM     10  G   UNL     1      37.388  18.323  27.187  1.00  0.00     0.000 G0
ENDBRANCH   6   7
ENDBRANCH   5   6
ENDBRANCH   3   5
ENDBRANCH   1   3
BRANCH   1  11
ATOM     11  C   UNL     1      37.555  20.707  24.464  1.00  0.00     0.087 C 
BRANCH  11  12
ATOM     12  C   UNL     1      36.730  19.439  24.854  1.00  0.00     0.066 C 
BRANCH  12  13
ATOM     13  C   UNL     1      37.488  18.394  25.672  1.00  0.00     0.140 C 
ATOM     14  O   UNL     1      38.119  17.533  25.072  1.00  0.00    -0.299 OA
BRANCH  13  15
ATOM     15  C   UNL     1      37.399  18.302  27.178  1.00  0.00     0.106 CG0
ATOM     16  G   UNL     1      38.635  18.840  27.886  1.00  0.00     0.000 G0
ENDBRANCH  13  15
ENDBRANCH  12  13
BRANCH  12  17
ATOM     17  C   UNL     1      35.269  19.673  25.368  1.00  0.00    -0.006 C 
ATOM     18  C   UNL     1      34.650  21.024  24.987  1.00  0.00     0.008 C 
ATOM     19  C   UNL     1      34.325  18.539  24.929  1.00  0.00     0.008 C 
ENDBRANCH  12  17
ENDBRANCH  11  12
ENDBRANCH   1  11
TORSDOF 1
ENDMDL
MODEL 8
REMARK VINA RESULT:    -4.004      5.054      7.828
REMARK INTER + INTRA:          -6.119
REMARK INTER:                  -5.855
REMARK INTRA:                  -0.264
REMARK UNBOUND:                -0.008
REMARK SMILES CC1=CCC[C@H](C)C(=O)C[C@H](C(C)C)C(=O)C1
REMARK SMILES IDX 8 1 9 2 6 3 7 4 5 5 4 6 3 7 2 8 1 9 10 11 11 12 15 13 16 14
REMARK SMILES IDX 17 15 12 17 13 18 14 19
REMARK H PARENT
REMARK Flexibility Score: 70.00
ROOT
ATOM      1  C   UNL     1      38.828  18.007  25.087  1.00  0.00     0.136 C 
ATOM      2  O   UNL     1      38.049  17.067  25.084  1.00  0.00    -0.299 OA
ENDROOT
BRANCH   1   3
ATOM      3  C   UNL     1      40.297  17.741  25.367  1.00  0.00     0.053 C 
ATOM      4  C   UNL     1      41.176  18.643  24.488  1.00  0.00     0.016 C 
BRANCH   3   5
ATOM      5  C   UNL     1      40.617  17.954  26.863  1.00  0.00     0.015 C 
BRANCH   5   6
ATOM      6  C   UNL     1      41.228  19.346  27.123  1.00  0.00     0.028 C 
BRANCH   6   7
ATOM      7  C   UNL     1      40.635  20.033  28.328  1.00  0.00    -0.028 C 
ATOM      8  C   UNL     1      39.651  20.965  28.288  1.00  0.00    -0.070 CG0
ATOM      9  C   UNL     1      39.125  21.490  29.600  1.00  0.00     0.039 C 
ATOM     10  G   UNL     1      39.084  21.524  26.990  1.00  0.00     0.000 G0
ENDBRANCH   6   7
ENDBRANCH   5   6
ENDBRANCH   3   5
ENDBRANCH   1   3
BRANCH   1  11
ATOM     11  C   UNL     1      38.300  19.416  24.910  1.00  0.00     0.087 C 
BRANCH  11  12
ATOM     12  C   UNL     1      37.221  19.910  25.926  1.00  0.00     0.066 C 
BRANCH  12  13
ATOM     13  C   UNL     1      37.626  21.113  26.775  1.00  0.00     0.140 C 
ATOM     14  O   UNL     1      36.742  21.832  27.223  1.00  0.00    -0.299 OA
BRANCH  13  15
ATOM     15  C   UNL     1      39.064  21.525  26.989  1.00  0.00     0.106 CG0
ATOM     16  G   UNL     1      39.657  20.986  28.284  1.00  0.00     0.000 G0
ENDBRANCH  13  15
ENDBRANCH  12  13
BRANCH  12  17
ATOM     17  C   UNL     1      35.746  20.000  25.407  1.00  0.00    -0.006 C 
ATOM     18  C   UNL     1      35.590  20.486  23.960  1.00  0.00     0.008 C 
ATOM     19  C   UNL     1      35.002  18.662  25.576  1.00  0.00     0.008 C 
ENDBRANCH  12  17
ENDBRANCH  11  12
ENDBRANCH   1  11
TORSDOF 1
ENDMDL
MODEL 9
REMARK VINA RESULT:    -3.778      5.959      8.439
REMARK INTER + INTRA:          -5.773
REMARK INTER:                  -5.822
REMARK INTRA:                   0.049
REMARK UNBOUND:                -0.008
REMARK SMILES CC1=CCC[C@H](C)C(=O)C[C@H](C(C)C)C(=O)C1
REMARK SMILES IDX 8 1 9 2 6 3 7 4 5 5 4 6 3 7 2 8 1 9 10 11 11 12 15 13 16 14
REMARK SMILES IDX 17 15 12 17 13 18 14 19
REMARK H PARENT
REMARK Flexibility Score: 70.00
ROOT
ATOM      1  C   UNL     1      38.578  21.843  26.219  1.00  0.00     0.136 C 
ATOM      2  O   UNL     1      39.361  22.267  25.384  1.00  0.00    -0.299 OA
ENDROOT
BRANCH   1   3
ATOM      3  C   UNL     1      38.663  22.374  27.640  1.00  0.00     0.053 C 
ATOM      4  C   UNL     1      38.588  23.907  27.637  1.00  0.00     0.016 C 
BRANCH   3   5
ATOM      5  C   UNL     1      37.543  21.772  28.517  1.00  0.00     0.015 C 
BRANCH   5   6
ATOM      6  C   UNL     1      38.040  20.550  29.318  1.00  0.00     0.028 C 
BRANCH   6   7
ATOM      7  C   UNL     1      39.545  20.452  29.368  1.00  0.00    -0.028 C 
ATOM      8  C   UNL     1      40.297  19.614  28.613  1.00  0.00    -0.070 CG0
ATOM      9  C   UNL     1      41.797  19.707  28.740  1.00  0.00     0.039 C 
ATOM     10  G   UNL     1      39.700  18.572  27.676  1.00  0.00     0.000 G0
ENDBRANCH   6   7
ENDBRANCH   5   6
ENDBRANCH   3   5
ENDBRANCH   1   3
BRANCH   1  11
ATOM     11  C   UNL     1      37.614  20.736  25.845  1.00  0.00     0.087 C 
BRANCH  11  12
ATOM     12  C   UNL     1      38.216  19.318  25.585  1.00  0.00     0.066 C 
BRANCH  12  13
ATOM     13  C   UNL     1      39.566  19.051  26.247  1.00  0.00     0.140 C 
ATOM     14  O   UNL     1      40.577  19.144  25.563  1.00  0.00    -0.299 OA
BRANCH  13  15
ATOM     15  C   UNL     1      39.705  18.563  27.671  1.00  0.00     0.106 CG0
ATOM     16  G   UNL     1      40.300  19.605  28.608  1.00  0.00     0.000 G0
ENDBRANCH  13  15
ENDBRANCH  12  13
BRANCH  12  17
ATOM     17  C   UNL     1      37.235  18.101  25.688  1.00  0.00    -0.006 C 
ATOM     18  C   UNL     1      35.911  18.262  24.930  1.00  0.00     0.008 C 
ATOM     19  C   UNL     1      37.913  16.788  25.254  1.00  0.00     0.008 C 
ENDBRANCH  12  17
ENDBRANCH  11  12
ENDBRANCH   1  11
TORSDOF 1
ENDMDL
