MODEL 1
REMARK VINA RESULT:    -4.007      0.000      0.000
REMARK INTER + INTRA:         -11.427
REMARK INTER:                  -8.692
REMARK INTRA:                  -2.734
REMARK UNBOUND:                -2.734
REMARK SMILES CCCCCCCCCCCCCCCCCCCCCC(=O)[O-]
REMARK SMILES IDX 12 1 11 2 10 3 9 4 8 5 7 6 6 7 5 8 4 9 3 10 2 11 1 12 13 13
REMARK SMILES IDX 14 14 15 15 16 16 17 17 18 18 19 19 20 20 21 21 22 22 23 23
REMARK SMILES IDX 24 24
REMARK H PARENT
REMARK Flexibility Score: inf
ROOT
ATOM      1  C   UNL     1       7.821  13.068  -7.808  1.00  0.00     0.000 C 
ENDROOT
BRANCH   1   2
ATOM      2  C   UNL     1       8.140  11.657  -7.298  1.00  0.00     0.000 C 
BRANCH   2   3
ATOM      3  C   UNL     1       9.601  11.286  -7.577  1.00  0.00     0.000 C 
BRANCH   3   4
ATOM      4  C   UNL     1      10.232  10.587  -6.364  1.00  0.00    -0.000 C 
BRANCH   4   5
ATOM      5  C   UNL     1      10.411  11.529  -5.159  1.00  0.00    -0.000 C 
BRANCH   5   6
ATOM      6  C   UNL     1      11.871  11.925  -4.855  1.00  0.00    -0.000 C 
BRANCH   6   7
ATOM      7  C   UNL     1      12.890  11.577  -5.959  1.00  0.00    -0.000 C 
BRANCH   7   8
ATOM      8  C   UNL     1      13.570  12.785  -6.628  1.00  0.00    -0.000 C 
BRANCH   8   9
ATOM      9  C   UNL     1      14.417  12.392  -7.851  1.00  0.00    -0.000 C 
BRANCH   9  10
ATOM     10  C   UNL     1      13.740  11.324  -8.730  1.00  0.00    -0.000 C 
BRANCH  10  11
ATOM     11  C   UNL     1      13.261  11.821 -10.106  1.00  0.00    -0.003 C 
ATOM     12  C   UNL     1      11.979  12.650 -10.031  1.00  0.00     0.004 C 
ENDBRANCH  10  11
ENDBRANCH   9  10
ENDBRANCH   8   9
ENDBRANCH   7   8
ENDBRANCH   6   7
ENDBRANCH   5   6
ENDBRANCH   4   5
ENDBRANCH   3   4
ENDBRANCH   2   3
ENDBRANCH   1   2
BRANCH   1  13
ATOM     13  C   UNL     1       8.506  13.332  -9.157  1.00  0.00     0.000 C 
BRANCH  13  14
ATOM     14  C   UNL     1       8.532  14.824  -9.525  1.00  0.00     0.000 C 
BRANCH  14  15
ATOM     15  C   UNL     1       7.426  15.201 -10.526  1.00  0.00     0.000 C 
BRANCH  15  16
ATOM     16  C   UNL     1       6.700  13.971 -11.095  1.00  0.00     0.000 C 
BRANCH  16  17
ATOM     17  C   UNL     1       5.223  13.900 -10.668  1.00  0.00     0.000 C 
BRANCH  17  18
ATOM     18  C   UNL     1       4.841  15.050  -9.708  1.00  0.00     0.000 C 
BRANCH  18  19
ATOM     19  C   UNL     1       4.523  14.575  -8.277  1.00  0.00     0.000 C 
BRANCH  19  20
ATOM     20  C   UNL     1       5.106  15.468  -7.162  1.00  0.00     0.006 C 
BRANCH  20  21
ATOM     21  C   UNL     1       5.423  16.902  -7.616  1.00  0.00     0.053 C 
BRANCH  21  22
ATOM     22  C   UNL     1       6.595  17.491  -6.895  1.00  0.00     0.041 C 
ATOM     23  O   UNL     1       7.768  17.157  -7.211  1.00  0.00    -0.550 OA
ATOM     24  O   UNL     1       6.394  18.413  -5.874  1.00  0.00    -0.550 OA
ENDBRANCH  21  22
ENDBRANCH  20  21
ENDBRANCH  19  20
ENDBRANCH  18  19
ENDBRANCH  17  18
ENDBRANCH  16  17
ENDBRANCH  15  16
ENDBRANCH  14  15
ENDBRANCH  13  14
ENDBRANCH   1  13
TORSDOF 20
ENDMDL
MODEL 2
REMARK VINA RESULT:    -3.971      2.661      6.936
REMARK INTER + INTRA:         -11.347
REMARK INTER:                  -7.911
REMARK INTRA:                  -3.437
REMARK UNBOUND:                -2.734
REMARK SMILES CCCCCCCCCCCCCCCCCCCCCC(=O)[O-]
REMARK SMILES IDX 12 1 11 2 10 3 9 4 8 5 7 6 6 7 5 8 4 9 3 10 2 11 1 12 13 13
REMARK SMILES IDX 14 14 15 15 16 16 17 17 18 18 19 19 20 20 21 21 22 22 23 23
REMARK SMILES IDX 24 24
REMARK H PARENT
REMARK Flexibility Score: inf
ROOT
ATOM      1  C   UNL     1       7.053  16.713  -6.835  1.00  0.00     0.000 C 
ENDROOT
BRANCH   1   2
ATOM      2  C   UNL     1       5.740  17.465  -6.592  1.00  0.00     0.000 C 
BRANCH   2   3
ATOM      3  C   UNL     1       4.589  16.840  -7.388  1.00  0.00     0.000 C 
BRANCH   3   4
ATOM      4  C   UNL     1       4.344  15.388  -6.950  1.00  0.00    -0.000 C 
BRANCH   4   5
ATOM      5  C   UNL     1       4.320  14.403  -8.134  1.00  0.00    -0.000 C 
BRANCH   5   6
ATOM      6  C   UNL     1       4.589  15.040  -9.513  1.00  0.00    -0.000 C 
BRANCH   6   7
ATOM      7  C   UNL     1       5.182  14.089 -10.573  1.00  0.00    -0.000 C 
BRANCH   7   8
ATOM      8  C   UNL     1       5.280  12.613 -10.148  1.00  0.00    -0.000 C 
BRANCH   8   9
ATOM      9  C   UNL     1       5.928  11.724 -11.223  1.00  0.00    -0.000 C 
BRANCH   9  10
ATOM     10  C   UNL     1       6.219  10.297 -10.724  1.00  0.00    -0.000 C 
BRANCH  10  11
ATOM     11  C   UNL     1       7.712   9.938 -10.610  1.00  0.00    -0.003 C 
ATOM     12  C   UNL     1       8.176   9.759  -9.164  1.00  0.00     0.004 C 
ENDBRANCH  10  11
ENDBRANCH   9  10
ENDBRANCH   8   9
ENDBRANCH   7   8
ENDBRANCH   6   7
ENDBRANCH   5   6
ENDBRANCH   4   5
ENDBRANCH   3   4
ENDBRANCH   2   3
ENDBRANCH   1   2
BRANCH   1  13
ATOM     13  C   UNL     1       7.656  17.085  -8.197  1.00  0.00     0.000 C 
BRANCH  13  14
ATOM     14  C   UNL     1       8.125  15.855  -8.992  1.00  0.00     0.000 C 
BRANCH  14  15
ATOM     15  C   UNL     1       7.930  14.543  -8.211  1.00  0.00     0.000 C 
BRANCH  15  16
ATOM     16  C   UNL     1       8.613  13.345  -8.889  1.00  0.00     0.000 C 
BRANCH  16  17
ATOM     17  C   UNL     1       9.024  13.637 -10.344  1.00  0.00     0.000 C 
BRANCH  17  18
ATOM     18  C   UNL     1      10.140  12.686 -10.833  1.00  0.00     0.000 C 
BRANCH  18  19
ATOM     19  C   UNL     1      11.520  12.992 -10.218  1.00  0.00     0.000 C 
BRANCH  19  20
ATOM     20  C   UNL     1      12.130  11.830  -9.406  1.00  0.00     0.006 C 
BRANCH  20  21
ATOM     21  C   UNL     1      13.288  12.254  -8.488  1.00  0.00     0.053 C 
BRANCH  21  22
ATOM     22  C   UNL     1      12.848  12.499  -7.078  1.00  0.00     0.041 C 
ATOM     23  O   UNL     1      11.715  12.111  -6.691  1.00  0.00    -0.550 OA
ATOM     24  O   UNL     1      13.692  13.153  -6.188  1.00  0.00    -0.550 OA
ENDBRANCH  21  22
ENDBRANCH  20  21
ENDBRANCH  19  20
ENDBRANCH  18  19
ENDBRANCH  17  18
ENDBRANCH  16  17
ENDBRANCH  15  16
ENDBRANCH  14  15
ENDBRANCH  13  14
ENDBRANCH   1  13
TORSDOF 20
ENDMDL
MODEL 3
REMARK VINA RESULT:    -3.969      1.669      3.353
REMARK INTER + INTRA:         -11.344
REMARK INTER:                  -7.503
REMARK INTRA:                  -3.841
REMARK UNBOUND:                -2.734
REMARK SMILES CCCCCCCCCCCCCCCCCCCCCC(=O)[O-]
REMARK SMILES IDX 12 1 11 2 10 3 9 4 8 5 7 6 6 7 5 8 4 9 3 10 2 11 1 12 13 13
REMARK SMILES IDX 14 14 15 15 16 16 17 17 18 18 19 19 20 20 21 21 22 22 23 23
REMARK SMILES IDX 24 24
REMARK H PARENT
REMARK Flexibility Score: inf
ROOT
ATOM      1  C   UNL     1       8.680  14.121  -9.297  1.00  0.00     0.000 C 
ENDROOT
BRANCH   1   2
ATOM      2  C   UNL     1       7.790  13.560  -8.181  1.00  0.00     0.000 C 
BRANCH   2   3
ATOM      3  C   UNL     1       7.783  12.027  -8.199  1.00  0.00     0.000 C 
BRANCH   3   4
ATOM      4  C   UNL     1       6.935  11.495  -9.364  1.00  0.00    -0.000 C 
BRANCH   4   5
ATOM      5  C   UNL     1       7.708  10.513 -10.264  1.00  0.00    -0.000 C 
BRANCH   5   6
ATOM      6  C   UNL     1       8.108  11.074 -11.644  1.00  0.00    -0.000 C 
BRANCH   6   7
ATOM      7  C   UNL     1       9.540  11.641 -11.734  1.00  0.00    -0.000 C 
BRANCH   7   8
ATOM      8  C   UNL     1      10.633  10.764 -11.099  1.00  0.00    -0.000 C 
BRANCH   8   9
ATOM      9  C   UNL     1      11.347  11.456  -9.926  1.00  0.00    -0.000 C 
BRANCH   9  10
ATOM     10  C   UNL     1      11.134  10.732  -8.584  1.00  0.00    -0.000 C 
BRANCH  10  11
ATOM     11  C   UNL     1      11.398  11.589  -7.332  1.00  0.00    -0.003 C 
ATOM     12  C   UNL     1      12.724  12.347  -7.393  1.00  0.00     0.004 C 
ENDBRANCH  10  11
ENDBRANCH   9  10
ENDBRANCH   8   9
ENDBRANCH   7   8
ENDBRANCH   6   7
ENDBRANCH   5   6
ENDBRANCH   4   5
ENDBRANCH   3   4
ENDBRANCH   2   3
ENDBRANCH   1   2
BRANCH   1  13
ATOM     13  C   UNL     1       7.948  15.216 -10.086  1.00  0.00     0.000 C 
BRANCH  13  14
ATOM     14  C   UNL     1       7.691  14.820 -11.549  1.00  0.00     0.000 C 
BRANCH  14  15
ATOM     15  C   UNL     1       6.203  14.918 -11.930  1.00  0.00     0.000 C 
BRANCH  15  16
ATOM     16  C   UNL     1       5.388  13.708 -11.446  1.00  0.00     0.000 C 
BRANCH  16  17
ATOM     17  C   UNL     1       4.103  14.113 -10.703  1.00  0.00     0.000 C 
BRANCH  17  18
ATOM     18  C   UNL     1       4.296  14.115  -9.169  1.00  0.00     0.000 C 
BRANCH  18  19
ATOM     19  C   UNL     1       4.712  15.487  -8.604  1.00  0.00     0.000 C 
BRANCH  19  20
ATOM     20  C   UNL     1       4.789  15.547  -7.064  1.00  0.00     0.006 C 
BRANCH  20  21
ATOM     21  C   UNL     1       4.777  16.977  -6.497  1.00  0.00     0.053 C 
BRANCH  21  22
ATOM     22  C   UNL     1       6.126  17.424  -6.028  1.00  0.00     0.041 C 
ATOM     23  O   UNL     1       7.167  17.006  -6.600  1.00  0.00    -0.550 OA
ATOM     24  O   UNL     1       6.236  18.308  -4.961  1.00  0.00    -0.550 OA
ENDBRANCH  21  22
ENDBRANCH  20  21
ENDBRANCH  19  20
ENDBRANCH  18  19
ENDBRANCH  17  18
ENDBRANCH  16  17
ENDBRANCH  15  16
ENDBRANCH  14  15
ENDBRANCH  13  14
ENDBRANCH   1  13
TORSDOF 20
ENDMDL
MODEL 4
REMARK VINA RESULT:    -3.870      1.338      2.469
REMARK INTER + INTRA:         -11.129
REMARK INTER:                  -8.432
REMARK INTRA:                  -2.697
REMARK UNBOUND:                -2.734
REMARK SMILES CCCCCCCCCCCCCCCCCCCCCC(=O)[O-]
REMARK SMILES IDX 12 1 11 2 10 3 9 4 8 5 7 6 6 7 5 8 4 9 3 10 2 11 1 12 13 13
REMARK SMILES IDX 14 14 15 15 16 16 17 17 18 18 19 19 20 20 21 21 22 22 23 23
REMARK SMILES IDX 24 24
REMARK H PARENT
REMARK Flexibility Score: inf
ROOT
ATOM      1  C   UNL     1       9.490  13.822 -10.206  1.00  0.00     0.000 C 
ENDROOT
BRANCH   1   2
ATOM      2  C   UNL     1       9.330  12.449  -9.540  1.00  0.00     0.000 C 
BRANCH   2   3
ATOM      3  C   UNL     1       8.639  12.574  -8.178  1.00  0.00     0.000 C 
BRANCH   3   4
ATOM      4  C   UNL     1       7.927  11.266  -7.800  1.00  0.00    -0.000 C 
BRANCH   4   5
ATOM      5  C   UNL     1       8.411  10.690  -6.456  1.00  0.00    -0.000 C 
BRANCH   5   6
ATOM      6  C   UNL     1       9.687  11.347  -5.891  1.00  0.00    -0.000 C 
BRANCH   6   7
ATOM      7  C   UNL     1      10.972  10.502  -6.011  1.00  0.00    -0.000 C 
BRANCH   7   8
ATOM      8  C   UNL     1      11.828  10.786  -7.258  1.00  0.00    -0.000 C 
BRANCH   8   9
ATOM      9  C   UNL     1      12.503  12.168  -7.217  1.00  0.00    -0.000 C 
BRANCH   9  10
ATOM     10  C   UNL     1      13.783  12.184  -6.360  1.00  0.00    -0.000 C 
BRANCH  10  11
ATOM     11  C   UNL     1      13.567  12.509  -4.871  1.00  0.00    -0.003 C 
ATOM     12  C   UNL     1      14.670  13.390  -4.284  1.00  0.00     0.004 C 
ENDBRANCH  10  11
ENDBRANCH   9  10
ENDBRANCH   8   9
ENDBRANCH   7   8
ENDBRANCH   6   7
ENDBRANCH   5   6
ENDBRANCH   4   5
ENDBRANCH   3   4
ENDBRANCH   2   3
ENDBRANCH   1   2
BRANCH   1  13
ATOM     13  C   UNL     1       8.618  14.876  -9.509  1.00  0.00     0.000 C 
BRANCH  13  14
ATOM     14  C   UNL     1       7.530  15.448 -10.432  1.00  0.00     0.000 C 
BRANCH  14  15
ATOM     15  C   UNL     1       7.028  14.415 -11.457  1.00  0.00     0.000 C 
BRANCH  15  16
ATOM     16  C   UNL     1       5.583  13.969 -11.188  1.00  0.00     0.000 C 
BRANCH  16  17
ATOM     17  C   UNL     1       5.425  13.238  -9.843  1.00  0.00     0.000 C 
BRANCH  17  18
ATOM     18  C   UNL     1       4.366  13.909  -8.938  1.00  0.00     0.000 C 
BRANCH  18  19
ATOM     19  C   UNL     1       4.974  14.688  -7.756  1.00  0.00     0.000 C 
BRANCH  19  20
ATOM     20  C   UNL     1       4.927  16.222  -7.908  1.00  0.00     0.006 C 
BRANCH  20  21
ATOM     21  C   UNL     1       4.946  16.981  -6.571  1.00  0.00     0.053 C 
BRANCH  21  22
ATOM     22  C   UNL     1       6.311  17.474  -6.205  1.00  0.00     0.041 C 
ATOM     23  O   UNL     1       7.336  16.897  -6.656  1.00  0.00    -0.550 OA
ATOM     24  O   UNL     1       6.454  18.573  -5.366  1.00  0.00    -0.550 OA
ENDBRANCH  21  22
ENDBRANCH  20  21
ENDBRANCH  19  20
ENDBRANCH  18  19
ENDBRANCH  17  18
ENDBRANCH  16  17
ENDBRANCH  15  16
ENDBRANCH  14  15
ENDBRANCH  13  14
ENDBRANCH   1  13
TORSDOF 20
ENDMDL
MODEL 5
REMARK VINA RESULT:    -3.760      1.456      3.226
REMARK INTER + INTRA:         -10.891
REMARK INTER:                  -8.186
REMARK INTRA:                  -2.705
REMARK UNBOUND:                -2.734
REMARK SMILES CCCCCCCCCCCCCCCCCCCCCC(=O)[O-]
REMARK SMILES IDX 12 1 11 2 10 3 9 4 8 5 7 6 6 7 5 8 4 9 3 10 2 11 1 12 13 13
REMARK SMILES IDX 14 14 15 15 16 16 17 17 18 18 19 19 20 20 21 21 22 22 23 23
REMARK SMILES IDX 24 24
REMARK H PARENT
REMARK Flexibility Score: inf
ROOT
ATOM      1  C   UNL     1      11.736  12.764  -9.593  1.00  0.00     0.000 C 
ENDROOT
BRANCH   1   2
ATOM      2  C   UNL     1      12.670  11.884 -10.432  1.00  0.00     0.000 C 
BRANCH   2   3
ATOM      3  C   UNL     1      13.837  11.357  -9.589  1.00  0.00     0.000 C 
BRANCH   3   4
ATOM      4  C   UNL     1      13.673   9.856  -9.301  1.00  0.00    -0.000 C 
BRANCH   4   5
ATOM      5  C   UNL     1      13.779   9.521  -7.802  1.00  0.00    -0.000 C 
BRANCH   5   6
ATOM      6  C   UNL     1      12.508   9.815  -6.979  1.00  0.00    -0.000 C 
BRANCH   6   7
ATOM      7  C   UNL     1      12.709  10.750  -5.770  1.00  0.00    -0.000 C 
BRANCH   7   8
ATOM      8  C   UNL     1      12.682  12.255  -6.093  1.00  0.00    -0.000 C 
BRANCH   8   9
ATOM      9  C   UNL     1      14.062  12.920  -5.954  1.00  0.00    -0.000 C 
BRANCH   9  10
ATOM     10  C   UNL     1      15.112  11.994  -5.313  1.00  0.00    -0.000 C 
BRANCH  10  11
ATOM     11  C   UNL     1      16.494  12.006  -5.992  1.00  0.00    -0.003 C 
ATOM     12  C   UNL     1      16.461  12.581  -7.408  1.00  0.00     0.004 C 
ENDBRANCH  10  11
ENDBRANCH   9  10
ENDBRANCH   8   9
ENDBRANCH   7   8
ENDBRANCH   6   7
ENDBRANCH   5   6
ENDBRANCH   4   5
ENDBRANCH   3   4
ENDBRANCH   2   3
ENDBRANCH   1   2
BRANCH   1  13
ATOM     13  C   UNL     1      10.304  12.210  -9.602  1.00  0.00     0.000 C 
BRANCH  13  14
ATOM     14  C   UNL     1       9.699  12.111  -8.192  1.00  0.00     0.000 C 
BRANCH  14  15
ATOM     15  C   UNL     1       8.264  12.664  -8.130  1.00  0.00     0.000 C 
BRANCH  15  16
ATOM     16  C   UNL     1       7.954  13.635  -9.280  1.00  0.00     0.000 C 
BRANCH  16  17
ATOM     17  C   UNL     1       7.052  14.804  -8.847  1.00  0.00     0.000 C 
BRANCH  17  18
ATOM     18  C   UNL     1       5.999  14.368  -7.803  1.00  0.00     0.000 C 
BRANCH  18  19
ATOM     19  C   UNL     1       4.668  15.137  -7.915  1.00  0.00     0.000 C 
BRANCH  19  20
ATOM     20  C   UNL     1       4.347  16.040  -6.706  1.00  0.00     0.006 C 
BRANCH  20  21
ATOM     21  C   UNL     1       4.852  17.485  -6.857  1.00  0.00     0.053 C 
BRANCH  21  22
ATOM     22  C   UNL     1       6.134  17.728  -6.123  1.00  0.00     0.041 C 
ATOM     23  O   UNL     1       7.238  17.506  -6.686  1.00  0.00    -0.550 OA
ATOM     24  O   UNL     1       6.111  18.205  -4.818  1.00  0.00    -0.550 OA
ENDBRANCH  21  22
ENDBRANCH  20  21
ENDBRANCH  19  20
ENDBRANCH  18  19
ENDBRANCH  17  18
ENDBRANCH  16  17
ENDBRANCH  15  16
ENDBRANCH  14  15
ENDBRANCH  13  14
ENDBRANCH   1  13
TORSDOF 20
ENDMDL
MODEL 6
REMARK VINA RESULT:    -3.760      2.019      3.674
REMARK INTER + INTRA:         -10.891
REMARK INTER:                  -8.725
REMARK INTRA:                  -2.166
REMARK UNBOUND:                -2.734
REMARK SMILES CCCCCCCCCCCCCCCCCCCCCC(=O)[O-]
REMARK SMILES IDX 12 1 11 2 10 3 9 4 8 5 7 6 6 7 5 8 4 9 3 10 2 11 1 12 13 13
REMARK SMILES IDX 14 14 15 15 16 16 17 17 18 18 19 19 20 20 21 21 22 22 23 23
REMARK SMILES IDX 24 24
REMARK H PARENT
REMARK Flexibility Score: inf
ROOT
ATOM      1  C   UNL     1      12.389  11.421  -7.567  1.00  0.00     0.000 C 
ENDROOT
BRANCH   1   2
ATOM      2  C   UNL     1      12.680  12.258  -6.315  1.00  0.00     0.000 C 
BRANCH   2   3
ATOM      3  C   UNL     1      11.758  11.858  -5.158  1.00  0.00     0.000 C 
BRANCH   3   4
ATOM      4  C   UNL     1      12.378  10.723  -4.328  1.00  0.00    -0.000 C 
BRANCH   4   5
ATOM      5  C   UNL     1      12.505  11.077  -2.835  1.00  0.00    -0.000 C 
BRANCH   5   6
ATOM      6  C   UNL     1      12.716  12.576  -2.539  1.00  0.00    -0.000 C 
BRANCH   6   7
ATOM      7  C   UNL     1      14.186  13.015  -2.382  1.00  0.00    -0.000 C 
BRANCH   7   8
ATOM      8  C   UNL     1      14.878  13.467  -3.681  1.00  0.00    -0.000 C 
BRANCH   8   9
ATOM      9  C   UNL     1      16.205  12.733  -3.936  1.00  0.00    -0.000 C 
BRANCH   9  10
ATOM     10  C   UNL     1      16.014  11.371  -4.628  1.00  0.00    -0.000 C 
BRANCH  10  11
ATOM     11  C   UNL     1      16.279  11.366  -6.144  1.00  0.00    -0.003 C 
ATOM     12  C   UNL     1      16.356  12.770  -6.744  1.00  0.00     0.004 C 
ENDBRANCH  10  11
ENDBRANCH   9  10
ENDBRANCH   8   9
ENDBRANCH   7   8
ENDBRANCH   6   7
ENDBRANCH   5   6
ENDBRANCH   4   5
ENDBRANCH   3   4
ENDBRANCH   2   3
ENDBRANCH   1   2
BRANCH   1  13
ATOM     13  C   UNL     1      12.669  12.227  -8.844  1.00  0.00     0.000 C 
BRANCH  13  14
ATOM     14  C   UNL     1      11.500  12.178  -9.841  1.00  0.00     0.000 C 
BRANCH  14  15
ATOM     15  C   UNL     1      10.931  13.575 -10.147  1.00  0.00     0.000 C 
BRANCH  15  16
ATOM     16  C   UNL     1       9.398  13.578 -10.255  1.00  0.00     0.000 C 
BRANCH  16  17
ATOM     17  C   UNL     1       8.706  13.196  -8.934  1.00  0.00     0.000 C 
BRANCH  17  18
ATOM     18  C   UNL     1       7.753  14.306  -8.436  1.00  0.00     0.000 C 
BRANCH  18  19
ATOM     19  C   UNL     1       8.078  15.698  -9.011  1.00  0.00     0.000 C 
BRANCH  19  20
ATOM     20  C   UNL     1       7.576  16.878  -8.152  1.00  0.00     0.006 C 
BRANCH  20  21
ATOM     21  C   UNL     1       6.620  16.463  -7.022  1.00  0.00     0.053 C 
BRANCH  21  22
ATOM     22  C   UNL     1       5.944  17.632  -6.378  1.00  0.00     0.041 C 
ATOM     23  O   UNL     1       6.610  18.648  -6.047  1.00  0.00    -0.550 OA
ATOM     24  O   UNL     1       4.574  17.603  -6.144  1.00  0.00    -0.550 OA
ENDBRANCH  21  22
ENDBRANCH  20  21
ENDBRANCH  19  20
ENDBRANCH  18  19
ENDBRANCH  17  18
ENDBRANCH  16  17
ENDBRANCH  15  16
ENDBRANCH  14  15
ENDBRANCH  13  14
ENDBRANCH   1  13
TORSDOF 20
ENDMDL
MODEL 7
REMARK VINA RESULT:    -3.759      2.614      4.617
REMARK INTER + INTRA:         -10.888
REMARK INTER:                  -8.829
REMARK INTRA:                  -2.060
REMARK UNBOUND:                -2.734
REMARK SMILES CCCCCCCCCCCCCCCCCCCCCC(=O)[O-]
REMARK SMILES IDX 12 1 11 2 10 3 9 4 8 5 7 6 6 7 5 8 4 9 3 10 2 11 1 12 13 13
REMARK SMILES IDX 14 14 15 15 16 16 17 17 18 18 19 19 20 20 21 21 22 22 23 23
REMARK SMILES IDX 24 24
REMARK H PARENT
REMARK Flexibility Score: inf
ROOT
ATOM      1  C   UNL     1      11.522  11.655  -6.254  1.00  0.00     0.000 C 
ENDROOT
BRANCH   1   2
ATOM      2  C   UNL     1      12.906  11.844  -5.621  1.00  0.00     0.000 C 
BRANCH   2   3
ATOM      3  C   UNL     1      13.657  13.009  -6.274  1.00  0.00     0.000 C 
BRANCH   3   4
ATOM      4  C   UNL     1      15.065  12.579  -6.714  1.00  0.00    -0.000 C 
BRANCH   4   5
ATOM      5  C   UNL     1      15.528  11.275  -6.039  1.00  0.00    -0.000 C 
BRANCH   5   6
ATOM      6  C   UNL     1      16.705  11.435  -5.055  1.00  0.00    -0.000 C 
BRANCH   6   7
ATOM      7  C   UNL     1      17.144  12.889  -4.785  1.00  0.00    -0.000 C 
BRANCH   7   8
ATOM      8  C   UNL     1      17.732  13.146  -3.386  1.00  0.00    -0.000 C 
BRANCH   8   9
ATOM      9  C   UNL     1      16.651  13.381  -2.317  1.00  0.00    -0.000 C 
BRANCH   9  10
ATOM     10  C   UNL     1      15.300  13.811  -2.916  1.00  0.00    -0.000 C 
BRANCH  10  11
ATOM     11  C   UNL     1      14.084  12.999  -2.432  1.00  0.00    -0.003 C 
ATOM     12  C   UNL     1      14.151  12.649  -0.946  1.00  0.00     0.004 C 
ENDBRANCH  10  11
ENDBRANCH   9  10
ENDBRANCH   8   9
ENDBRANCH   7   8
ENDBRANCH   6   7
ENDBRANCH   5   6
ENDBRANCH   4   5
ENDBRANCH   3   4
ENDBRANCH   2   3
ENDBRANCH   1   2
BRANCH   1  13
ATOM     13  C   UNL     1      11.588  11.821  -7.779  1.00  0.00     0.000 C 
BRANCH  13  14
ATOM     14  C   UNL     1      10.198  11.813  -8.435  1.00  0.00     0.000 C 
BRANCH  14  15
ATOM     15  C   UNL     1       9.060  11.848  -7.399  1.00  0.00     0.000 C 
BRANCH  15  16
ATOM     16  C   UNL     1       7.909  12.778  -7.815  1.00  0.00     0.000 C 
BRANCH  16  17
ATOM     17  C   UNL     1       8.340  13.834  -8.848  1.00  0.00     0.000 C 
BRANCH  17  18
ATOM     18  C   UNL     1       7.182  14.789  -9.219  1.00  0.00     0.000 C 
BRANCH  18  19
ATOM     19  C   UNL     1       5.839  14.407  -8.568  1.00  0.00     0.000 C 
BRANCH  19  20
ATOM     20  C   UNL     1       4.910  15.601  -8.267  1.00  0.00     0.006 C 
BRANCH  20  21
ATOM     21  C   UNL     1       4.928  16.049  -6.796  1.00  0.00     0.053 C 
BRANCH  21  22
ATOM     22  C   UNL     1       5.806  17.239  -6.565  1.00  0.00     0.041 C 
ATOM     23  O   UNL     1       6.986  17.087  -6.152  1.00  0.00    -0.550 OA
ATOM     24  O   UNL     1       5.322  18.519  -6.808  1.00  0.00    -0.550 OA
ENDBRANCH  21  22
ENDBRANCH  20  21
ENDBRANCH  19  20
ENDBRANCH  18  19
ENDBRANCH  17  18
ENDBRANCH  16  17
ENDBRANCH  15  16
ENDBRANCH  14  15
ENDBRANCH  13  14
ENDBRANCH   1  13
TORSDOF 20
ENDMDL
MODEL 8
REMARK VINA RESULT:    -3.728      1.977      3.996
REMARK INTER + INTRA:         -10.820
REMARK INTER:                  -9.330
REMARK INTRA:                  -1.490
REMARK UNBOUND:                -2.734
REMARK SMILES CCCCCCCCCCCCCCCCCCCCCC(=O)[O-]
REMARK SMILES IDX 12 1 11 2 10 3 9 4 8 5 7 6 6 7 5 8 4 9 3 10 2 11 1 12 13 13
REMARK SMILES IDX 14 14 15 15 16 16 17 17 18 18 19 19 20 20 21 21 22 22 23 23
REMARK SMILES IDX 24 24
REMARK H PARENT
REMARK Flexibility Score: inf
ROOT
ATOM      1  C   UNL     1      10.025  10.810  -6.445  1.00  0.00     0.000 C 
ENDROOT
BRANCH   1   2
ATOM      2  C   UNL     1      10.255  11.471  -5.080  1.00  0.00     0.000 C 
BRANCH   2   3
ATOM      3  C   UNL     1      11.733  11.821  -4.878  1.00  0.00     0.000 C 
BRANCH   3   4
ATOM      4  C   UNL     1      12.624  11.022  -5.842  1.00  0.00    -0.000 C 
BRANCH   4   5
ATOM      5  C   UNL     1      13.265  11.903  -6.930  1.00  0.00    -0.000 C 
BRANCH   5   6
ATOM      6  C   UNL     1      14.231  12.984  -6.405  1.00  0.00    -0.000 C 
BRANCH   6   7
ATOM      7  C   UNL     1      15.453  12.454  -5.627  1.00  0.00    -0.000 C 
BRANCH   7   8
ATOM      8  C   UNL     1      16.060  13.438  -4.611  1.00  0.00    -0.000 C 
BRANCH   8   9
ATOM      9  C   UNL     1      15.139  13.696  -3.406  1.00  0.00    -0.000 C 
BRANCH   9  10
ATOM     10  C   UNL     1      14.846  12.423  -2.592  1.00  0.00    -0.000 C 
BRANCH  10  11
ATOM     11  C   UNL     1      14.066  12.651  -1.284  1.00  0.00    -0.003 C 
ATOM     12  C   UNL     1      12.550  12.600  -1.473  1.00  0.00     0.004 C 
ENDBRANCH  10  11
ENDBRANCH   9  10
ENDBRANCH   8   9
ENDBRANCH   7   8
ENDBRANCH   6   7
ENDBRANCH   5   6
ENDBRANCH   4   5
ENDBRANCH   3   4
ENDBRANCH   2   3
ENDBRANCH   1   2
BRANCH   1  13
ATOM     13  C   UNL     1       9.274  11.755  -7.393  1.00  0.00     0.000 C 
BRANCH  13  14
ATOM     14  C   UNL     1       9.976  11.908  -8.753  1.00  0.00     0.000 C 
BRANCH  14  15
ATOM     15  C   UNL     1       9.029  12.435  -9.845  1.00  0.00     0.000 C 
BRANCH  15  16
ATOM     16  C   UNL     1       9.171  13.949 -10.070  1.00  0.00     0.000 C 
BRANCH  16  17
ATOM     17  C   UNL     1       7.940  14.741  -9.593  1.00  0.00     0.000 C 
BRANCH  17  18
ATOM     18  C   UNL     1       8.299  16.194  -9.207  1.00  0.00     0.000 C 
BRANCH  18  19
ATOM     19  C   UNL     1       7.455  16.746  -8.042  1.00  0.00     0.000 C 
BRANCH  19  20
ATOM     20  C   UNL     1       5.946  16.443  -8.146  1.00  0.00     0.006 C 
BRANCH  20  21
ATOM     21  C   UNL     1       5.047  17.575  -7.620  1.00  0.00     0.053 C 
BRANCH  21  22
ATOM     22  C   UNL     1       5.377  17.970  -6.215  1.00  0.00     0.041 C 
ATOM     23  O   UNL     1       4.700  17.518  -5.253  1.00  0.00    -0.550 OA
ATOM     24  O   UNL     1       6.434  18.836  -5.964  1.00  0.00    -0.550 OA
ENDBRANCH  21  22
ENDBRANCH  20  21
ENDBRANCH  19  20
ENDBRANCH  18  19
ENDBRANCH  17  18
ENDBRANCH  16  17
ENDBRANCH  15  16
ENDBRANCH  14  15
ENDBRANCH  13  14
ENDBRANCH   1  13
TORSDOF 20
ENDMDL
MODEL 9
REMARK VINA RESULT:    -3.694      1.509      3.490
REMARK INTER + INTRA:         -10.748
REMARK INTER:                  -8.554
REMARK INTRA:                  -2.193
REMARK UNBOUND:                -2.734
REMARK SMILES CCCCCCCCCCCCCCCCCCCCCC(=O)[O-]
REMARK SMILES IDX 12 1 11 2 10 3 9 4 8 5 7 6 6 7 5 8 4 9 3 10 2 11 1 12 13 13
REMARK SMILES IDX 14 14 15 15 16 16 17 17 18 18 19 19 20 20 21 21 22 22 23 23
REMARK SMILES IDX 24 24
REMARK H PARENT
REMARK Flexibility Score: inf
ROOT
ATOM      1  C   UNL     1      11.346  12.086  -8.660  1.00  0.00     0.000 C 
ENDROOT
BRANCH   1   2
ATOM      2  C   UNL     1      12.171  10.848  -9.032  1.00  0.00     0.000 C 
BRANCH   2   3
ATOM      3  C   UNL     1      13.525  10.852  -8.314  1.00  0.00     0.000 C 
BRANCH   3   4
ATOM      4  C   UNL     1      14.145  12.257  -8.316  1.00  0.00    -0.000 C 
BRANCH   4   5
ATOM      5  C   UNL     1      15.677  12.234  -8.475  1.00  0.00    -0.000 C 
BRANCH   5   6
ATOM      6  C   UNL     1      16.466  12.647  -7.217  1.00  0.00    -0.000 C 
BRANCH   6   7
ATOM      7  C   UNL     1      16.670  11.532  -6.171  1.00  0.00    -0.000 C 
BRANCH   7   8
ATOM      8  C   UNL     1      15.902  11.723  -4.851  1.00  0.00    -0.000 C 
BRANCH   8   9
ATOM      9  C   UNL     1      14.925  12.910  -4.895  1.00  0.00    -0.000 C 
BRANCH   9  10
ATOM     10  C   UNL     1      13.629  12.649  -4.105  1.00  0.00    -0.000 C 
BRANCH  10  11
ATOM     11  C   UNL     1      12.415  12.242  -4.960  1.00  0.00    -0.003 C 
ATOM     12  C   UNL     1      12.165  10.734  -4.965  1.00  0.00     0.004 C 
ENDBRANCH  10  11
ENDBRANCH   9  10
ENDBRANCH   8   9
ENDBRANCH   7   8
ENDBRANCH   6   7
ENDBRANCH   5   6
ENDBRANCH   4   5
ENDBRANCH   3   4
ENDBRANCH   2   3
ENDBRANCH   1   2
BRANCH   1  13
ATOM     13  C   UNL     1       9.971  11.684  -8.106  1.00  0.00     0.000 C 
BRANCH  13  14
ATOM     14  C   UNL     1       8.861  12.668  -8.510  1.00  0.00     0.000 C 
BRANCH  14  15
ATOM     15  C   UNL     1       9.059  13.225  -9.930  1.00  0.00     0.000 C 
BRANCH  15  16
ATOM     16  C   UNL     1       8.465  14.633 -10.101  1.00  0.00     0.000 C 
BRANCH  16  17
ATOM     17  C   UNL     1       7.452  14.990  -8.999  1.00  0.00     0.000 C 
BRANCH  17  18
ATOM     18  C   UNL     1       5.993  14.768  -9.459  1.00  0.00     0.000 C 
BRANCH  18  19
ATOM     19  C   UNL     1       4.976  15.667  -8.729  1.00  0.00     0.000 C 
BRANCH  19  20
ATOM     20  C   UNL     1       5.033  15.580  -7.190  1.00  0.00     0.006 C 
BRANCH  20  21
ATOM     21  C   UNL     1       4.811  16.927  -6.481  1.00  0.00     0.053 C 
BRANCH  21  22
ATOM     22  C   UNL     1       6.074  17.499  -5.919  1.00  0.00     0.041 C 
ATOM     23  O   UNL     1       7.157  17.392  -6.553  1.00  0.00    -0.550 OA
ATOM     24  O   UNL     1       6.058  18.153  -4.693  1.00  0.00    -0.550 OA
ENDBRANCH  21  22
ENDBRANCH  20  21
ENDBRANCH  19  20
ENDBRANCH  18  19
ENDBRANCH  17  18
ENDBRANCH  16  17
ENDBRANCH  15  16
ENDBRANCH  14  15
ENDBRANCH  13  14
ENDBRANCH   1  13
TORSDOF 20
ENDMDL
