MODEL 1
REMARK VINA RESULT:    -3.589      0.000      0.000
REMARK INTER + INTRA:          -4.250
REMARK INTER:                  -4.219
REMARK INTRA:                  -0.031
REMARK UNBOUND:                -0.031
REMARK SMILES CCCCC(=O)[O-]
REMARK SMILES IDX 4 1 5 2 6 3 7 4 3 5 2 6 1 7
REMARK H PARENT
REMARK Flexibility Score: inf
ROOT
ATOM      1  C   UNL     1      16.703  14.202  -6.775  1.00  0.00     0.053 C 
ENDROOT
BRANCH   1   2
ATOM      2  C   UNL     1      16.804  14.909  -5.459  1.00  0.00     0.041 C 
ATOM      3  O   UNL     1      16.203  16.001  -5.279  1.00  0.00    -0.550 OA
ATOM      4  O   UNL     1      17.601  14.385  -4.448  1.00  0.00    -0.550 OA
ENDBRANCH   1   2
BRANCH   1   5
ATOM      5  C   UNL     1      15.674  13.071  -6.699  1.00  0.00     0.006 C 
BRANCH   5   6
ATOM      6  C   UNL     1      14.603  13.230  -7.783  1.00  0.00    -0.003 C 
ATOM      7  C   UNL     1      15.158  12.883  -9.162  1.00  0.00     0.004 C 
ENDBRANCH   5   6
ENDBRANCH   1   5
TORSDOF 3
ENDMDL
MODEL 2
REMARK VINA RESULT:    -3.571      0.111      1.222
REMARK INTER + INTRA:          -4.228
REMARK INTER:                  -4.205
REMARK INTRA:                  -0.023
REMARK UNBOUND:                -0.031
REMARK SMILES CCCCC(=O)[O-]
REMARK SMILES IDX 4 1 5 2 6 3 7 4 3 5 2 6 1 7
REMARK H PARENT
REMARK Flexibility Score: inf
ROOT
ATOM      1  C   UNL     1      16.639  14.269  -6.812  1.00  0.00     0.053 C 
ENDROOT
BRANCH   1   2
ATOM      2  C   UNL     1      16.850  14.894  -5.469  1.00  0.00     0.041 C 
ATOM      3  O   UNL     1      17.511  14.288  -4.585  1.00  0.00    -0.550 OA
ATOM      4  O   UNL     1      16.275  16.125  -5.178  1.00  0.00    -0.550 OA
ENDBRANCH   1   2
BRANCH   1   5
ATOM      5  C   UNL     1      15.654  13.101  -6.712  1.00  0.00     0.006 C 
BRANCH   5   6
ATOM      6  C   UNL     1      14.578  13.194  -7.798  1.00  0.00    -0.003 C 
ATOM      7  C   UNL     1      15.165  12.928  -9.181  1.00  0.00     0.004 C 
ENDBRANCH   5   6
ENDBRANCH   1   5
TORSDOF 3
ENDMDL
MODEL 3
REMARK VINA RESULT:    -3.387      2.823      4.032
REMARK INTER + INTRA:          -4.012
REMARK INTER:                  -3.973
REMARK INTRA:                  -0.039
REMARK UNBOUND:                -0.031
REMARK SMILES CCCCC(=O)[O-]
REMARK SMILES IDX 4 1 5 2 6 3 7 4 3 5 2 6 1 7
REMARK H PARENT
REMARK Flexibility Score: inf
ROOT
ATOM      1  C   UNL     1      16.446  12.848  -7.711  1.00  0.00     0.053 C 
ENDROOT
BRANCH   1   2
ATOM      2  C   UNL     1      15.167  12.968  -8.479  1.00  0.00     0.041 C 
ATOM      3  O   UNL     1      14.078  13.142  -7.872  1.00  0.00    -0.550 OA
ATOM      4  O   UNL     1      15.173  12.838  -9.862  1.00  0.00    -0.550 OA
ENDBRANCH   1   2
BRANCH   1   5
ATOM      5  C   UNL     1      16.200  13.088  -6.219  1.00  0.00     0.006 C 
BRANCH   5   6
ATOM      6  C   UNL     1      16.559  14.524  -5.826  1.00  0.00    -0.003 C 
ATOM      7  C   UNL     1      17.581  14.549  -4.694  1.00  0.00     0.004 C 
ENDBRANCH   5   6
ENDBRANCH   1   5
TORSDOF 3
ENDMDL
MODEL 4
REMARK VINA RESULT:    -3.380      2.768      3.936
REMARK INTER + INTRA:          -4.004
REMARK INTER:                  -3.919
REMARK INTRA:                  -0.085
REMARK UNBOUND:                -0.031
REMARK SMILES CCCCC(=O)[O-]
REMARK SMILES IDX 4 1 5 2 6 3 7 4 3 5 2 6 1 7
REMARK H PARENT
REMARK Flexibility Score: inf
ROOT
ATOM      1  C   UNL     1      16.438  12.730  -7.716  1.00  0.00     0.053 C 
ENDROOT
BRANCH   1   2
ATOM      2  C   UNL     1      15.177  12.944  -8.494  1.00  0.00     0.041 C 
ATOM      3  O   UNL     1      15.184  12.848  -9.749  1.00  0.00    -0.550 OA
ATOM      4  O   UNL     1      14.005  13.296  -7.836  1.00  0.00    -0.550 OA
ENDBRANCH   1   2
BRANCH   1   5
ATOM      5  C   UNL     1      16.187  12.943  -6.220  1.00  0.00     0.006 C 
BRANCH   5   6
ATOM      6  C   UNL     1      17.136  14.002  -5.650  1.00  0.00    -0.003 C 
ATOM      7  C   UNL     1      16.442  15.356  -5.528  1.00  0.00     0.004 C 
ENDBRANCH   5   6
ENDBRANCH   1   5
TORSDOF 3
ENDMDL
MODEL 5
REMARK VINA RESULT:    -3.329      1.274      1.732
REMARK INTER + INTRA:          -3.943
REMARK INTER:                  -3.895
REMARK INTRA:                  -0.048
REMARK UNBOUND:                -0.031
REMARK SMILES CCCCC(=O)[O-]
REMARK SMILES IDX 4 1 5 2 6 3 7 4 3 5 2 6 1 7
REMARK H PARENT
REMARK Flexibility Score: inf
ROOT
ATOM      1  C   UNL     1      16.595  14.482  -5.738  1.00  0.00     0.053 C 
ENDROOT
BRANCH   1   2
ATOM      2  C   UNL     1      17.768  14.064  -4.908  1.00  0.00     0.041 C 
ATOM      3  O   UNL     1      18.164  12.869  -4.928  1.00  0.00    -0.550 OA
ATOM      4  O   UNL     1      18.394  14.984  -4.076  1.00  0.00    -0.550 OA
ENDBRANCH   1   2
BRANCH   1   5
ATOM      5  C   UNL     1      15.928  13.262  -6.377  1.00  0.00     0.006 C 
BRANCH   5   6
ATOM      6  C   UNL     1      16.157  13.240  -7.892  1.00  0.00    -0.003 C 
ATOM      7  C   UNL     1      14.872  12.895  -8.640  1.00  0.00     0.004 C 
ENDBRANCH   5   6
ENDBRANCH   1   5
TORSDOF 3
ENDMDL
MODEL 6
REMARK VINA RESULT:    -3.245     10.217     10.980
REMARK INTER + INTRA:          -3.845
REMARK INTER:                  -3.824
REMARK INTRA:                  -0.021
REMARK UNBOUND:                -0.031
REMARK SMILES CCCCC(=O)[O-]
REMARK SMILES IDX 4 1 5 2 6 3 7 4 3 5 2 6 1 7
REMARK H PARENT
REMARK Flexibility Score: inf
ROOT
ATOM      1  C   UNL     1      16.324   3.666  -5.470  1.00  0.00     0.053 C 
ENDROOT
BRANCH   1   2
ATOM      2  C   UNL     1      16.786   2.259  -5.689  1.00  0.00     0.041 C 
ATOM      3  O   UNL     1      16.959   1.490  -4.707  1.00  0.00    -0.550 OA
ATOM      4  O   UNL     1      17.070   1.813  -6.973  1.00  0.00    -0.550 OA
ENDBRANCH   1   2
BRANCH   1   5
ATOM      5  C   UNL     1      15.356   4.091  -6.577  1.00  0.00     0.006 C 
BRANCH   5   6
ATOM      6  C   UNL     1      15.225   5.616  -6.637  1.00  0.00    -0.003 C 
ATOM      7  C   UNL     1      13.767   6.040  -6.787  1.00  0.00     0.004 C 
ENDBRANCH   5   6
ENDBRANCH   1   5
TORSDOF 3
ENDMDL
MODEL 7
REMARK VINA RESULT:    -3.061      1.899      2.620
REMARK INTER + INTRA:          -3.629
REMARK INTER:                  -3.583
REMARK INTRA:                  -0.046
REMARK UNBOUND:                -0.031
REMARK SMILES CCCCC(=O)[O-]
REMARK SMILES IDX 4 1 5 2 6 3 7 4 3 5 2 6 1 7
REMARK H PARENT
REMARK Flexibility Score: inf
ROOT
ATOM      1  C   UNL     1      16.252  13.541  -6.123  1.00  0.00     0.053 C 
ENDROOT
BRANCH   1   2
ATOM      2  C   UNL     1      16.814  14.633  -5.267  1.00  0.00     0.041 C 
ATOM      3  O   UNL     1      17.726  14.381  -4.437  1.00  0.00    -0.550 OA
ATOM      4  O   UNL     1      16.296  15.919  -5.353  1.00  0.00    -0.550 OA
ENDBRANCH   1   2
BRANCH   1   5
ATOM      5  C   UNL     1      17.094  12.269  -5.991  1.00  0.00     0.006 C 
BRANCH   5   6
ATOM      6  C   UNL     1      17.874  11.991  -7.280  1.00  0.00    -0.003 C 
ATOM      7  C   UNL     1      18.609  10.656  -7.203  1.00  0.00     0.004 C 
ENDBRANCH   5   6
ENDBRANCH   1   5
TORSDOF 3
ENDMDL
MODEL 8
REMARK VINA RESULT:    -3.049      2.486      4.368
REMARK INTER + INTRA:          -3.615
REMARK INTER:                  -3.512
REMARK INTRA:                  -0.103
REMARK UNBOUND:                -0.031
REMARK SMILES CCCCC(=O)[O-]
REMARK SMILES IDX 4 1 5 2 6 3 7 4 3 5 2 6 1 7
REMARK H PARENT
REMARK Flexibility Score: inf
ROOT
ATOM      1  C   UNL     1      17.521  14.269  -5.963  1.00  0.00     0.053 C 
ENDROOT
BRANCH   1   2
ATOM      2  C   UNL     1      16.755  12.986  -6.036  1.00  0.00     0.041 C 
ATOM      3  O   UNL     1      17.295  11.905  -5.683  1.00  0.00    -0.550 OA
ATOM      4  O   UNL     1      15.461  12.977  -6.541  1.00  0.00    -0.550 OA
ENDBRANCH   1   2
BRANCH   1   5
ATOM      5  C   UNL     1      17.530  14.808  -4.530  1.00  0.00     0.006 C 
BRANCH   5   6
ATOM      6  C   UNL     1      18.963  15.019  -4.031  1.00  0.00    -0.003 C 
ATOM      7  C   UNL     1      19.581  13.707  -3.555  1.00  0.00     0.004 C 
ENDBRANCH   5   6
ENDBRANCH   1   5
TORSDOF 3
ENDMDL
MODEL 9
REMARK VINA RESULT:    -2.926     10.348     11.176
REMARK INTER + INTRA:          -3.470
REMARK INTER:                  -3.358
REMARK INTRA:                  -0.112
REMARK UNBOUND:                -0.031
REMARK SMILES CCCCC(=O)[O-]
REMARK SMILES IDX 4 1 5 2 6 3 7 4 3 5 2 6 1 7
REMARK H PARENT
REMARK Flexibility Score: inf
ROOT
ATOM      1  C   UNL     1      15.496   2.915  -6.415  1.00  0.00     0.053 C 
ENDROOT
BRANCH   1   2
ATOM      2  C   UNL     1      15.696   4.398  -6.442  1.00  0.00     0.041 C 
ATOM      3  O   UNL     1      16.859   4.880  -6.469  1.00  0.00    -0.550 OA
ATOM      4  O   UNL     1      14.599   5.248  -6.390  1.00  0.00    -0.550 OA
ENDBRANCH   1   2
BRANCH   1   5
ATOM      5  C   UNL     1      16.835   2.196  -6.227  1.00  0.00     0.006 C 
BRANCH   5   6
ATOM      6  C   UNL     1      16.952   1.612  -4.815  1.00  0.00    -0.003 C 
ATOM      7  C   UNL     1      17.770   2.525  -3.906  1.00  0.00     0.004 C 
ENDBRANCH   5   6
ENDBRANCH   1   5
TORSDOF 3
ENDMDL
