MODEL 1
REMARK VINA RESULT:    -4.270      0.000      0.000
REMARK INTER + INTRA:          -5.714
REMARK INTER:                  -5.269
REMARK INTRA:                  -0.445
REMARK UNBOUND:                -0.445
REMARK SMILES CCCCC=CC(C)=O
REMARK SMILES IDX 4 1 3 2 2 3 1 4 5 5 6 6 7 7 9 8 8 9
REMARK H PARENT
REMARK Flexibility Score: inf
ROOT
ATOM      1  C   UNL     1     -13.214 -18.860  31.791  1.00  0.00     0.027 C 
ENDROOT
BRANCH   1   2
ATOM      2  C   UNL     1     -12.888 -20.047  30.874  1.00  0.00     0.004 C 
BRANCH   2   3
ATOM      3  C   UNL     1     -12.806 -19.644  29.397  1.00  0.00    -0.003 C 
ATOM      4  C   UNL     1     -14.081 -20.027  28.650  1.00  0.00     0.004 C 
ENDBRANCH   2   3
ENDBRANCH   1   2
BRANCH   1   5
ATOM      5  C   UNL     1     -12.046 -17.915  31.917  1.00  0.00    -0.023 C 
ATOM      6  C   UNL     1     -11.969 -16.660  31.444  1.00  0.00     0.042 C 
BRANCH   6   7
ATOM      7  C   UNL     1     -12.998 -15.931  30.668  1.00  0.00     0.152 C 
ATOM      8  O   UNL     1     -14.012 -15.425  31.217  1.00  0.00    -0.295 OA
ATOM      9  C   UNL     1     -12.880 -15.870  29.179  1.00  0.00     0.093 C 
ENDBRANCH   6   7
ENDBRANCH   1   5
TORSDOF 4
ENDMDL
MODEL 2
REMARK VINA RESULT:    -4.260      1.301      1.356
REMARK INTER + INTRA:          -5.701
REMARK INTER:                  -5.225
REMARK INTRA:                  -0.476
REMARK UNBOUND:                -0.445
REMARK SMILES CCCCC=CC(C)=O
REMARK SMILES IDX 4 1 3 2 2 3 1 4 5 5 6 6 7 7 9 8 8 9
REMARK H PARENT
REMARK Flexibility Score: inf
ROOT
ATOM      1  C   UNL     1     -12.343 -18.638  31.776  1.00  0.00     0.027 C 
ENDROOT
BRANCH   1   2
ATOM      2  C   UNL     1     -13.096 -19.727  31.001  1.00  0.00     0.004 C 
BRANCH   2   3
ATOM      3  C   UNL     1     -12.769 -19.717  29.503  1.00  0.00    -0.003 C 
ATOM      4  C   UNL     1     -14.015 -19.990  28.665  1.00  0.00     0.004 C 
ENDBRANCH   2   3
ENDBRANCH   1   2
BRANCH   1   5
ATOM      5  C   UNL     1     -13.157 -17.374  31.898  1.00  0.00    -0.023 C 
ATOM      6  C   UNL     1     -13.070 -16.281  31.121  1.00  0.00     0.042 C 
BRANCH   6   7
ATOM      7  C   UNL     1     -12.138 -16.057  29.992  1.00  0.00     0.152 C 
ATOM      8  O   UNL     1     -10.903 -15.893  30.171  1.00  0.00    -0.295 OA
ATOM      9  C   UNL     1     -12.687 -15.935  28.607  1.00  0.00     0.093 C 
ENDBRANCH   6   7
ENDBRANCH   1   5
TORSDOF 4
ENDMDL
MODEL 3
REMARK VINA RESULT:    -4.216      2.782      4.275
REMARK INTER + INTRA:          -5.646
REMARK INTER:                  -5.457
REMARK INTRA:                  -0.189
REMARK UNBOUND:                -0.445
REMARK SMILES CCCCC=CC(C)=O
REMARK SMILES IDX 4 1 3 2 2 3 1 4 5 5 6 6 7 7 9 8 8 9
REMARK H PARENT
REMARK Flexibility Score: inf
ROOT
ATOM      1  C   UNL     1     -12.309 -16.142  30.629  1.00  0.00     0.027 C 
ENDROOT
BRANCH   1   2
ATOM      2  C   UNL     1     -13.287 -16.121  31.812  1.00  0.00     0.004 C 
BRANCH   2   3
ATOM      3  C   UNL     1     -14.371 -15.047  31.660  1.00  0.00    -0.003 C 
ATOM      4  C   UNL     1     -15.353 -15.087  32.828  1.00  0.00     0.004 C 
ENDBRANCH   2   3
ENDBRANCH   1   2
BRANCH   1   5
ATOM      5  C   UNL     1     -12.886 -15.459  29.415  1.00  0.00    -0.023 C 
ATOM      6  C   UNL     1     -12.923 -15.939  28.160  1.00  0.00     0.042 C 
BRANCH   6   7
ATOM      7  C   UNL     1     -12.381 -17.230  27.680  1.00  0.00     0.152 C 
ATOM      8  O   UNL     1     -12.760 -18.331  28.161  1.00  0.00    -0.295 OA
ATOM      9  C   UNL     1     -11.289 -17.229  26.660  1.00  0.00     0.093 C 
ENDBRANCH   6   7
ENDBRANCH   1   5
TORSDOF 4
ENDMDL
MODEL 4
REMARK VINA RESULT:    -4.213      1.760      3.866
REMARK INTER + INTRA:          -5.643
REMARK INTER:                  -5.336
REMARK INTRA:                  -0.307
REMARK UNBOUND:                -0.445
REMARK SMILES CCCCC=CC(C)=O
REMARK SMILES IDX 4 1 3 2 2 3 1 4 5 5 6 6 7 7 9 8 8 9
REMARK H PARENT
REMARK Flexibility Score: inf
ROOT
ATOM      1  C   UNL     1     -13.269 -17.868  31.991  1.00  0.00     0.027 C 
ENDROOT
BRANCH   1   2
ATOM      2  C   UNL     1     -12.824 -16.400  31.935  1.00  0.00     0.004 C 
BRANCH   2   3
ATOM      3  C   UNL     1     -13.893 -15.484  31.327  1.00  0.00    -0.003 C 
ATOM      4  C   UNL     1     -14.675 -14.753  32.414  1.00  0.00     0.004 C 
ENDBRANCH   2   3
ENDBRANCH   1   2
BRANCH   1   5
ATOM      5  C   UNL     1     -12.219 -18.792  31.429  1.00  0.00    -0.023 C 
ATOM      6  C   UNL     1     -12.140 -19.252  30.169  1.00  0.00     0.042 C 
BRANCH   6   7
ATOM      7  C   UNL     1     -13.078 -18.980  29.057  1.00  0.00     0.152 C 
ATOM      8  O   UNL     1     -13.118 -17.863  28.477  1.00  0.00    -0.295 OA
ATOM      9  C   UNL     1     -14.070 -20.029  28.668  1.00  0.00     0.093 C 
ENDBRANCH   6   7
ENDBRANCH   1   5
TORSDOF 4
ENDMDL
MODEL 5
REMARK VINA RESULT:    -4.196      2.323      4.284
REMARK INTER + INTRA:          -5.622
REMARK INTER:                  -5.325
REMARK INTRA:                  -0.297
REMARK UNBOUND:                -0.445
REMARK SMILES CCCCC=CC(C)=O
REMARK SMILES IDX 4 1 3 2 2 3 1 4 5 5 6 6 7 7 9 8 8 9
REMARK H PARENT
REMARK Flexibility Score: inf
ROOT
ATOM      1  C   UNL     1     -13.224 -16.785  32.123  1.00  0.00     0.027 C 
ENDROOT
BRANCH   1   2
ATOM      2  C   UNL     1     -13.600 -15.754  31.051  1.00  0.00     0.004 C 
BRANCH   2   3
ATOM      3  C   UNL     1     -14.618 -14.724  31.556  1.00  0.00    -0.003 C 
ATOM      4  C   UNL     1     -14.671 -14.705  33.081  1.00  0.00     0.004 C 
ENDBRANCH   2   3
ENDBRANCH   1   2
BRANCH   1   5
ATOM      5  C   UNL     1     -11.816 -17.292  31.941  1.00  0.00    -0.023 C 
ATOM      6  C   UNL     1     -11.446 -18.494  31.469  1.00  0.00     0.042 C 
BRANCH   6   7
ATOM      7  C   UNL     1     -12.333 -19.602  31.049  1.00  0.00     0.152 C 
ATOM      8  O   UNL     1     -12.576 -20.583  31.801  1.00  0.00    -0.295 OA
ATOM      9  C   UNL     1     -12.889 -19.605  29.662  1.00  0.00     0.093 C 
ENDBRANCH   6   7
ENDBRANCH   1   5
TORSDOF 4
ENDMDL
MODEL 6
REMARK VINA RESULT:    -4.185      2.178      3.825
REMARK INTER + INTRA:          -5.608
REMARK INTER:                  -5.046
REMARK INTRA:                  -0.563
REMARK UNBOUND:                -0.445
REMARK SMILES CCCCC=CC(C)=O
REMARK SMILES IDX 4 1 3 2 2 3 1 4 5 5 6 6 7 7 9 8 8 9
REMARK H PARENT
REMARK Flexibility Score: inf
ROOT
ATOM      1  C   UNL     1     -11.980 -15.874  29.362  1.00  0.00     0.027 C 
ENDROOT
BRANCH   1   2
ATOM      2  C   UNL     1     -12.926 -15.452  28.230  1.00  0.00     0.004 C 
BRANCH   2   3
ATOM      3  C   UNL     1     -13.001 -16.494  27.107  1.00  0.00    -0.003 C 
ATOM      4  C   UNL     1     -11.610 -16.995  26.727  1.00  0.00     0.004 C 
ENDBRANCH   2   3
ENDBRANCH   1   2
BRANCH   1   5
ATOM      5  C   UNL     1     -12.737 -16.381  30.564  1.00  0.00    -0.023 C 
ATOM      6  C   UNL     1     -12.894 -17.662  30.937  1.00  0.00     0.042 C 
BRANCH   6   7
ATOM      7  C   UNL     1     -12.386 -18.865  30.239  1.00  0.00     0.152 C 
ATOM      8  O   UNL     1     -11.212 -19.288  30.409  1.00  0.00    -0.295 OA
ATOM      9  C   UNL     1     -13.259 -19.549  29.236  1.00  0.00     0.093 C 
ENDBRANCH   6   7
ENDBRANCH   1   5
TORSDOF 4
ENDMDL
MODEL 7
REMARK VINA RESULT:    -4.079      2.210      4.191
REMARK INTER + INTRA:          -5.477
REMARK INTER:                  -5.146
REMARK INTRA:                  -0.331
REMARK UNBOUND:                -0.445
REMARK SMILES CCCCC=CC(C)=O
REMARK SMILES IDX 4 1 3 2 2 3 1 4 5 5 6 6 7 7 9 8 8 9
REMARK H PARENT
REMARK Flexibility Score: inf
ROOT
ATOM      1  C   UNL     1     -13.161 -16.116  30.518  1.00  0.00     0.027 C 
ENDROOT
BRANCH   1   2
ATOM      2  C   UNL     1     -13.020 -16.256  32.040  1.00  0.00     0.004 C 
BRANCH   2   3
ATOM      3  C   UNL     1     -14.354 -16.070  32.774  1.00  0.00    -0.003 C 
ATOM      4  C   UNL     1     -15.004 -14.739  32.407  1.00  0.00     0.004 C 
ENDBRANCH   2   3
ENDBRANCH   1   2
BRANCH   1   5
ATOM      5  C   UNL     1     -11.996 -16.736  29.790  1.00  0.00    -0.023 C 
ATOM      6  C   UNL     1     -11.905 -17.999  29.338  1.00  0.00     0.042 C 
BRANCH   6   7
ATOM      7  C   UNL     1     -12.914 -19.073  29.480  1.00  0.00     0.152 C 
ATOM      8  O   UNL     1     -13.800 -19.273  28.608  1.00  0.00    -0.295 OA
ATOM      9  C   UNL     1     -12.939 -19.889  30.732  1.00  0.00     0.093 C 
ENDBRANCH   6   7
ENDBRANCH   1   5
TORSDOF 4
ENDMDL
MODEL 8
REMARK VINA RESULT:    -4.048      2.379      2.844
REMARK INTER + INTRA:          -5.439
REMARK INTER:                  -4.953
REMARK INTRA:                  -0.486
REMARK UNBOUND:                -0.445
REMARK SMILES CCCCC=CC(C)=O
REMARK SMILES IDX 4 1 3 2 2 3 1 4 5 5 6 6 7 7 9 8 8 9
REMARK H PARENT
REMARK Flexibility Score: inf
ROOT
ATOM      1  C   UNL     1     -12.872 -17.459  30.283  1.00  0.00     0.027 C 
ENDROOT
BRANCH   1   2
ATOM      2  C   UNL     1     -12.123 -18.797  30.345  1.00  0.00     0.004 C 
BRANCH   2   3
ATOM      3  C   UNL     1     -13.009 -19.986  29.953  1.00  0.00    -0.003 C 
ATOM      4  C   UNL     1     -13.841 -19.668  28.714  1.00  0.00     0.004 C 
ENDBRANCH   2   3
ENDBRANCH   1   2
BRANCH   1   5
ATOM      5  C   UNL     1     -11.965 -16.329  29.869  1.00  0.00    -0.023 C 
ATOM      6  C   UNL     1     -11.632 -15.979  28.615  1.00  0.00     0.042 C 
BRANCH   6   7
ATOM      7  C   UNL     1     -12.057 -16.640  27.360  1.00  0.00     0.152 C 
ATOM      8  O   UNL     1     -11.299 -17.425  26.731  1.00  0.00    -0.295 OA
ATOM      9  C   UNL     1     -13.388 -16.299  26.771  1.00  0.00     0.093 C 
ENDBRANCH   6   7
ENDBRANCH   1   5
TORSDOF 4
ENDMDL
MODEL 9
REMARK VINA RESULT:    -4.036      3.012      3.717
REMARK INTER + INTRA:          -5.425
REMARK INTER:                  -4.930
REMARK INTRA:                  -0.495
REMARK UNBOUND:                -0.445
REMARK SMILES CCCCC=CC(C)=O
REMARK SMILES IDX 4 1 3 2 2 3 1 4 5 5 6 6 7 7 9 8 8 9
REMARK H PARENT
REMARK Flexibility Score: inf
ROOT
ATOM      1  C   UNL     1     -11.191 -16.943  31.563  1.00  0.00     0.027 C 
ENDROOT
BRANCH   1   2
ATOM      2  C   UNL     1     -12.189 -16.188  32.452  1.00  0.00     0.004 C 
BRANCH   2   3
ATOM      3  C   UNL     1     -13.640 -16.363  31.987  1.00  0.00    -0.003 C 
ATOM      4  C   UNL     1     -14.422 -15.059  32.122  1.00  0.00     0.004 C 
ENDBRANCH   2   3
ENDBRANCH   1   2
BRANCH   1   5
ATOM      5  C   UNL     1     -10.357 -15.999  30.734  1.00  0.00    -0.023 C 
ATOM      6  C   UNL     1     -10.554 -15.668  29.446  1.00  0.00     0.042 C 
BRANCH   6   7
ATOM      7  C   UNL     1     -11.612 -16.175  28.544  1.00  0.00     0.152 C 
ATOM      8  O   UNL     1     -11.420 -17.156  27.777  1.00  0.00    -0.295 OA
ATOM      9  C   UNL     1     -12.917 -15.451  28.472  1.00  0.00     0.093 C 
ENDBRANCH   6   7
ENDBRANCH   1   5
TORSDOF 4
ENDMDL
