MODEL 1
REMARK VINA RESULT:    -4.252      0.000      0.000
REMARK INTER + INTRA:          -9.341
REMARK INTER:                  -7.484
REMARK INTRA:                  -1.857
REMARK UNBOUND:                -1.857
REMARK SMILES CCCCCCC=CCCCCCCCC(=O)[O-]
REMARK SMILES IDX 10 1 11 2 12 3 13 4 14 5 15 6 16 7 17 8 18 9 9 10 8 11 7 12
REMARK SMILES IDX 6 13 5 14 4 15 3 16 2 17 1 18
REMARK H PARENT
REMARK Flexibility Score: inf
ROOT
ATOM      1  C   UNL     1     126.966 119.197 137.778  1.00  0.00     0.004 C 
ENDROOT
BRANCH   1   2
ATOM      2  C   UNL     1     125.989 120.147 138.495  1.00  0.00     0.000 C 
BRANCH   2   3
ATOM      3  C   UNL     1     126.400 121.623 138.371  1.00  0.00     0.000 C 
BRANCH   3   4
ATOM      4  C   UNL     1     127.004 121.949 136.994  1.00  0.00     0.000 C 
BRANCH   4   5
ATOM      5  C   UNL     1     126.103 122.873 136.159  1.00  0.00     0.006 C 
BRANCH   5   6
ATOM      6  C   UNL     1     126.669 123.147 134.759  1.00  0.00     0.053 C 
BRANCH   6   7
ATOM      7  C   UNL     1     125.749 122.611 133.710  1.00  0.00     0.041 C 
ATOM      8  O   UNL     1     125.248 121.462 133.833  1.00  0.00    -0.550 OA
ATOM      9  O   UNL     1     125.486 123.356 132.567  1.00  0.00    -0.550 OA
ENDBRANCH   6   7
ENDBRANCH   5   6
ENDBRANCH   4   5
ENDBRANCH   3   4
ENDBRANCH   2   3
ENDBRANCH   1   2
BRANCH   1  10
ATOM     10  C   UNL     1     127.701 118.277 138.761  1.00  0.00     0.027 C 
BRANCH  10  11
ATOM     11  C   UNL     1     129.093 118.776 139.036  1.00  0.00    -0.031 C 
ATOM     12  C   UNL     1     129.693 119.670 138.234  1.00  0.00    -0.031 C 
BRANCH  12  13
ATOM     13  C   UNL     1     131.045 120.238 138.566  1.00  0.00     0.027 C 
BRANCH  13  14
ATOM     14  C   UNL     1     131.038 121.767 138.455  1.00  0.00     0.004 C 
BRANCH  14  15
ATOM     15  C   UNL     1     131.641 122.415 139.706  1.00  0.00     0.000 C 
BRANCH  15  16
ATOM     16  C   UNL     1     130.783 122.119 140.945  1.00  0.00    -0.000 C 
BRANCH  16  17
ATOM     17  C   UNL     1     129.293 122.416 140.715  1.00  0.00    -0.003 C 
ATOM     18  C   UNL     1     128.376 121.381 141.366  1.00  0.00     0.004 C 
ENDBRANCH  16  17
ENDBRANCH  15  16
ENDBRANCH  14  15
ENDBRANCH  13  14
ENDBRANCH  12  13
ENDBRANCH  10  11
ENDBRANCH   1  10
TORSDOF 13
ENDMDL
MODEL 2
REMARK VINA RESULT:    -4.234      1.120      2.709
REMARK INTER + INTRA:          -9.308
REMARK INTER:                  -7.334
REMARK INTRA:                  -1.974
REMARK UNBOUND:                -1.857
REMARK SMILES CCCCCCC=CCCCCCCCC(=O)[O-]
REMARK SMILES IDX 10 1 11 2 12 3 13 4 14 5 15 6 16 7 17 8 18 9 9 10 8 11 7 12
REMARK SMILES IDX 6 13 5 14 4 15 3 16 2 17 1 18
REMARK H PARENT
REMARK Flexibility Score: inf
ROOT
ATOM      1  C   UNL     1     126.963 122.446 140.091  1.00  0.00     0.004 C 
ENDROOT
BRANCH   1   2
ATOM      2  C   UNL     1     126.364 121.060 139.794  1.00  0.00     0.000 C 
BRANCH   2   3
ATOM      3  C   UNL     1     126.001 120.877 138.310  1.00  0.00     0.000 C 
BRANCH   3   4
ATOM      4  C   UNL     1     127.014 121.558 137.373  1.00  0.00     0.000 C 
BRANCH   4   5
ATOM      5  C   UNL     1     126.348 122.541 136.398  1.00  0.00     0.006 C 
BRANCH   5   6
ATOM      6  C   UNL     1     126.044 121.910 135.032  1.00  0.00     0.053 C 
BRANCH   6   7
ATOM      7  C   UNL     1     126.123 122.941 133.952  1.00  0.00     0.041 C 
ATOM      8  O   UNL     1     125.187 123.057 133.117  1.00  0.00    -0.550 OA
ATOM      9  O   UNL     1     127.255 123.738 133.831  1.00  0.00    -0.550 OA
ENDBRANCH   6   7
ENDBRANCH   5   6
ENDBRANCH   4   5
ENDBRANCH   3   4
ENDBRANCH   2   3
ENDBRANCH   1   2
BRANCH   1  10
ATOM     10  C   UNL     1     127.694 122.481 141.440  1.00  0.00     0.027 C 
BRANCH  10  11
ATOM     11  C   UNL     1     129.158 122.181 141.272  1.00  0.00    -0.031 C 
ATOM     12  C   UNL     1     129.831 122.546 140.170  1.00  0.00    -0.031 C 
BRANCH  12  13
ATOM     13  C   UNL     1     131.314 122.330 140.048  1.00  0.00     0.027 C 
BRANCH  13  14
ATOM     14  C   UNL     1     131.672 121.760 138.670  1.00  0.00     0.004 C 
BRANCH  14  15
ATOM     15  C   UNL     1     130.576 120.818 138.160  1.00  0.00     0.000 C 
BRANCH  15  16
ATOM     16  C   UNL     1     130.642 119.462 138.877  1.00  0.00    -0.000 C 
BRANCH  16  17
ATOM     17  C   UNL     1     129.251 118.864 139.137  1.00  0.00    -0.003 C 
ATOM     18  C   UNL     1     129.007 118.553 140.613  1.00  0.00     0.004 C 
ENDBRANCH  16  17
ENDBRANCH  15  16
ENDBRANCH  14  15
ENDBRANCH  13  14
ENDBRANCH  12  13
ENDBRANCH  10  11
ENDBRANCH   1  10
TORSDOF 13
ENDMDL
MODEL 3
REMARK VINA RESULT:    -4.230      3.559      5.631
REMARK INTER + INTRA:          -9.301
REMARK INTER:                  -6.743
REMARK INTRA:                  -2.558
REMARK UNBOUND:                -1.857
REMARK SMILES CCCCCCC=CCCCCCCCC(=O)[O-]
REMARK SMILES IDX 10 1 11 2 12 3 13 4 14 5 15 6 16 7 17 8 18 9 9 10 8 11 7 12
REMARK SMILES IDX 6 13 5 14 4 15 3 16 2 17 1 18
REMARK H PARENT
REMARK Flexibility Score: inf
ROOT
ATOM      1  C   UNL     1     128.576 117.798 139.633  1.00  0.00     0.004 C 
ENDROOT
BRANCH   1   2
ATOM      2  C   UNL     1     130.108 117.732 139.766  1.00  0.00     0.000 C 
BRANCH   2   3
ATOM      3  C   UNL     1     130.794 119.048 139.364  1.00  0.00     0.000 C 
BRANCH   3   4
ATOM      4  C   UNL     1     130.001 119.818 138.293  1.00  0.00     0.000 C 
BRANCH   4   5
ATOM      5  C   UNL     1     130.485 121.267 138.129  1.00  0.00     0.006 C 
BRANCH   5   6
ATOM      6  C   UNL     1     131.868 121.506 138.752  1.00  0.00     0.053 C 
BRANCH   6   7
ATOM      7  C   UNL     1     131.792 122.574 139.796  1.00  0.00     0.041 C 
ATOM      8  O   UNL     1     131.077 122.411 140.819  1.00  0.00    -0.550 OA
ATOM      9  O   UNL     1     132.465 123.776 139.612  1.00  0.00    -0.550 OA
ENDBRANCH   6   7
ENDBRANCH   5   6
ENDBRANCH   4   5
ENDBRANCH   3   4
ENDBRANCH   2   3
ENDBRANCH   1   2
BRANCH   1  10
ATOM     10  C   UNL     1     127.893 118.090 140.976  1.00  0.00     0.027 C 
BRANCH  10  11
ATOM     11  C   UNL     1     127.243 119.447 140.971  1.00  0.00    -0.031 C 
ATOM     12  C   UNL     1     127.952 120.569 141.163  1.00  0.00    -0.031 C 
BRANCH  12  13
ATOM     13  C   UNL     1     127.315 121.927 141.062  1.00  0.00     0.027 C 
BRANCH  13  14
ATOM     14  C   UNL     1     127.532 122.531 139.669  1.00  0.00     0.004 C 
BRANCH  14  15
ATOM     15  C   UNL     1     126.331 122.260 138.756  1.00  0.00     0.000 C 
BRANCH  15  16
ATOM     16  C   UNL     1     126.779 121.607 137.440  1.00  0.00    -0.000 C 
BRANCH  16  17
ATOM     17  C   UNL     1     126.440 120.110 137.379  1.00  0.00    -0.003 C 
ATOM     18  C   UNL     1     125.098 119.780 138.032  1.00  0.00     0.004 C 
ENDBRANCH  16  17
ENDBRANCH  15  16
ENDBRANCH  14  15
ENDBRANCH  13  14
ENDBRANCH  12  13
ENDBRANCH  10  11
ENDBRANCH   1  10
TORSDOF 13
ENDMDL
MODEL 4
REMARK VINA RESULT:    -4.102      1.126      2.437
REMARK INTER + INTRA:          -9.076
REMARK INTER:                  -7.081
REMARK INTRA:                  -1.995
REMARK UNBOUND:                -1.857
REMARK SMILES CCCCCCC=CCCCCCCCC(=O)[O-]
REMARK SMILES IDX 10 1 11 2 12 3 13 4 14 5 15 6 16 7 17 8 18 9 9 10 8 11 7 12
REMARK SMILES IDX 6 13 5 14 4 15 3 16 2 17 1 18
REMARK H PARENT
REMARK Flexibility Score: inf
ROOT
ATOM      1  C   UNL     1     126.987 122.233 140.910  1.00  0.00     0.004 C 
ENDROOT
BRANCH   1   2
ATOM      2  C   UNL     1     126.180 122.277 139.600  1.00  0.00     0.000 C 
BRANCH   2   3
ATOM      3  C   UNL     1     127.078 122.319 138.352  1.00  0.00     0.000 C 
BRANCH   3   4
ATOM      4  C   UNL     1     126.916 121.066 137.473  1.00  0.00     0.000 C 
BRANCH   4   5
ATOM      5  C   UNL     1     125.936 121.285 136.310  1.00  0.00     0.006 C 
BRANCH   5   6
ATOM      6  C   UNL     1     126.283 122.518 135.464  1.00  0.00     0.053 C 
BRANCH   6   7
ATOM      7  C   UNL     1     125.852 122.317 134.047  1.00  0.00     0.041 C 
ATOM      8  O   UNL     1     125.076 121.371 133.748  1.00  0.00    -0.550 OA
ATOM      9  O   UNL     1     126.350 123.139 133.044  1.00  0.00    -0.550 OA
ENDBRANCH   6   7
ENDBRANCH   5   6
ENDBRANCH   4   5
ENDBRANCH   3   4
ENDBRANCH   2   3
ENDBRANCH   1   2
BRANCH   1  10
ATOM     10  C   UNL     1     126.945 120.848 141.567  1.00  0.00     0.027 C 
BRANCH  10  11
ATOM     11  C   UNL     1     128.060 119.973 141.064  1.00  0.00    -0.031 C 
ATOM     12  C   UNL     1     127.843 119.002 140.164  1.00  0.00    -0.031 C 
BRANCH  12  13
ATOM     13  C   UNL     1     128.975 118.194 139.593  1.00  0.00     0.027 C 
BRANCH  13  14
ATOM     14  C   UNL     1     130.286 118.991 139.626  1.00  0.00     0.004 C 
BRANCH  14  15
ATOM     15  C   UNL     1     130.408 119.905 138.402  1.00  0.00     0.000 C 
BRANCH  15  16
ATOM     16  C   UNL     1     131.281 121.128 138.717  1.00  0.00    -0.000 C 
BRANCH  16  17
ATOM     17  C   UNL     1     130.533 122.192 139.534  1.00  0.00    -0.003 C 
ATOM     18  C   UNL     1     131.046 122.303 140.970  1.00  0.00     0.004 C 
ENDBRANCH  16  17
ENDBRANCH  15  16
ENDBRANCH  14  15
ENDBRANCH  13  14
ENDBRANCH  12  13
ENDBRANCH  10  11
ENDBRANCH   1  10
TORSDOF 13
ENDMDL
MODEL 5
REMARK VINA RESULT:    -4.091      3.469      6.376
REMARK INTER + INTRA:          -9.057
REMARK INTER:                  -7.749
REMARK INTRA:                  -1.308
REMARK UNBOUND:                -1.857
REMARK SMILES CCCCCCC=CCCCCCCCC(=O)[O-]
REMARK SMILES IDX 10 1 11 2 12 3 13 4 14 5 15 6 16 7 17 8 18 9 9 10 8 11 7 12
REMARK SMILES IDX 6 13 5 14 4 15 3 16 2 17 1 18
REMARK H PARENT
REMARK Flexibility Score: inf
ROOT
ATOM      1  C   UNL     1     127.599 118.233 139.684  1.00  0.00     0.004 C 
ENDROOT
BRANCH   1   2
ATOM      2  C   UNL     1     129.125 118.087 139.824  1.00  0.00     0.000 C 
BRANCH   2   3
ATOM      3  C   UNL     1     129.849 119.443 139.860  1.00  0.00     0.000 C 
BRANCH   3   4
ATOM      4  C   UNL     1     130.259 119.924 138.456  1.00  0.00     0.000 C 
BRANCH   4   5
ATOM      5  C   UNL     1     130.360 121.454 138.364  1.00  0.00     0.006 C 
BRANCH   5   6
ATOM      6  C   UNL     1     131.803 121.963 138.490  1.00  0.00     0.053 C 
BRANCH   6   7
ATOM      7  C   UNL     1     131.940 122.850 139.686  1.00  0.00     0.041 C 
ATOM      8  O   UNL     1     132.665 123.879 139.633  1.00  0.00    -0.550 OA
ATOM      9  O   UNL     1     131.313 122.513 140.879  1.00  0.00    -0.550 OA
ENDBRANCH   6   7
ENDBRANCH   5   6
ENDBRANCH   4   5
ENDBRANCH   3   4
ENDBRANCH   2   3
ENDBRANCH   1   2
BRANCH   1  10
ATOM     10  C   UNL     1     127.093 119.566 140.250  1.00  0.00     0.027 C 
BRANCH  10  11
ATOM     11  C   UNL     1     126.487 120.420 139.169  1.00  0.00    -0.031 C 
ATOM     12  C   UNL     1     126.635 120.122 137.870  1.00  0.00    -0.031 C 
BRANCH  12  13
ATOM     13  C   UNL     1     125.948 120.922 136.798  1.00  0.00     0.027 C 
BRANCH  13  14
ATOM     14  C   UNL     1     126.789 122.143 136.404  1.00  0.00     0.004 C 
BRANCH  14  15
ATOM     15  C   UNL     1     125.967 123.137 135.577  1.00  0.00     0.000 C 
BRANCH  15  16
ATOM     16  C   UNL     1     125.604 122.543 134.208  1.00  0.00    -0.000 C 
BRANCH  16  17
ATOM     17  C   UNL     1     126.281 123.285 133.045  1.00  0.00    -0.003 C 
ATOM     18  C   UNL     1     127.511 124.078 133.486  1.00  0.00     0.004 C 
ENDBRANCH  16  17
ENDBRANCH  15  16
ENDBRANCH  14  15
ENDBRANCH  13  14
ENDBRANCH  12  13
ENDBRANCH  10  11
ENDBRANCH   1  10
TORSDOF 13
ENDMDL
MODEL 6
REMARK VINA RESULT:    -4.073      2.407      5.936
REMARK INTER + INTRA:          -9.025
REMARK INTER:                  -7.131
REMARK INTRA:                  -1.894
REMARK UNBOUND:                -1.857
REMARK SMILES CCCCCCC=CCCCCCCCC(=O)[O-]
REMARK SMILES IDX 10 1 11 2 12 3 13 4 14 5 15 6 16 7 17 8 18 9 9 10 8 11 7 12
REMARK SMILES IDX 6 13 5 14 4 15 3 16 2 17 1 18
REMARK H PARENT
REMARK Flexibility Score: inf
ROOT
ATOM      1  C   UNL     1     130.786 121.920 140.639  1.00  0.00     0.004 C 
ENDROOT
BRANCH   1   2
ATOM      2  C   UNL     1     131.096 122.190 139.156  1.00  0.00     0.000 C 
BRANCH   2   3
ATOM      3  C   UNL     1     131.485 120.914 138.391  1.00  0.00     0.000 C 
BRANCH   3   4
ATOM      4  C   UNL     1     130.800 119.659 138.960  1.00  0.00     0.000 C 
BRANCH   4   5
ATOM      5  C   UNL     1     129.411 119.417 138.350  1.00  0.00     0.006 C 
BRANCH   5   6
ATOM      6  C   UNL     1     128.514 118.545 139.241  1.00  0.00     0.053 C 
BRANCH   6   7
ATOM      7  C   UNL     1     127.140 118.449 138.661  1.00  0.00     0.041 C 
ATOM      8  O   UNL     1     126.166 118.995 139.244  1.00  0.00    -0.550 OA
ATOM      9  O   UNL     1     126.921 117.708 137.506  1.00  0.00    -0.550 OA
ENDBRANCH   6   7
ENDBRANCH   5   6
ENDBRANCH   4   5
ENDBRANCH   3   4
ENDBRANCH   2   3
ENDBRANCH   1   2
BRANCH   1  10
ATOM     10  C   UNL     1     129.342 122.290 141.002  1.00  0.00     0.027 C 
BRANCH  10  11
ATOM     11  C   UNL     1     128.505 122.487 139.768  1.00  0.00    -0.031 C 
ATOM     12  C   UNL     1     127.182 122.264 139.770  1.00  0.00    -0.031 C 
BRANCH  12  13
ATOM     13  C   UNL     1     126.335 122.554 138.562  1.00  0.00     0.027 C 
BRANCH  13  14
ATOM     14  C   UNL     1     127.029 122.075 137.280  1.00  0.00     0.004 C 
BRANCH  14  15
ATOM     15  C   UNL     1     126.092 121.202 136.438  1.00  0.00     0.000 C 
BRANCH  15  16
ATOM     16  C   UNL     1     125.936 121.775 135.021  1.00  0.00    -0.000 C 
BRANCH  16  17
ATOM     17  C   UNL     1     126.438 123.223 134.911  1.00  0.00    -0.003 C 
ATOM     18  C   UNL     1     126.802 123.615 133.480  1.00  0.00     0.004 C 
ENDBRANCH  16  17
ENDBRANCH  15  16
ENDBRANCH  14  15
ENDBRANCH  13  14
ENDBRANCH  12  13
ENDBRANCH  10  11
ENDBRANCH   1  10
TORSDOF 13
ENDMDL
MODEL 7
REMARK VINA RESULT:    -4.050      3.156      6.162
REMARK INTER + INTRA:          -8.985
REMARK INTER:                  -6.690
REMARK INTRA:                  -2.295
REMARK UNBOUND:                -1.857
REMARK SMILES CCCCCCC=CCCCCCCCC(=O)[O-]
REMARK SMILES IDX 10 1 11 2 12 3 13 4 14 5 15 6 16 7 17 8 18 9 9 10 8 11 7 12
REMARK SMILES IDX 6 13 5 14 4 15 3 16 2 17 1 18
REMARK H PARENT
REMARK Flexibility Score: inf
ROOT
ATOM      1  C   UNL     1     132.007 121.796 138.775  1.00  0.00     0.004 C 
ENDROOT
BRANCH   1   2
ATOM      2  C   UNL     1     130.959 120.783 138.280  1.00  0.00     0.000 C 
BRANCH   2   3
ATOM      3  C   UNL     1     131.273 119.343 138.719  1.00  0.00     0.000 C 
BRANCH   3   4
ATOM      4  C   UNL     1     130.430 118.904 139.930  1.00  0.00     0.000 C 
BRANCH   4   5
ATOM      5  C   UNL     1     130.041 117.419 139.870  1.00  0.00     0.006 C 
BRANCH   5   6
ATOM      6  C   UNL     1     128.902 117.064 140.836  1.00  0.00     0.053 C 
BRANCH   6   7
ATOM      7  C   UNL     1     127.596 117.018 140.109  1.00  0.00     0.041 C 
ATOM      8  O   UNL     1     127.573 116.897 138.856  1.00  0.00    -0.550 OA
ATOM      9  O   UNL     1     126.404 117.168 140.807  1.00  0.00    -0.550 OA
ENDBRANCH   6   7
ENDBRANCH   5   6
ENDBRANCH   4   5
ENDBRANCH   3   4
ENDBRANCH   2   3
ENDBRANCH   1   2
BRANCH   1  10
ATOM     10  C   UNL     1     131.474 122.661 139.924  1.00  0.00     0.027 C 
BRANCH  10  11
ATOM     11  C   UNL     1     129.983 122.519 140.065  1.00  0.00    -0.031 C 
ATOM     12  C   UNL     1     129.413 122.198 141.236  1.00  0.00    -0.031 C 
BRANCH  12  13
ATOM     13  C   UNL     1     127.918 122.152 141.394  1.00  0.00     0.027 C 
BRANCH  13  14
ATOM     14  C   UNL     1     127.378 120.752 141.078  1.00  0.00     0.004 C 
BRANCH  14  15
ATOM     15  C   UNL     1     126.478 120.774 139.837  1.00  0.00     0.000 C 
BRANCH  15  16
ATOM     16  C   UNL     1     127.278 120.424 138.574  1.00  0.00    -0.000 C 
BRANCH  16  17
ATOM     17  C   UNL     1     127.480 121.635 137.649  1.00  0.00    -0.003 C 
ATOM     18  C   UNL     1     126.175 122.371 137.345  1.00  0.00     0.004 C 
ENDBRANCH  16  17
ENDBRANCH  15  16
ENDBRANCH  14  15
ENDBRANCH  13  14
ENDBRANCH  12  13
ENDBRANCH  10  11
ENDBRANCH   1  10
TORSDOF 13
ENDMDL
MODEL 8
REMARK VINA RESULT:    -4.047      3.303      6.187
REMARK INTER + INTRA:          -8.979
REMARK INTER:                  -7.163
REMARK INTRA:                  -1.816
REMARK UNBOUND:                -1.857
REMARK SMILES CCCCCCC=CCCCCCCCC(=O)[O-]
REMARK SMILES IDX 10 1 11 2 12 3 13 4 14 5 15 6 16 7 17 8 18 9 9 10 8 11 7 12
REMARK SMILES IDX 6 13 5 14 4 15 3 16 2 17 1 18
REMARK H PARENT
REMARK Flexibility Score: inf
ROOT
ATOM      1  C   UNL     1     128.519 118.564 141.024  1.00  0.00     0.004 C 
ENDROOT
BRANCH   1   2
ATOM      2  C   UNL     1     129.325 117.977 139.851  1.00  0.00     0.000 C 
BRANCH   2   3
ATOM      3  C   UNL     1     130.495 118.880 139.426  1.00  0.00     0.000 C 
BRANCH   3   4
ATOM      4  C   UNL     1     130.089 119.892 138.341  1.00  0.00     0.000 C 
BRANCH   4   5
ATOM      5  C   UNL     1     130.617 121.307 138.626  1.00  0.00     0.006 C 
BRANCH   5   6
ATOM      6  C   UNL     1     129.598 122.183 139.369  1.00  0.00     0.053 C 
BRANCH   6   7
ATOM      7  C   UNL     1     129.956 122.286 140.817  1.00  0.00     0.041 C 
ATOM      8  O   UNL     1     129.065 122.518 141.675  1.00  0.00    -0.550 OA
ATOM      9  O   UNL     1     131.284 122.182 141.215  1.00  0.00    -0.550 OA
ENDBRANCH   6   7
ENDBRANCH   5   6
ENDBRANCH   4   5
ENDBRANCH   3   4
ENDBRANCH   2   3
ENDBRANCH   1   2
BRANCH   1  10
ATOM     10  C   UNL     1     127.028 118.700 140.689  1.00  0.00     0.027 C 
BRANCH  10  11
ATOM     11  C   UNL     1     126.699 120.095 140.232  1.00  0.00    -0.031 C 
ATOM     12  C   UNL     1     126.397 120.365 138.952  1.00  0.00    -0.031 C 
BRANCH  12  13
ATOM     13  C   UNL     1     125.975 121.742 138.520  1.00  0.00     0.027 C 
BRANCH  13  14
ATOM     14  C   UNL     1     126.576 122.093 137.153  1.00  0.00     0.004 C 
BRANCH  14  15
ATOM     15  C   UNL     1     126.094 121.121 136.071  1.00  0.00     0.000 C 
BRANCH  15  16
ATOM     16  C   UNL     1     125.772 121.867 134.768  1.00  0.00    -0.000 C 
BRANCH  16  17
ATOM     17  C   UNL     1     126.438 123.250 134.700  1.00  0.00    -0.003 C 
ATOM     18  C   UNL     1     126.773 123.676 133.271  1.00  0.00     0.004 C 
ENDBRANCH  16  17
ENDBRANCH  15  16
ENDBRANCH  14  15
ENDBRANCH  13  14
ENDBRANCH  12  13
ENDBRANCH  10  11
ENDBRANCH   1  10
TORSDOF 13
ENDMDL
MODEL 9
REMARK VINA RESULT:    -3.980      3.007      6.512
REMARK INTER + INTRA:          -8.862
REMARK INTER:                  -7.371
REMARK INTRA:                  -1.491
REMARK UNBOUND:                -1.857
REMARK SMILES CCCCCCC=CCCCCCCCC(=O)[O-]
REMARK SMILES IDX 10 1 11 2 12 3 13 4 14 5 15 6 16 7 17 8 18 9 9 10 8 11 7 12
REMARK SMILES IDX 6 13 5 14 4 15 3 16 2 17 1 18
REMARK H PARENT
REMARK Flexibility Score: inf
ROOT
ATOM      1  C   UNL     1     129.501 122.503 141.363  1.00  0.00     0.004 C 
ENDROOT
BRANCH   1   2
ATOM      2  C   UNL     1     130.854 121.928 140.908  1.00  0.00     0.000 C 
BRANCH   2   3
ATOM      3  C   UNL     1     131.403 122.626 139.653  1.00  0.00     0.000 C 
BRANCH   3   4
ATOM      4  C   UNL     1     131.228 121.772 138.385  1.00  0.00     0.000 C 
BRANCH   4   5
ATOM      5  C   UNL     1     131.312 120.264 138.673  1.00  0.00     0.006 C 
BRANCH   5   6
ATOM      6  C   UNL     1     130.006 119.524 138.353  1.00  0.00     0.053 C 
BRANCH   6   7
ATOM      7  C   UNL     1     129.717 118.501 139.404  1.00  0.00     0.041 C 
ATOM      8  O   UNL     1     130.659 117.866 139.947  1.00  0.00    -0.550 OA
ATOM      9  O   UNL     1     128.403 118.205 139.745  1.00  0.00    -0.550 OA
ENDBRANCH   6   7
ENDBRANCH   5   6
ENDBRANCH   4   5
ENDBRANCH   3   4
ENDBRANCH   2   3
ENDBRANCH   1   2
BRANCH   1  10
ATOM     10  C   UNL     1     128.337 121.554 141.052  1.00  0.00     0.027 C 
BRANCH  10  11
ATOM     11  C   UNL     1     127.430 122.132 140.000  1.00  0.00    -0.031 C 
ATOM     12  C   UNL     1     127.370 121.618 138.762  1.00  0.00    -0.031 C 
BRANCH  12  13
ATOM     13  C   UNL     1     126.393 122.138 137.744  1.00  0.00     0.027 C 
BRANCH  13  14
ATOM     14  C   UNL     1     126.081 121.068 136.690  1.00  0.00     0.004 C 
BRANCH  14  15
ATOM     15  C   UNL     1     125.891 121.696 135.304  1.00  0.00     0.000 C 
BRANCH  15  16
ATOM     16  C   UNL     1     126.008 123.226 135.375  1.00  0.00    -0.000 C 
BRANCH  16  17
ATOM     17  C   UNL     1     125.533 123.914 134.086  1.00  0.00    -0.003 C 
ATOM     18  C   UNL     1     126.288 123.432 132.847  1.00  0.00     0.004 C 
ENDBRANCH  16  17
ENDBRANCH  15  16
ENDBRANCH  14  15
ENDBRANCH  13  14
ENDBRANCH  12  13
ENDBRANCH  10  11
ENDBRANCH   1  10
TORSDOF 13
ENDMDL
