MODEL 1
REMARK VINA RESULT:    -4.898      0.000      0.000
REMARK INTER + INTRA:          -6.814
REMARK INTER:                  -6.616
REMARK INTRA:                  -0.198
REMARK UNBOUND:                -0.198
REMARK SMILES CCCCCCCC(=O)[O-]
REMARK SMILES IDX 5 1 6 2 7 3 8 4 9 5 10 6 4 7 3 8 2 9 1 10
REMARK H PARENT
REMARK Flexibility Score: inf
ROOT
ATOM      1  C   UNL     1      62.333 151.739   3.597  1.00  0.00     0.000 C 
ENDROOT
BRANCH   1   2
ATOM      2  C   UNL     1      61.699 151.890   2.210  1.00  0.00     0.006 C 
BRANCH   2   3
ATOM      3  C   UNL     1      60.310 152.529   2.306  1.00  0.00     0.053 C 
BRANCH   3   4
ATOM      4  C   UNL     1      60.150 153.593   1.267  1.00  0.00     0.041 C 
ATOM      5  O   UNL     1      61.095 153.854   0.476  1.00  0.00    -0.550 OA
ATOM      6  O   UNL     1      58.974 154.330   1.201  1.00  0.00    -0.550 OA
ENDBRANCH   3   4
ENDBRANCH   2   3
ENDBRANCH   1   2
BRANCH   1   7
ATOM      7  C   UNL     1      63.856 151.568   3.489  1.00  0.00     0.000 C 
BRANCH   7   8
ATOM      8  C   UNL     1      64.556 151.619   4.857  1.00  0.00    -0.000 C 
BRANCH   8   9
ATOM      9  C   UNL     1      65.109 150.253   5.290  1.00  0.00    -0.003 C 
ATOM     10  C   UNL     1      65.121 149.269   4.124  1.00  0.00     0.004 C 
ENDBRANCH   8   9
ENDBRANCH   7   8
ENDBRANCH   1   7
TORSDOF 6
ENDMDL
MODEL 2
REMARK VINA RESULT:    -4.814      3.492      6.001
REMARK INTER + INTRA:          -6.701
REMARK INTER:                  -6.506
REMARK INTRA:                  -0.195
REMARK UNBOUND:                -0.198
REMARK SMILES CCCCCCCC(=O)[O-]
REMARK SMILES IDX 5 1 6 2 7 3 8 4 9 5 10 6 4 7 3 8 2 9 1 10
REMARK H PARENT
REMARK Flexibility Score: inf
ROOT
ATOM      1  C   UNL     1      62.330 151.550   3.653  1.00  0.00     0.000 C 
ENDROOT
BRANCH   1   2
ATOM      2  C   UNL     1      63.856 151.542   3.508  1.00  0.00     0.006 C 
BRANCH   2   3
ATOM      3  C   UNL     1      64.532 151.153   4.827  1.00  0.00     0.053 C 
BRANCH   3   4
ATOM      4  C   UNL     1      65.086 149.766   4.742  1.00  0.00     0.041 C 
ATOM      5  O   UNL     1      65.429 149.156   5.789  1.00  0.00    -0.550 OA
ATOM      6  O   UNL     1      65.271 149.165   3.503  1.00  0.00    -0.550 OA
ENDBRANCH   3   4
ENDBRANCH   2   3
ENDBRANCH   1   2
BRANCH   1   7
ATOM      7  C   UNL     1      61.656 151.977   2.340  1.00  0.00     0.000 C 
BRANCH   7   8
ATOM      8  C   UNL     1      60.203 152.434   2.543  1.00  0.00    -0.000 C 
BRANCH   8   9
ATOM      9  C   UNL     1      59.792 153.551   1.571  1.00  0.00    -0.003 C 
ATOM     10  C   UNL     1      60.878 153.799   0.528  1.00  0.00     0.004 C 
ENDBRANCH   8   9
ENDBRANCH   7   8
ENDBRANCH   1   7
TORSDOF 6
ENDMDL
MODEL 3
REMARK VINA RESULT:    -4.717      3.636      5.743
REMARK INTER + INTRA:          -6.570
REMARK INTER:                  -6.247
REMARK INTRA:                  -0.323
REMARK UNBOUND:                -0.198
REMARK SMILES CCCCCCCC(=O)[O-]
REMARK SMILES IDX 5 1 6 2 7 3 8 4 9 5 10 6 4 7 3 8 2 9 1 10
REMARK H PARENT
REMARK Flexibility Score: inf
ROOT
ATOM      1  C   UNL     1      64.709 150.815   3.770  1.00  0.00     0.000 C 
ENDROOT
BRANCH   1   2
ATOM      2  C   UNL     1      65.077 150.569   5.238  1.00  0.00     0.006 C 
BRANCH   2   3
ATOM      3  C   UNL     1      64.834 149.108   5.629  1.00  0.00     0.053 C 
BRANCH   3   4
ATOM      4  C   UNL     1      63.386 148.879   5.924  1.00  0.00     0.041 C 
ATOM      5  O   UNL     1      62.768 149.651   6.704  1.00  0.00    -0.550 OA
ATOM      6  O   UNL     1      62.729 147.785   5.375  1.00  0.00    -0.550 OA
ENDBRANCH   3   4
ENDBRANCH   2   3
ENDBRANCH   1   2
BRANCH   1   7
ATOM      7  C   UNL     1      63.719 151.983   3.641  1.00  0.00     0.000 C 
BRANCH   7   8
ATOM      8  C   UNL     1      62.265 151.512   3.483  1.00  0.00    -0.000 C 
BRANCH   8   9
ATOM      9  C   UNL     1      61.652 151.925   2.137  1.00  0.00    -0.003 C 
ATOM     10  C   UNL     1      60.331 152.662   2.337  1.00  0.00     0.004 C 
ENDBRANCH   8   9
ENDBRANCH   7   8
ENDBRANCH   1   7
TORSDOF 6
ENDMDL
MODEL 4
REMARK VINA RESULT:    -4.593      3.025      4.019
REMARK INTER + INTRA:          -6.403
REMARK INTER:                  -5.762
REMARK INTRA:                  -0.641
REMARK UNBOUND:                -0.198
REMARK SMILES CCCCCCCC(=O)[O-]
REMARK SMILES IDX 5 1 6 2 7 3 8 4 9 5 10 6 4 7 3 8 2 9 1 10
REMARK H PARENT
REMARK Flexibility Score: inf
ROOT
ATOM      1  C   UNL     1      63.844 148.854   5.681  1.00  0.00     0.000 C 
ENDROOT
BRANCH   1   2
ATOM      2  C   UNL     1      62.884 149.695   6.530  1.00  0.00     0.006 C 
BRANCH   2   3
ATOM      3  C   UNL     1      61.538 149.877   5.821  1.00  0.00     0.053 C 
BRANCH   3   4
ATOM      4  C   UNL     1      61.457 151.230   5.190  1.00  0.00     0.041 C 
ATOM      5  O   UNL     1      61.379 151.342   3.938  1.00  0.00    -0.550 OA
ATOM      6  O   UNL     1      61.516 152.371   5.981  1.00  0.00    -0.550 OA
ENDBRANCH   3   4
ENDBRANCH   2   3
ENDBRANCH   1   2
BRANCH   1   7
ATOM      7  C   UNL     1      65.095 149.663   5.304  1.00  0.00     0.000 C 
BRANCH   7   8
ATOM      8  C   UNL     1      64.935 150.415   3.973  1.00  0.00    -0.000 C 
BRANCH   8   9
ATOM      9  C   UNL     1      64.851 151.937   4.159  1.00  0.00    -0.003 C 
ATOM     10  C   UNL     1      65.322 152.347   5.552  1.00  0.00     0.004 C 
ENDBRANCH   8   9
ENDBRANCH   7   8
ENDBRANCH   1   7
TORSDOF 6
ENDMDL
MODEL 5
REMARK VINA RESULT:    -4.517      4.491      5.463
REMARK INTER + INTRA:          -6.300
REMARK INTER:                  -5.974
REMARK INTRA:                  -0.326
REMARK UNBOUND:                -0.198
REMARK SMILES CCCCCCCC(=O)[O-]
REMARK SMILES IDX 5 1 6 2 7 3 8 4 9 5 10 6 4 7 3 8 2 9 1 10
REMARK H PARENT
REMARK Flexibility Score: inf
ROOT
ATOM      1  C   UNL     1      63.762 149.365   6.083  1.00  0.00     0.000 C 
ENDROOT
BRANCH   1   2
ATOM      2  C   UNL     1      62.767 148.256   5.722  1.00  0.00     0.006 C 
BRANCH   2   3
ATOM      3  C   UNL     1      61.361 148.826   5.512  1.00  0.00     0.053 C 
BRANCH   3   4
ATOM      4  C   UNL     1      60.427 148.316   6.563  1.00  0.00     0.041 C 
ATOM      5  O   UNL     1      60.590 147.167   7.052  1.00  0.00    -0.550 OA
ATOM      6  O   UNL     1      59.347 149.090   6.970  1.00  0.00    -0.550 OA
ENDBRANCH   3   4
ENDBRANCH   2   3
ENDBRANCH   1   2
BRANCH   1   7
ATOM      7  C   UNL     1      65.097 149.166   5.349  1.00  0.00     0.000 C 
BRANCH   7   8
ATOM      8  C   UNL     1      65.125 149.856   3.976  1.00  0.00    -0.000 C 
BRANCH   8   9
ATOM      9  C   UNL     1      64.286 151.142   3.941  1.00  0.00    -0.003 C 
ATOM     10  C   UNL     1      65.085 152.334   4.459  1.00  0.00     0.004 C 
ENDBRANCH   8   9
ENDBRANCH   7   8
ENDBRANCH   1   7
TORSDOF 6
ENDMDL
MODEL 6
REMARK VINA RESULT:    -4.506      2.241      3.224
REMARK INTER + INTRA:          -6.284
REMARK INTER:                  -5.707
REMARK INTRA:                  -0.578
REMARK UNBOUND:                -0.198
REMARK SMILES CCCCCCCC(=O)[O-]
REMARK SMILES IDX 5 1 6 2 7 3 8 4 9 5 10 6 4 7 3 8 2 9 1 10
REMARK H PARENT
REMARK Flexibility Score: inf
ROOT
ATOM      1  C   UNL     1      65.053 151.410   5.130  1.00  0.00     0.000 C 
ENDROOT
BRANCH   1   2
ATOM      2  C   UNL     1      64.214 152.291   4.198  1.00  0.00     0.006 C 
BRANCH   2   3
ATOM      3  C   UNL     1      63.391 151.439   3.228  1.00  0.00     0.053 C 
BRANCH   3   4
ATOM      4  C   UNL     1      61.935 151.758   3.356  1.00  0.00     0.041 C 
ATOM      5  O   UNL     1      61.261 152.061   2.336  1.00  0.00    -0.550 OA
ATOM      6  O   UNL     1      61.332 151.767   4.607  1.00  0.00    -0.550 OA
ENDBRANCH   3   4
ENDBRANCH   2   3
ENDBRANCH   1   2
BRANCH   1   7
ATOM      7  C   UNL     1      65.060 149.951   4.648  1.00  0.00     0.000 C 
BRANCH   7   8
ATOM      8  C   UNL     1      64.617 148.965   5.740  1.00  0.00    -0.000 C 
BRANCH   8   9
ATOM      9  C   UNL     1      63.238 149.307   6.324  1.00  0.00    -0.003 C 
ATOM     10  C   UNL     1      62.150 148.427   5.718  1.00  0.00     0.004 C 
ENDBRANCH   8   9
ENDBRANCH   7   8
ENDBRANCH   1   7
TORSDOF 6
ENDMDL
MODEL 7
REMARK VINA RESULT:    -4.427      1.656      2.466
REMARK INTER + INTRA:          -6.179
REMARK INTER:                  -5.900
REMARK INTRA:                  -0.279
REMARK UNBOUND:                -0.198
REMARK SMILES CCCCCCCC(=O)[O-]
REMARK SMILES IDX 5 1 6 2 7 3 8 4 9 5 10 6 4 7 3 8 2 9 1 10
REMARK H PARENT
REMARK Flexibility Score: inf
ROOT
ATOM      1  C   UNL     1      61.618 152.617   1.875  1.00  0.00     0.000 C 
ENDROOT
BRANCH   1   2
ATOM      2  C   UNL     1      60.421 153.349   1.257  1.00  0.00     0.006 C 
BRANCH   2   3
ATOM      3  C   UNL     1      59.186 153.243   2.158  1.00  0.00     0.053 C 
BRANCH   3   4
ATOM      4  C   UNL     1      58.463 154.551   2.211  1.00  0.00     0.041 C 
ATOM      5  O   UNL     1      58.154 155.147   1.146  1.00  0.00    -0.550 OA
ATOM      6  O   UNL     1      58.172 155.136   3.437  1.00  0.00    -0.550 OA
ENDBRANCH   3   4
ENDBRANCH   2   3
ENDBRANCH   1   2
BRANCH   1   7
ATOM      7  C   UNL     1      61.176 151.747   3.062  1.00  0.00     0.000 C 
BRANCH   7   8
ATOM      8  C   UNL     1      62.306 151.512   4.077  1.00  0.00    -0.000 C 
BRANCH   8   9
ATOM      9  C   UNL     1      63.700 151.567   3.435  1.00  0.00    -0.003 C 
ATOM     10  C   UNL     1      64.741 152.081   4.425  1.00  0.00     0.004 C 
ENDBRANCH   8   9
ENDBRANCH   7   8
ENDBRANCH   1   7
TORSDOF 6
ENDMDL
MODEL 8
REMARK VINA RESULT:    -4.390      3.160      6.073
REMARK INTER + INTRA:          -6.128
REMARK INTER:                  -5.965
REMARK INTRA:                  -0.163
REMARK UNBOUND:                -0.198
REMARK SMILES CCCCCCCC(=O)[O-]
REMARK SMILES IDX 5 1 6 2 7 3 8 4 9 5 10 6 4 7 3 8 2 9 1 10
REMARK H PARENT
REMARK Flexibility Score: inf
ROOT
ATOM      1  C   UNL     1      61.564 151.877   2.052  1.00  0.00     0.000 C 
ENDROOT
BRANCH   1   2
ATOM      2  C   UNL     1      61.965 151.571   3.500  1.00  0.00     0.006 C 
BRANCH   2   3
ATOM      3  C   UNL     1      63.486 151.629   3.673  1.00  0.00     0.053 C 
BRANCH   3   4
ATOM      4  C   UNL     1      63.861 151.360   5.096  1.00  0.00     0.041 C 
ATOM      5  O   UNL     1      62.975 151.330   5.990  1.00  0.00    -0.550 OA
ATOM      6  O   UNL     1      65.196 151.189   5.443  1.00  0.00    -0.550 OA
ENDBRANCH   3   4
ENDBRANCH   2   3
ENDBRANCH   1   2
BRANCH   1   7
ATOM      7  C   UNL     1      60.524 153.005   1.997  1.00  0.00     0.000 C 
BRANCH   7   8
ATOM      8  C   UNL     1      60.485 153.709   0.631  1.00  0.00    -0.000 C 
BRANCH   8   9
ATOM      9  C   UNL     1      59.177 154.479   0.398  1.00  0.00    -0.003 C 
ATOM     10  C   UNL     1      58.341 154.541   1.673  1.00  0.00     0.004 C 
ENDBRANCH   8   9
ENDBRANCH   7   8
ENDBRANCH   1   7
TORSDOF 6
ENDMDL
MODEL 9
REMARK VINA RESULT:    -4.239      4.028      5.444
REMARK INTER + INTRA:          -5.925
REMARK INTER:                  -5.704
REMARK INTRA:                  -0.221
REMARK UNBOUND:                -0.198
REMARK SMILES CCCCCCCC(=O)[O-]
REMARK SMILES IDX 5 1 6 2 7 3 8 4 9 5 10 6 4 7 3 8 2 9 1 10
REMARK H PARENT
REMARK Flexibility Score: inf
ROOT
ATOM      1  C   UNL     1      63.516 149.503   6.017  1.00  0.00     0.000 C 
ENDROOT
BRANCH   1   2
ATOM      2  C   UNL     1      64.916 149.269   5.437  1.00  0.00     0.006 C 
BRANCH   2   3
ATOM      3  C   UNL     1      65.000 149.760   3.988  1.00  0.00     0.053 C 
BRANCH   3   4
ATOM      4  C   UNL     1      64.568 151.189   3.894  1.00  0.00     0.041 C 
ATOM      5  O   UNL     1      63.550 151.500   3.222  1.00  0.00    -0.550 OA
ATOM      6  O   UNL     1      65.317 152.184   4.509  1.00  0.00    -0.550 OA
ENDBRANCH   3   4
ENDBRANCH   2   3
ENDBRANCH   1   2
BRANCH   1   7
ATOM      7  C   UNL     1      62.575 148.340   5.666  1.00  0.00     0.000 C 
BRANCH   7   8
ATOM      8  C   UNL     1      61.124 148.601   6.102  1.00  0.00    -0.000 C 
BRANCH   8   9
ATOM      9  C   UNL     1      60.517 147.421   6.875  1.00  0.00    -0.003 C 
ATOM     10  C   UNL     1      59.835 147.896   8.155  1.00  0.00     0.004 C 
ENDBRANCH   8   9
ENDBRANCH   7   8
ENDBRANCH   1   7
TORSDOF 6
ENDMDL
