MODEL 1
REMARK VINA RESULT:     2.378      0.000      0.000
REMARK INTER + INTRA:           2.312
REMARK INTER:                   2.517
REMARK INTRA:                  -0.206
REMARK UNBOUND:                -0.206
REMARK SMILES CC1=CC[C@@H]2[C@H]3[C@H](C(C)C)CC[C@]2(C)[C@@H]13
REMARK SMILES IDX 1 1 2 2 3 3 4 4 5 5 6 6 15 7 13 8 12 9 11 10 7 11 14 12 8 13
REMARK SMILES IDX 9 14 10 15
REMARK H PARENT
REMARK Flexibility Score: inf
ROOT
ATOM      1  C   UNL     1       4.334   9.024  10.875  1.00  0.00     0.039 C 
ATOM      2  C   UNL     1       4.647   8.216  12.098  1.00  0.00    -0.073 C 
ATOM      3  C   UNL     1       3.848   8.262  13.196  1.00  0.00    -0.027 C 
ATOM      4  C   UNL     1       4.206   7.397  14.410  1.00  0.00     0.031 C 
ATOM      5  C   UNL     1       5.530   6.606  14.143  1.00  0.00     0.003 C 
ATOM      6  C   UNL     1       6.552   7.600  13.544  1.00  0.00     0.004 C 
ATOM      7  C   UNL     1       5.887   7.320  12.175  1.00  0.00     0.024 C 
ATOM      8  C   UNL     1       5.511   5.931  12.753  1.00  0.00    -0.022 C 
ATOM      9  C   UNL     1       6.712   4.947  12.663  1.00  0.00     0.008 C 
ATOM     10  C   UNL     1       8.077   5.664  12.824  1.00  0.00     0.005 C 
ATOM     11  C   UNL     1       7.995   7.003  13.629  1.00  0.00    -0.005 C 
ATOM     12  C   UNL     1       4.207   5.251  12.273  1.00  0.00     0.012 C 
ENDROOT
BRANCH  11  13
ATOM     13  C   UNL     1       9.092   8.015  13.165  1.00  0.00    -0.014 C 
ATOM     14  C   UNL     1      10.138   8.249  14.272  1.00  0.00     0.007 C 
ATOM     15  C   UNL     1       8.500   9.376  12.751  1.00  0.00     0.007 C 
ENDBRANCH  11  13
TORSDOF 1
ENDMDL
MODEL 2
REMARK VINA RESULT:     3.528      1.213      4.124
REMARK INTER + INTRA:           3.528
REMARK INTER:                   3.899
REMARK INTRA:                  -0.371
REMARK UNBOUND:                -0.206
REMARK SMILES CC1=CC[C@@H]2[C@H]3[C@H](C(C)C)CC[C@]2(C)[C@@H]13
REMARK SMILES IDX 1 1 2 2 3 3 4 4 5 5 6 6 15 7 13 8 12 9 11 10 7 11 14 12 8 13
REMARK SMILES IDX 9 14 10 15
REMARK H PARENT
REMARK Flexibility Score: inf
ROOT
ATOM      1  C   UNL     1       7.881   8.834  15.001  1.00  0.00     0.039 C 
ATOM      2  C   UNL     1       7.733   7.807  13.919  1.00  0.00    -0.073 C 
ATOM      3  C   UNL     1       8.801   7.404  13.181  1.00  0.00    -0.027 C 
ATOM      4  C   UNL     1       8.594   6.335  12.102  1.00  0.00     0.031 C 
ATOM      5  C   UNL     1       7.087   5.916  12.033  1.00  0.00     0.003 C 
ATOM      6  C   UNL     1       6.244   7.212  12.041  1.00  0.00     0.004 C 
ATOM      7  C   UNL     1       6.376   7.182  13.583  1.00  0.00     0.024 C 
ATOM      8  C   UNL     1       6.514   5.643  13.442  1.00  0.00    -0.022 C 
ATOM      9  C   UNL     1       5.119   4.972  13.288  1.00  0.00     0.008 C 
ATOM     10  C   UNL     1       4.110   5.872  12.531  1.00  0.00     0.005 C 
ATOM     11  C   UNL     1       4.785   6.907  11.571  1.00  0.00    -0.005 C 
ATOM     12  C   UNL     1       7.385   4.875  14.464  1.00  0.00     0.012 C 
ENDROOT
BRANCH  11  13
ATOM     13  C   UNL     1       3.916   8.199  11.426  1.00  0.00    -0.014 C 
ATOM     14  C   UNL     1       4.751   9.371  10.876  1.00  0.00     0.007 C 
ATOM     15  C   UNL     1       3.279   8.631  12.761  1.00  0.00     0.007 C 
ENDBRANCH  11  13
TORSDOF 1
ENDMDL
MODEL 3
REMARK VINA RESULT:     3.931      1.202      4.264
REMARK INTER + INTRA:           3.955
REMARK INTER:                   4.092
REMARK INTRA:                  -0.136
REMARK UNBOUND:                -0.206
REMARK SMILES CC1=CC[C@@H]2[C@H]3[C@H](C(C)C)CC[C@]2(C)[C@@H]13
REMARK SMILES IDX 1 1 2 2 3 3 4 4 5 5 6 6 15 7 13 8 12 9 11 10 7 11 14 12 8 13
REMARK SMILES IDX 9 14 10 15
REMARK H PARENT
REMARK Flexibility Score: inf
ROOT
ATOM      1  C   UNL     1       8.619   8.233  14.677  1.00  0.00     0.039 C 
ATOM      2  C   UNL     1       7.873   7.796  13.453  1.00  0.00    -0.073 C 
ATOM      3  C   UNL     1       8.374   8.013  12.208  1.00  0.00    -0.027 C 
ATOM      4  C   UNL     1       7.577   7.525  10.993  1.00  0.00     0.031 C 
ATOM      5  C   UNL     1       6.237   6.860  11.453  1.00  0.00     0.003 C 
ATOM      6  C   UNL     1       5.593   7.794  12.505  1.00  0.00     0.004 C 
ATOM      7  C   UNL     1       6.509   7.105  13.545  1.00  0.00     0.024 C 
ATOM      8  C   UNL     1       6.470   5.866  12.613  1.00  0.00    -0.022 C 
ATOM      9  C   UNL     1       5.168   5.046  12.833  1.00  0.00     0.008 C 
ATOM     10  C   UNL     1       3.961   5.941  13.212  1.00  0.00     0.005 C 
ATOM     11  C   UNL     1       4.089   7.417  12.709  1.00  0.00    -0.005 C 
ATOM     12  C   UNL     1       7.704   4.935  12.557  1.00  0.00     0.012 C 
ENDROOT
BRANCH  11  13
ATOM     13  C   UNL     1       3.343   8.410  13.659  1.00  0.00    -0.014 C 
ATOM     14  C   UNL     1       3.814   8.244  15.117  1.00  0.00     0.007 C 
ATOM     15  C   UNL     1       1.814   8.231  13.612  1.00  0.00     0.007 C 
ENDBRANCH  11  13
TORSDOF 1
ENDMDL
MODEL 4
REMARK VINA RESULT:     5.217      1.216      2.427
REMARK INTER + INTRA:           5.316
REMARK INTER:                   5.352
REMARK INTRA:                  -0.036
REMARK UNBOUND:                -0.206
REMARK SMILES CC1=CC[C@@H]2[C@H]3[C@H](C(C)C)CC[C@]2(C)[C@@H]13
REMARK SMILES IDX 1 1 2 2 3 3 4 4 5 5 6 6 15 7 13 8 12 9 11 10 7 11 14 12 8 13
REMARK SMILES IDX 9 14 10 15
REMARK H PARENT
REMARK Flexibility Score: inf
ROOT
ATOM      1  C   UNL     1       3.279   8.377  14.815  1.00  0.00     0.039 C 
ATOM      2  C   UNL     1       4.023   7.507  13.847  1.00  0.00    -0.073 C 
ATOM      3  C   UNL     1       3.575   6.263  13.531  1.00  0.00    -0.027 C 
ATOM      4  C   UNL     1       4.366   5.426  12.519  1.00  0.00     0.031 C 
ATOM      5  C   UNL     1       5.638   6.205  12.044  1.00  0.00     0.003 C 
ATOM      6  C   UNL     1       6.322   6.788  13.303  1.00  0.00     0.004 C 
ATOM      7  C   UNL     1       5.327   7.967  13.188  1.00  0.00     0.024 C 
ATOM      8  C   UNL     1       5.296   7.664  11.667  1.00  0.00    -0.022 C 
ATOM      9  C   UNL     1       6.525   8.292  10.950  1.00  0.00     0.008 C 
ATOM     10  C   UNL     1       7.786   8.318  11.851  1.00  0.00     0.005 C 
ATOM     11  C   UNL     1       7.786   7.221  12.967  1.00  0.00    -0.005 C 
ATOM     12  C   UNL     1       3.996   7.943  10.877  1.00  0.00     0.012 C 
ENDROOT
BRANCH  11  13
ATOM     13  C   UNL     1       8.579   7.693  14.228  1.00  0.00    -0.014 C 
ATOM     14  C   UNL     1       7.754   8.690  15.064  1.00  0.00     0.007 C 
ATOM     15  C   UNL     1       9.925   8.350  13.865  1.00  0.00     0.007 C 
ENDBRANCH  11  13
TORSDOF 1
ENDMDL
