MODEL 1
REMARK VINA RESULT:    -4.865      0.000      0.000
REMARK INTER + INTRA:          -8.888
REMARK INTER:                  -7.709
REMARK INTRA:                  -1.179
REMARK UNBOUND:                -1.179
REMARK SMILES CCCCCCCCCCCC(=O)[O-]
REMARK SMILES IDX 7 1 8 2 9 3 10 4 11 5 12 6 13 7 14 8 6 9 5 10 4 11 3 12 2 13
REMARK SMILES IDX 1 14
REMARK H PARENT
REMARK Flexibility Score: inf
ROOT
ATOM      1  C   UNL     1      15.618  -7.351  14.348  1.00  0.00     0.000 C 
ENDROOT
BRANCH   1   2
ATOM      2  C   UNL     1      15.297  -6.449  13.143  1.00  0.00     0.000 C 
BRANCH   2   3
ATOM      3  C   UNL     1      13.793  -6.401  12.827  1.00  0.00     0.000 C 
BRANCH   3   4
ATOM      4  C   UNL     1      13.436  -5.316  11.800  1.00  0.00     0.006 C 
BRANCH   4   5
ATOM      5  C   UNL     1      14.700  -4.717  11.176  1.00  0.00     0.053 C 
BRANCH   5   6
ATOM      6  C   UNL     1      15.033  -5.415   9.896  1.00  0.00     0.041 C 
ATOM      7  O   UNL     1      14.121  -5.710   9.079  1.00  0.00    -0.550 OA
ATOM      8  O   UNL     1      16.356  -5.696   9.580  1.00  0.00    -0.550 OA
ENDBRANCH   5   6
ENDBRANCH   4   5
ENDBRANCH   3   4
ENDBRANCH   2   3
ENDBRANCH   1   2
BRANCH   1   9
ATOM      9  C   UNL     1      15.013  -6.824  15.659  1.00  0.00     0.000 C 
BRANCH   9  10
ATOM     10  C   UNL     1      15.499  -5.406  16.008  1.00  0.00    -0.000 C 
BRANCH  10  11
ATOM     11  C   UNL     1      14.340  -4.426  16.249  1.00  0.00    -0.000 C 
BRANCH  11  12
ATOM     12  C   UNL     1      14.226  -3.359  15.146  1.00  0.00    -0.000 C 
BRANCH  12  13
ATOM     13  C   UNL     1      12.767  -3.056  14.768  1.00  0.00    -0.003 C 
ATOM     14  C   UNL     1      12.639  -1.897  13.780  1.00  0.00     0.004 C 
ENDBRANCH  12  13
ENDBRANCH  11  12
ENDBRANCH  10  11
ENDBRANCH   9  10
ENDBRANCH   1   9
TORSDOF 10
ENDMDL
MODEL 2
REMARK VINA RESULT:    -4.830      2.467      3.327
REMARK INTER + INTRA:          -8.832
REMARK INTER:                  -7.477
REMARK INTRA:                  -1.355
REMARK UNBOUND:                -1.179
REMARK SMILES CCCCCCCCCCCC(=O)[O-]
REMARK SMILES IDX 7 1 8 2 9 3 10 4 11 5 12 6 13 7 14 8 6 9 5 10 4 11 3 12 2 13
REMARK SMILES IDX 1 14
REMARK H PARENT
REMARK Flexibility Score: inf
ROOT
ATOM      1  C   UNL     1      18.501  -3.101  14.473  1.00  0.00     0.000 C 
ENDROOT
BRANCH   1   2
ATOM      2  C   UNL     1      18.134  -3.471  13.025  1.00  0.00     0.000 C 
BRANCH   2   3
ATOM      3  C   UNL     1      18.709  -4.832  12.599  1.00  0.00     0.000 C 
BRANCH   3   4
ATOM      4  C   UNL     1      17.719  -5.662  11.769  1.00  0.00     0.006 C 
BRANCH   4   5
ATOM      5  C   UNL     1      16.279  -5.203  12.016  1.00  0.00     0.053 C 
BRANCH   5   6
ATOM      6  C   UNL     1      15.496  -5.225  10.742  1.00  0.00     0.041 C 
ATOM      7  O   UNL     1      14.299  -4.834  10.727  1.00  0.00    -0.550 OA
ATOM      8  O   UNL     1      16.101  -5.631   9.560  1.00  0.00    -0.550 OA
ENDBRANCH   5   6
ENDBRANCH   4   5
ENDBRANCH   3   4
ENDBRANCH   2   3
ENDBRANCH   1   2
BRANCH   1   9
ATOM      9  C   UNL     1      18.749  -4.337  15.354  1.00  0.00     0.000 C 
BRANCH   9  10
ATOM     10  C   UNL     1      17.541  -4.681  16.244  1.00  0.00    -0.000 C 
BRANCH  10  11
ATOM     11  C   UNL     1      16.740  -5.882  15.716  1.00  0.00    -0.000 C 
BRANCH  11  12
ATOM     12  C   UNL     1      15.222  -5.630  15.717  1.00  0.00    -0.000 C 
BRANCH  12  13
ATOM     13  C   UNL     1      14.872  -4.150  15.493  1.00  0.00    -0.003 C 
ATOM     14  C   UNL     1      14.007  -3.570  16.613  1.00  0.00     0.004 C 
ENDBRANCH  12  13
ENDBRANCH  11  12
ENDBRANCH  10  11
ENDBRANCH   9  10
ENDBRANCH   1   9
TORSDOF 10
ENDMDL
MODEL 3
REMARK VINA RESULT:    -4.780      2.625      4.822
REMARK INTER + INTRA:          -8.753
REMARK INTER:                  -7.389
REMARK INTRA:                  -1.364
REMARK UNBOUND:                -1.179
REMARK SMILES CCCCCCCCCCCC(=O)[O-]
REMARK SMILES IDX 7 1 8 2 9 3 10 4 11 5 12 6 13 7 14 8 6 9 5 10 4 11 3 12 2 13
REMARK SMILES IDX 1 14
REMARK H PARENT
REMARK Flexibility Score: inf
ROOT
ATOM      1  C   UNL     1      15.050  -6.714  14.985  1.00  0.00     0.000 C 
ENDROOT
BRANCH   1   2
ATOM      2  C   UNL     1      16.313  -5.845  15.124  1.00  0.00     0.000 C 
BRANCH   2   3
ATOM      3  C   UNL     1      16.079  -4.601  15.997  1.00  0.00     0.000 C 
BRANCH   3   4
ATOM      4  C   UNL     1      15.307  -3.495  15.262  1.00  0.00     0.006 C 
BRANCH   4   5
ATOM      5  C   UNL     1      13.858  -3.420  15.755  1.00  0.00     0.053 C 
BRANCH   5   6
ATOM      6  C   UNL     1      12.956  -2.948  14.660  1.00  0.00     0.041 C 
ATOM      7  O   UNL     1      11.709  -2.915  14.835  1.00  0.00    -0.550 OA
ATOM      8  O   UNL     1      13.493  -2.498  13.460  1.00  0.00    -0.550 OA
ENDBRANCH   5   6
ENDBRANCH   4   5
ENDBRANCH   3   4
ENDBRANCH   2   3
ENDBRANCH   1   2
BRANCH   1   9
ATOM      9  C   UNL     1      14.731  -7.064  13.522  1.00  0.00     0.000 C 
BRANCH   9  10
ATOM     10  C   UNL     1      13.734  -6.082  12.883  1.00  0.00    -0.000 C 
BRANCH  10  11
ATOM     11  C   UNL     1      14.191  -5.591  11.500  1.00  0.00    -0.000 C 
BRANCH  11  12
ATOM     12  C   UNL     1      15.553  -4.875  11.545  1.00  0.00    -0.000 C 
BRANCH  12  13
ATOM     13  C   UNL     1      16.646  -5.641  10.782  1.00  0.00    -0.003 C 
ATOM     14  C   UNL     1      17.849  -5.988  11.660  1.00  0.00     0.004 C 
ENDBRANCH  12  13
ENDBRANCH  11  12
ENDBRANCH  10  11
ENDBRANCH   9  10
ENDBRANCH   1   9
TORSDOF 10
ENDMDL
MODEL 4
REMARK VINA RESULT:    -4.752      2.510      3.427
REMARK INTER + INTRA:          -8.709
REMARK INTER:                  -7.484
REMARK INTRA:                  -1.225
REMARK UNBOUND:                -1.179
REMARK SMILES CCCCCCCCCCCC(=O)[O-]
REMARK SMILES IDX 7 1 8 2 9 3 10 4 11 5 12 6 13 7 14 8 6 9 5 10 4 11 3 12 2 13
REMARK SMILES IDX 1 14
REMARK H PARENT
REMARK Flexibility Score: inf
ROOT
ATOM      1  C   UNL     1      15.498  -7.227  14.817  1.00  0.00     0.000 C 
ENDROOT
BRANCH   1   2
ATOM      2  C   UNL     1      15.008  -6.825  13.414  1.00  0.00     0.000 C 
BRANCH   2   3
ATOM      3  C   UNL     1      14.785  -5.310  13.279  1.00  0.00     0.000 C 
BRANCH   3   4
ATOM      4  C   UNL     1      15.616  -4.686  12.147  1.00  0.00     0.006 C 
BRANCH   4   5
ATOM      5  C   UNL     1      16.972  -4.200  12.668  1.00  0.00     0.053 C 
BRANCH   5   6
ATOM      6  C   UNL     1      18.067  -5.107  12.203  1.00  0.00     0.041 C 
ATOM      7  O   UNL     1      17.807  -6.074  11.439  1.00  0.00    -0.550 OA
ATOM      8  O   UNL     1      19.382  -4.857  12.572  1.00  0.00    -0.550 OA
ENDBRANCH   5   6
ENDBRANCH   4   5
ENDBRANCH   3   4
ENDBRANCH   2   3
ENDBRANCH   1   2
BRANCH   1   9
ATOM      9  C   UNL     1      15.693  -6.017  15.745  1.00  0.00     0.000 C 
BRANCH   9  10
ATOM     10  C   UNL     1      17.158  -5.835  16.179  1.00  0.00    -0.000 C 
BRANCH  10  11
ATOM     11  C   UNL     1      17.596  -4.361  16.180  1.00  0.00    -0.000 C 
BRANCH  11  12
ATOM     12  C   UNL     1      16.427  -3.395  16.442  1.00  0.00    -0.000 C 
BRANCH  12  13
ATOM     13  C   UNL     1      16.555  -2.669  17.790  1.00  0.00    -0.003 C 
ATOM     14  C   UNL     1      17.813  -3.068  18.562  1.00  0.00     0.004 C 
ENDBRANCH  12  13
ENDBRANCH  11  12
ENDBRANCH  10  11
ENDBRANCH   9  10
ENDBRANCH   1   9
TORSDOF 10
ENDMDL
MODEL 5
REMARK VINA RESULT:    -4.743      3.283      4.218
REMARK INTER + INTRA:          -8.694
REMARK INTER:                  -7.427
REMARK INTRA:                  -1.268
REMARK UNBOUND:                -1.179
REMARK SMILES CCCCCCCCCCCC(=O)[O-]
REMARK SMILES IDX 7 1 8 2 9 3 10 4 11 5 12 6 13 7 14 8 6 9 5 10 4 11 3 12 2 13
REMARK SMILES IDX 1 14
REMARK H PARENT
REMARK Flexibility Score: inf
ROOT
ATOM      1  C   UNL     1      17.805  -3.479  12.942  1.00  0.00     0.000 C 
ENDROOT
BRANCH   1   2
ATOM      2  C   UNL     1      18.415  -4.869  12.684  1.00  0.00     0.000 C 
BRANCH   2   3
ATOM      3  C   UNL     1      17.592  -5.698  11.684  1.00  0.00     0.000 C 
BRANCH   3   4
ATOM      4  C   UNL     1      16.127  -5.866  12.115  1.00  0.00     0.006 C 
BRANCH   4   5
ATOM      5  C   UNL     1      16.020  -6.773  13.345  1.00  0.00     0.053 C 
BRANCH   5   6
ATOM      6  C   UNL     1      15.067  -6.194  14.342  1.00  0.00     0.041 C 
ATOM      7  O   UNL     1      14.435  -5.138  14.075  1.00  0.00    -0.550 OA
ATOM      8  O   UNL     1      14.838  -6.846  15.547  1.00  0.00    -0.550 OA
ENDBRANCH   5   6
ENDBRANCH   4   5
ENDBRANCH   3   4
ENDBRANCH   2   3
ENDBRANCH   1   2
BRANCH   1   9
ATOM      9  C   UNL     1      17.699  -3.149  14.440  1.00  0.00     0.000 C 
BRANCH   9  10
ATOM     10  C   UNL     1      18.204  -4.294  15.335  1.00  0.00    -0.000 C 
BRANCH  10  11
ATOM     11  C   UNL     1      17.354  -4.472  16.604  1.00  0.00    -0.000 C 
BRANCH  11  12
ATOM     12  C   UNL     1      17.475  -3.281  17.570  1.00  0.00    -0.000 C 
BRANCH  12  13
ATOM     13  C   UNL     1      16.144  -2.534  17.753  1.00  0.00    -0.003 C 
ATOM     14  C   UNL     1      14.975  -3.225  17.050  1.00  0.00     0.004 C 
ENDBRANCH  12  13
ENDBRANCH  11  12
ENDBRANCH  10  11
ENDBRANCH   9  10
ENDBRANCH   1   9
TORSDOF 10
ENDMDL
MODEL 6
REMARK VINA RESULT:    -4.721      4.082      5.988
REMARK INTER + INTRA:          -8.660
REMARK INTER:                  -7.379
REMARK INTRA:                  -1.281
REMARK UNBOUND:                -1.179
REMARK SMILES CCCCCCCCCCCC(=O)[O-]
REMARK SMILES IDX 7 1 8 2 9 3 10 4 11 5 12 6 13 7 14 8 6 9 5 10 4 11 3 12 2 13
REMARK SMILES IDX 1 14
REMARK H PARENT
REMARK Flexibility Score: inf
ROOT
ATOM      1  C   UNL     1      14.980  -6.496  14.849  1.00  0.00     0.000 C 
ENDROOT
BRANCH   1   2
ATOM      2  C   UNL     1      15.531  -5.440  15.824  1.00  0.00     0.000 C 
BRANCH   2   3
ATOM      3  C   UNL     1      17.001  -5.692  16.200  1.00  0.00     0.000 C 
BRANCH   3   4
ATOM      4  C   UNL     1      17.895  -4.467  15.958  1.00  0.00     0.006 C 
BRANCH   4   5
ATOM      5  C   UNL     1      17.108  -3.168  16.159  1.00  0.00     0.053 C 
BRANCH   5   6
ATOM      6  C   UNL     1      16.959  -2.867  17.616  1.00  0.00     0.041 C 
ATOM      7  O   UNL     1      15.844  -2.507  18.078  1.00  0.00    -0.550 OA
ATOM      8  O   UNL     1      18.037  -3.032  18.476  1.00  0.00    -0.550 OA
ENDBRANCH   5   6
ENDBRANCH   4   5
ENDBRANCH   3   4
ENDBRANCH   2   3
ENDBRANCH   1   2
BRANCH   1   9
ATOM      9  C   UNL     1      14.515  -5.885  13.517  1.00  0.00     0.000 C 
BRANCH   9  10
ATOM     10  C   UNL     1      15.015  -4.443  13.321  1.00  0.00    -0.000 C 
BRANCH  10  11
ATOM     11  C   UNL     1      15.902  -4.289  12.075  1.00  0.00    -0.000 C 
BRANCH  11  12
ATOM     12  C   UNL     1      16.271  -5.640  11.439  1.00  0.00    -0.000 C 
BRANCH  12  13
ATOM     13  C   UNL     1      17.749  -6.007  11.652  1.00  0.00    -0.003 C 
ATOM     14  C   UNL     1      18.536  -4.906  12.364  1.00  0.00     0.004 C 
ENDBRANCH  12  13
ENDBRANCH  11  12
ENDBRANCH  10  11
ENDBRANCH   9  10
ENDBRANCH   1   9
TORSDOF 10
ENDMDL
MODEL 7
REMARK VINA RESULT:    -4.692      3.071      5.449
REMARK INTER + INTRA:          -8.614
REMARK INTER:                  -7.254
REMARK INTRA:                  -1.361
REMARK UNBOUND:                -1.179
REMARK SMILES CCCCCCCCCCCC(=O)[O-]
REMARK SMILES IDX 7 1 8 2 9 3 10 4 11 5 12 6 13 7 14 8 6 9 5 10 4 11 3 12 2 13
REMARK SMILES IDX 1 14
REMARK H PARENT
REMARK Flexibility Score: inf
ROOT
ATOM      1  C   UNL     1      14.278  -5.328  13.479  1.00  0.00     0.000 C 
ENDROOT
BRANCH   1   2
ATOM      2  C   UNL     1      14.654  -6.785  13.802  1.00  0.00     0.000 C 
BRANCH   2   3
ATOM      3  C   UNL     1      15.911  -6.889  14.682  1.00  0.00     0.000 C 
BRANCH   3   4
ATOM      4  C   UNL     1      15.894  -5.904  15.861  1.00  0.00     0.006 C 
BRANCH   4   5
ATOM      5  C   UNL     1      17.317  -5.491  16.248  1.00  0.00     0.053 C 
BRANCH   5   6
ATOM      6  C   UNL     1      17.587  -4.081  15.826  1.00  0.00     0.041 C 
ATOM      7  O   UNL     1      18.761  -3.627  15.847  1.00  0.00    -0.550 OA
ATOM      8  O   UNL     1      16.549  -3.283  15.361  1.00  0.00    -0.550 OA
ENDBRANCH   5   6
ENDBRANCH   4   5
ENDBRANCH   3   4
ENDBRANCH   2   3
ENDBRANCH   1   2
BRANCH   1   9
ATOM      9  C   UNL     1      13.269  -5.220  12.325  1.00  0.00     0.000 C 
BRANCH   9  10
ATOM     10  C   UNL     1      13.918  -5.447  10.948  1.00  0.00    -0.000 C 
BRANCH  10  11
ATOM     11  C   UNL     1      15.266  -4.723  10.804  1.00  0.00    -0.000 C 
BRANCH  11  12
ATOM     12  C   UNL     1      16.377  -5.640  10.262  1.00  0.00    -0.000 C 
BRANCH  12  13
ATOM     13  C   UNL     1      17.384  -6.049  11.350  1.00  0.00    -0.003 C 
ATOM     14  C   UNL     1      17.837  -4.871  12.212  1.00  0.00     0.004 C 
ENDBRANCH  12  13
ENDBRANCH  11  12
ENDBRANCH  10  11
ENDBRANCH   9  10
ENDBRANCH   1   9
TORSDOF 10
ENDMDL
MODEL 8
REMARK VINA RESULT:    -4.692      2.345      3.336
REMARK INTER + INTRA:          -8.613
REMARK INTER:                  -7.748
REMARK INTRA:                  -0.866
REMARK UNBOUND:                -1.179
REMARK SMILES CCCCCCCCCCCC(=O)[O-]
REMARK SMILES IDX 7 1 8 2 9 3 10 4 11 5 12 6 13 7 14 8 6 9 5 10 4 11 3 12 2 13
REMARK SMILES IDX 1 14
REMARK H PARENT
REMARK Flexibility Score: inf
ROOT
ATOM      1  C   UNL     1      15.881  -6.702  15.145  1.00  0.00     0.000 C 
ENDROOT
BRANCH   1   2
ATOM      2  C   UNL     1      15.618  -7.127  13.689  1.00  0.00     0.000 C 
BRANCH   2   3
ATOM      3  C   UNL     1      16.287  -6.189  12.671  1.00  0.00     0.000 C 
BRANCH   3   4
ATOM      4  C   UNL     1      15.280  -5.545  11.705  1.00  0.00     0.006 C 
BRANCH   4   5
ATOM      5  C   UNL     1      13.841  -5.847  12.135  1.00  0.00     0.053 C 
BRANCH   5   6
ATOM      6  C   UNL     1      13.022  -4.595  12.137  1.00  0.00     0.041 C 
ATOM      7  O   UNL     1      12.595  -4.116  11.053  1.00  0.00    -0.550 OA
ATOM      8  O   UNL     1      12.687  -3.984  13.338  1.00  0.00    -0.550 OA
ENDBRANCH   5   6
ENDBRANCH   4   5
ENDBRANCH   3   4
ENDBRANCH   2   3
ENDBRANCH   1   2
BRANCH   1   9
ATOM      9  C   UNL     1      14.825  -5.717  15.673  1.00  0.00     0.000 C 
BRANCH   9  10
ATOM     10  C   UNL     1      15.359  -4.277  15.775  1.00  0.00    -0.000 C 
BRANCH  10  11
ATOM     11  C   UNL     1      14.605  -3.439  16.820  1.00  0.00    -0.000 C 
BRANCH  11  12
ATOM     12  C   UNL     1      15.549  -2.625  17.721  1.00  0.00    -0.000 C 
BRANCH  12  13
ATOM     13  C   UNL     1      17.026  -2.998  17.516  1.00  0.00    -0.003 C 
ATOM     14  C   UNL     1      17.820  -3.017  18.822  1.00  0.00     0.004 C 
ENDBRANCH  12  13
ENDBRANCH  11  12
ENDBRANCH  10  11
ENDBRANCH   9  10
ENDBRANCH   1   9
TORSDOF 10
ENDMDL
MODEL 9
REMARK VINA RESULT:    -4.661      2.109      2.845
REMARK INTER + INTRA:          -8.564
REMARK INTER:                  -7.163
REMARK INTRA:                  -1.400
REMARK UNBOUND:                -1.179
REMARK SMILES CCCCCCCCCCCC(=O)[O-]
REMARK SMILES IDX 7 1 8 2 9 3 10 4 11 5 12 6 13 7 14 8 6 9 5 10 4 11 3 12 2 13
REMARK SMILES IDX 1 14
REMARK H PARENT
REMARK Flexibility Score: inf
ROOT
ATOM      1  C   UNL     1      18.195  -5.040  12.163  1.00  0.00     0.000 C 
ENDROOT
BRANCH   1   2
ATOM      2  C   UNL     1      17.100  -6.036  11.740  1.00  0.00     0.000 C 
BRANCH   2   3
ATOM      3  C   UNL     1      16.124  -6.360  12.883  1.00  0.00     0.000 C 
BRANCH   3   4
ATOM      4  C   UNL     1      14.653  -6.180  12.478  1.00  0.00     0.006 C 
BRANCH   4   5
ATOM      5  C   UNL     1      14.440  -4.835  11.776  1.00  0.00     0.053 C 
BRANCH   5   6
ATOM      6  C   UNL     1      13.537  -4.998  10.595  1.00  0.00     0.041 C 
ATOM      7  O   UNL     1      12.509  -4.279  10.479  1.00  0.00    -0.550 OA
ATOM      8  O   UNL     1      13.854  -5.910   9.596  1.00  0.00    -0.550 OA
ENDBRANCH   5   6
ENDBRANCH   4   5
ENDBRANCH   3   4
ENDBRANCH   2   3
ENDBRANCH   1   2
BRANCH   1   9
ATOM      9  C   UNL     1      17.963  -4.469  13.571  1.00  0.00     0.000 C 
BRANCH   9  10
ATOM     10  C   UNL     1      17.496  -3.002  13.545  1.00  0.00    -0.000 C 
BRANCH  10  11
ATOM     11  C   UNL     1      16.191  -2.783  14.327  1.00  0.00    -0.000 C 
BRANCH  11  12
ATOM     12  C   UNL     1      16.139  -3.594  15.633  1.00  0.00    -0.000 C 
BRANCH  12  13
ATOM     13  C   UNL     1      14.833  -4.393  15.778  1.00  0.00    -0.003 C 
ATOM     14  C   UNL     1      13.737  -3.610  16.501  1.00  0.00     0.004 C 
ENDBRANCH  12  13
ENDBRANCH  11  12
ENDBRANCH  10  11
ENDBRANCH   9  10
ENDBRANCH   1   9
TORSDOF 10
ENDMDL
