MODEL 1
REMARK VINA RESULT:    -5.096      0.000      0.000
REMARK INTER + INTRA:         -10.327
REMARK INTER:                  -8.671
REMARK INTRA:                  -1.656
REMARK UNBOUND:                -1.656
REMARK SMILES CCCCCCCCCCCCCC(=O)[O-]
REMARK SMILES IDX 8 1 9 2 10 3 11 4 12 5 13 6 14 7 15 8 16 9 7 10 6 11 5 12
REMARK SMILES IDX 4 13 3 14 2 15 1 16
REMARK H PARENT
REMARK Flexibility Score: inf
ROOT
ATOM      1  C   UNL     1      14.244   7.186 -11.801  1.00  0.00     0.000 C 
ENDROOT
BRANCH   1   2
ATOM      2  C   UNL     1      13.894   8.568 -12.376  1.00  0.00     0.000 C 
BRANCH   2   3
ATOM      3  C   UNL     1      13.048   8.476 -13.659  1.00  0.00     0.000 C 
BRANCH   3   4
ATOM      4  C   UNL     1      13.907   8.452 -14.933  1.00  0.00     0.000 C 
BRANCH   4   5
ATOM      5  C   UNL     1      13.108   8.025 -16.175  1.00  0.00     0.006 C 
BRANCH   5   6
ATOM      6  C   UNL     1      11.617   7.897 -15.849  1.00  0.00     0.053 C 
BRANCH   6   7
ATOM      7  C   UNL     1      10.796   8.640 -16.854  1.00  0.00     0.041 C 
ATOM      8  O   UNL     1      11.356   9.272 -17.789  1.00  0.00    -0.550 OA
ATOM      9  O   UNL     1       9.410   8.596 -16.789  1.00  0.00    -0.550 OA
ENDBRANCH   6   7
ENDBRANCH   5   6
ENDBRANCH   4   5
ENDBRANCH   3   4
ENDBRANCH   2   3
ENDBRANCH   1   2
BRANCH   1  10
ATOM     10  C   UNL     1      13.968   7.089 -10.291  1.00  0.00     0.000 C 
BRANCH  10  11
ATOM     11  C   UNL     1      12.984   5.960  -9.945  1.00  0.00    -0.000 C 
BRANCH  11  12
ATOM     12  C   UNL     1      11.613   6.492  -9.489  1.00  0.00    -0.000 C 
BRANCH  12  13
ATOM     13  C   UNL     1      10.463   6.017 -10.390  1.00  0.00    -0.000 C 
BRANCH  13  14
ATOM     14  C   UNL     1      10.572   6.562 -11.824  1.00  0.00    -0.000 C 
BRANCH  14  15
ATOM     15  C   UNL     1      10.461   5.455 -12.884  1.00  0.00    -0.003 C 
ATOM     16  C   UNL     1      11.820   4.895 -13.303  1.00  0.00     0.004 C 
ENDBRANCH  14  15
ENDBRANCH  13  14
ENDBRANCH  12  13
ENDBRANCH  11  12
ENDBRANCH  10  11
ENDBRANCH   1  10
TORSDOF 12
ENDMDL
MODEL 2
REMARK VINA RESULT:    -5.085      1.320      2.302
REMARK INTER + INTRA:         -10.308
REMARK INTER:                  -8.773
REMARK INTRA:                  -1.535
REMARK UNBOUND:                -1.656
REMARK SMILES CCCCCCCCCCCCCC(=O)[O-]
REMARK SMILES IDX 8 1 9 2 10 3 11 4 12 5 13 6 14 7 15 8 16 9 7 10 6 11 5 12
REMARK SMILES IDX 4 13 3 14 2 15 1 16
REMARK H PARENT
REMARK Flexibility Score: inf
ROOT
ATOM      1  C   UNL     1      15.049   7.582 -12.744  1.00  0.00     0.000 C 
ENDROOT
BRANCH   1   2
ATOM      2  C   UNL     1      15.092   8.497 -13.978  1.00  0.00     0.000 C 
BRANCH   2   3
ATOM      3  C   UNL     1      13.712   8.661 -14.638  1.00  0.00     0.000 C 
BRANCH   3   4
ATOM      4  C   UNL     1      13.692   8.176 -16.097  1.00  0.00     0.000 C 
BRANCH   4   5
ATOM      5  C   UNL     1      12.271   8.115 -16.679  1.00  0.00     0.006 C 
BRANCH   5   6
ATOM      6  C   UNL     1      11.223   8.093 -15.562  1.00  0.00     0.053 C 
BRANCH   6   7
ATOM      7  C   UNL     1       9.894   7.665 -16.100  1.00  0.00     0.041 C 
ATOM      8  O   UNL     1       9.573   6.448 -16.102  1.00  0.00    -0.550 OA
ATOM      9  O   UNL     1       8.990   8.616 -16.555  1.00  0.00    -0.550 OA
ENDBRANCH   6   7
ENDBRANCH   5   6
ENDBRANCH   4   5
ENDBRANCH   3   4
ENDBRANCH   2   3
ENDBRANCH   1   2
BRANCH   1  10
ATOM     10  C   UNL     1      13.622   7.130 -12.394  1.00  0.00     0.000 C 
BRANCH  10  11
ATOM     11  C   UNL     1      13.442   5.608 -12.508  1.00  0.00    -0.000 C 
BRANCH  11  12
ATOM     12  C   UNL     1      12.468   5.212 -13.631  1.00  0.00    -0.000 C 
BRANCH  12  13
ATOM     13  C   UNL     1      11.059   4.886 -13.109  1.00  0.00    -0.000 C 
BRANCH  13  14
ATOM     14  C   UNL     1      10.360   6.111 -12.494  1.00  0.00    -0.000 C 
BRANCH  14  15
ATOM     15  C   UNL     1       9.783   5.821 -11.100  1.00  0.00    -0.003 C 
ATOM     16  C   UNL     1      10.753   6.172  -9.971  1.00  0.00     0.004 C 
ENDBRANCH  14  15
ENDBRANCH  13  14
ENDBRANCH  12  13
ENDBRANCH  11  12
ENDBRANCH  10  11
ENDBRANCH   1  10
TORSDOF 12
ENDMDL
MODEL 3
REMARK VINA RESULT:    -5.082      1.575      2.855
REMARK INTER + INTRA:         -10.303
REMARK INTER:                  -8.598
REMARK INTRA:                  -1.705
REMARK UNBOUND:                -1.656
REMARK SMILES CCCCCCCCCCCCCC(=O)[O-]
REMARK SMILES IDX 8 1 9 2 10 3 11 4 12 5 13 6 14 7 15 8 16 9 7 10 6 11 5 12
REMARK SMILES IDX 4 13 3 14 2 15 1 16
REMARK H PARENT
REMARK Flexibility Score: inf
ROOT
ATOM      1  C   UNL     1      12.578   5.001 -13.392  1.00  0.00     0.000 C 
ENDROOT
BRANCH   1   2
ATOM      2  C   UNL     1      11.447   4.847 -14.423  1.00  0.00     0.000 C 
BRANCH   2   3
ATOM      3  C   UNL     1      11.199   6.139 -15.222  1.00  0.00     0.000 C 
BRANCH   3   4
ATOM      4  C   UNL     1       9.908   6.080 -16.055  1.00  0.00     0.000 C 
BRANCH   4   5
ATOM      5  C   UNL     1       9.128   7.403 -16.030  1.00  0.00     0.006 C 
BRANCH   5   6
ATOM      6  C   UNL     1      10.083   8.601 -16.018  1.00  0.00     0.053 C 
BRANCH   6   7
ATOM      7  C   UNL     1      10.559   8.904 -17.403  1.00  0.00     0.041 C 
ATOM      8  O   UNL     1      11.786   9.081 -17.627  1.00  0.00    -0.550 OA
ATOM      9  O   UNL     1       9.655   8.944 -18.456  1.00  0.00    -0.550 OA
ENDBRANCH   6   7
ENDBRANCH   5   6
ENDBRANCH   4   5
ENDBRANCH   3   4
ENDBRANCH   2   3
ENDBRANCH   1   2
BRANCH   1  10
ATOM     10  C   UNL     1      13.138   6.432 -13.341  1.00  0.00     0.000 C 
BRANCH  10  11
ATOM     11  C   UNL     1      13.594   6.835 -11.929  1.00  0.00    -0.000 C 
BRANCH  11  12
ATOM     12  C   UNL     1      12.838   6.075 -10.826  1.00  0.00    -0.000 C 
BRANCH  12  13
ATOM     13  C   UNL     1      11.644   6.867 -10.270  1.00  0.00    -0.000 C 
BRANCH  13  14
ATOM     14  C   UNL     1      10.399   5.988 -10.059  1.00  0.00    -0.000 C 
BRANCH  14  15
ATOM     15  C   UNL     1       9.564   5.834 -11.340  1.00  0.00    -0.003 C 
ATOM     16  C   UNL     1       9.521   7.113 -12.177  1.00  0.00     0.004 C 
ENDBRANCH  14  15
ENDBRANCH  13  14
ENDBRANCH  12  13
ENDBRANCH  11  12
ENDBRANCH  10  11
ENDBRANCH   1  10
TORSDOF 12
ENDMDL
MODEL 4
REMARK VINA RESULT:    -5.060      2.492      5.611
REMARK INTER + INTRA:         -10.266
REMARK INTER:                  -8.583
REMARK INTRA:                  -1.682
REMARK UNBOUND:                -1.656
REMARK SMILES CCCCCCCCCCCCCC(=O)[O-]
REMARK SMILES IDX 8 1 9 2 10 3 11 4 12 5 13 6 14 7 15 8 16 9 7 10 6 11 5 12
REMARK SMILES IDX 4 13 3 14 2 15 1 16
REMARK H PARENT
REMARK Flexibility Score: inf
ROOT
ATOM      1  C   UNL     1      11.221   5.375 -15.237  1.00  0.00     0.000 C 
ENDROOT
BRANCH   1   2
ATOM      2  C   UNL     1      10.993   4.160 -14.324  1.00  0.00     0.000 C 
BRANCH   2   3
ATOM      3  C   UNL     1      10.880   4.551 -12.840  1.00  0.00     0.000 C 
BRANCH   3   4
ATOM      4  C   UNL     1      11.548   5.900 -12.530  1.00  0.00     0.000 C 
BRANCH   4   5
ATOM      5  C   UNL     1      10.618   6.858 -11.769  1.00  0.00     0.006 C 
BRANCH   5   6
ATOM      6  C   UNL     1       9.189   6.311 -11.723  1.00  0.00     0.053 C 
BRANCH   6   7
ATOM      7  C   UNL     1       8.243   7.257 -12.393  1.00  0.00     0.041 C 
ATOM      8  O   UNL     1       7.046   6.921 -12.593  1.00  0.00    -0.550 OA
ATOM      9  O   UNL     1       8.671   8.528 -12.752  1.00  0.00    -0.550 OA
ENDBRANCH   6   7
ENDBRANCH   5   6
ENDBRANCH   4   5
ENDBRANCH   3   4
ENDBRANCH   2   3
ENDBRANCH   1   2
BRANCH   1  10
ATOM     10  C   UNL     1       9.929   5.846 -15.926  1.00  0.00     0.000 C 
BRANCH  10  11
ATOM     11  C   UNL     1       9.802   7.377 -15.957  1.00  0.00    -0.000 C 
BRANCH  11  12
ATOM     12  C   UNL     1      11.076   8.084 -15.463  1.00  0.00    -0.000 C 
BRANCH  12  13
ATOM     13  C   UNL     1      12.079   8.359 -16.595  1.00  0.00    -0.000 C 
BRANCH  13  14
ATOM     14  C   UNL     1      13.538   8.142 -16.156  1.00  0.00    -0.000 C 
BRANCH  14  15
ATOM     15  C   UNL     1      13.693   8.103 -14.628  1.00  0.00    -0.003 C 
ATOM     16  C   UNL     1      14.412   9.332 -14.073  1.00  0.00     0.004 C 
ENDBRANCH  14  15
ENDBRANCH  13  14
ENDBRANCH  12  13
ENDBRANCH  11  12
ENDBRANCH  10  11
ENDBRANCH   1  10
TORSDOF 12
ENDMDL
MODEL 5
REMARK VINA RESULT:    -5.052      2.321      4.065
REMARK INTER + INTRA:         -10.251
REMARK INTER:                  -8.602
REMARK INTRA:                  -1.649
REMARK UNBOUND:                -1.656
REMARK SMILES CCCCCCCCCCCCCC(=O)[O-]
REMARK SMILES IDX 8 1 9 2 10 3 11 4 12 5 13 6 14 7 15 8 16 9 7 10 6 11 5 12
REMARK SMILES IDX 4 13 3 14 2 15 1 16
REMARK H PARENT
REMARK Flexibility Score: inf
ROOT
ATOM      1  C   UNL     1      11.053   4.502 -14.329  1.00  0.00     0.000 C 
ENDROOT
BRANCH   1   2
ATOM      2  C   UNL     1      10.522   5.621 -15.239  1.00  0.00     0.000 C 
BRANCH   2   3
ATOM      3  C   UNL     1      11.570   6.718 -15.497  1.00  0.00     0.000 C 
BRANCH   3   4
ATOM      4  C   UNL     1      11.151   8.083 -14.928  1.00  0.00     0.000 C 
BRANCH   4   5
ATOM      5  C   UNL     1      12.005   8.506 -13.723  1.00  0.00     0.006 C 
BRANCH   5   6
ATOM      6  C   UNL     1      13.399   7.876 -13.791  1.00  0.00     0.053 C 
BRANCH   6   7
ATOM      7  C   UNL     1      14.442   8.931 -13.981  1.00  0.00     0.041 C 
ATOM      8  O   UNL     1      14.314  10.056 -13.429  1.00  0.00    -0.550 OA
ATOM      9  O   UNL     1      15.580   8.658 -14.728  1.00  0.00    -0.550 OA
ENDBRANCH   6   7
ENDBRANCH   5   6
ENDBRANCH   4   5
ENDBRANCH   3   4
ENDBRANCH   2   3
ENDBRANCH   1   2
BRANCH   1  10
ATOM     10  C   UNL     1      11.147   4.934 -12.856  1.00  0.00     0.000 C 
BRANCH  10  11
ATOM     11  C   UNL     1       9.871   5.638 -12.367  1.00  0.00    -0.000 C 
BRANCH  11  12
ATOM     12  C   UNL     1       9.912   5.953 -10.861  1.00  0.00    -0.000 C 
BRANCH  12  13
ATOM     13  C   UNL     1      11.190   6.700 -10.446  1.00  0.00    -0.000 C 
BRANCH  13  14
ATOM     14  C   UNL     1      11.860   6.079  -9.208  1.00  0.00    -0.000 C 
BRANCH  14  15
ATOM     15  C   UNL     1      13.374   5.893  -9.390  1.00  0.00    -0.003 C 
ATOM     16  C   UNL     1      14.003   6.971 -10.273  1.00  0.00     0.004 C 
ENDBRANCH  14  15
ENDBRANCH  13  14
ENDBRANCH  12  13
ENDBRANCH  11  12
ENDBRANCH  10  11
ENDBRANCH   1  10
TORSDOF 12
ENDMDL
MODEL 6
REMARK VINA RESULT:    -5.031      2.740      5.363
REMARK INTER + INTRA:         -10.217
REMARK INTER:                  -8.680
REMARK INTRA:                  -1.537
REMARK UNBOUND:                -1.656
REMARK SMILES CCCCCCCCCCCCCC(=O)[O-]
REMARK SMILES IDX 8 1 9 2 10 3 11 4 12 5 13 6 14 7 15 8 16 9 7 10 6 11 5 12
REMARK SMILES IDX 4 13 3 14 2 15 1 16
REMARK H PARENT
REMARK Flexibility Score: inf
ROOT
ATOM      1  C   UNL     1      13.838   8.805 -13.982  1.00  0.00     0.000 C 
ENDROOT
BRANCH   1   2
ATOM      2  C   UNL     1      14.551   8.017 -12.871  1.00  0.00     0.000 C 
BRANCH   2   3
ATOM      3  C   UNL     1      13.585   7.546 -11.770  1.00  0.00     0.000 C 
BRANCH   3   4
ATOM      4  C   UNL     1      13.383   6.022 -11.772  1.00  0.00     0.000 C 
BRANCH   4   5
ATOM      5  C   UNL     1      12.054   5.604 -12.419  1.00  0.00     0.006 C 
BRANCH   5   6
ATOM      6  C   UNL     1      10.944   6.604 -12.085  1.00  0.00     0.053 C 
BRANCH   6   7
ATOM      7  C   UNL     1      10.036   6.048 -11.034  1.00  0.00     0.041 C 
ATOM      8  O   UNL     1      10.417   5.985  -9.835  1.00  0.00    -0.550 OA
ATOM      9  O   UNL     1       8.750   5.645 -11.369  1.00  0.00    -0.550 OA
ENDBRANCH   6   7
ENDBRANCH   5   6
ENDBRANCH   4   5
ENDBRANCH   3   4
ENDBRANCH   2   3
ENDBRANCH   1   2
BRANCH   1  10
ATOM     10  C   UNL     1      14.296   8.386 -15.389  1.00  0.00     0.000 C 
BRANCH  10  11
ATOM     11  C   UNL     1      13.117   8.067 -16.322  1.00  0.00    -0.000 C 
BRANCH  11  12
ATOM     12  C   UNL     1      12.363   6.792 -15.904  1.00  0.00    -0.000 C 
BRANCH  12  13
ATOM     13  C   UNL     1      10.849   7.017 -15.765  1.00  0.00    -0.000 C 
BRANCH  13  14
ATOM     14  C   UNL     1      10.444   8.481 -16.009  1.00  0.00    -0.000 C 
BRANCH  14  15
ATOM     15  C   UNL     1       9.186   8.606 -16.881  1.00  0.00    -0.003 C 
ATOM     16  C   UNL     1       9.502   8.651 -18.376  1.00  0.00     0.004 C 
ENDBRANCH  14  15
ENDBRANCH  13  14
ENDBRANCH  12  13
ENDBRANCH  11  12
ENDBRANCH  10  11
ENDBRANCH   1  10
TORSDOF 12
ENDMDL
MODEL 7
REMARK VINA RESULT:    -5.029      3.177      6.016
REMARK INTER + INTRA:         -10.213
REMARK INTER:                  -8.622
REMARK INTRA:                  -1.591
REMARK UNBOUND:                -1.656
REMARK SMILES CCCCCCCCCCCCCC(=O)[O-]
REMARK SMILES IDX 8 1 9 2 10 3 11 4 12 5 13 6 14 7 15 8 16 9 7 10 6 11 5 12
REMARK SMILES IDX 4 13 3 14 2 15 1 16
REMARK H PARENT
REMARK Flexibility Score: inf
ROOT
ATOM      1  C   UNL     1      12.851   7.339 -15.919  1.00  0.00     0.000 C 
ENDROOT
BRANCH   1   2
ATOM      2  C   UNL     1      12.467   5.855 -15.809  1.00  0.00     0.000 C 
BRANCH   2   3
ATOM      3  C   UNL     1      11.009   5.655 -15.359  1.00  0.00     0.000 C 
BRANCH   3   4
ATOM      4  C   UNL     1      10.885   4.693 -14.166  1.00  0.00     0.000 C 
BRANCH   4   5
ATOM      5  C   UNL     1      11.730   5.135 -12.962  1.00  0.00     0.006 C 
BRANCH   5   6
ATOM      6  C   UNL     1      11.138   6.387 -12.308  1.00  0.00     0.053 C 
BRANCH   6   7
ATOM      7  C   UNL     1      10.242   6.010 -11.171  1.00  0.00     0.041 C 
ATOM      8  O   UNL     1      10.663   6.068  -9.985  1.00  0.00    -0.550 OA
ATOM      9  O   UNL     1       8.926   5.639 -11.416  1.00  0.00    -0.550 OA
ENDBRANCH   6   7
ENDBRANCH   5   6
ENDBRANCH   4   5
ENDBRANCH   3   4
ENDBRANCH   2   3
ENDBRANCH   1   2
BRANCH   1  10
ATOM     10  C   UNL     1      11.624   8.260 -16.023  1.00  0.00     0.000 C 
BRANCH  10  11
ATOM     11  C   UNL     1      11.524   8.957 -17.389  1.00  0.00    -0.000 C 
BRANCH  11  12
ATOM     12  C   UNL     1      10.087   8.973 -17.939  1.00  0.00    -0.000 C 
BRANCH  12  13
ATOM     13  C   UNL     1       9.156   8.003 -17.195  1.00  0.00    -0.000 C 
BRANCH  13  14
ATOM     14  C   UNL     1       7.965   8.719 -16.533  1.00  0.00    -0.000 C 
BRANCH  14  15
ATOM     15  C   UNL     1       7.457   7.983 -15.284  1.00  0.00    -0.003 C 
ATOM     16  C   UNL     1       8.415   8.096 -14.098  1.00  0.00     0.004 C 
ENDBRANCH  14  15
ENDBRANCH  13  14
ENDBRANCH  12  13
ENDBRANCH  11  12
ENDBRANCH  10  11
ENDBRANCH   1  10
TORSDOF 12
ENDMDL
MODEL 8
REMARK VINA RESULT:    -4.997      2.368      4.744
REMARK INTER + INTRA:         -10.157
REMARK INTER:                  -8.248
REMARK INTRA:                  -1.910
REMARK UNBOUND:                -1.656
REMARK SMILES CCCCCCCCCCCCCC(=O)[O-]
REMARK SMILES IDX 8 1 9 2 10 3 11 4 12 5 13 6 14 7 15 8 16 9 7 10 6 11 5 12
REMARK SMILES IDX 4 13 3 14 2 15 1 16
REMARK H PARENT
REMARK Flexibility Score: inf
ROOT
ATOM      1  C   UNL     1       9.614   6.103 -11.399  1.00  0.00     0.000 C 
ENDROOT
BRANCH   1   2
ATOM      2  C   UNL     1      10.748   6.010 -10.366  1.00  0.00     0.000 C 
BRANCH   2   3
ATOM      3  C   UNL     1      11.795   7.125 -10.537  1.00  0.00     0.000 C 
BRANCH   3   4
ATOM      4  C   UNL     1      13.157   6.591 -11.009  1.00  0.00     0.000 C 
BRANCH   4   5
ATOM      5  C   UNL     1      13.779   7.457 -12.115  1.00  0.00     0.006 C 
BRANCH   5   6
ATOM      6  C   UNL     1      12.826   8.581 -12.531  1.00  0.00     0.053 C 
BRANCH   6   7
ATOM      7  C   UNL     1      13.553   9.887 -12.595  1.00  0.00     0.041 C 
ATOM      8  O   UNL     1      14.431  10.081 -13.477  1.00  0.00    -0.550 OA
ATOM      9  O   UNL     1      13.227  10.908 -11.713  1.00  0.00    -0.550 OA
ENDBRANCH   6   7
ENDBRANCH   5   6
ENDBRANCH   4   5
ENDBRANCH   3   4
ENDBRANCH   2   3
ENDBRANCH   1   2
BRANCH   1  10
ATOM     10  C   UNL     1      10.133   6.088 -12.847  1.00  0.00     0.000 C 
BRANCH  10  11
ATOM     11  C   UNL     1      10.802   4.755 -13.219  1.00  0.00    -0.000 C 
BRANCH  11  12
ATOM     12  C   UNL     1      11.968   4.936 -14.206  1.00  0.00    -0.000 C 
BRANCH  12  13
ATOM     13  C   UNL     1      11.588   5.793 -15.424  1.00  0.00    -0.000 C 
BRANCH  13  14
ATOM     14  C   UNL     1      12.708   6.765 -15.834  1.00  0.00    -0.000 C 
BRANCH  14  15
ATOM     15  C   UNL     1      12.167   8.136 -16.268  1.00  0.00    -0.003 C 
ATOM     16  C   UNL     1      10.738   8.389 -15.789  1.00  0.00     0.004 C 
ENDBRANCH  14  15
ENDBRANCH  13  14
ENDBRANCH  12  13
ENDBRANCH  11  12
ENDBRANCH  10  11
ENDBRANCH   1  10
TORSDOF 12
ENDMDL
MODEL 9
REMARK VINA RESULT:    -4.973      3.642      6.449
REMARK INTER + INTRA:         -10.118
REMARK INTER:                  -8.823
REMARK INTRA:                  -1.295
REMARK UNBOUND:                -1.656
REMARK SMILES CCCCCCCCCCCCCC(=O)[O-]
REMARK SMILES IDX 8 1 9 2 10 3 11 4 12 5 13 6 14 7 15 8 16 9 7 10 6 11 5 12
REMARK SMILES IDX 4 13 3 14 2 15 1 16
REMARK H PARENT
REMARK Flexibility Score: inf
ROOT
ATOM      1  C   UNL     1       7.849   8.365 -12.503  1.00  0.00     0.000 C 
ENDROOT
BRANCH   1   2
ATOM      2  C   UNL     1       7.931   6.831 -12.547  1.00  0.00     0.000 C 
BRANCH   2   3
ATOM      3  C   UNL     1       8.971   6.268 -11.562  1.00  0.00     0.000 C 
BRANCH   3   4
ATOM      4  C   UNL     1      10.169   5.619 -12.275  1.00  0.00     0.000 C 
BRANCH   4   5
ATOM      5  C   UNL     1      11.515   6.196 -11.811  1.00  0.00     0.006 C 
BRANCH   5   6
ATOM      6  C   UNL     1      11.539   6.374 -10.290  1.00  0.00     0.053 C 
BRANCH   6   7
ATOM      7  C   UNL     1      12.946   6.352  -9.782  1.00  0.00     0.041 C 
ATOM      8  O   UNL     1      13.255   5.625  -8.801  1.00  0.00    -0.550 OA
ATOM      9  O   UNL     1      13.928   7.096 -10.423  1.00  0.00    -0.550 OA
ENDBRANCH   6   7
ENDBRANCH   5   6
ENDBRANCH   4   5
ENDBRANCH   3   4
ENDBRANCH   2   3
ENDBRANCH   1   2
BRANCH   1  10
ATOM     10  C   UNL     1       8.300   9.018 -13.821  1.00  0.00     0.000 C 
BRANCH  10  11
ATOM     11  C   UNL     1       7.776   8.270 -15.057  1.00  0.00    -0.000 C 
BRANCH  11  12
ATOM     12  C   UNL     1       8.849   8.110 -16.148  1.00  0.00    -0.000 C 
BRANCH  12  13
ATOM     13  C   UNL     1       9.787   6.921 -15.888  1.00  0.00    -0.000 C 
BRANCH  13  14
ATOM     14  C   UNL     1      11.170   7.360 -15.376  1.00  0.00    -0.000 C 
BRANCH  14  15
ATOM     15  C   UNL     1      11.954   8.169 -16.420  1.00  0.00    -0.003 C 
ATOM     16  C   UNL     1      13.468   8.061 -16.240  1.00  0.00     0.004 C 
ENDBRANCH  14  15
ENDBRANCH  13  14
ENDBRANCH  12  13
ENDBRANCH  11  12
ENDBRANCH  10  11
ENDBRANCH   1  10
TORSDOF 12
ENDMDL
