MODEL 1
REMARK VINA RESULT:    -4.206      0.000      0.000
REMARK INTER + INTRA:          -4.544
REMARK INTER:                  -4.452
REMARK INTRA:                  -0.092
REMARK UNBOUND:                -0.092
REMARK SMILES C=C(C)[C@@H]1CC=C(C)C(=O)C1
REMARK SMILES IDX 8 1 7 2 6 3 5 4 4 5 11 6 9 7 10 8 2 9 1 10 3 11
REMARK H PARENT
REMARK Flexibility Score: inf
ROOT
ATOM      1  C   UNL     1       2.640 -24.571 -45.904  1.00  0.00     0.048 C 
ATOM      2  C   UNL     1       1.232 -24.960 -46.262  1.00  0.00    -0.012 C 
ATOM      3  C   UNL     1       0.203 -24.199 -45.854  1.00  0.00    -0.019 C 
ATOM      4  C   UNL     1      -1.224 -24.534 -46.199  1.00  0.00     0.036 C 
ATOM      5  C   UNL     1      -1.430 -26.057 -46.294  1.00  0.00     0.025 C 
ATOM      6  C   UNL     1      -0.428 -26.670 -47.291  1.00  0.00     0.089 C 
ATOM      7  C   UNL     1       0.976 -26.245 -46.959  1.00  0.00     0.158 C 
ATOM      8  O   UNL     1       1.939 -26.978 -47.313  1.00  0.00    -0.295 OA
ENDROOT
BRANCH   5   9
ATOM      9  C   UNL     1      -2.867 -26.410 -46.653  1.00  0.00    -0.077 C 
ATOM     10  C   UNL     1      -3.886 -26.120 -45.825  1.00  0.00     0.008 C 
ATOM     11  C   UNL     1      -3.173 -27.098 -47.957  1.00  0.00     0.039 C 
ENDBRANCH   5   9
TORSDOF 1
ENDMDL
MODEL 2
REMARK VINA RESULT:    -4.176     15.166     16.531
REMARK INTER + INTRA:          -4.512
REMARK INTER:                  -4.417
REMARK INTRA:                  -0.095
REMARK UNBOUND:                -0.092
REMARK SMILES C=C(C)[C@@H]1CC=C(C)C(=O)C1
REMARK SMILES IDX 8 1 7 2 6 3 5 4 4 5 11 6 9 7 10 8 2 9 1 10 3 11
REMARK H PARENT
REMARK Flexibility Score: inf
ROOT
ATOM      1  C   UNL     1       3.117 -11.320 -43.903  1.00  0.00     0.048 C 
ATOM      2  C   UNL     1       2.000 -10.866 -43.005  1.00  0.00    -0.012 C 
ATOM      3  C   UNL     1       1.395  -9.687 -43.233  1.00  0.00    -0.019 C 
ATOM      4  C   UNL     1       0.260  -9.193 -42.375  1.00  0.00     0.036 C 
ATOM      5  C   UNL     1       0.418  -9.668 -40.918  1.00  0.00     0.025 C 
ATOM      6  C   UNL     1       0.562 -11.201 -40.870  1.00  0.00     0.089 C 
ATOM      7  C   UNL     1       1.651 -11.659 -41.800  1.00  0.00     0.158 C 
ATOM      8  O   UNL     1       2.241 -12.748 -41.566  1.00  0.00    -0.295 OA
ENDROOT
BRANCH   5   9
ATOM      9  C   UNL     1      -0.729  -9.184 -40.042  1.00  0.00    -0.077 C 
ATOM     10  C   UNL     1      -0.685  -9.303 -38.703  1.00  0.00     0.008 C 
ATOM     11  C   UNL     1      -1.947  -8.556 -40.668  1.00  0.00     0.039 C 
ENDBRANCH   5   9
TORSDOF 1
ENDMDL
MODEL 3
REMARK VINA RESULT:    -4.150     15.467     16.533
REMARK INTER + INTRA:          -4.485
REMARK INTER:                  -4.392
REMARK INTRA:                  -0.093
REMARK UNBOUND:                -0.092
REMARK SMILES C=C(C)[C@@H]1CC=C(C)C(=O)C1
REMARK SMILES IDX 8 1 7 2 6 3 5 4 4 5 11 6 9 7 10 8 2 9 1 10 3 11
REMARK H PARENT
REMARK Flexibility Score: inf
ROOT
ATOM      1  C   UNL     1       3.410 -10.982 -41.824  1.00  0.00     0.048 C 
ATOM      2  C   UNL     1       1.964 -10.596 -41.979  1.00  0.00    -0.012 C 
ATOM      3  C   UNL     1       1.641  -9.437 -42.576  1.00  0.00    -0.019 C 
ATOM      4  C   UNL     1       0.210  -9.011 -42.772  1.00  0.00     0.036 C 
ATOM      5  C   UNL     1      -0.682  -9.519 -41.623  1.00  0.00     0.025 C 
ATOM      6  C   UNL     1      -0.542 -11.046 -41.475  1.00  0.00     0.089 C 
ATOM      7  C   UNL     1       0.906 -11.436 -41.364  1.00  0.00     0.158 C 
ATOM      8  O   UNL     1       1.210 -12.507 -40.773  1.00  0.00    -0.295 OA
ENDROOT
BRANCH   5   9
ATOM      9  C   UNL     1      -2.135  -9.104 -41.814  1.00  0.00    -0.077 C 
ATOM     10  C   UNL     1      -2.832  -9.476 -42.902  1.00  0.00     0.008 C 
ATOM     11  C   UNL     1      -2.823  -8.259 -40.774  1.00  0.00     0.039 C 
ENDBRANCH   5   9
TORSDOF 1
ENDMDL
MODEL 4
REMARK VINA RESULT:    -4.123      1.536      2.385
REMARK INTER + INTRA:          -4.456
REMARK INTER:                  -4.363
REMARK INTRA:                  -0.093
REMARK UNBOUND:                -0.092
REMARK SMILES C=C(C)[C@@H]1CC=C(C)C(=O)C1
REMARK SMILES IDX 8 1 7 2 6 3 5 4 4 5 11 6 9 7 10 8 2 9 1 10 3 11
REMARK H PARENT
REMARK Flexibility Score: inf
ROOT
ATOM      1  C   UNL     1       3.034 -24.225 -46.131  1.00  0.00     0.048 C 
ATOM      2  C   UNL     1       1.666 -24.845 -46.201  1.00  0.00    -0.012 C 
ATOM      3  C   UNL     1       1.483 -25.990 -46.880  1.00  0.00    -0.019 C 
ATOM      4  C   UNL     1       0.138 -26.662 -46.967  1.00  0.00     0.036 C 
ATOM      5  C   UNL     1      -1.002 -25.625 -46.956  1.00  0.00     0.025 C 
ATOM      6  C   UNL     1      -0.882 -24.714 -45.719  1.00  0.00     0.089 C 
ATOM      7  C   UNL     1       0.500 -24.129 -45.626  1.00  0.00     0.158 C 
ATOM      8  O   UNL     1       0.664 -23.037 -45.018  1.00  0.00    -0.295 OA
ENDROOT
BRANCH   5   9
ATOM      9  C   UNL     1      -2.368 -26.291 -47.033  1.00  0.00    -0.077 C 
ATOM     10  C   UNL     1      -2.685 -27.125 -48.039  1.00  0.00     0.008 C 
ATOM     11  C   UNL     1      -3.402 -26.022 -45.970  1.00  0.00     0.039 C 
ENDBRANCH   5   9
TORSDOF 1
ENDMDL
MODEL 5
REMARK VINA RESULT:    -4.019     17.581     18.748
REMARK INTER + INTRA:          -4.346
REMARK INTER:                  -4.253
REMARK INTRA:                  -0.093
REMARK UNBOUND:                -0.092
REMARK SMILES C=C(C)[C@@H]1CC=C(C)C(=O)C1
REMARK SMILES IDX 8 1 7 2 6 3 5 4 4 5 11 6 9 7 10 8 2 9 1 10 3 11
REMARK H PARENT
REMARK Flexibility Score: inf
ROOT
ATOM      1  C   UNL     1      -0.995 -10.159 -34.881  1.00  0.00     0.048 C 
ATOM      2  C   UNL     1      -1.097  -9.859 -36.351  1.00  0.00    -0.012 C 
ATOM      3  C   UNL     1      -1.531 -10.806 -37.199  1.00  0.00    -0.019 C 
ATOM      4  C   UNL     1      -1.669 -10.553 -38.678  1.00  0.00     0.036 C 
ATOM      5  C   UNL     1      -0.602  -9.558 -39.172  1.00  0.00     0.025 C 
ATOM      6  C   UNL     1      -0.663  -8.258 -38.348  1.00  0.00     0.089 C 
ATOM      7  C   UNL     1      -0.604  -8.561 -36.876  1.00  0.00     0.158 C 
ATOM      8  O   UNL     1      -0.165  -7.683 -36.086  1.00  0.00    -0.295 OA
ENDROOT
BRANCH   5   9
ATOM      9  C   UNL     1      -0.736  -9.285 -40.664  1.00  0.00    -0.077 C 
ATOM     10  C   UNL     1      -1.876  -8.801 -41.186  1.00  0.00     0.008 C 
ATOM     11  C   UNL     1       0.422  -9.556 -41.589  1.00  0.00     0.039 C 
ENDBRANCH   5   9
TORSDOF 1
ENDMDL
MODEL 6
REMARK VINA RESULT:    -3.972     15.561     17.372
REMARK INTER + INTRA:          -4.296
REMARK INTER:                  -4.202
REMARK INTRA:                  -0.094
REMARK UNBOUND:                -0.092
REMARK SMILES C=C(C)[C@@H]1CC=C(C)C(=O)C1
REMARK SMILES IDX 8 1 7 2 6 3 5 4 4 5 11 6 9 7 10 8 2 9 1 10 3 11
REMARK H PARENT
REMARK Flexibility Score: inf
ROOT
ATOM      1  C   UNL     1       2.264 -16.537 -33.507  1.00  0.00     0.048 C 
ATOM      2  C   UNL     1       3.702 -16.939 -33.331  1.00  0.00    -0.012 C 
ATOM      3  C   UNL     1       4.361 -16.593 -32.212  1.00  0.00    -0.019 C 
ATOM      4  C   UNL     1       5.796 -16.985 -31.976  1.00  0.00     0.036 C 
ATOM      5  C   UNL     1       6.580 -17.042 -33.301  1.00  0.00     0.025 C 
ATOM      6  C   UNL     1       5.874 -17.982 -34.298  1.00  0.00     0.089 C 
ATOM      7  C   UNL     1       4.425 -17.607 -34.442  1.00  0.00     0.158 C 
ATOM      8  O   UNL     1       3.817 -17.901 -35.506  1.00  0.00    -0.295 OA
ENDROOT
BRANCH   5   9
ATOM      9  C   UNL     1       8.030 -17.447 -33.080  1.00  0.00    -0.077 C 
ATOM     10  C   UNL     1       8.740 -16.968 -32.043  1.00  0.00     0.008 C 
ATOM     11  C   UNL     1       8.703 -18.403 -34.031  1.00  0.00     0.039 C 
ENDBRANCH   5   9
TORSDOF 1
ENDMDL
MODEL 7
REMARK VINA RESULT:    -3.966     15.109     16.179
REMARK INTER + INTRA:          -4.290
REMARK INTER:                  -4.193
REMARK INTRA:                  -0.096
REMARK UNBOUND:                -0.092
REMARK SMILES C=C(C)[C@@H]1CC=C(C)C(=O)C1
REMARK SMILES IDX 8 1 7 2 6 3 5 4 4 5 11 6 9 7 10 8 2 9 1 10 3 11
REMARK H PARENT
REMARK Flexibility Score: inf
ROOT
ATOM      1  C   UNL     1       2.878 -11.030 -44.617  1.00  0.00     0.048 C 
ATOM      2  C   UNL     1       2.135 -10.932 -43.314  1.00  0.00    -0.012 C 
ATOM      3  C   UNL     1       2.023 -12.013 -42.524  1.00  0.00    -0.019 C 
ATOM      4  C   UNL     1       1.304 -11.965 -41.201  1.00  0.00     0.036 C 
ATOM      5  C   UNL     1       0.137 -10.960 -41.240  1.00  0.00     0.025 C 
ATOM      6  C   UNL     1       0.643  -9.573 -41.681  1.00  0.00     0.089 C 
ATOM      7  C   UNL     1       1.423  -9.677 -42.962  1.00  0.00     0.158 C 
ATOM      8  O   UNL     1       1.499  -8.672 -43.719  1.00  0.00    -0.295 OA
ENDROOT
BRANCH   5   9
ATOM      9  C   UNL     1      -0.592 -10.894 -39.905  1.00  0.00    -0.077 C 
ATOM     10  C   UNL     1      -0.670  -9.747 -39.207  1.00  0.00     0.008 C 
ATOM     11  C   UNL     1      -1.245 -12.127 -39.338  1.00  0.00     0.039 C 
ENDBRANCH   5   9
TORSDOF 1
ENDMDL
MODEL 8
REMARK VINA RESULT:    -3.942     15.124     15.912
REMARK INTER + INTRA:          -4.265
REMARK INTER:                  -4.170
REMARK INTRA:                  -0.095
REMARK UNBOUND:                -0.092
REMARK SMILES C=C(C)[C@@H]1CC=C(C)C(=O)C1
REMARK SMILES IDX 8 1 7 2 6 3 5 4 4 5 11 6 9 7 10 8 2 9 1 10 3 11
REMARK H PARENT
REMARK Flexibility Score: inf
ROOT
ATOM      1  C   UNL     1       3.110 -10.796 -41.890  1.00  0.00     0.048 C 
ATOM      2  C   UNL     1       1.607 -10.752 -41.838  1.00  0.00    -0.012 C 
ATOM      3  C   UNL     1       0.929 -11.746 -41.238  1.00  0.00    -0.019 C 
ATOM      4  C   UNL     1      -0.574 -11.742 -41.142  1.00  0.00     0.036 C 
ATOM      5  C   UNL     1      -1.207 -11.057 -42.368  1.00  0.00     0.025 C 
ATOM      6  C   UNL     1      -0.629  -9.639 -42.544  1.00  0.00     0.089 C 
ATOM      7  C   UNL     1       0.874  -9.678 -42.553  1.00  0.00     0.158 C 
ATOM      8  O   UNL     1       1.509  -8.764 -43.145  1.00  0.00    -0.295 OA
ENDROOT
BRANCH   5   9
ATOM      9  C   UNL     1      -2.726 -11.037 -42.279  1.00  0.00    -0.077 C 
ATOM     10  C   UNL     1      -3.411 -12.080 -41.779  1.00  0.00     0.008 C 
ATOM     11  C   UNL     1      -3.496  -9.833 -42.758  1.00  0.00     0.039 C 
ENDBRANCH   5   9
TORSDOF 1
ENDMDL
MODEL 9
REMARK VINA RESULT:    -3.928      1.958      4.760
REMARK INTER + INTRA:          -4.250
REMARK INTER:                  -4.154
REMARK INTRA:                  -0.096
REMARK UNBOUND:                -0.092
REMARK SMILES C=C(C)[C@@H]1CC=C(C)C(=O)C1
REMARK SMILES IDX 8 1 7 2 6 3 5 4 4 5 11 6 9 7 10 8 2 9 1 10 3 11
REMARK H PARENT
REMARK Flexibility Score: inf
ROOT
ATOM      1  C   UNL     1      -3.022 -27.125 -47.549  1.00  0.00     0.048 C 
ATOM      2  C   UNL     1      -1.808 -26.340 -47.135  1.00  0.00    -0.012 C 
ATOM      3  C   UNL     1      -0.590 -26.719 -47.558  1.00  0.00    -0.019 C 
ATOM      4  C   UNL     1       0.657 -25.959 -47.188  1.00  0.00     0.036 C 
ATOM      5  C   UNL     1       0.529 -25.332 -45.787  1.00  0.00     0.025 C 
ATOM      6  C   UNL     1      -0.736 -24.455 -45.708  1.00  0.00     0.089 C 
ATOM      7  C   UNL     1      -1.943 -25.226 -46.163  1.00  0.00     0.158 C 
ATOM      8  O   UNL     1      -3.082 -24.892 -45.738  1.00  0.00    -0.295 OA
ENDROOT
BRANCH   5   9
ATOM      9  C   UNL     1       1.778 -24.552 -45.404  1.00  0.00    -0.077 C 
ATOM     10  C   UNL     1       2.684 -24.184 -46.327  1.00  0.00     0.008 C 
ATOM     11  C   UNL     1       2.024 -24.175 -43.966  1.00  0.00     0.039 C 
ENDBRANCH   5   9
TORSDOF 1
ENDMDL
