MODEL 1
REMARK VINA RESULT:    -1.920      0.000      0.000
REMARK INTER + INTRA:          -1.920
REMARK INTER:                  -1.920
REMARK INTRA:                   0.000
REMARK UNBOUND:                 0.000
REMARK SMILES CC(=O)[O-]
REMARK SMILES IDX 1 1 2 2 3 3 4 4
REMARK H PARENT
REMARK Flexibility Score: inf
ROOT
ATOM      1  C   UNL     1     101.549 117.854  94.215  1.00  0.00     0.063 C 
ATOM      2  C   UNL     1     101.035 119.115  93.607  1.00  0.00     0.038 C 
ATOM      3  O   UNL     1     101.058 119.269  92.358  1.00  0.00    -0.550 OA
ATOM      4  O   UNL     1     100.477 120.099  94.413  1.00  0.00    -0.550 OA
ENDROOT
TORSDOF 0
ENDMDL
MODEL 2
REMARK VINA RESULT:    -1.732     18.440     18.830
REMARK INTER + INTRA:          -1.732
REMARK INTER:                  -1.732
REMARK INTRA:                   0.000
REMARK UNBOUND:                 0.000
REMARK SMILES CC(=O)[O-]
REMARK SMILES IDX 1 1 2 2 3 3 4 4
REMARK H PARENT
REMARK Flexibility Score: inf
ROOT
ATOM      1  C   UNL     1     107.312 102.155  91.323  1.00  0.00     0.063 C 
ATOM      2  C   UNL     1     108.007 102.043  90.008  1.00  0.00     0.038 C 
ATOM      3  O   UNL     1     109.229 101.746  89.962  1.00  0.00    -0.550 OA
ATOM      4  O   UNL     1     107.294 102.213  88.827  1.00  0.00    -0.550 OA
ENDROOT
TORSDOF 0
ENDMDL
MODEL 3
REMARK VINA RESULT:    -1.726     12.964     13.324
REMARK INTER + INTRA:          -1.726
REMARK INTER:                  -1.726
REMARK INTRA:                   0.000
REMARK UNBOUND:                 0.000
REMARK SMILES CC(=O)[O-]
REMARK SMILES IDX 1 1 2 2 3 3 4 4
REMARK H PARENT
REMARK Flexibility Score: inf
ROOT
ATOM      1  C   UNL     1     100.047 118.222  81.675  1.00  0.00     0.063 C 
ATOM      2  C   UNL     1      99.575 118.908  80.438  1.00  0.00     0.038 C 
ATOM      3  O   UNL     1      98.363 118.846  80.104  1.00  0.00    -0.550 OA
ATOM      4  O   UNL     1     100.461 119.663  79.680  1.00  0.00    -0.550 OA
ENDROOT
TORSDOF 0
ENDMDL
MODEL 4
REMARK VINA RESULT:    -1.705     21.977     22.251
REMARK INTER + INTRA:          -1.705
REMARK INTER:                  -1.705
REMARK INTRA:                   0.000
REMARK UNBOUND:                 0.000
REMARK SMILES CC(=O)[O-]
REMARK SMILES IDX 1 1 2 2 3 3 4 4
REMARK H PARENT
REMARK Flexibility Score: inf
ROOT
ATOM      1  C   UNL     1     110.609 100.192  89.250  1.00  0.00     0.063 C 
ATOM      2  C   UNL     1     111.142 100.165  87.858  1.00  0.00     0.038 C 
ATOM      3  O   UNL     1     110.358 100.020  86.883  1.00  0.00    -0.550 OA
ATOM      4  O   UNL     1     112.499 100.355  87.627  1.00  0.00    -0.550 OA
ENDROOT
TORSDOF 0
ENDMDL
MODEL 5
REMARK VINA RESULT:    -1.684     22.014     22.413
REMARK INTER + INTRA:          -1.684
REMARK INTER:                  -1.684
REMARK INTRA:                   0.000
REMARK UNBOUND:                 0.000
REMARK SMILES CC(=O)[O-]
REMARK SMILES IDX 1 1 2 2 3 3 4 4
REMARK H PARENT
REMARK Flexibility Score: inf
ROOT
ATOM      1  C   UNL     1     112.672  99.966  90.321  1.00  0.00     0.063 C 
ATOM      2  C   UNL     1     111.655  99.946  89.231  1.00  0.00     0.038 C 
ATOM      3  O   UNL     1     110.430 100.038  89.507  1.00  0.00    -0.550 OA
ATOM      4  O   UNL     1     112.060  99.882  87.903  1.00  0.00    -0.550 OA
ENDROOT
TORSDOF 0
ENDMDL
MODEL 6
REMARK VINA RESULT:    -1.671     14.029     14.618
REMARK INTER + INTRA:          -1.671
REMARK INTER:                  -1.671
REMARK INTRA:                   0.000
REMARK UNBOUND:                 0.000
REMARK SMILES CC(=O)[O-]
REMARK SMILES IDX 1 1 2 2 3 3 4 4
REMARK H PARENT
REMARK Flexibility Score: inf
ROOT
ATOM      1  C   UNL     1     102.447 120.120  79.623  1.00  0.00     0.063 C 
ATOM      2  C   UNL     1     101.089 119.862  79.063  1.00  0.00     0.038 C 
ATOM      3  O   UNL     1     100.845 120.119  77.855  1.00  0.00    -0.550 OA
ATOM      4  O   UNL     1     100.106 119.286  79.858  1.00  0.00    -0.550 OA
ENDROOT
TORSDOF 0
ENDMDL
MODEL 7
REMARK VINA RESULT:    -1.669     22.087     22.212
REMARK INTER + INTRA:          -1.669
REMARK INTER:                  -1.669
REMARK INTRA:                   0.000
REMARK UNBOUND:                 0.000
REMARK SMILES CC(=O)[O-]
REMARK SMILES IDX 1 1 2 2 3 3 4 4
REMARK H PARENT
REMARK Flexibility Score: inf
ROOT
ATOM      1  C   UNL     1     112.467 100.628  87.616  1.00  0.00     0.063 C 
ATOM      2  C   UNL     1     111.048 100.209  87.803  1.00  0.00     0.038 C 
ATOM      3  O   UNL     1     110.282 100.109  86.810  1.00  0.00    -0.550 OA
ATOM      4  O   UNL     1     110.583  99.875  89.069  1.00  0.00    -0.550 OA
ENDROOT
TORSDOF 0
ENDMDL
MODEL 8
REMARK VINA RESULT:    -1.662     21.386     21.863
REMARK INTER + INTRA:          -1.662
REMARK INTER:                  -1.662
REMARK INTRA:                   0.000
REMARK UNBOUND:                 0.000
REMARK SMILES CC(=O)[O-]
REMARK SMILES IDX 1 1 2 2 3 3 4 4
REMARK H PARENT
REMARK Flexibility Score: inf
ROOT
ATOM      1  C   UNL     1     111.776  99.890  88.095  1.00  0.00     0.063 C 
ATOM      2  C   UNL     1     111.288 100.371  89.420  1.00  0.00     0.038 C 
ATOM      3  O   UNL     1     110.064 100.609  89.595  1.00  0.00    -0.550 OA
ATOM      4  O   UNL     1     112.174 100.503  90.482  1.00  0.00    -0.550 OA
ENDROOT
TORSDOF 0
ENDMDL
MODEL 9
REMARK VINA RESULT:    -1.658     21.844     22.215
REMARK INTER + INTRA:          -1.658
REMARK INTER:                  -1.658
REMARK INTRA:                   0.000
REMARK UNBOUND:                 0.000
REMARK SMILES CC(=O)[O-]
REMARK SMILES IDX 1 1 2 2 3 3 4 4
REMARK H PARENT
REMARK Flexibility Score: inf
ROOT
ATOM      1  C   UNL     1     110.140 100.620  86.823  1.00  0.00     0.063 C 
ATOM      2  C   UNL     1     111.024 100.126  87.917  1.00  0.00     0.038 C 
ATOM      3  O   UNL     1     112.259  99.982  87.716  1.00  0.00    -0.550 OA
ATOM      4  O   UNL     1     110.498  99.875  89.178  1.00  0.00    -0.550 OA
ENDROOT
TORSDOF 0
ENDMDL
