MODEL 1
REMARK VINA RESULT:    -4.786      0.000      0.000
REMARK INTER + INTRA:          -6.223
REMARK INTER:                  -5.905
REMARK INTRA:                  -0.318
REMARK UNBOUND:                -0.318
REMARK SMILES C=CC(=C)CCC=C(C)C
REMARK SMILES IDX 5 1 6 2 7 3 9 4 8 5 10 6 3 7 4 8 2 9 1 10
REMARK H PARENT
REMARK Flexibility Score: inf
ROOT
ATOM      1  C   UNL     1      14.421   7.833  12.096  1.00  0.00     0.039 C 
ENDROOT
BRANCH   1   2
ATOM      2  C   UNL     1      14.774   8.234  10.655  1.00  0.00     0.032 C 
BRANCH   2   3
ATOM      3  C   UNL     1      15.915   9.220  10.599  1.00  0.00    -0.028 C 
ATOM      4  C   UNL     1      17.177   7.914   8.875  1.00  0.00     0.039 C 
ATOM      5  C   UNL     1      17.011   9.079   9.822  1.00  0.00    -0.080 C 
ATOM      6  C   UNL     1      18.093  10.125   9.909  1.00  0.00     0.039 C 
ENDBRANCH   2   3
ENDBRANCH   1   2
BRANCH   1   7
ATOM      7  C   UNL     1      13.928   6.400  12.184  1.00  0.00    -0.055 C 
ATOM      8  C   UNL     1      14.678   5.429  11.650  1.00  0.00     0.012 C 
BRANCH   7   9
ATOM      9  C   UNL     1      12.628   6.031  12.805  1.00  0.00    -0.005 C 
ATOM     10  C   UNL     1      12.080   6.662  13.844  1.00  0.00     0.009 C 
ENDBRANCH   7   9
ENDBRANCH   1   7
TORSDOF 4
ENDMDL
MODEL 2
REMARK VINA RESULT:    -4.237     12.829     15.357
REMARK INTER + INTRA:          -5.545
REMARK INTER:                  -4.983
REMARK INTRA:                  -0.563
REMARK UNBOUND:                -0.318
REMARK SMILES C=CC(=C)CCC=C(C)C
REMARK SMILES IDX 5 1 6 2 7 3 9 4 8 5 10 6 3 7 4 8 2 9 1 10
REMARK H PARENT
REMARK Flexibility Score: inf
ROOT
ATOM      1  C   UNL     1       4.365  -1.912  18.251  1.00  0.00     0.039 C 
ENDROOT
BRANCH   1   2
ATOM      2  C   UNL     1       5.431  -3.000  18.051  1.00  0.00     0.032 C 
BRANCH   2   3
ATOM      3  C   UNL     1       6.825  -2.427  17.971  1.00  0.00    -0.028 C 
ATOM      4  C   UNL     1       6.811  -2.309  15.470  1.00  0.00     0.039 C 
ATOM      5  C   UNL     1       7.467  -2.133  16.819  1.00  0.00    -0.080 C 
ATOM      6  C   UNL     1       8.878  -1.610  16.898  1.00  0.00     0.039 C 
ENDBRANCH   2   3
ENDBRANCH   1   2
BRANCH   1   7
ATOM      7  C   UNL     1       3.116  -2.180  17.431  1.00  0.00    -0.055 C 
ATOM      8  C   UNL     1       1.982  -2.486  18.070  1.00  0.00     0.012 C 
BRANCH   7   9
ATOM      9  C   UNL     1       3.106  -2.153  15.944  1.00  0.00    -0.005 C 
ATOM     10  C   UNL     1       3.184  -1.045  15.207  1.00  0.00     0.009 C 
ENDBRANCH   7   9
ENDBRANCH   1   7
TORSDOF 4
ENDMDL
MODEL 3
REMARK VINA RESULT:    -4.165     14.385     16.292
REMARK INTER + INTRA:          -5.457
REMARK INTER:                  -5.185
REMARK INTRA:                  -0.272
REMARK UNBOUND:                -0.318
REMARK SMILES C=CC(=C)CCC=C(C)C
REMARK SMILES IDX 5 1 6 2 7 3 9 4 8 5 10 6 3 7 4 8 2 9 1 10
REMARK H PARENT
REMARK Flexibility Score: inf
ROOT
ATOM      1  C   UNL     1       8.674   1.497  24.671  1.00  0.00     0.039 C 
ENDROOT
BRANCH   1   2
ATOM      2  C   UNL     1      10.154   1.089  24.598  1.00  0.00     0.032 C 
BRANCH   2   3
ATOM      3  C   UNL     1      10.626   0.421  25.867  1.00  0.00    -0.028 C 
ATOM      4  C   UNL     1      12.414  -0.893  24.706  1.00  0.00     0.039 C 
ATOM      5  C   UNL     1      11.624  -0.487  25.928  1.00  0.00    -0.080 C 
ATOM      6  C   UNL     1      11.952  -1.104  27.263  1.00  0.00     0.039 C 
ENDBRANCH   2   3
ENDBRANCH   1   2
BRANCH   1   7
ATOM      7  C   UNL     1       8.049   1.621  23.293  1.00  0.00    -0.055 C 
ATOM      8  C   UNL     1       6.812   2.120  23.192  1.00  0.00     0.012 C 
BRANCH   7   9
ATOM      9  C   UNL     1       8.738   1.178  22.052  1.00  0.00    -0.005 C 
ATOM     10  C   UNL     1       8.305   0.203  21.253  1.00  0.00     0.009 C 
ENDBRANCH   7   9
ENDBRANCH   1   7
TORSDOF 4
ENDMDL
MODEL 4
REMARK VINA RESULT:    -4.121     13.757     15.947
REMARK INTER + INTRA:          -5.403
REMARK INTER:                  -4.770
REMARK INTRA:                  -0.633
REMARK UNBOUND:                -0.318
REMARK SMILES C=CC(=C)CCC=C(C)C
REMARK SMILES IDX 5 1 6 2 7 3 9 4 8 5 10 6 3 7 4 8 2 9 1 10
REMARK H PARENT
REMARK Flexibility Score: inf
ROOT
ATOM      1  C   UNL     1       4.607  -2.674  19.167  1.00  0.00     0.039 C 
ENDROOT
BRANCH   1   2
ATOM      2  C   UNL     1       3.929  -3.215  17.899  1.00  0.00     0.032 C 
BRANCH   2   3
ATOM      3  C   UNL     1       2.986  -2.212  17.282  1.00  0.00    -0.028 C 
ATOM      4  C   UNL     1       4.334  -1.988  15.183  1.00  0.00     0.039 C 
ATOM      5  C   UNL     1       3.167  -1.635  16.073  1.00  0.00    -0.080 C 
ATOM      6  C   UNL     1       2.162  -0.612  15.609  1.00  0.00     0.039 C 
ENDBRANCH   2   3
ENDBRANCH   1   2
BRANCH   1   7
ATOM      7  C   UNL     1       6.002  -2.145  18.885  1.00  0.00    -0.055 C 
ATOM      8  C   UNL     1       6.479  -1.155  19.649  1.00  0.00     0.012 C 
BRANCH   7   9
ATOM      9  C   UNL     1       6.848  -2.653  17.773  1.00  0.00    -0.005 C 
ATOM     10  C   UNL     1       7.877  -1.992  17.243  1.00  0.00     0.009 C 
ENDBRANCH   7   9
ENDBRANCH   1   7
TORSDOF 4
ENDMDL
MODEL 5
REMARK VINA RESULT:    -3.991     17.342     20.161
REMARK INTER + INTRA:          -5.242
REMARK INTER:                  -4.712
REMARK INTRA:                  -0.529
REMARK UNBOUND:                -0.318
REMARK SMILES C=CC(=C)CCC=C(C)C
REMARK SMILES IDX 5 1 6 2 7 3 9 4 8 5 10 6 3 7 4 8 2 9 1 10
REMARK H PARENT
REMARK Flexibility Score: inf
ROOT
ATOM      1  C   UNL     1      -1.409  -2.680  12.450  1.00  0.00     0.039 C 
ENDROOT
BRANCH   1   2
ATOM      2  C   UNL     1      -2.102  -4.025  12.720  1.00  0.00     0.032 C 
BRANCH   2   3
ATOM      3  C   UNL     1      -2.125  -4.911  11.499  1.00  0.00    -0.028 C 
ATOM      4  C   UNL     1      -0.251  -6.359  12.311  1.00  0.00     0.039 C 
ATOM      5  C   UNL     1      -1.285  -5.949  11.290  1.00  0.00    -0.080 C 
ATOM      6  C   UNL     1      -1.398  -6.715   9.998  1.00  0.00     0.039 C 
ENDBRANCH   2   3
ENDBRANCH   1   2
BRANCH   1   7
ATOM      7  C   UNL     1      -0.452  -2.299  13.564  1.00  0.00    -0.055 C 
ATOM      8  C   UNL     1      -0.588  -1.103  14.147  1.00  0.00     0.012 C 
BRANCH   7   9
ATOM      9  C   UNL     1       0.657  -3.183  14.012  1.00  0.00    -0.005 C 
ATOM     10  C   UNL     1       1.939  -3.013  13.688  1.00  0.00     0.009 C 
ENDBRANCH   7   9
ENDBRANCH   1   7
TORSDOF 4
ENDMDL
MODEL 6
REMARK VINA RESULT:    -3.974     15.644     17.944
REMARK INTER + INTRA:          -5.221
REMARK INTER:                  -4.303
REMARK INTRA:                  -0.918
REMARK UNBOUND:                -0.318
REMARK SMILES C=CC(=C)CCC=C(C)C
REMARK SMILES IDX 5 1 6 2 7 3 9 4 8 5 10 6 3 7 4 8 2 9 1 10
REMARK H PARENT
REMARK Flexibility Score: inf
ROOT
ATOM      1  C   UNL     1       4.161  -2.293  16.298  1.00  0.00     0.039 C 
ENDROOT
BRANCH   1   2
ATOM      2  C   UNL     1       3.683  -2.307  17.759  1.00  0.00     0.032 C 
BRANCH   2   3
ATOM      3  C   UNL     1       2.844  -3.521  18.074  1.00  0.00    -0.028 C 
ATOM      4  C   UNL     1       0.711  -2.216  18.211  1.00  0.00     0.039 C 
ATOM      5  C   UNL     1       1.512  -3.492  18.303  1.00  0.00    -0.080 C 
ATOM      6  C   UNL     1       0.817  -4.782  18.654  1.00  0.00     0.039 C 
ENDBRANCH   2   3
ENDBRANCH   1   2
BRANCH   1   7
ATOM      7  C   UNL     1       3.064  -1.857  15.344  1.00  0.00    -0.055 C 
ATOM      8  C   UNL     1       2.725  -0.563  15.304  1.00  0.00     0.012 C 
BRANCH   7   9
ATOM      9  C   UNL     1       2.323  -2.810  14.477  1.00  0.00    -0.005 C 
ATOM     10  C   UNL     1       1.011  -3.034  14.547  1.00  0.00     0.009 C 
ENDBRANCH   7   9
ENDBRANCH   1   7
TORSDOF 4
ENDMDL
MODEL 7
REMARK VINA RESULT:    -3.971     17.270     20.060
REMARK INTER + INTRA:          -5.217
REMARK INTER:                  -4.507
REMARK INTRA:                  -0.710
REMARK UNBOUND:                -0.318
REMARK SMILES C=CC(=C)CCC=C(C)C
REMARK SMILES IDX 5 1 6 2 7 3 9 4 8 5 10 6 3 7 4 8 2 9 1 10
REMARK H PARENT
REMARK Flexibility Score: inf
ROOT
ATOM      1  C   UNL     1      -0.420  -5.773   9.032  1.00  0.00     0.039 C 
ENDROOT
BRANCH   1   2
ATOM      2  C   UNL     1      -0.622  -4.254   9.146  1.00  0.00     0.032 C 
BRANCH   2   3
ATOM      3  C   UNL     1       0.553  -3.569   9.800  1.00  0.00    -0.028 C 
ATOM      4  C   UNL     1      -0.814  -2.670  11.696  1.00  0.00     0.039 C 
ATOM      5  C   UNL     1       0.479  -2.835  10.932  1.00  0.00    -0.080 C 
ATOM      6  C   UNL     1       1.732  -2.170  11.440  1.00  0.00     0.039 C 
ENDBRANCH   2   3
ENDBRANCH   1   2
BRANCH   1   7
ATOM      7  C   UNL     1      -1.316  -6.540   9.988  1.00  0.00    -0.055 C 
ATOM      8  C   UNL     1      -2.125  -7.484   9.492  1.00  0.00     0.012 C 
BRANCH   7   9
ATOM      9  C   UNL     1      -1.362  -6.264  11.448  1.00  0.00    -0.005 C 
ATOM     10  C   UNL     1      -0.314  -6.348  12.268  1.00  0.00     0.009 C 
ENDBRANCH   7   9
ENDBRANCH   1   7
TORSDOF 4
ENDMDL
MODEL 8
REMARK VINA RESULT:    -3.960     18.439     20.646
REMARK INTER + INTRA:          -5.203
REMARK INTER:                  -4.748
REMARK INTRA:                  -0.456
REMARK UNBOUND:                -0.318
REMARK SMILES C=CC(=C)CCC=C(C)C
REMARK SMILES IDX 5 1 6 2 7 3 9 4 8 5 10 6 3 7 4 8 2 9 1 10
REMARK H PARENT
REMARK Flexibility Score: inf
ROOT
ATOM      1  C   UNL     1      -0.858  -6.579  11.430  1.00  0.00     0.039 C 
ENDROOT
BRANCH   1   2
ATOM      2  C   UNL     1      -1.591  -5.383  12.057  1.00  0.00     0.032 C 
BRANCH   2   3
ATOM      3  C   UNL     1      -0.766  -4.701  13.121  1.00  0.00    -0.028 C 
ATOM      4  C   UNL     1      -0.688  -2.518  11.896  1.00  0.00     0.039 C 
ATOM      5  C   UNL     1      -0.334  -3.422  13.052  1.00  0.00    -0.080 C 
ATOM      6  C   UNL     1       0.523  -2.894  14.173  1.00  0.00     0.039 C 
ENDBRANCH   2   3
ENDBRANCH   1   2
BRANCH   1   7
ATOM      7  C   UNL     1      -1.131  -6.697   9.941  1.00  0.00    -0.055 C 
ATOM      8  C   UNL     1      -2.125  -7.493   9.532  1.00  0.00     0.012 C 
BRANCH   7   9
ATOM      9  C   UNL     1      -0.316  -5.995   8.914  1.00  0.00    -0.005 C 
ATOM     10  C   UNL     1      -0.104  -4.680   8.886  1.00  0.00     0.009 C 
ENDBRANCH   7   9
ENDBRANCH   1   7
TORSDOF 4
ENDMDL
MODEL 9
REMARK VINA RESULT:    -3.893     14.641     17.479
REMARK INTER + INTRA:          -5.121
REMARK INTER:                  -4.250
REMARK INTRA:                  -0.872
REMARK UNBOUND:                -0.318
REMARK SMILES C=CC(=C)CCC=C(C)C
REMARK SMILES IDX 5 1 6 2 7 3 9 4 8 5 10 6 3 7 4 8 2 9 1 10
REMARK H PARENT
REMARK Flexibility Score: inf
ROOT
ATOM      1  C   UNL     1       6.105  -1.644  19.644  1.00  0.00     0.039 C 
ENDROOT
BRANCH   1   2
ATOM      2  C   UNL     1       6.166  -2.711  20.747  1.00  0.00     0.032 C 
BRANCH   2   3
ATOM      3  C   UNL     1       4.800  -3.046  21.295  1.00  0.00    -0.028 C 
ATOM      4  C   UNL     1       4.682  -5.248  20.109  1.00  0.00     0.039 C 
ATOM      5  C   UNL     1       4.111  -4.170  21.000  1.00  0.00    -0.080 C 
ATOM      6  C   UNL     1       2.734  -4.343  21.587  1.00  0.00     0.039 C 
ENDBRANCH   2   3
ENDBRANCH   1   2
BRANCH   1   7
ATOM      7  C   UNL     1       6.049  -2.259  18.258  1.00  0.00    -0.055 C 
ATOM      8  C   UNL     1       7.198  -2.507  17.618  1.00  0.00     0.012 C 
BRANCH   7   9
ATOM      9  C   UNL     1       4.771  -2.567  17.562  1.00  0.00    -0.005 C 
ATOM     10  C   UNL     1       3.588  -2.048  17.889  1.00  0.00     0.009 C 
ENDBRANCH   7   9
ENDBRANCH   1   7
TORSDOF 4
ENDMDL
