MODEL 1
REMARK VINA RESULT:    -2.716      0.000      0.000
REMARK INTER + INTRA:          -5.219
REMARK INTER:                  -4.146
REMARK INTRA:                  -1.073
REMARK UNBOUND:                -1.073
REMARK SMILES O=C([O-])CCCCCCCCC(=O)[O-]
REMARK SMILES IDX 7 1 6 2 5 3 4 4 2 5 1 6 3 7 8 8 9 9 10 10 11 11 12 12 13 13
REMARK SMILES IDX 14 14
REMARK H PARENT
REMARK Flexibility Score: inf
ROOT
ATOM      1  C   UNL     1      17.871 -15.922  13.879  1.00  0.00     0.000 C 
ENDROOT
BRANCH   1   2
ATOM      2  C   UNL     1      17.574 -17.329  13.335  1.00  0.00     0.000 C 
BRANCH   2   3
ATOM      3  C   UNL     1      18.543 -17.750  12.220  1.00  0.00     0.006 C 
BRANCH   3   4
ATOM      4  C   UNL     1      19.055 -16.529  11.451  1.00  0.00     0.053 C 
BRANCH   4   5
ATOM      5  C   UNL     1      18.486 -16.505  10.067  1.00  0.00     0.041 C 
ATOM      6  O   UNL     1      17.832 -17.489   9.633  1.00  0.00    -0.550 OA
ATOM      7  O   UNL     1      18.636 -15.374   9.274  1.00  0.00    -0.550 OA
ENDBRANCH   4   5
ENDBRANCH   3   4
ENDBRANCH   2   3
ENDBRANCH   1   2
BRANCH   1   8
ATOM      8  C   UNL     1      18.015 -15.896  15.408  1.00  0.00     0.000 C 
BRANCH   8   9
ATOM      9  C   UNL     1      18.760 -17.139  15.910  1.00  0.00     0.000 C 
BRANCH   9  10
ATOM     10  C   UNL     1      20.253 -16.841  16.115  1.00  0.00     0.006 C 
BRANCH  10  11
ATOM     11  C   UNL     1      21.119 -17.422  14.989  1.00  0.00     0.053 C 
BRANCH  11  12
ATOM     12  C   UNL     1      21.637 -16.352  14.076  1.00  0.00     0.041 C 
ATOM     13  O   UNL     1      21.313 -15.149  14.262  1.00  0.00    -0.550 OA
ATOM     14  O   UNL     1      22.449 -16.687  13.001  1.00  0.00    -0.550 OA
ENDBRANCH  11  12
ENDBRANCH  10  11
ENDBRANCH   9  10
ENDBRANCH   8   9
ENDBRANCH   1   8
TORSDOF 9
ENDMDL
MODEL 2
REMARK VINA RESULT:    -2.690     14.917     16.541
REMARK INTER + INTRA:          -5.178
REMARK INTER:                  -4.508
REMARK INTRA:                  -0.670
REMARK UNBOUND:                -1.073
REMARK SMILES O=C([O-])CCCCCCCCC(=O)[O-]
REMARK SMILES IDX 7 1 6 2 5 3 4 4 2 5 1 6 3 7 8 8 9 9 10 10 11 11 12 12 13 13
REMARK SMILES IDX 14 14
REMARK H PARENT
REMARK Flexibility Score: inf
ROOT
ATOM      1  C   UNL     1      19.423 -13.481  -0.994  1.00  0.00     0.000 C 
ENDROOT
BRANCH   1   2
ATOM      2  C   UNL     1      20.631 -13.004  -1.817  1.00  0.00     0.000 C 
BRANCH   2   3
ATOM      3  C   UNL     1      20.225 -12.143  -3.021  1.00  0.00     0.006 C 
BRANCH   3   4
ATOM      4  C   UNL     1      18.863 -11.483  -2.788  1.00  0.00     0.053 C 
BRANCH   4   5
ATOM      5  C   UNL     1      19.036 -10.071  -2.324  1.00  0.00     0.041 C 
ATOM      6  O   UNL     1      18.406  -9.137  -2.886  1.00  0.00    -0.550 OA
ATOM      7  O   UNL     1      19.856  -9.794  -1.237  1.00  0.00    -0.550 OA
ENDBRANCH   4   5
ENDBRANCH   3   4
ENDBRANCH   2   3
ENDBRANCH   1   2
BRANCH   1   8
ATOM      8  C   UNL     1      19.243 -15.006  -1.034  1.00  0.00     0.000 C 
BRANCH   8   9
ATOM      9  C   UNL     1      19.162 -15.510  -2.480  1.00  0.00     0.000 C 
BRANCH   9  10
ATOM     10  C   UNL     1      17.823 -15.120  -3.124  1.00  0.00     0.006 C 
BRANCH  10  11
ATOM     11  C   UNL     1      16.653 -15.221  -2.136  1.00  0.00     0.053 C 
BRANCH  11  12
ATOM     12  C   UNL     1      15.455 -14.457  -2.612  1.00  0.00     0.041 C 
ATOM     13  O   UNL     1      14.344 -15.035  -2.737  1.00  0.00    -0.550 OA
ATOM     14  O   UNL     1      15.574 -13.115  -2.950  1.00  0.00    -0.550 OA
ENDBRANCH  11  12
ENDBRANCH  10  11
ENDBRANCH   9  10
ENDBRANCH   8   9
ENDBRANCH   1   8
TORSDOF 9
ENDMDL
MODEL 3
REMARK VINA RESULT:    -2.627      1.618      5.015
REMARK INTER + INTRA:          -5.082
REMARK INTER:                  -4.392
REMARK INTRA:                  -0.690
REMARK UNBOUND:                -1.073
REMARK SMILES O=C([O-])CCCCCCCCC(=O)[O-]
REMARK SMILES IDX 7 1 6 2 5 3 4 4 2 5 1 6 3 7 8 8 9 9 10 10 11 11 12 12 13 13
REMARK SMILES IDX 14 14
REMARK H PARENT
REMARK Flexibility Score: inf
ROOT
ATOM      1  C   UNL     1      18.823 -15.237  13.344  1.00  0.00     0.000 C 
ENDROOT
BRANCH   1   2
ATOM      2  C   UNL     1      20.313 -15.364  13.704  1.00  0.00     0.000 C 
BRANCH   2   3
ATOM      3  C   UNL     1      20.718 -16.803  14.053  1.00  0.00     0.006 C 
BRANCH   3   4
ATOM      4  C   UNL     1      21.994 -16.823  14.899  1.00  0.00     0.053 C 
BRANCH   4   5
ATOM      5  C   UNL     1      21.926 -15.786  15.975  1.00  0.00     0.041 C 
ATOM      6  O   UNL     1      22.731 -14.817  15.973  1.00  0.00    -0.550 OA
ATOM      7  O   UNL     1      20.942 -15.863  16.952  1.00  0.00    -0.550 OA
ENDBRANCH   4   5
ENDBRANCH   3   4
ENDBRANCH   2   3
ENDBRANCH   1   2
BRANCH   1   8
ATOM      8  C   UNL     1      17.948 -16.267  14.074  1.00  0.00     0.000 C 
BRANCH   8   9
ATOM      9  C   UNL     1      17.013 -16.986  13.094  1.00  0.00     0.000 C 
BRANCH   9  10
ATOM     10  C   UNL     1      17.785 -18.013  12.252  1.00  0.00     0.006 C 
BRANCH  10  11
ATOM     11  C   UNL     1      17.727 -17.695  10.752  1.00  0.00     0.053 C 
BRANCH  11  12
ATOM     12  C   UNL     1      18.888 -16.855  10.316  1.00  0.00     0.041 C 
ATOM     13  O   UNL     1      18.692 -15.756   9.733  1.00  0.00    -0.550 OA
ATOM     14  O   UNL     1      20.187 -17.301  10.523  1.00  0.00    -0.550 OA
ENDBRANCH  11  12
ENDBRANCH  10  11
ENDBRANCH   9  10
ENDBRANCH   8   9
ENDBRANCH   1   8
TORSDOF 9
ENDMDL
MODEL 4
REMARK VINA RESULT:    -2.625      0.513      4.547
REMARK INTER + INTRA:          -5.079
REMARK INTER:                  -4.018
REMARK INTRA:                  -1.060
REMARK UNBOUND:                -1.073
REMARK SMILES O=C([O-])CCCCCCCCC(=O)[O-]
REMARK SMILES IDX 7 1 6 2 5 3 4 4 2 5 1 6 3 7 8 8 9 9 10 10 11 11 12 12 13 13
REMARK SMILES IDX 14 14
REMARK H PARENT
REMARK Flexibility Score: inf
ROOT
ATOM      1  C   UNL     1      17.923 -15.873  15.345  1.00  0.00     0.000 C 
ENDROOT
BRANCH   1   2
ATOM      2  C   UNL     1      18.907 -16.809  16.066  1.00  0.00     0.000 C 
BRANCH   2   3
ATOM      3  C   UNL     1      20.254 -16.135  16.367  1.00  0.00     0.006 C 
BRANCH   3   4
ATOM      4  C   UNL     1      21.388 -16.809  15.589  1.00  0.00     0.053 C 
BRANCH   4   5
ATOM      5  C   UNL     1      21.717 -16.025  14.357  1.00  0.00     0.041 C 
ATOM      6  O   UNL     1      21.147 -14.925  14.135  1.00  0.00    -0.550 OA
ATOM      7  O   UNL     1      22.690 -16.487  13.479  1.00  0.00    -0.550 OA
ENDBRANCH   4   5
ENDBRANCH   3   4
ENDBRANCH   2   3
ENDBRANCH   1   2
BRANCH   1   8
ATOM      8  C   UNL     1      17.596 -16.341  13.919  1.00  0.00     0.000 C 
BRANCH   8   9
ATOM      9  C   UNL     1      18.206 -17.721  13.642  1.00  0.00     0.000 C 
BRANCH   9  10
ATOM     10  C   UNL     1      19.111 -17.682  12.401  1.00  0.00     0.006 C 
BRANCH  10  11
ATOM     11  C   UNL     1      19.019 -16.342  11.658  1.00  0.00     0.053 C 
BRANCH  11  12
ATOM     12  C   UNL     1      18.557 -16.521  10.244  1.00  0.00     0.041 C 
ATOM     13  O   UNL     1      18.100 -17.630   9.861  1.00  0.00    -0.550 OA
ATOM     14  O   UNL     1      18.662 -15.472   9.339  1.00  0.00    -0.550 OA
ENDBRANCH  11  12
ENDBRANCH  10  11
ENDBRANCH   9  10
ENDBRANCH   8   9
ENDBRANCH   1   8
TORSDOF 9
ENDMDL
MODEL 5
REMARK VINA RESULT:    -2.620      2.575      3.427
REMARK INTER + INTRA:          -5.072
REMARK INTER:                  -4.582
REMARK INTRA:                  -0.490
REMARK UNBOUND:                -1.073
REMARK SMILES O=C([O-])CCCCCCCCC(=O)[O-]
REMARK SMILES IDX 7 1 6 2 5 3 4 4 2 5 1 6 3 7 8 8 9 9 10 10 11 11 12 12 13 13
REMARK SMILES IDX 14 14
REMARK H PARENT
REMARK Flexibility Score: inf
ROOT
ATOM      1  C   UNL     1      17.926 -16.309  13.611  1.00  0.00     0.000 C 
ENDROOT
BRANCH   1   2
ATOM      2  C   UNL     1      17.852 -17.712  12.987  1.00  0.00     0.000 C 
BRANCH   2   3
ATOM      3  C   UNL     1      17.026 -17.742  11.693  1.00  0.00     0.006 C 
BRANCH   3   4
ATOM      4  C   UNL     1      17.905 -18.101  10.491  1.00  0.00     0.053 C 
BRANCH   4   5
ATOM      5  C   UNL     1      18.968 -17.066  10.291  1.00  0.00     0.041 C 
ATOM      6  O   UNL     1      18.656 -15.894   9.953  1.00  0.00    -0.550 OA
ATOM      7  O   UNL     1      20.299 -17.385  10.527  1.00  0.00    -0.550 OA
ENDBRANCH   4   5
ENDBRANCH   3   4
ENDBRANCH   2   3
ENDBRANCH   1   2
BRANCH   1   8
ATOM      8  C   UNL     1      19.322 -15.679  13.489  1.00  0.00     0.000 C 
BRANCH   8   9
ATOM      9  C   UNL     1      19.898 -15.349  14.871  1.00  0.00     0.000 C 
BRANCH   9  10
ATOM     10  C   UNL     1      19.378 -16.331  15.932  1.00  0.00     0.006 C 
BRANCH  10  11
ATOM     11  C   UNL     1      18.667 -15.613  17.087  1.00  0.00     0.053 C 
BRANCH  11  12
ATOM     12  C   UNL     1      17.181 -15.798  17.027  1.00  0.00     0.041 C 
ATOM     13  O   UNL     1      16.691 -16.945  16.858  1.00  0.00    -0.550 OA
ATOM     14  O   UNL     1      16.338 -14.698  17.125  1.00  0.00    -0.550 OA
ENDBRANCH  11  12
ENDBRANCH  10  11
ENDBRANCH   9  10
ENDBRANCH   8   9
ENDBRANCH   1   8
TORSDOF 9
ENDMDL
MODEL 6
REMARK VINA RESULT:    -2.553      1.372      1.624
REMARK INTER + INTRA:          -4.969
REMARK INTER:                  -4.213
REMARK INTRA:                  -0.756
REMARK UNBOUND:                -1.073
REMARK SMILES O=C([O-])CCCCCCCCC(=O)[O-]
REMARK SMILES IDX 7 1 6 2 5 3 4 4 2 5 1 6 3 7 8 8 9 9 10 10 11 11 12 12 13 13
REMARK SMILES IDX 14 14
REMARK H PARENT
REMARK Flexibility Score: inf
ROOT
ATOM      1  C   UNL     1      17.441 -17.304  15.186  1.00  0.00     0.000 C 
ENDROOT
BRANCH   1   2
ATOM      2  C   UNL     1      17.001 -17.313  13.713  1.00  0.00     0.000 C 
BRANCH   2   3
ATOM      3  C   UNL     1      18.164 -17.589  12.749  1.00  0.00     0.006 C 
BRANCH   3   4
ATOM      4  C   UNL     1      18.625 -16.298  12.065  1.00  0.00     0.053 C 
BRANCH   4   5
ATOM      5  C   UNL     1      19.071 -16.577  10.664  1.00  0.00     0.041 C 
ATOM      6  O   UNL     1      18.708 -15.825   9.722  1.00  0.00    -0.550 OA
ATOM      7  O   UNL     1      19.928 -17.640  10.407  1.00  0.00    -0.550 OA
ENDBRANCH   4   5
ENDBRANCH   3   4
ENDBRANCH   2   3
ENDBRANCH   1   2
BRANCH   1   8
ATOM      8  C   UNL     1      17.764 -15.892  15.699  1.00  0.00     0.000 C 
BRANCH   8   9
ATOM      9  C   UNL     1      19.095 -15.877  16.462  1.00  0.00     0.000 C 
BRANCH   9  10
ATOM     10  C   UNL     1      20.253 -16.324  15.557  1.00  0.00     0.006 C 
BRANCH  10  11
ATOM     11  C   UNL     1      20.800 -15.171  14.704  1.00  0.00     0.053 C 
BRANCH  11  12
ATOM     12  C   UNL     1      22.283 -15.022  14.857  1.00  0.00     0.041 C 
ATOM     13  O   UNL     1      22.777 -14.697  15.968  1.00  0.00    -0.550 OA
ATOM     14  O   UNL     1      23.118 -15.210  13.763  1.00  0.00    -0.550 OA
ENDBRANCH  11  12
ENDBRANCH  10  11
ENDBRANCH   9  10
ENDBRANCH   8   9
ENDBRANCH   1   8
TORSDOF 9
ENDMDL
MODEL 7
REMARK VINA RESULT:    -2.540      2.093      3.523
REMARK INTER + INTRA:          -4.950
REMARK INTER:                  -4.338
REMARK INTRA:                  -0.613
REMARK UNBOUND:                -1.073
REMARK SMILES O=C([O-])CCCCCCCCC(=O)[O-]
REMARK SMILES IDX 7 1 6 2 5 3 4 4 2 5 1 6 3 7 8 8 9 9 10 10 11 11 12 12 13 13
REMARK SMILES IDX 14 14
REMARK H PARENT
REMARK Flexibility Score: inf
ROOT
ATOM      1  C   UNL     1      21.729 -17.249  12.886  1.00  0.00     0.000 C 
ENDROOT
BRANCH   1   2
ATOM      2  C   UNL     1      22.188 -17.742  11.504  1.00  0.00     0.000 C 
BRANCH   2   3
ATOM      3  C   UNL     1      21.032 -17.848  10.499  1.00  0.00     0.006 C 
BRANCH   3   4
ATOM      4  C   UNL     1      19.679 -17.781  11.213  1.00  0.00     0.053 C 
BRANCH   4   5
ATOM      5  C   UNL     1      18.652 -17.141  10.332  1.00  0.00     0.041 C 
ATOM      6  O   UNL     1      18.803 -15.954   9.942  1.00  0.00    -0.550 OA
ATOM      7  O   UNL     1      17.553 -17.873   9.902  1.00  0.00    -0.550 OA
ENDBRANCH   4   5
ENDBRANCH   3   4
ENDBRANCH   2   3
ENDBRANCH   1   2
BRANCH   1   8
ATOM      8  C   UNL     1      22.731 -16.278  13.531  1.00  0.00     0.000 C 
BRANCH   8   9
ATOM      9  C   UNL     1      22.003 -15.141  14.257  1.00  0.00     0.000 C 
BRANCH   9  10
ATOM     10  C   UNL     1      20.488 -15.212  14.012  1.00  0.00     0.006 C 
BRANCH  10  11
ATOM     11  C   UNL     1      19.720 -15.671  15.258  1.00  0.00     0.053 C 
BRANCH  11  12
ATOM     12  C   UNL     1      18.262 -15.869  14.972  1.00  0.00     0.041 C 
ATOM     13  O   UNL     1      17.431 -15.910  15.917  1.00  0.00    -0.550 OA
ATOM     14  O   UNL     1      17.827 -16.041  13.665  1.00  0.00    -0.550 OA
ENDBRANCH  11  12
ENDBRANCH  10  11
ENDBRANCH   9  10
ENDBRANCH   8   9
ENDBRANCH   1   8
TORSDOF 9
ENDMDL
MODEL 8
REMARK VINA RESULT:    -2.436      2.066      2.899
REMARK INTER + INTRA:          -4.791
REMARK INTER:                  -3.759
REMARK INTRA:                  -1.033
REMARK UNBOUND:                -1.073
REMARK SMILES O=C([O-])CCCCCCCCC(=O)[O-]
REMARK SMILES IDX 7 1 6 2 5 3 4 4 2 5 1 6 3 7 8 8 9 9 10 10 11 11 12 12 13 13
REMARK SMILES IDX 14 14
REMARK H PARENT
REMARK Flexibility Score: inf
ROOT
ATOM      1  C   UNL     1      20.521 -15.494  13.728  1.00  0.00     0.000 C 
ENDROOT
BRANCH   1   2
ATOM      2  C   UNL     1      20.866 -16.910  13.236  1.00  0.00     0.000 C 
BRANCH   2   3
ATOM      3  C   UNL     1      19.679 -17.605  12.554  1.00  0.00     0.006 C 
BRANCH   3   4
ATOM      4  C   UNL     1      18.679 -16.579  12.015  1.00  0.00     0.053 C 
BRANCH   4   5
ATOM      5  C   UNL     1      18.519 -16.728  10.535  1.00  0.00     0.041 C 
ATOM      6  O   UNL     1      18.097 -17.810  10.049  1.00  0.00    -0.550 OA
ATOM      7  O   UNL     1      18.790 -15.654   9.696  1.00  0.00    -0.550 OA
ENDBRANCH   4   5
ENDBRANCH   3   4
ENDBRANCH   2   3
ENDBRANCH   1   2
BRANCH   1   8
ATOM      8  C   UNL     1      21.075 -15.203  15.131  1.00  0.00     0.000 C 
BRANCH   8   9
ATOM      9  C   UNL     1      21.078 -16.471  15.994  1.00  0.00     0.000 C 
BRANCH   9  10
ATOM     10  C   UNL     1      19.842 -16.518  16.905  1.00  0.00     0.006 C 
BRANCH  10  11
ATOM     11  C   UNL     1      18.804 -17.541  16.423  1.00  0.00     0.053 C 
BRANCH  11  12
ATOM     12  C   UNL     1      17.665 -16.882  15.707  1.00  0.00     0.041 C 
ATOM     13  O   UNL     1      17.441 -15.654  15.868  1.00  0.00    -0.550 OA
ATOM     14  O   UNL     1      16.830 -17.632  14.889  1.00  0.00    -0.550 OA
ENDBRANCH  11  12
ENDBRANCH  10  11
ENDBRANCH   9  10
ENDBRANCH   8   9
ENDBRANCH   1   8
TORSDOF 9
ENDMDL
MODEL 9
REMARK VINA RESULT:    -2.436      1.415      5.099
REMARK INTER + INTRA:          -4.790
REMARK INTER:                  -3.903
REMARK INTRA:                  -0.887
REMARK UNBOUND:                -1.073
REMARK SMILES O=C([O-])CCCCCCCCC(=O)[O-]
REMARK SMILES IDX 7 1 6 2 5 3 4 4 2 5 1 6 3 7 8 8 9 9 10 10 11 11 12 12 13 13
REMARK SMILES IDX 14 14
REMARK H PARENT
REMARK Flexibility Score: inf
ROOT
ATOM      1  C   UNL     1      17.701 -16.541  14.077  1.00  0.00     0.000 C 
ENDROOT
BRANCH   1   2
ATOM      2  C   UNL     1      17.547 -16.246  15.579  1.00  0.00     0.000 C 
BRANCH   2   3
ATOM      3  C   UNL     1      18.811 -15.628  16.194  1.00  0.00     0.006 C 
BRANCH   3   4
ATOM      4  C   UNL     1      19.774 -16.717  16.675  1.00  0.00     0.053 C 
BRANCH   4   5
ATOM      5  C   UNL     1      21.107 -16.571  16.009  1.00  0.00     0.041 C 
ATOM      6  O   UNL     1      21.802 -17.589  15.753  1.00  0.00    -0.550 OA
ATOM      7  O   UNL     1      21.558 -15.314  15.628  1.00  0.00    -0.550 OA
ENDBRANCH   4   5
ENDBRANCH   3   4
ENDBRANCH   2   3
ENDBRANCH   1   2
BRANCH   1   8
ATOM      8  C   UNL     1      18.628 -15.541  13.369  1.00  0.00     0.000 C 
BRANCH   8   9
ATOM      9  C   UNL     1      19.749 -16.269  12.617  1.00  0.00     0.000 C 
BRANCH   9  10
ATOM     10  C   UNL     1      19.330 -17.703  12.261  1.00  0.00     0.006 C 
BRANCH  10  11
ATOM     11  C   UNL     1      19.276 -17.931  10.744  1.00  0.00     0.053 C 
BRANCH  11  12
ATOM     12  C   UNL     1      17.942 -17.558  10.172  1.00  0.00     0.041 C 
ATOM     13  O   UNL     1      17.865 -16.711   9.244  1.00  0.00    -0.550 OA
ATOM     14  O   UNL     1      16.782 -18.121  10.687  1.00  0.00    -0.550 OA
ENDBRANCH  11  12
ENDBRANCH  10  11
ENDBRANCH   9  10
ENDBRANCH   8   9
ENDBRANCH   1   8
TORSDOF 9
ENDMDL
