MODEL 1
REMARK VINA RESULT:    -4.787      0.000      0.000
REMARK INTER + INTRA:          -6.470
REMARK INTER:                  -6.326
REMARK INTRA:                  -0.144
REMARK UNBOUND:                -0.144
REMARK SMILES C=C[C@H](O)CCCCC
REMARK SMILES IDX 6 1 7 2 8 3 9 4 5 5 3 6 2 7 1 8 4 9
REMARK H PARENT 4 10
REMARK Flexibility Score: inf
ROOT
ATOM      1  C   UNL     1     135.694 124.074 140.169  1.00  0.00     0.003 C 
ENDROOT
BRANCH   1   2
ATOM      2  C   UNL     1     136.038 124.905 138.923  1.00  0.00    -0.000 C 
BRANCH   2   3
ATOM      3  C   UNL     1     136.447 123.999 137.757  1.00  0.00    -0.003 C 
ATOM      4  C   UNL     1     137.948 123.721 137.775  1.00  0.00     0.004 C 
ENDBRANCH   2   3
ENDBRANCH   1   2
BRANCH   1   5
ATOM      5  C   UNL     1     134.932 124.881 141.237  1.00  0.00     0.036 C 
BRANCH   5   6
ATOM      6  C   UNL     1     135.244 124.460 142.693  1.00  0.00     0.136 C 
BRANCH   6   7
ATOM      7  C   UNL     1     134.098 123.723 143.354  1.00  0.00    -0.004 C 
ATOM      8  C   UNL     1     132.826 123.863 142.964  1.00  0.00     0.007 C 
ENDBRANCH   6   7
BRANCH   6   9
ATOM      9  O   UNL     1     135.624 125.572 143.465  1.00  0.00    -0.389 OA
ATOM     10  H   UNL     1     136.272 125.264 144.151  1.00  0.00     0.211 HD
ENDBRANCH   6   9
ENDBRANCH   5   6
ENDBRANCH   1   5
TORSDOF 6
ENDMDL
MODEL 2
REMARK VINA RESULT:    -4.668      1.348      1.918
REMARK INTER + INTRA:          -6.313
REMARK INTER:                  -6.115
REMARK INTRA:                  -0.198
REMARK UNBOUND:                -0.144
REMARK SMILES C=C[C@H](O)CCCCC
REMARK SMILES IDX 6 1 7 2 8 3 9 4 5 5 3 6 2 7 1 8 4 9
REMARK H PARENT 4 10
REMARK Flexibility Score: inf
ROOT
ATOM      1  C   UNL     1     135.864 124.132 140.702  1.00  0.00     0.003 C 
ENDROOT
BRANCH   1   2
ATOM      2  C   UNL     1     135.995 124.842 139.346  1.00  0.00    -0.000 C 
BRANCH   2   3
ATOM      3  C   UNL     1     137.435 124.769 138.828  1.00  0.00    -0.003 C 
ATOM      4  C   UNL     1     137.571 123.728 137.720  1.00  0.00     0.004 C 
ENDBRANCH   2   3
ENDBRANCH   1   2
BRANCH   1   5
ATOM      5  C   UNL     1     134.619 124.576 141.493  1.00  0.00     0.036 C 
BRANCH   5   6
ATOM      6  C   UNL     1     134.862 124.759 143.010  1.00  0.00     0.136 C 
BRANCH   6   7
ATOM      7  C   UNL     1     136.295 124.488 143.417  1.00  0.00    -0.004 C 
ATOM      8  C   UNL     1     136.698 124.480 144.692  1.00  0.00     0.007 C 
ENDBRANCH   6   7
BRANCH   6   9
ATOM      9  O   UNL     1     133.979 123.960 143.759  1.00  0.00    -0.389 OA
ATOM     10  H   UNL     1     133.068 124.073 143.383  1.00  0.00     0.211 HD
ENDBRANCH   6   9
ENDBRANCH   5   6
ENDBRANCH   1   5
TORSDOF 6
ENDMDL
MODEL 3
REMARK VINA RESULT:    -4.632      2.037      5.154
REMARK INTER + INTRA:          -6.265
REMARK INTER:                  -6.009
REMARK INTRA:                  -0.256
REMARK UNBOUND:                -0.144
REMARK SMILES C=C[C@H](O)CCCCC
REMARK SMILES IDX 6 1 7 2 8 3 9 4 5 5 3 6 2 7 1 8 4 9
REMARK H PARENT 4 10
REMARK Flexibility Score: inf
ROOT
ATOM      1  C   UNL     1     135.766 123.858 140.757  1.00  0.00     0.003 C 
ENDROOT
BRANCH   1   2
ATOM      2  C   UNL     1     134.709 124.729 141.452  1.00  0.00    -0.000 C 
BRANCH   2   3
ATOM      3  C   UNL     1     134.491 124.275 142.900  1.00  0.00    -0.003 C 
ATOM      4  C   UNL     1     133.097 123.681 143.088  1.00  0.00     0.004 C 
ENDBRANCH   2   3
ENDBRANCH   1   2
BRANCH   1   5
ATOM      5  C   UNL     1     135.213 123.106 139.532  1.00  0.00     0.036 C 
BRANCH   5   6
ATOM      6  C   UNL     1     135.481 123.810 138.181  1.00  0.00     0.136 C 
BRANCH   6   7
ATOM      7  C   UNL     1     136.854 124.444 138.105  1.00  0.00    -0.004 C 
ATOM      8  C   UNL     1     137.957 123.748 137.806  1.00  0.00     0.007 C 
ENDBRANCH   6   7
BRANCH   6   9
ATOM      9  O   UNL     1     134.483 124.764 137.908  1.00  0.00    -0.389 OA
ATOM     10  H   UNL     1     134.240 125.209 138.761  1.00  0.00     0.211 HD
ENDBRANCH   6   9
ENDBRANCH   5   6
ENDBRANCH   1   5
TORSDOF 6
ENDMDL
MODEL 4
REMARK VINA RESULT:    -4.560      2.079      5.033
REMARK INTER + INTRA:          -6.170
REMARK INTER:                  -5.930
REMARK INTRA:                  -0.240
REMARK UNBOUND:                -0.144
REMARK SMILES C=C[C@H](O)CCCCC
REMARK SMILES IDX 6 1 7 2 8 3 9 4 5 5 3 6 2 7 1 8 4 9
REMARK H PARENT 4 10
REMARK Flexibility Score: inf
ROOT
ATOM      1  C   UNL     1     135.737 123.945 140.830  1.00  0.00     0.003 C 
ENDROOT
BRANCH   1   2
ATOM      2  C   UNL     1     134.554 124.582 141.575  1.00  0.00    -0.000 C 
BRANCH   2   3
ATOM      3  C   UNL     1     134.580 124.212 143.062  1.00  0.00    -0.003 C 
ATOM      4  C   UNL     1     135.911 124.599 143.703  1.00  0.00     0.004 C 
ENDBRANCH   2   3
ENDBRANCH   1   2
BRANCH   1   5
ATOM      5  C   UNL     1     135.300 123.119 139.606  1.00  0.00     0.036 C 
BRANCH   5   6
ATOM      6  C   UNL     1     135.527 123.827 138.249  1.00  0.00     0.136 C 
BRANCH   6   7
ATOM      7  C   UNL     1     136.901 124.453 138.131  1.00  0.00    -0.004 C 
ATOM      8  C   UNL     1     137.997 123.745 137.836  1.00  0.00     0.007 C 
ENDBRANCH   6   7
BRANCH   6   9
ATOM      9  O   UNL     1     134.527 124.788 138.012  1.00  0.00    -0.389 OA
ATOM     10  H   UNL     1     133.926 124.438 137.304  1.00  0.00     0.211 HD
ENDBRANCH   6   9
ENDBRANCH   5   6
ENDBRANCH   1   5
TORSDOF 6
ENDMDL
MODEL 5
REMARK VINA RESULT:    -4.513      6.534      7.524
REMARK INTER + INTRA:          -6.108
REMARK INTER:                  -5.953
REMARK INTRA:                  -0.154
REMARK UNBOUND:                -0.144
REMARK SMILES C=C[C@H](O)CCCCC
REMARK SMILES IDX 6 1 7 2 8 3 9 4 5 5 3 6 2 7 1 8 4 9
REMARK H PARENT 4 10
REMARK Flexibility Score: inf
ROOT
ATOM      1  C   UNL     1     131.686 129.078 137.417  1.00  0.00     0.003 C 
ENDROOT
BRANCH   1   2
ATOM      2  C   UNL     1     131.218 130.428 137.983  1.00  0.00    -0.000 C 
BRANCH   2   3
ATOM      3  C   UNL     1     131.549 131.571 137.017  1.00  0.00    -0.003 C 
ATOM      4  C   UNL     1     132.476 132.593 137.669  1.00  0.00     0.004 C 
ENDBRANCH   2   3
ENDBRANCH   1   2
BRANCH   1   5
ATOM      5  C   UNL     1     130.887 127.885 137.973  1.00  0.00     0.036 C 
BRANCH   5   6
ATOM      6  C   UNL     1     131.527 126.505 137.691  1.00  0.00     0.136 C 
BRANCH   6   7
ATOM      7  C   UNL     1     133.039 126.525 137.781  1.00  0.00    -0.004 C 
ATOM      8  C   UNL     1     133.758 125.453 138.132  1.00  0.00     0.007 C 
ENDBRANCH   6   7
BRANCH   6   9
ATOM      9  O   UNL     1     131.116 126.008 136.442  1.00  0.00    -0.389 OA
ATOM     10  H   UNL     1     131.352 126.680 135.750  1.00  0.00     0.211 HD
ENDBRANCH   6   9
ENDBRANCH   5   6
ENDBRANCH   1   5
TORSDOF 6
ENDMDL
MODEL 6
REMARK VINA RESULT:    -4.502      1.716      2.069
REMARK INTER + INTRA:          -6.093
REMARK INTER:                  -5.811
REMARK INTRA:                  -0.282
REMARK UNBOUND:                -0.144
REMARK SMILES C=C[C@H](O)CCCCC
REMARK SMILES IDX 6 1 7 2 8 3 9 4 5 5 3 6 2 7 1 8 4 9
REMARK H PARENT 4 10
REMARK Flexibility Score: inf
ROOT
ATOM      1  C   UNL     1     135.225 123.032 138.918  1.00  0.00     0.003 C 
ENDROOT
BRANCH   1   2
ATOM      2  C   UNL     1     135.500 124.482 138.491  1.00  0.00    -0.000 C 
BRANCH   2   3
ATOM      3  C   UNL     1     136.999 124.793 138.546  1.00  0.00    -0.003 C 
ATOM      4  C   UNL     1     137.809 123.741 137.792  1.00  0.00     0.004 C 
ENDBRANCH   2   3
ENDBRANCH   1   2
BRANCH   1   5
ATOM      5  C   UNL     1     135.416 122.804 140.429  1.00  0.00     0.036 C 
BRANCH   5   6
ATOM      6  C   UNL     1     134.468 123.639 141.322  1.00  0.00     0.136 C 
BRANCH   6   7
ATOM      7  C   UNL     1     135.186 124.725 142.095  1.00  0.00    -0.004 C 
ATOM      8  C   UNL     1     135.635 124.550 143.343  1.00  0.00     0.007 C 
ENDBRANCH   6   7
BRANCH   6   9
ATOM      9  O   UNL     1     133.746 122.808 142.198  1.00  0.00    -0.389 OA
ATOM     10  H   UNL     1     132.790 122.837 141.931  1.00  0.00     0.211 HD
ENDBRANCH   6   9
ENDBRANCH   5   6
ENDBRANCH   1   5
TORSDOF 6
ENDMDL
MODEL 7
REMARK VINA RESULT:    -4.485      3.382      5.207
REMARK INTER + INTRA:          -6.072
REMARK INTER:                  -5.928
REMARK INTRA:                  -0.144
REMARK UNBOUND:                -0.144
REMARK SMILES C=C[C@H](O)CCCCC
REMARK SMILES IDX 6 1 7 2 8 3 9 4 5 5 3 6 2 7 1 8 4 9
REMARK H PARENT 4 10
REMARK Flexibility Score: inf
ROOT
ATOM      1  C   UNL     1     134.120 125.285 138.038  1.00  0.00     0.003 C 
ENDROOT
BRANCH   1   2
ATOM      2  C   UNL     1     132.834 126.035 138.419  1.00  0.00    -0.000 C 
BRANCH   2   3
ATOM      3  C   UNL     1     132.455 127.055 137.339  1.00  0.00    -0.003 C 
ATOM      4  C   UNL     1     131.053 126.789 136.797  1.00  0.00     0.004 C 
ENDBRANCH   2   3
ENDBRANCH   1   2
BRANCH   1   5
ATOM      5  C   UNL     1     134.944 124.847 139.263  1.00  0.00     0.036 C 
BRANCH   5   6
ATOM      6  C   UNL     1     135.838 123.609 139.016  1.00  0.00     0.136 C 
BRANCH   6   7
ATOM      7  C   UNL     1     136.711 123.744 137.787  1.00  0.00    -0.004 C 
ATOM      8  C   UNL     1     138.047 123.771 137.846  1.00  0.00     0.007 C 
ENDBRANCH   6   7
BRANCH   6   9
ATOM      9  O   UNL     1     135.062 122.438 138.942  1.00  0.00    -0.389 OA
ATOM     10  H   UNL     1     134.117 122.704 138.796  1.00  0.00     0.211 HD
ENDBRANCH   6   9
ENDBRANCH   5   6
ENDBRANCH   1   5
TORSDOF 6
ENDMDL
MODEL 8
REMARK VINA RESULT:    -4.368      2.193      4.869
REMARK INTER + INTRA:          -5.916
REMARK INTER:                  -5.608
REMARK INTRA:                  -0.308
REMARK UNBOUND:                -0.144
REMARK SMILES C=C[C@H](O)CCCCC
REMARK SMILES IDX 6 1 7 2 8 3 9 4 5 5 3 6 2 7 1 8 4 9
REMARK H PARENT 4 10
REMARK Flexibility Score: inf
ROOT
ATOM      1  C   UNL     1     136.168 124.129 141.607  1.00  0.00     0.003 C 
ENDROOT
BRANCH   1   2
ATOM      2  C   UNL     1     134.898 124.784 141.045  1.00  0.00    -0.000 C 
BRANCH   2   3
ATOM      3  C   UNL     1     133.814 124.892 142.124  1.00  0.00    -0.003 C 
ATOM      4  C   UNL     1     133.764 123.632 142.984  1.00  0.00     0.004 C 
ENDBRANCH   2   3
ENDBRANCH   1   2
BRANCH   1   5
ATOM      5  C   UNL     1     136.956 123.340 140.545  1.00  0.00     0.036 C 
BRANCH   5   6
ATOM      6  C   UNL     1     138.014 124.177 139.786  1.00  0.00     0.136 C 
BRANCH   6   7
ATOM      7  C   UNL     1     137.587 124.533 138.378  1.00  0.00    -0.004 C 
ATOM      8  C   UNL     1     136.635 123.865 137.719  1.00  0.00     0.007 C 
ENDBRANCH   6   7
BRANCH   6   9
ATOM      9  O   UNL     1     139.257 123.519 139.772  1.00  0.00    -0.389 OA
ATOM     10  H   UNL     1     139.211 122.761 140.412  1.00  0.00     0.211 HD
ENDBRANCH   6   9
ENDBRANCH   5   6
ENDBRANCH   1   5
TORSDOF 6
ENDMDL
MODEL 9
REMARK VINA RESULT:    -4.304      7.600      8.567
REMARK INTER + INTRA:          -5.831
REMARK INTER:                  -5.707
REMARK INTRA:                  -0.124
REMARK UNBOUND:                -0.144
REMARK SMILES C=C[C@H](O)CCCCC
REMARK SMILES IDX 6 1 7 2 8 3 9 4 5 5 3 6 2 7 1 8 4 9
REMARK H PARENT 4 10
REMARK Flexibility Score: inf
ROOT
ATOM      1  C   UNL     1     131.585 128.837 137.409  1.00  0.00     0.003 C 
ENDROOT
BRANCH   1   2
ATOM      2  C   UNL     1     130.625 127.842 138.079  1.00  0.00    -0.000 C 
BRANCH   2   3
ATOM      3  C   UNL     1     131.076 126.398 137.836  1.00  0.00    -0.003 C 
ATOM      4  C   UNL     1     132.597 126.301 137.757  1.00  0.00     0.004 C 
ENDBRANCH   2   3
ENDBRANCH   1   2
BRANCH   1   5
ATOM      5  C   UNL     1     131.480 130.258 137.993  1.00  0.00     0.036 C 
BRANCH   5   6
ATOM      6  C   UNL     1     131.823 131.384 136.989  1.00  0.00     0.136 C 
BRANCH   6   7
ATOM      7  C   UNL     1     132.396 132.617 137.655  1.00  0.00    -0.004 C 
ATOM      8  C   UNL     1     131.995 133.857 137.351  1.00  0.00     0.007 C 
ENDBRANCH   6   7
BRANCH   6   9
ATOM      9  O   UNL     1     130.699 131.721 136.213  1.00  0.00    -0.389 OA
ATOM     10  H   UNL     1     130.543 132.697 136.305  1.00  0.00     0.211 HD
ENDBRANCH   6   9
ENDBRANCH   5   6
ENDBRANCH   1   5
TORSDOF 6
ENDMDL
