MODEL 1
REMARK VINA RESULT:    -3.887      0.000      0.000
REMARK INTER + INTRA:          -6.344
REMARK INTER:                  -5.932
REMARK INTRA:                  -0.412
REMARK UNBOUND:                -0.412
REMARK SMILES CC1=CCC[C@@H](C)C(=O)C[C@H](C(C)C)C(=O)C1
REMARK SMILES IDX 8 1 9 2 6 3 7 4 5 5 4 6 3 7 2 8 1 9 10 11 11 12 15 13 16 14
REMARK SMILES IDX 17 15 12 17 13 18 14 19
REMARK H PARENT
REMARK Flexibility Score: 70.00
ROOT
ATOM      1  C   UNL     1      13.315  22.127  59.502  1.00  0.00     0.136 C 
ATOM      2  O   UNL     1      12.757  23.130  59.921  1.00  0.00    -0.299 OA
ENDROOT
BRANCH   1   3
ATOM      3  C   UNL     1      14.568  21.636  60.210  1.00  0.00     0.053 C 
ATOM      4  C   UNL     1      14.234  21.210  61.644  1.00  0.00     0.016 C 
BRANCH   3   5
ATOM      5  C   UNL     1      15.703  22.683  60.199  1.00  0.00     0.015 C 
BRANCH   5   6
ATOM      6  C   UNL     1      16.269  22.896  58.785  1.00  0.00     0.028 C 
BRANCH   6   7
ATOM      7  C   UNL     1      17.033  21.705  58.259  1.00  0.00    -0.028 C 
ATOM      8  C   UNL     1      16.772  21.017  57.117  1.00  0.00    -0.070 CG0
ATOM      9  C   UNL     1      17.594  19.777  56.858  1.00  0.00     0.039 C 
ATOM     10  G   UNL     1      15.772  21.453  56.048  1.00  0.00     0.000 G0
ENDBRANCH   6   7
ENDBRANCH   5   6
ENDBRANCH   3   5
ENDBRANCH   1   3
BRANCH   1  11
ATOM     11  C   UNL     1      12.791  21.458  58.249  1.00  0.00     0.087 C 
BRANCH  11  12
ATOM     12  C   UNL     1      13.357  22.037  56.919  1.00  0.00     0.066 C 
BRANCH  12  13
ATOM     13  C   UNL     1      14.320  21.051  56.260  1.00  0.00     0.140 C 
ATOM     14  O   UNL     1      13.919  19.964  55.864  1.00  0.00    -0.299 OA
BRANCH  13  15
ATOM     15  C   UNL     1      15.757  21.442  56.014  1.00  0.00     0.106 CG0
ATOM     16  G   UNL     1      16.735  21.026  57.110  1.00  0.00     0.000 G0
ENDBRANCH  13  15
ENDBRANCH  12  13
BRANCH  12  17
ATOM     17  C   UNL     1      12.271  22.573  55.922  1.00  0.00    -0.006 C 
ATOM     18  C   UNL     1      12.439  24.087  55.692  1.00  0.00     0.008 C 
ATOM     19  C   UNL     1      10.831  22.311  56.400  1.00  0.00     0.008 C 
ENDBRANCH  12  17
ENDBRANCH  11  12
ENDBRANCH   1  11
TORSDOF 1
ENDMDL
MODEL 2
REMARK VINA RESULT:    -3.694      2.087      3.264
REMARK INTER + INTRA:          -6.049
REMARK INTER:                  -6.073
REMARK INTRA:                   0.024
REMARK UNBOUND:                -0.412
REMARK SMILES CC1=CCC[C@@H](C)C(=O)C[C@H](C(C)C)C(=O)C1
REMARK SMILES IDX 8 1 9 2 6 3 7 4 5 5 4 6 3 7 2 8 1 9 10 11 11 12 15 13 16 14
REMARK SMILES IDX 17 15 12 17 13 18 14 19
REMARK H PARENT
REMARK Flexibility Score: 70.00
ROOT
ATOM      1  C   UNL     1      12.027  21.968  57.440  1.00  0.00     0.136 C 
ATOM      2  O   UNL     1      11.383  22.689  56.692  1.00  0.00    -0.299 OA
ENDROOT
BRANCH   1   3
ATOM      3  C   UNL     1      11.594  21.845  58.892  1.00  0.00     0.053 C 
ATOM      4  C   UNL     1      10.101  22.166  59.030  1.00  0.00     0.016 C 
BRANCH   3   5
ATOM      5  C   UNL     1      12.435  22.731  59.838  1.00  0.00     0.015 C 
BRANCH   5   6
ATOM      6  C   UNL     1      13.507  21.915  60.580  1.00  0.00     0.028 C 
BRANCH   6   7
ATOM      7  C   UNL     1      14.857  22.588  60.609  1.00  0.00    -0.028 C 
ATOM      8  C   UNL     1      15.857  22.434  59.701  1.00  0.00    -0.070 CG0
ATOM      9  C   UNL     1      17.172  23.112  60.006  1.00  0.00     0.039 C 
ATOM     10  G   UNL     1      15.717  21.700  58.370  1.00  0.00     0.000 G0
ENDBRANCH   6   7
ENDBRANCH   5   6
ENDBRANCH   3   5
ENDBRANCH   1   3
BRANCH   1  11
ATOM     11  C   UNL     1      13.275  21.288  56.919  1.00  0.00     0.087 C 
BRANCH  11  12
ATOM     12  C   UNL     1      14.296  22.244  56.233  1.00  0.00     0.066 C 
BRANCH  12  13
ATOM     13  C   UNL     1      15.443  22.589  57.181  1.00  0.00     0.140 C 
ATOM     14  O   UNL     1      16.085  23.619  57.027  1.00  0.00    -0.299 OA
BRANCH  13  15
ATOM     15  C   UNL     1      15.741  21.703  58.366  1.00  0.00     0.106 CG0
ATOM     16  G   UNL     1      15.844  22.431  59.705  1.00  0.00     0.000 G0
ENDBRANCH  13  15
ENDBRANCH  12  13
BRANCH  12  17
ATOM     17  C   UNL     1      14.803  21.763  54.828  1.00  0.00    -0.006 C 
ATOM     18  C   UNL     1      14.685  22.894  53.788  1.00  0.00     0.008 C 
ATOM     19  C   UNL     1      14.039  20.536  54.298  1.00  0.00     0.008 C 
ENDBRANCH  12  17
ENDBRANCH  11  12
ENDBRANCH   1  11
TORSDOF 1
ENDMDL
MODEL 3
REMARK VINA RESULT:    -3.590      2.527      4.436
REMARK INTER + INTRA:          -5.891
REMARK INTER:                  -5.519
REMARK INTRA:                  -0.372
REMARK UNBOUND:                -0.412
REMARK SMILES CC1=CCC[C@@H](C)C(=O)C[C@H](C(C)C)C(=O)C1
REMARK SMILES IDX 8 1 9 2 6 3 7 4 5 5 4 6 3 7 2 8 1 9 10 11 11 12 15 13 16 14
REMARK SMILES IDX 17 15 12 17 13 18 14 19
REMARK H PARENT
REMARK Flexibility Score: 70.00
ROOT
ATOM      1  C   UNL     1      14.243  22.663  56.117  1.00  0.00     0.136 C 
ATOM      2  O   UNL     1      14.611  22.482  54.966  1.00  0.00    -0.299 OA
ENDROOT
BRANCH   1   3
ATOM      3  C   UNL     1      15.088  22.108  57.253  1.00  0.00     0.053 C 
ATOM      4  C   UNL     1      14.865  20.597  57.391  1.00  0.00     0.016 C 
BRANCH   3   5
ATOM      5  C   UNL     1      14.824  22.827  58.594  1.00  0.00     0.015 C 
BRANCH   5   6
ATOM      6  C   UNL     1      14.186  21.886  59.630  1.00  0.00     0.028 C 
BRANCH   6   7
ATOM      7  C   UNL     1      12.916  22.434  60.235  1.00  0.00    -0.028 C 
ATOM      8  C   UNL     1      11.670  22.369  59.695  1.00  0.00    -0.070 CG0
ATOM      9  C   UNL     1      10.568  23.102  60.422  1.00  0.00     0.039 C 
ATOM     10  G   UNL     1      11.298  21.548  58.463  1.00  0.00     0.000 G0
ENDBRANCH   6   7
ENDBRANCH   5   6
ENDBRANCH   3   5
ENDBRANCH   1   3
BRANCH   1  11
ATOM     11  C   UNL     1      12.922  23.358  56.371  1.00  0.00     0.087 C 
BRANCH  11  12
ATOM     12  C   UNL     1      11.664  22.503  56.036  1.00  0.00     0.066 C 
BRANCH  12  13
ATOM     13  C   UNL     1      10.781  22.323  57.269  1.00  0.00     0.140 C 
ATOM     14  O   UNL     1       9.635  22.753  57.278  1.00  0.00    -0.299 OA
BRANCH  13  15
ATOM     15  C   UNL     1      11.285  21.541  58.456  1.00  0.00     0.106 CG0
ATOM     16  G   UNL     1      11.645  22.382  59.678  1.00  0.00     0.000 G0
ENDBRANCH  13  15
ENDBRANCH  12  13
BRANCH  12  17
ATOM     17  C   UNL     1      10.854  22.990  54.783  1.00  0.00    -0.006 C 
ATOM     18  C   UNL     1      10.361  21.791  53.951  1.00  0.00     0.008 C 
ATOM     19  C   UNL     1      11.668  23.918  53.863  1.00  0.00     0.008 C 
ENDBRANCH  12  17
ENDBRANCH  11  12
ENDBRANCH   1  11
TORSDOF 1
ENDMDL
MODEL 4
REMARK VINA RESULT:    -3.559      1.990      4.745
REMARK INTER + INTRA:          -5.844
REMARK INTER:                  -5.561
REMARK INTRA:                  -0.284
REMARK UNBOUND:                -0.412
REMARK SMILES CC1=CCC[C@@H](C)C(=O)C[C@H](C(C)C)C(=O)C1
REMARK SMILES IDX 8 1 9 2 6 3 7 4 5 5 4 6 3 7 2 8 1 9 10 11 11 12 15 13 16 14
REMARK SMILES IDX 17 15 12 17 13 18 14 19
REMARK H PARENT
REMARK Flexibility Score: 70.00
ROOT
ATOM      1  C   UNL     1      14.666  19.536  57.620  1.00  0.00     0.136 C 
ATOM      2  O   UNL     1      15.612  18.874  58.018  1.00  0.00    -0.299 OA
ENDROOT
BRANCH   1   3
ATOM      3  C   UNL     1      14.523  19.787  56.127  1.00  0.00     0.053 C 
ATOM      4  C   UNL     1      14.627  18.466  55.355  1.00  0.00     0.016 C 
BRANCH   3   5
ATOM      5  C   UNL     1      15.548  20.813  55.598  1.00  0.00     0.015 C 
BRANCH   5   6
ATOM      6  C   UNL     1      14.861  22.074  55.047  1.00  0.00     0.028 C 
BRANCH   6   7
ATOM      7  C   UNL     1      13.372  21.910  54.858  1.00  0.00    -0.028 C 
ATOM      8  C   UNL     1      12.400  22.300  55.724  1.00  0.00    -0.070 CG0
ATOM      9  C   UNL     1      10.980  21.916  55.381  1.00  0.00     0.039 C 
ATOM     10  G   UNL     1      12.633  23.162  56.963  1.00  0.00     0.000 G0
ENDBRANCH   6   7
ENDBRANCH   5   6
ENDBRANCH   3   5
ENDBRANCH   1   3
BRANCH   1  11
ATOM     11  C   UNL     1      13.717  20.150  58.627  1.00  0.00     0.087 C 
BRANCH  11  12
ATOM     12  C   UNL     1      13.856  21.693  58.792  1.00  0.00     0.066 C 
BRANCH  12  13
ATOM     13  C   UNL     1      12.606  22.411  58.285  1.00  0.00     0.140 C 
ATOM     14  O   UNL     1      11.591  22.445  58.968  1.00  0.00    -0.299 OA
BRANCH  13  15
ATOM     15  C   UNL     1      12.639  23.158  56.974  1.00  0.00     0.106 CG0
ATOM     16  G   UNL     1      12.377  22.302  55.737  1.00  0.00     0.000 G0
ENDBRANCH  13  15
ENDBRANCH  12  13
BRANCH  12  17
ATOM     17  C   UNL     1      14.278  22.164  60.228  1.00  0.00    -0.006 C 
ATOM     18  C   UNL     1      15.729  22.683  60.228  1.00  0.00     0.008 C 
ATOM     19  C   UNL     1      14.160  21.053  61.286  1.00  0.00     0.008 C 
ENDBRANCH  12  17
ENDBRANCH  11  12
ENDBRANCH   1  11
TORSDOF 1
ENDMDL
MODEL 5
REMARK VINA RESULT:    -3.486      2.238      4.200
REMARK INTER + INTRA:          -5.733
REMARK INTER:                  -5.416
REMARK INTRA:                  -0.317
REMARK UNBOUND:                -0.412
REMARK SMILES CC1=CCC[C@@H](C)C(=O)C[C@H](C(C)C)C(=O)C1
REMARK SMILES IDX 8 1 9 2 6 3 7 4 5 5 4 6 3 7 2 8 1 9 10 11 11 12 15 13 16 14
REMARK SMILES IDX 17 15 12 17 13 18 14 19
REMARK H PARENT
REMARK Flexibility Score: 70.00
ROOT
ATOM      1  C   UNL     1      15.982  21.393  57.701  1.00  0.00     0.136 C 
ATOM      2  O   UNL     1      16.706  20.418  57.845  1.00  0.00    -0.299 OA
ENDROOT
BRANCH   1   3
ATOM      3  C   UNL     1      15.772  22.330  58.880  1.00  0.00     0.053 C 
ATOM      4  C   UNL     1      17.098  22.566  59.613  1.00  0.00     0.016 C 
BRANCH   3   5
ATOM      5  C   UNL     1      14.689  21.821  59.856  1.00  0.00     0.015 C 
BRANCH   5   6
ATOM      6  C   UNL     1      13.549  22.838  60.024  1.00  0.00     0.028 C 
BRANCH   6   7
ATOM      7  C   UNL     1      12.207  22.313  59.574  1.00  0.00    -0.028 C 
ATOM      8  C   UNL     1      11.700  22.367  58.314  1.00  0.00    -0.070 CG0
ATOM      9  C   UNL     1      10.279  21.892  58.125  1.00  0.00     0.039 C 
ATOM     10  G   UNL     1      12.487  22.791  57.076  1.00  0.00     0.000 G0
ENDBRANCH   6   7
ENDBRANCH   5   6
ENDBRANCH   3   5
ENDBRANCH   1   3
BRANCH   1  11
ATOM     11  C   UNL     1      15.257  21.588  56.387  1.00  0.00     0.087 C 
BRANCH  11  12
ATOM     12  C   UNL     1      13.944  20.764  56.241  1.00  0.00     0.066 C 
BRANCH  12  13
ATOM     13  C   UNL     1      12.738  21.684  56.059  1.00  0.00     0.140 C 
ATOM     14  O   UNL     1      11.938  21.485  55.155  1.00  0.00    -0.299 OA
BRANCH  13  15
ATOM     15  C   UNL     1      12.477  22.796  57.045  1.00  0.00     0.106 CG0
ATOM     16  G   UNL     1      11.705  22.382  58.296  1.00  0.00     0.000 G0
ENDBRANCH  13  15
ENDBRANCH  12  13
BRANCH  12  17
ATOM     17  C   UNL     1      14.000  19.626  55.161  1.00  0.00    -0.006 C 
ATOM     18  C   UNL     1      14.665  18.360  55.735  1.00  0.00     0.008 C 
ATOM     19  C   UNL     1      14.760  20.040  53.888  1.00  0.00     0.008 C 
ENDBRANCH  12  17
ENDBRANCH  11  12
ENDBRANCH   1  11
TORSDOF 1
ENDMDL
MODEL 6
REMARK VINA RESULT:    -3.379      2.197      4.020
REMARK INTER + INTRA:          -5.569
REMARK INTER:                  -5.201
REMARK INTRA:                  -0.368
REMARK UNBOUND:                -0.412
REMARK SMILES CC1=CCC[C@@H](C)C(=O)C[C@H](C(C)C)C(=O)C1
REMARK SMILES IDX 8 1 9 2 6 3 7 4 5 5 4 6 3 7 2 8 1 9 10 11 11 12 15 13 16 14
REMARK SMILES IDX 17 15 12 17 13 18 14 19
REMARK H PARENT
REMARK Flexibility Score: 70.00
ROOT
ATOM      1  C   UNL     1      13.705  20.695  58.263  1.00  0.00     0.136 C 
ATOM      2  O   UNL     1      13.061  19.812  58.810  1.00  0.00    -0.299 OA
ENDROOT
BRANCH   1   3
ATOM      3  C   UNL     1      13.125  22.099  58.208  1.00  0.00     0.053 C 
ATOM      4  C   UNL     1      12.910  22.640  59.627  1.00  0.00     0.016 C 
BRANCH   3   5
ATOM      5  C   UNL     1      11.816  22.169  57.391  1.00  0.00     0.015 C 
BRANCH   5   6
ATOM      6  C   UNL     1      12.060  22.698  55.968  1.00  0.00     0.028 C 
BRANCH   6   7
ATOM      7  C   UNL     1      13.134  23.757  55.899  1.00  0.00    -0.028 C 
ATOM      8  C   UNL     1      14.379  23.611  55.372  1.00  0.00    -0.070 CG0
ATOM      9  C   UNL     1      15.331  24.772  55.529  1.00  0.00     0.039 C 
ATOM     10  G   UNL     1      14.848  22.400  54.569  1.00  0.00     0.000 G0
ENDBRANCH   6   7
ENDBRANCH   5   6
ENDBRANCH   3   5
ENDBRANCH   1   3
BRANCH   1  11
ATOM     11  C   UNL     1      15.014  20.345  57.588  1.00  0.00     0.087 C 
BRANCH  11  12
ATOM     12  C   UNL     1      14.931  20.217  56.038  1.00  0.00     0.066 C 
BRANCH  12  13
ATOM     13  C   UNL     1      15.648  21.380  55.354  1.00  0.00     0.140 C 
ATOM     14  O   UNL     1      16.869  21.458  55.382  1.00  0.00    -0.299 OA
BRANCH  13  15
ATOM     15  C   UNL     1      14.861  22.399  54.567  1.00  0.00     0.106 CG0
ATOM     16  G   UNL     1      14.386  23.608  55.369  1.00  0.00     0.000 G0
ENDBRANCH  13  15
ENDBRANCH  12  13
BRANCH  12  17
ATOM     17  C   UNL     1      15.373  18.822  55.470  1.00  0.00    -0.006 C 
ATOM     18  C   UNL     1      14.353  18.304  54.438  1.00  0.00     0.008 C 
ATOM     19  C   UNL     1      15.545  17.753  56.563  1.00  0.00     0.008 C 
ENDBRANCH  12  17
ENDBRANCH  11  12
ENDBRANCH   1  11
TORSDOF 1
ENDMDL
MODEL 7
REMARK VINA RESULT:    -3.323      2.229      2.817
REMARK INTER + INTRA:          -5.484
REMARK INTER:                  -5.470
REMARK INTRA:                  -0.013
REMARK UNBOUND:                -0.412
REMARK SMILES CC1=CCC[C@@H](C)C(=O)C[C@H](C(C)C)C(=O)C1
REMARK SMILES IDX 8 1 9 2 6 3 7 4 5 5 4 6 3 7 2 8 1 9 10 11 11 12 15 13 16 14
REMARK SMILES IDX 17 15 12 17 13 18 14 19
REMARK H PARENT
REMARK Flexibility Score: 70.00
ROOT
ATOM      1  C   UNL     1      13.207  22.320  57.357  1.00  0.00     0.136 C 
ATOM      2  O   UNL     1      13.817  23.374  57.250  1.00  0.00    -0.299 OA
ENDROOT
BRANCH   1   3
ATOM      3  C   UNL     1      13.380  21.499  58.625  1.00  0.00     0.053 C 
ATOM      4  C   UNL     1      13.472  22.422  59.847  1.00  0.00     0.016 C 
BRANCH   3   5
ATOM      5  C   UNL     1      14.600  20.555  58.558  1.00  0.00     0.015 C 
BRANCH   5   6
ATOM      6  C   UNL     1      14.269  19.248  57.818  1.00  0.00     0.028 C 
BRANCH   6   7
ATOM      7  C   UNL     1      15.182  18.974  56.648  1.00  0.00    -0.028 C 
ATOM      8  C   UNL     1      14.855  19.061  55.331  1.00  0.00    -0.070 CG0
ATOM      9  C   UNL     1      15.898  18.615  54.334  1.00  0.00     0.039 C 
ATOM     10  G   UNL     1      13.552  19.650  54.795  1.00  0.00     0.000 G0
ENDBRANCH   6   7
ENDBRANCH   5   6
ENDBRANCH   3   5
ENDBRANCH   1   3
BRANCH   1  11
ATOM     11  C   UNL     1      12.368  21.830  56.197  1.00  0.00     0.087 C 
BRANCH  11  12
ATOM     12  C   UNL     1      12.928  22.197  54.790  1.00  0.00     0.066 C 
BRANCH  12  13
ATOM     13  C   UNL     1      13.651  21.007  54.162  1.00  0.00     0.140 C 
ATOM     14  O   UNL     1      14.377  21.165  53.190  1.00  0.00    -0.299 OA
BRANCH  13  15
ATOM     15  C   UNL     1      13.543  19.637  54.787  1.00  0.00     0.106 CG0
ATOM     16  G   UNL     1      14.853  19.069  55.327  1.00  0.00     0.000 G0
ENDBRANCH  13  15
ENDBRANCH  12  13
BRANCH  12  17
ATOM     17  C   UNL     1      11.882  22.846  53.817  1.00  0.00    -0.006 C 
ATOM     18  C   UNL     1      11.710  24.347  54.121  1.00  0.00     0.008 C 
ATOM     19  C   UNL     1      10.499  22.175  53.883  1.00  0.00     0.008 C 
ENDBRANCH  12  17
ENDBRANCH  11  12
ENDBRANCH   1  11
TORSDOF 1
ENDMDL
MODEL 8
REMARK VINA RESULT:    -3.299     12.209     13.405
REMARK INTER + INTRA:          -5.447
REMARK INTER:                  -5.304
REMARK INTRA:                  -0.143
REMARK UNBOUND:                -0.412
REMARK SMILES CC1=CCC[C@@H](C)C(=O)C[C@H](C(C)C)C(=O)C1
REMARK SMILES IDX 8 1 9 2 6 3 7 4 5 5 4 6 3 7 2 8 1 9 10 11 11 12 15 13 16 14
REMARK SMILES IDX 17 15 12 17 13 18 14 19
REMARK H PARENT
REMARK Flexibility Score: 70.00
ROOT
ATOM      1  C   UNL     1       6.353  30.704  54.067  1.00  0.00     0.136 C 
ATOM      2  O   UNL     1       7.362  31.096  54.633  1.00  0.00    -0.299 OA
ENDROOT
BRANCH   1   3
ATOM      3  C   UNL     1       5.154  31.634  53.977  1.00  0.00     0.053 C 
ATOM      4  C   UNL     1       3.905  30.852  53.554  1.00  0.00     0.016 C 
BRANCH   3   5
ATOM      5  C   UNL     1       5.400  32.828  53.029  1.00  0.00     0.015 C 
BRANCH   5   6
ATOM      6  C   UNL     1       5.750  32.364  51.606  1.00  0.00     0.028 C 
BRANCH   6   7
ATOM      7  C   UNL     1       7.157  32.720  51.188  1.00  0.00    -0.028 C 
ATOM      8  C   UNL     1       8.094  31.866  50.698  1.00  0.00    -0.070 CG0
ATOM      9  C   UNL     1       9.478  32.425  50.468  1.00  0.00     0.039 C 
ATOM     10  G   UNL     1       7.825  30.420  50.290  1.00  0.00     0.000 G0
ENDBRANCH   6   7
ENDBRANCH   5   6
ENDBRANCH   3   5
ENDBRANCH   1   3
BRANCH   1  11
ATOM     11  C   UNL     1       6.301  29.282  53.548  1.00  0.00     0.087 C 
BRANCH  11  12
ATOM     12  C   UNL     1       6.285  29.159  51.995  1.00  0.00     0.066 C 
BRANCH  12  13
ATOM     13  C   UNL     1       7.668  29.435  51.410  1.00  0.00     0.140 C 
ATOM     14  O   UNL     1       8.646  28.821  51.814  1.00  0.00    -0.299 OA
BRANCH  13  15
ATOM     15  C   UNL     1       7.829  30.409  50.269  1.00  0.00     0.106 CG0
ATOM     16  G   UNL     1       8.089  31.855  50.686  1.00  0.00     0.000 G0
ENDBRANCH  13  15
ENDBRANCH  12  13
BRANCH  12  17
ATOM     17  C   UNL     1       5.658  27.827  51.450  1.00  0.00    -0.006 C 
ATOM     18  C   UNL     1       4.758  28.106  50.231  1.00  0.00     0.008 C 
ATOM     19  C   UNL     1       4.826  27.075  52.505  1.00  0.00     0.008 C 
ENDBRANCH  12  17
ENDBRANCH  11  12
ENDBRANCH   1  11
TORSDOF 1
ENDMDL
MODEL 9
REMARK VINA RESULT:    -3.244      1.967      2.627
REMARK INTER + INTRA:          -5.364
REMARK INTER:                  -5.117
REMARK INTRA:                  -0.246
REMARK UNBOUND:                -0.412
REMARK SMILES CC1=CCC[C@@H](C)C(=O)C[C@H](C(C)C)C(=O)C1
REMARK SMILES IDX 8 1 9 2 6 3 7 4 5 5 4 6 3 7 2 8 1 9 10 11 11 12 15 13 16 14
REMARK SMILES IDX 17 15 12 17 13 18 14 19
REMARK H PARENT
REMARK Flexibility Score: 70.00
ROOT
ATOM      1  C   UNL     1      12.017  22.054  57.254  1.00  0.00     0.136 C 
ATOM      2  O   UNL     1      10.980  22.699  57.214  1.00  0.00    -0.299 OA
ENDROOT
BRANCH   1   3
ATOM      3  C   UNL     1      12.356  21.289  58.523  1.00  0.00     0.053 C 
ATOM      4  C   UNL     1      12.819  22.256  59.619  1.00  0.00     0.016 C 
BRANCH   3   5
ATOM      5  C   UNL     1      13.408  20.184  58.286  1.00  0.00     0.015 C 
BRANCH   5   6
ATOM      6  C   UNL     1      14.792  20.591  58.819  1.00  0.00     0.028 C 
BRANCH   6   7
ATOM      7  C   UNL     1      15.855  20.643  57.748  1.00  0.00    -0.028 C 
ATOM      8  C   UNL     1      16.145  21.704  56.948  1.00  0.00    -0.070 CG0
ATOM      9  C   UNL     1      17.165  21.482  55.857  1.00  0.00     0.039 C 
ATOM     10  G   UNL     1      15.577  23.110  57.128  1.00  0.00     0.000 G0
ENDBRANCH   6   7
ENDBRANCH   5   6
ENDBRANCH   3   5
ENDBRANCH   1   3
BRANCH   1  11
ATOM     11  C   UNL     1      12.965  22.104  56.075  1.00  0.00     0.087 C 
BRANCH  11  12
ATOM     12  C   UNL     1      13.420  23.537  55.668  1.00  0.00     0.066 C 
BRANCH  12  13
ATOM     13  C   UNL     1      14.917  23.722  55.903  1.00  0.00     0.140 C 
ATOM     14  O   UNL     1      15.585  24.408  55.140  1.00  0.00    -0.299 OA
BRANCH  13  15
ATOM     15  C   UNL     1      15.573  23.129  57.127  1.00  0.00     0.106 CG0
ATOM     16  G   UNL     1      16.141  21.725  56.938  1.00  0.00     0.000 G0
ENDBRANCH  13  15
ENDBRANCH  12  13
BRANCH  12  17
ATOM     17  C   UNL     1      12.978  23.982  54.230  1.00  0.00    -0.006 C 
ATOM     18  C   UNL     1      12.076  25.229  54.296  1.00  0.00     0.008 C 
ATOM     19  C   UNL     1      12.227  22.880  53.461  1.00  0.00     0.008 C 
ENDBRANCH  12  17
ENDBRANCH  11  12
ENDBRANCH   1  11
TORSDOF 1
ENDMDL
