MODEL 1
REMARK VINA RESULT:    -4.143      0.000      0.000
REMARK INTER + INTRA:          -4.264
REMARK INTER:                  -4.264
REMARK INTRA:                   0.000
REMARK UNBOUND:                 0.000
REMARK SMILES Cc1ccccc1O
REMARK SMILES IDX 1 1 2 2 3 3 4 4 5 5 6 6 7 7 8 8
REMARK H PARENT 8 9
REMARK Flexibility Score: inf
ROOT
ATOM      1  C   UNL     1      15.596  -7.246  28.591  1.00  0.00     0.048 C 
ATOM      2  C   UNL     1      15.947  -7.214  27.131  1.00  0.00    -0.009 A 
ATOM      3  C   UNL     1      14.937  -7.266  26.155  1.00  0.00     0.007 A 
ATOM      4  C   UNL     1      15.264  -7.237  24.797  1.00  0.00     0.001 A 
ATOM      5  C   UNL     1      16.600  -7.155  24.400  1.00  0.00     0.004 A 
ATOM      6  C   UNL     1      17.613  -7.103  25.362  1.00  0.00     0.046 A 
ATOM      7  C   UNL     1      17.294  -7.131  26.727  1.00  0.00     0.118 A 
ENDROOT
BRANCH   7   8
ATOM      8  O   UNL     1      18.308  -7.080  27.683  1.00  0.00    -0.508 OA
ATOM      9  H   UNL     1      19.286  -7.052  27.418  1.00  0.00     0.293 HD
ENDBRANCH   7   8
TORSDOF 1
ENDMDL
MODEL 2
REMARK VINA RESULT:    -4.083     13.604     14.812
REMARK INTER + INTRA:          -4.203
REMARK INTER:                  -4.203
REMARK INTRA:                   0.000
REMARK UNBOUND:                 0.000
REMARK SMILES Cc1ccccc1O
REMARK SMILES IDX 1 1 2 2 3 3 4 4 5 5 6 6 7 7 8 8
REMARK H PARENT 8 9
REMARK Flexibility Score: inf
ROOT
ATOM      1  C   UNL     1       2.277  -4.446  22.792  1.00  0.00     0.048 C 
ATOM      2  C   UNL     1       2.373  -5.423  23.928  1.00  0.00    -0.009 A 
ATOM      3  C   UNL     1       3.506  -6.243  24.067  1.00  0.00     0.007 A 
ATOM      4  C   UNL     1       3.594  -7.152  25.124  1.00  0.00     0.001 A 
ATOM      5  C   UNL     1       2.555  -7.251  26.052  1.00  0.00     0.004 A 
ATOM      6  C   UNL     1       1.424  -6.441  25.923  1.00  0.00     0.046 A 
ATOM      7  C   UNL     1       1.326  -5.525  24.865  1.00  0.00     0.118 A 
ENDROOT
BRANCH   7   8
ATOM      8  O   UNL     1       0.195  -4.720  24.741  1.00  0.00    -0.508 OA
ATOM      9  H   UNL     1      -0.589  -4.804  25.378  1.00  0.00     0.293 HD
ENDBRANCH   7   8
TORSDOF 1
ENDMDL
MODEL 3
REMARK VINA RESULT:    -4.070      1.934      3.385
REMARK INTER + INTRA:          -4.189
REMARK INTER:                  -4.189
REMARK INTRA:                   0.000
REMARK UNBOUND:                 0.000
REMARK SMILES Cc1ccccc1O
REMARK SMILES IDX 1 1 2 2 3 3 4 4 5 5 6 6 7 7 8 8
REMARK H PARENT 8 9
REMARK Flexibility Score: inf
ROOT
ATOM      1  C   UNL     1      17.772  -5.801  23.561  1.00  0.00     0.048 C 
ATOM      2  C   UNL     1      17.484  -5.889  25.033  1.00  0.00    -0.009 A 
ATOM      3  C   UNL     1      17.135  -4.738  25.759  1.00  0.00     0.007 A 
ATOM      4  C   UNL     1      16.868  -4.820  27.128  1.00  0.00     0.001 A 
ATOM      5  C   UNL     1      16.947  -6.050  27.784  1.00  0.00     0.004 A 
ATOM      6  C   UNL     1      17.294  -7.201  27.072  1.00  0.00     0.046 A 
ATOM      7  C   UNL     1      17.564  -7.128  25.697  1.00  0.00     0.118 A 
ENDROOT
BRANCH   7   8
ATOM      8  O   UNL     1      17.910  -8.280  24.991  1.00  0.00    -0.508 OA
ATOM      9  H   UNL     1      18.645  -8.899  25.314  1.00  0.00     0.293 HD
ENDBRANCH   7   8
TORSDOF 1
ENDMDL
MODEL 4
REMARK VINA RESULT:    -4.067     15.422     16.635
REMARK INTER + INTRA:          -4.186
REMARK INTER:                  -4.186
REMARK INTRA:                   0.000
REMARK UNBOUND:                 0.000
REMARK SMILES Cc1ccccc1O
REMARK SMILES IDX 1 1 2 2 3 3 4 4 5 5 6 6 7 7 8 8
REMARK H PARENT 8 9
REMARK Flexibility Score: inf
ROOT
ATOM      1  C   UNL     1       2.688  -3.047  19.758  1.00  0.00     0.048 C 
ATOM      2  C   UNL     1       1.955  -3.584  20.954  1.00  0.00    -0.009 A 
ATOM      3  C   UNL     1       2.643  -4.311  21.941  1.00  0.00     0.007 A 
ATOM      4  C   UNL     1       1.961  -4.810  23.054  1.00  0.00     0.001 A 
ATOM      5  C   UNL     1       0.590  -4.589  23.192  1.00  0.00     0.004 A 
ATOM      6  C   UNL     1      -0.104  -3.868  22.217  1.00  0.00     0.046 A 
ATOM      7  C   UNL     1       0.572  -3.362  21.097  1.00  0.00     0.118 A 
ENDROOT
BRANCH   7   8
ATOM      8  O   UNL     1      -0.125  -2.644  20.126  1.00  0.00    -0.508 OA
ATOM      9  H   UNL     1      -0.929  -2.074  20.363  1.00  0.00     0.293 HD
ENDBRANCH   7   8
TORSDOF 1
ENDMDL
MODEL 5
REMARK VINA RESULT:    -3.984     16.129     16.998
REMARK INTER + INTRA:          -4.100
REMARK INTER:                  -4.100
REMARK INTRA:                   0.000
REMARK UNBOUND:                 0.000
REMARK SMILES Cc1ccccc1O
REMARK SMILES IDX 1 1 2 2 3 3 4 4 5 5 6 6 7 7 8 8
REMARK H PARENT 8 9
REMARK Flexibility Score: inf
ROOT
ATOM      1  C   UNL     1       1.865  -1.012  21.339  1.00  0.00     0.048 C 
ATOM      2  C   UNL     1       1.339  -2.284  21.940  1.00  0.00    -0.009 A 
ATOM      3  C   UNL     1       1.819  -2.733  23.182  1.00  0.00     0.007 A 
ATOM      4  C   UNL     1       1.329  -3.917  23.741  1.00  0.00     0.001 A 
ATOM      5  C   UNL     1       0.359  -4.661  23.067  1.00  0.00     0.004 A 
ATOM      6  C   UNL     1      -0.125  -4.223  21.832  1.00  0.00     0.046 A 
ATOM      7  C   UNL     1       0.360  -3.036  21.263  1.00  0.00     0.118 A 
ENDROOT
BRANCH   7   8
ATOM      8  O   UNL     1      -0.125  -2.603  20.029  1.00  0.00    -0.508 OA
ATOM      9  H   UNL     1       0.363  -2.810  19.165  1.00  0.00     0.293 HD
ENDBRANCH   7   8
TORSDOF 1
ENDMDL
MODEL 6
REMARK VINA RESULT:    -3.976     13.526     14.636
REMARK INTER + INTRA:          -4.092
REMARK INTER:                  -4.092
REMARK INTRA:                   0.000
REMARK UNBOUND:                 0.000
REMARK SMILES Cc1ccccc1O
REMARK SMILES IDX 1 1 2 2 3 3 4 4 5 5 6 6 7 7 8 8
REMARK H PARENT 8 9
REMARK Flexibility Score: inf
ROOT
ATOM      1  C   UNL     1       0.302  -4.517  24.147  1.00  0.00     0.048 C 
ATOM      2  C   UNL     1       1.425  -5.438  24.531  1.00  0.00    -0.009 A 
ATOM      3  C   UNL     1       1.386  -6.135  25.750  1.00  0.00     0.007 A 
ATOM      4  C   UNL     1       2.431  -6.991  26.107  1.00  0.00     0.001 A 
ATOM      5  C   UNL     1       3.522  -7.160  25.252  1.00  0.00     0.004 A 
ATOM      6  C   UNL     1       3.570  -6.471  24.037  1.00  0.00     0.046 A 
ATOM      7  C   UNL     1       2.526  -5.609  23.670  1.00  0.00     0.118 A 
ENDROOT
BRANCH   7   8
ATOM      8  O   UNL     1       2.579  -4.924  22.457  1.00  0.00    -0.508 OA
ATOM      9  H   UNL     1       2.429  -3.923  22.406  1.00  0.00     0.293 HD
ENDBRANCH   7   8
TORSDOF 1
ENDMDL
MODEL 7
REMARK VINA RESULT:    -3.953     13.479     14.357
REMARK INTER + INTRA:          -4.068
REMARK INTER:                  -4.068
REMARK INTRA:                   0.000
REMARK UNBOUND:                 0.000
REMARK SMILES Cc1ccccc1O
REMARK SMILES IDX 1 1 2 2 3 3 4 4 5 5 6 6 7 7 8 8
REMARK H PARENT 8 9
REMARK Flexibility Score: inf
ROOT
ATOM      1  C   UNL     1       2.873  -7.625  26.478  1.00  0.00     0.048 C 
ATOM      2  C   UNL     1       2.735  -6.679  25.319  1.00  0.00    -0.009 A 
ATOM      3  C   UNL     1       3.674  -6.694  24.274  1.00  0.00     0.007 A 
ATOM      4  C   UNL     1       3.546  -5.814  23.197  1.00  0.00     0.001 A 
ATOM      5  C   UNL     1       2.481  -4.912  23.152  1.00  0.00     0.004 A 
ATOM      6  C   UNL     1       1.542  -4.888  24.186  1.00  0.00     0.046 A 
ATOM      7  C   UNL     1       1.662  -5.768  25.272  1.00  0.00     0.118 A 
ENDROOT
BRANCH   7   8
ATOM      8  O   UNL     1       0.723  -5.739  26.302  1.00  0.00    -0.508 OA
ATOM      9  H   UNL     1      -0.272  -5.792  26.114  1.00  0.00     0.293 HD
ENDBRANCH   7   8
TORSDOF 1
ENDMDL
MODEL 8
REMARK VINA RESULT:    -3.878     16.725     17.126
REMARK INTER + INTRA:          -3.991
REMARK INTER:                  -3.991
REMARK INTRA:                   0.000
REMARK UNBOUND:                 0.000
REMARK SMILES Cc1ccccc1O
REMARK SMILES IDX 1 1 2 2 3 3 4 4 5 5 6 6 7 7 8 8
REMARK H PARENT 8 9
REMARK Flexibility Score: inf
ROOT
ATOM      1  C   UNL     1       0.209  -3.735  21.249  1.00  0.00     0.048 C 
ATOM      2  C   UNL     1       1.016  -2.499  20.973  1.00  0.00    -0.009 A 
ATOM      3  C   UNL     1       1.431  -1.671  22.030  1.00  0.00     0.007 A 
ATOM      4  C   UNL     1       2.181  -0.520  21.773  1.00  0.00     0.001 A 
ATOM      5  C   UNL     1       2.525  -0.187  20.462  1.00  0.00     0.004 A 
ATOM      6  C   UNL     1       2.118  -1.003  19.403  1.00  0.00     0.046 A 
ATOM      7  C   UNL     1       1.364  -2.160  19.651  1.00  0.00     0.118 A 
ENDROOT
BRANCH   7   8
ATOM      8  O   UNL     1       0.960  -2.971  18.592  1.00  0.00    -0.508 OA
ATOM      9  H   UNL     1       0.645  -3.923  18.742  1.00  0.00     0.293 HD
ENDBRANCH   7   8
TORSDOF 1
ENDMDL
