MODEL 1
REMARK VINA RESULT:    -4.192      0.000      0.000
REMARK INTER + INTRA:          -4.908
REMARK INTER:                  -4.805
REMARK INTRA:                  -0.103
REMARK UNBOUND:                -0.103
REMARK SMILES COc1cc(C(=O)[O-])ccc1O
REMARK SMILES IDX 5 1 9 2 4 3 10 4 3 5 11 6 6 7 7 8 8 9 2 10 1 11 12 12
REMARK H PARENT 12 13
REMARK Flexibility Score: inf
ROOT
ATOM      1  C   UNL     1     -21.809  31.750 -13.414  1.00  0.00     0.001 A 
ATOM      2  C   UNL     1     -20.711  31.214 -14.106  1.00  0.00     0.014 A 
ATOM      3  C   UNL     1     -23.041  31.074 -13.460  1.00  0.00     0.060 A 
ATOM      4  C   UNL     1     -20.842  30.027 -14.829  1.00  0.00     0.051 A 
ATOM      5  C   UNL     1     -23.180  29.875 -14.190  1.00  0.00     0.161 A 
ATOM      6  C   UNL     1     -22.068  29.357 -14.876  1.00  0.00     0.157 A 
ENDROOT
BRANCH   1   7
ATOM      7  C   UNL     1     -21.664  33.007 -12.647  1.00  0.00     0.072 C 
ATOM      8  O   UNL     1     -20.552  33.596 -12.586  1.00  0.00    -0.545 OA
ATOM      9  O   UNL     1     -22.754  33.555 -11.981  1.00  0.00    -0.545 OA
ENDBRANCH   1   7
BRANCH   5  10
ATOM     10  O   UNL     1     -24.399  29.180 -14.253  1.00  0.00    -0.493 OA
ATOM     11  C   UNL     1     -24.936  28.390 -13.197  1.00  0.00     0.278 C 
ENDBRANCH   5  10
BRANCH   6  12
ATOM     12  O   UNL     1     -22.161  28.174 -15.609  1.00  0.00    -0.504 OA
ATOM     13  H   UNL     1     -23.024  27.650 -15.683  1.00  0.00     0.293 HD
ENDBRANCH   6  12
TORSDOF 3
ENDMDL
MODEL 2
REMARK VINA RESULT:    -4.163      1.653      4.360
REMARK INTER + INTRA:          -4.875
REMARK INTER:                  -4.795
REMARK INTRA:                  -0.080
REMARK UNBOUND:                -0.103
REMARK SMILES COc1cc(C(=O)[O-])ccc1O
REMARK SMILES IDX 5 1 9 2 4 3 10 4 3 5 11 6 6 7 7 8 8 9 2 10 1 11 12 12
REMARK H PARENT 12 13
REMARK Flexibility Score: inf
ROOT
ATOM      1  C   UNL     1     -22.039  28.885 -14.547  1.00  0.00     0.001 A 
ATOM      2  C   UNL     1     -21.030  28.601 -15.482  1.00  0.00     0.014 A 
ATOM      3  C   UNL     1     -22.047  30.140 -13.911  1.00  0.00     0.060 A 
ATOM      4  C   UNL     1     -20.050  29.550 -15.774  1.00  0.00     0.051 A 
ATOM      5  C   UNL     1     -21.058  31.103 -14.202  1.00  0.00     0.161 A 
ATOM      6  C   UNL     1     -20.058  30.796 -15.141  1.00  0.00     0.157 A 
ENDROOT
BRANCH   1   7
ATOM      7  C   UNL     1     -23.077  27.876 -14.241  1.00  0.00     0.072 C 
ATOM      8  O   UNL     1     -22.886  26.659 -14.506  1.00  0.00    -0.545 OA
ATOM      9  O   UNL     1     -24.280  28.257 -13.657  1.00  0.00    -0.545 OA
ENDBRANCH   1   7
BRANCH   5  10
ATOM     10  O   UNL     1     -21.043  32.363 -13.582  1.00  0.00    -0.493 OA
ATOM     11  C   UNL     1     -22.080  32.868 -12.748  1.00  0.00     0.278 C 
ENDBRANCH   5  10
BRANCH   6  12
ATOM     12  O   UNL     1     -19.061  31.719 -15.460  1.00  0.00    -0.504 OA
ATOM     13  H   UNL     1     -19.046  32.214 -16.343  1.00  0.00     0.293 HD
ENDBRANCH   6  12
TORSDOF 3
ENDMDL
MODEL 3
REMARK VINA RESULT:    -4.072      1.198      1.733
REMARK INTER + INTRA:          -4.771
REMARK INTER:                  -4.669
REMARK INTRA:                  -0.101
REMARK UNBOUND:                -0.103
REMARK SMILES COc1cc(C(=O)[O-])ccc1O
REMARK SMILES IDX 5 1 9 2 4 3 10 4 3 5 11 6 6 7 7 8 8 9 2 10 1 11 12 12
REMARK H PARENT 12 13
REMARK Flexibility Score: inf
ROOT
ATOM      1  C   UNL     1     -21.464  31.794 -13.473  1.00  0.00     0.001 A 
ATOM      2  C   UNL     1     -20.135  31.835 -13.925  1.00  0.00     0.014 A 
ATOM      3  C   UNL     1     -22.286  30.721 -13.864  1.00  0.00     0.060 A 
ATOM      4  C   UNL     1     -19.638  30.825 -14.750  1.00  0.00     0.051 A 
ATOM      5  C   UNL     1     -21.789  29.699 -14.698  1.00  0.00     0.161 A 
ATOM      6  C   UNL     1     -20.456  29.760 -15.139  1.00  0.00     0.157 A 
ENDROOT
BRANCH   1   7
ATOM      7  C   UNL     1     -21.986  32.867 -12.598  1.00  0.00     0.072 C 
ATOM      8  O   UNL     1     -23.206  32.902 -12.285  1.00  0.00    -0.545 OA
ATOM      9  O   UNL     1     -21.137  33.853 -12.109  1.00  0.00    -0.545 OA
ENDBRANCH   1   7
BRANCH   5  10
ATOM     10  O   UNL     1     -22.588  28.616 -15.104  1.00  0.00    -0.493 OA
ATOM     11  C   UNL     1     -22.785  27.428 -14.346  1.00  0.00     0.278 C 
ENDBRANCH   5  10
BRANCH   6  12
ATOM     12  O   UNL     1     -19.923  28.769 -15.965  1.00  0.00    -0.504 OA
ATOM     13  H   UNL     1     -19.469  28.984 -16.843  1.00  0.00     0.293 HD
ENDBRANCH   6  12
TORSDOF 3
ENDMDL
MODEL 4
REMARK VINA RESULT:    -4.011      1.637      3.836
REMARK INTER + INTRA:          -4.700
REMARK INTER:                  -4.601
REMARK INTRA:                  -0.099
REMARK UNBOUND:                -0.103
REMARK SMILES COc1cc(C(=O)[O-])ccc1O
REMARK SMILES IDX 5 1 9 2 4 3 10 4 3 5 11 6 6 7 7 8 8 9 2 10 1 11 12 12
REMARK H PARENT 12 13
REMARK Flexibility Score: inf
ROOT
ATOM      1  C   UNL     1     -20.644  29.882 -15.192  1.00  0.00     0.001 A 
ATOM      2  C   UNL     1     -20.254  30.978 -14.405  1.00  0.00     0.014 A 
ATOM      3  C   UNL     1     -21.976  29.434 -15.126  1.00  0.00     0.060 A 
ATOM      4  C   UNL     1     -21.176  31.613 -13.571  1.00  0.00     0.051 A 
ATOM      5  C   UNL     1     -22.911  30.071 -14.285  1.00  0.00     0.161 A 
ATOM      6  C   UNL     1     -22.498  31.166 -13.506  1.00  0.00     0.157 A 
ENDROOT
BRANCH   1   7
ATOM      7  C   UNL     1     -19.664  29.213 -16.075  1.00  0.00     0.072 C 
ATOM      8  O   UNL     1     -19.962  28.932 -17.266  1.00  0.00    -0.545 OA
ATOM      9  O   UNL     1     -18.399  28.883 -15.601  1.00  0.00    -0.545 OA
ENDBRANCH   1   7
BRANCH   5  10
ATOM     10  O   UNL     1     -24.247  29.645 -14.200  1.00  0.00    -0.493 OA
ATOM     11  C   UNL     1     -24.691  28.520 -13.449  1.00  0.00     0.278 C 
ENDBRANCH   5  10
BRANCH   6  12
ATOM     12  O   UNL     1     -23.391  31.827 -12.660  1.00  0.00    -0.504 OA
ATOM     13  H   UNL     1     -24.175  31.355 -12.228  1.00  0.00     0.293 HD
ENDBRANCH   6  12
TORSDOF 3
ENDMDL
MODEL 5
REMARK VINA RESULT:    -3.920      1.869      3.980
REMARK INTER + INTRA:          -4.596
REMARK INTER:                  -4.517
REMARK INTRA:                  -0.079
REMARK UNBOUND:                -0.103
REMARK SMILES COc1cc(C(=O)[O-])ccc1O
REMARK SMILES IDX 5 1 9 2 4 3 10 4 3 5 11 6 6 7 7 8 8 9 2 10 1 11 12 12
REMARK H PARENT 12 13
REMARK Flexibility Score: inf
ROOT
ATOM      1  C   UNL     1     -20.908  29.477 -15.142  1.00  0.00     0.001 A 
ATOM      2  C   UNL     1     -21.744  28.361 -15.306  1.00  0.00     0.014 A 
ATOM      3  C   UNL     1     -21.371  30.572 -14.390  1.00  0.00     0.060 A 
ATOM      4  C   UNL     1     -23.015  28.339 -14.730  1.00  0.00     0.051 A 
ATOM      5  C   UNL     1     -22.654  30.556 -13.806  1.00  0.00     0.161 A 
ATOM      6  C   UNL     1     -23.474  29.428 -13.983  1.00  0.00     0.157 A 
ENDROOT
BRANCH   1   7
ATOM      7  C   UNL     1     -19.561  29.495 -15.755  1.00  0.00     0.072 C 
ATOM      8  O   UNL     1     -19.327  28.845 -16.808  1.00  0.00    -0.545 OA
ATOM      9  O   UNL     1     -18.533  30.229 -15.174  1.00  0.00    -0.545 OA
ENDBRANCH   1   7
BRANCH   5  10
ATOM     10  O   UNL     1     -23.141  31.635 -13.050  1.00  0.00    -0.493 OA
ATOM     11  C   UNL     1     -22.358  32.749 -12.633  1.00  0.00     0.278 C 
ENDBRANCH   5  10
BRANCH   6  12
ATOM     12  O   UNL     1     -24.750  29.369 -13.422  1.00  0.00    -0.504 OA
ATOM     13  H   UNL     1     -25.587  29.310 -13.989  1.00  0.00     0.293 HD
ENDBRANCH   6  12
TORSDOF 3
ENDMDL
MODEL 6
REMARK VINA RESULT:    -3.904      2.464      4.697
REMARK INTER + INTRA:          -4.578
REMARK INTER:                  -4.477
REMARK INTRA:                  -0.101
REMARK UNBOUND:                -0.103
REMARK SMILES COc1cc(C(=O)[O-])ccc1O
REMARK SMILES IDX 5 1 9 2 4 3 10 4 3 5 11 6 6 7 7 8 8 9 2 10 1 11 12 12
REMARK H PARENT 12 13
REMARK Flexibility Score: inf
ROOT
ATOM      1  C   UNL     1     -22.153  29.090 -14.652  1.00  0.00     0.001 A 
ATOM      2  C   UNL     1     -21.988  30.406 -14.189  1.00  0.00     0.014 A 
ATOM      3  C   UNL     1     -21.284  28.601 -15.644  1.00  0.00     0.060 A 
ATOM      4  C   UNL     1     -20.977  31.216 -14.708  1.00  0.00     0.051 A 
ATOM      5  C   UNL     1     -20.260  29.415 -16.172  1.00  0.00     0.161 A 
ATOM      6  C   UNL     1     -20.115  30.729 -15.694  1.00  0.00     0.157 A 
ENDROOT
BRANCH   1   7
ATOM      7  C   UNL     1     -23.227  28.235 -14.098  1.00  0.00     0.072 C 
ATOM      8  O   UNL     1     -23.059  26.992 -13.980  1.00  0.00    -0.545 OA
ATOM      9  O   UNL     1     -24.437  28.792 -13.703  1.00  0.00    -0.545 OA
ENDBRANCH   1   7
BRANCH   5  10
ATOM     10  O   UNL     1     -19.379  28.952 -17.162  1.00  0.00    -0.493 OA
ATOM     11  C   UNL     1     -19.664  28.937 -18.557  1.00  0.00     0.278 C 
ENDBRANCH   5  10
BRANCH   6  12
ATOM     12  O   UNL     1     -19.115  31.569 -16.188  1.00  0.00    -0.504 OA
ATOM     13  H   UNL     1     -18.688  32.291 -15.622  1.00  0.00     0.293 HD
ENDBRANCH   6  12
TORSDOF 3
ENDMDL
MODEL 7
REMARK VINA RESULT:    -3.845      1.137      2.778
REMARK INTER + INTRA:          -4.510
REMARK INTER:                  -4.410
REMARK INTRA:                  -0.100
REMARK UNBOUND:                -0.103
REMARK SMILES COc1cc(C(=O)[O-])ccc1O
REMARK SMILES IDX 5 1 9 2 4 3 10 4 3 5 11 6 6 7 7 8 8 9 2 10 1 11 12 12
REMARK H PARENT 12 13
REMARK Flexibility Score: inf
ROOT
ATOM      1  C   UNL     1     -21.905  31.354 -13.643  1.00  0.00     0.001 A 
ATOM      2  C   UNL     1     -23.143  30.692 -13.635  1.00  0.00     0.014 A 
ATOM      3  C   UNL     1     -20.827  30.779 -14.341  1.00  0.00     0.060 A 
ATOM      4  C   UNL     1     -23.300  29.480 -14.309  1.00  0.00     0.051 A 
ATOM      5  C   UNL     1     -20.981  29.555 -15.023  1.00  0.00     0.161 A 
ATOM      6  C   UNL     1     -22.229  28.908 -15.000  1.00  0.00     0.157 A 
ENDROOT
BRANCH   1   7
ATOM      7  C   UNL     1     -21.744  32.640 -12.928  1.00  0.00     0.072 C 
ATOM      8  O   UNL     1     -20.633  33.235 -12.922  1.00  0.00    -0.545 OA
ATOM      9  O   UNL     1     -22.816  33.208 -12.250  1.00  0.00    -0.545 OA
ENDBRANCH   1   7
BRANCH   5  10
ATOM     10  O   UNL     1     -19.922  28.959 -15.728  1.00  0.00    -0.493 OA
ATOM     11  C   UNL     1     -19.582  29.252 -17.078  1.00  0.00     0.278 C 
ENDBRANCH   5  10
BRANCH   6  12
ATOM     12  O   UNL     1     -22.425  27.696 -15.663  1.00  0.00    -0.504 OA
ATOM     13  H   UNL     1     -23.146  27.041 -15.388  1.00  0.00     0.293 HD
ENDBRANCH   6  12
TORSDOF 3
ENDMDL
MODEL 8
REMARK VINA RESULT:    -3.644     14.508     16.618
REMARK INTER + INTRA:          -4.280
REMARK INTER:                  -4.176
REMARK INTRA:                  -0.104
REMARK UNBOUND:                -0.103
REMARK SMILES COc1cc(C(=O)[O-])ccc1O
REMARK SMILES IDX 5 1 9 2 4 3 10 4 3 5 11 6 6 7 7 8 8 9 2 10 1 11 12 12
REMARK H PARENT 12 13
REMARK Flexibility Score: inf
ROOT
ATOM      1  C   UNL     1     -34.517  19.496 -11.414  1.00  0.00     0.001 A 
ATOM      2  C   UNL     1     -34.592  20.254 -12.593  1.00  0.00     0.014 A 
ATOM      3  C   UNL     1     -34.176  20.138 -10.209  1.00  0.00     0.060 A 
ATOM      4  C   UNL     1     -34.332  21.625 -12.569  1.00  0.00     0.051 A 
ATOM      5  C   UNL     1     -33.911  21.523 -10.180  1.00  0.00     0.161 A 
ATOM      6  C   UNL     1     -33.992  22.262 -11.373  1.00  0.00     0.157 A 
ENDROOT
BRANCH   1   7
ATOM      7  C   UNL     1     -34.795  18.043 -11.444  1.00  0.00     0.072 C 
ATOM      8  O   UNL     1     -35.009  17.453 -12.536  1.00  0.00    -0.545 OA
ATOM      9  O   UNL     1     -34.826  17.307 -10.264  1.00  0.00    -0.545 OA
ENDBRANCH   1   7
BRANCH   5  10
ATOM     10  O   UNL     1     -33.568  22.189  -8.992  1.00  0.00    -0.493 OA
ATOM     11  C   UNL     1     -34.496  22.569  -7.981  1.00  0.00     0.278 C 
ENDBRANCH   5  10
BRANCH   6  12
ATOM     12  O   UNL     1     -33.739  23.634 -11.389  1.00  0.00    -0.504 OA
ATOM     13  H   UNL     1     -34.480  24.321 -11.329  1.00  0.00     0.293 HD
ENDBRANCH   6  12
TORSDOF 3
ENDMDL
MODEL 9
REMARK VINA RESULT:    -3.644      1.356      4.965
REMARK INTER + INTRA:          -4.279
REMARK INTER:                  -4.184
REMARK INTRA:                  -0.095
REMARK UNBOUND:                -0.103
REMARK SMILES COc1cc(C(=O)[O-])ccc1O
REMARK SMILES IDX 5 1 9 2 4 3 10 4 3 5 11 6 6 7 7 8 8 9 2 10 1 11 12 12
REMARK H PARENT 12 13
REMARK Flexibility Score: inf
ROOT
ATOM      1  C   UNL     1     -22.187  30.481 -13.946  1.00  0.00     0.001 A 
ATOM      2  C   UNL     1     -22.846  31.498 -13.236  1.00  0.00     0.014 A 
ATOM      3  C   UNL     1     -20.808  30.606 -14.196  1.00  0.00     0.060 A 
ATOM      4  C   UNL     1     -22.142  32.616 -12.786  1.00  0.00     0.051 A 
ATOM      5  C   UNL     1     -20.092  31.734 -13.744  1.00  0.00     0.161 A 
ATOM      6  C   UNL     1     -20.773  32.740 -13.036  1.00  0.00     0.157 A 
ENDROOT
BRANCH   1   7
ATOM      7  C   UNL     1     -22.937  29.297 -14.420  1.00  0.00     0.072 C 
ATOM      8  O   UNL     1     -24.112  29.080 -14.020  1.00  0.00    -0.545 OA
ATOM      9  O   UNL     1     -22.354  28.405 -15.313  1.00  0.00    -0.545 OA
ENDBRANCH   1   7
BRANCH   5  10
ATOM     10  O   UNL     1     -18.715  31.884 -13.979  1.00  0.00    -0.493 OA
ATOM     11  C   UNL     1     -18.116  31.935 -15.269  1.00  0.00     0.278 C 
ENDBRANCH   5  10
BRANCH   6  12
ATOM     12  O   UNL     1     -20.103  33.872 -12.570  1.00  0.00    -0.504 OA
ATOM     13  H   UNL     1     -19.211  33.814 -12.095  1.00  0.00     0.293 HD
ENDBRANCH   6  12
TORSDOF 3
ENDMDL
