MODEL 1
REMARK VINA RESULT:    -1.814      0.000      0.000
REMARK INTER + INTRA:          -2.201
REMARK INTER:                  -2.132
REMARK INTRA:                  -0.069
REMARK UNBOUND:                -0.069
REMARK SMILES CCCCC(=O)[O-]
REMARK SMILES IDX 4 1 5 2 6 3 7 4 3 5 2 6 1 7
REMARK H PARENT
REMARK Flexibility Score: inf
ROOT
ATOM      1  C   UNL     1     -32.387 -36.125  13.709  1.00  0.00     0.053 C 
ENDROOT
BRANCH   1   2
ATOM      2  C   UNL     1     -33.409 -35.896  14.779  1.00  0.00     0.041 C 
ATOM      3  O   UNL     1     -34.629 -35.802  14.480  1.00  0.00    -0.550 OA
ATOM      4  O   UNL     1     -33.020 -35.835  16.110  1.00  0.00    -0.550 OA
ENDBRANCH   1   2
BRANCH   1   5
ATOM      5  C   UNL     1     -32.951 -35.740  12.339  1.00  0.00     0.006 C 
BRANCH   5   6
ATOM      6  C   UNL     1     -32.525 -34.319  11.950  1.00  0.00    -0.003 C 
ATOM      7  C   UNL     1     -31.005 -34.198  11.884  1.00  0.00     0.004 C 
ENDBRANCH   5   6
ENDBRANCH   1   5
TORSDOF 3
ENDMDL
MODEL 2
REMARK VINA RESULT:    -1.785     26.758     27.481
REMARK INTER + INTRA:          -2.167
REMARK INTER:                  -2.084
REMARK INTRA:                  -0.083
REMARK UNBOUND:                -0.069
REMARK SMILES CCCCC(=O)[O-]
REMARK SMILES IDX 4 1 5 2 6 3 7 4 3 5 2 6 1 7
REMARK H PARENT
REMARK Flexibility Score: inf
ROOT
ATOM      1  C   UNL     1     -16.671 -23.099  31.746  1.00  0.00     0.053 C 
ENDROOT
BRANCH   1   2
ATOM      2  C   UNL     1     -16.686 -21.769  31.058  1.00  0.00     0.041 C 
ATOM      3  O   UNL     1     -15.849 -21.513  30.154  1.00  0.00    -0.550 OA
ATOM      4  O   UNL     1     -17.656 -20.831  31.384  1.00  0.00    -0.550 OA
ENDBRANCH   1   2
BRANCH   1   5
ATOM      5  C   UNL     1     -15.240 -23.489  32.125  1.00  0.00     0.006 C 
BRANCH   5   6
ATOM      6  C   UNL     1     -14.919 -24.916  31.662  1.00  0.00    -0.003 C 
ATOM      7  C   UNL     1     -16.125 -25.558  30.981  1.00  0.00     0.004 C 
ENDBRANCH   5   6
ENDBRANCH   1   5
TORSDOF 3
ENDMDL
MODEL 3
REMARK VINA RESULT:    -1.768     26.635     27.348
REMARK INTER + INTRA:          -2.147
REMARK INTER:                  -2.021
REMARK INTRA:                  -0.126
REMARK UNBOUND:                -0.069
REMARK SMILES CCCCC(=O)[O-]
REMARK SMILES IDX 4 1 5 2 6 3 7 4 3 5 2 6 1 7
REMARK H PARENT
REMARK Flexibility Score: inf
ROOT
ATOM      1  C   UNL     1     -17.374 -21.515  30.461  1.00  0.00     0.053 C 
ENDROOT
BRANCH   1   2
ATOM      2  C   UNL     1     -18.364 -21.092  31.501  1.00  0.00     0.041 C 
ATOM      3  O   UNL     1     -18.204 -20.011  32.125  1.00  0.00    -0.550 OA
ATOM      4  O   UNL     1     -19.487 -21.869  31.747  1.00  0.00    -0.550 OA
ENDBRANCH   1   2
BRANCH   1   5
ATOM      5  C   UNL     1     -16.005 -21.771  31.096  1.00  0.00     0.006 C 
BRANCH   5   6
ATOM      6  C   UNL     1     -16.073 -22.932  32.097  1.00  0.00    -0.003 C 
ATOM      7  C   UNL     1     -16.215 -24.271  31.378  1.00  0.00     0.004 C 
ENDBRANCH   5   6
ENDBRANCH   1   5
TORSDOF 3
ENDMDL
MODEL 4
REMARK VINA RESULT:    -1.720      2.637      3.600
REMARK INTER + INTRA:          -2.090
REMARK INTER:                  -1.985
REMARK INTRA:                  -0.105
REMARK UNBOUND:                -0.069
REMARK SMILES CCCCC(=O)[O-]
REMARK SMILES IDX 4 1 5 2 6 3 7 4 3 5 2 6 1 7
REMARK H PARENT
REMARK Flexibility Score: inf
ROOT
ATOM      1  C   UNL     1     -32.202 -34.741  12.494  1.00  0.00     0.053 C 
ENDROOT
BRANCH   1   2
ATOM      2  C   UNL     1     -30.712 -34.851  12.596  1.00  0.00     0.041 C 
ATOM      3  O   UNL     1     -29.973 -34.062  11.951  1.00  0.00    -0.550 OA
ATOM      4  O   UNL     1     -30.143 -35.793  13.442  1.00  0.00    -0.550 OA
ENDBRANCH   1   2
BRANCH   1   5
ATOM      5  C   UNL     1     -32.850 -36.123  12.616  1.00  0.00     0.006 C 
BRANCH   5   6
ATOM      6  C   UNL     1     -33.975 -36.110  13.658  1.00  0.00    -0.003 C 
ATOM      7  C   UNL     1     -33.414 -36.000  15.073  1.00  0.00     0.004 C 
ENDBRANCH   5   6
ENDBRANCH   1   5
TORSDOF 3
ENDMDL
MODEL 5
REMARK VINA RESULT:    -1.670      1.860      2.523
REMARK INTER + INTRA:          -2.032
REMARK INTER:                  -1.943
REMARK INTRA:                  -0.088
REMARK UNBOUND:                -0.069
REMARK SMILES CCCCC(=O)[O-]
REMARK SMILES IDX 4 1 5 2 6 3 7 4 3 5 2 6 1 7
REMARK H PARENT
REMARK Flexibility Score: inf
ROOT
ATOM      1  C   UNL     1     -33.171 -34.382  12.162  1.00  0.00     0.053 C 
ENDROOT
BRANCH   1   2
ATOM      2  C   UNL     1     -34.395 -33.928  12.894  1.00  0.00     0.041 C 
ATOM      3  O   UNL     1     -35.121 -33.019  12.412  1.00  0.00    -0.550 OA
ATOM      4  O   UNL     1     -34.760 -34.542  14.084  1.00  0.00    -0.550 OA
ENDBRANCH   1   2
BRANCH   1   5
ATOM      5  C   UNL     1     -32.912 -35.868  12.423  1.00  0.00     0.006 C 
BRANCH   5   6
ATOM      6  C   UNL     1     -31.447 -36.110  12.808  1.00  0.00    -0.003 C 
ATOM      7  C   UNL     1     -30.919 -34.987  13.696  1.00  0.00     0.004 C 
ENDBRANCH   5   6
ENDBRANCH   1   5
TORSDOF 3
ENDMDL
MODEL 6
REMARK VINA RESULT:    -1.669      1.338      1.899
REMARK INTER + INTRA:          -2.030
REMARK INTER:                  -1.997
REMARK INTRA:                  -0.033
REMARK UNBOUND:                -0.069
REMARK SMILES CCCCC(=O)[O-]
REMARK SMILES IDX 4 1 5 2 6 3 7 4 3 5 2 6 1 7
REMARK H PARENT
REMARK Flexibility Score: inf
ROOT
ATOM      1  C   UNL     1     -32.149 -35.357  13.865  1.00  0.00     0.053 C 
ENDROOT
BRANCH   1   2
ATOM      2  C   UNL     1     -33.582 -35.652  13.548  1.00  0.00     0.041 C 
ATOM      3  O   UNL     1     -34.479 -35.432  14.404  1.00  0.00    -0.550 OA
ATOM      4  O   UNL     1     -33.932 -36.125  12.291  1.00  0.00    -0.550 OA
ENDBRANCH   1   2
BRANCH   1   5
ATOM      5  C   UNL     1     -31.271 -35.584  12.632  1.00  0.00     0.006 C 
BRANCH   5   6
ATOM      6  C   UNL     1     -31.037 -34.270  11.875  1.00  0.00    -0.003 C 
ATOM      7  C   UNL     1     -29.700 -33.643  12.260  1.00  0.00     0.004 C 
ENDBRANCH   5   6
ENDBRANCH   1   5
TORSDOF 3
ENDMDL
MODEL 7
REMARK VINA RESULT:    -1.659      2.756      3.660
REMARK INTER + INTRA:          -2.018
REMARK INTER:                  -1.930
REMARK INTRA:                  -0.088
REMARK UNBOUND:                -0.069
REMARK SMILES CCCCC(=O)[O-]
REMARK SMILES IDX 4 1 5 2 6 3 7 4 3 5 2 6 1 7
REMARK H PARENT
REMARK Flexibility Score: inf
ROOT
ATOM      1  C   UNL     1     -32.490 -33.516  13.086  1.00  0.00     0.053 C 
ENDROOT
BRANCH   1   2
ATOM      2  C   UNL     1     -33.321 -32.468  12.414  1.00  0.00     0.041 C 
ATOM      3  O   UNL     1     -34.492 -32.733  12.036  1.00  0.00    -0.550 OA
ATOM      4  O   UNL     1     -32.819 -31.184  12.251  1.00  0.00    -0.550 OA
ENDBRANCH   1   2
BRANCH   1   5
ATOM      5  C   UNL     1     -31.891 -34.469  12.048  1.00  0.00     0.006 C 
BRANCH   5   6
ATOM      6  C   UNL     1     -32.158 -35.931  12.427  1.00  0.00    -0.003 C 
ATOM      7  C   UNL     1     -33.594 -36.122  12.905  1.00  0.00     0.004 C 
ENDBRANCH   5   6
ENDBRANCH   1   5
TORSDOF 3
ENDMDL
MODEL 8
REMARK VINA RESULT:    -1.609     26.952     27.674
REMARK INTER + INTRA:          -1.960
REMARK INTER:                  -1.896
REMARK INTRA:                  -0.064
REMARK UNBOUND:                -0.069
REMARK SMILES CCCCC(=O)[O-]
REMARK SMILES IDX 4 1 5 2 6 3 7 4 3 5 2 6 1 7
REMARK H PARENT
REMARK Flexibility Score: inf
ROOT
ATOM      1  C   UNL     1     -16.379 -22.573  32.122  1.00  0.00     0.053 C 
ENDROOT
BRANCH   1   2
ATOM      2  C   UNL     1     -15.662 -23.177  30.954  1.00  0.00     0.041 C 
ATOM      3  O   UNL     1     -15.504 -24.424  30.884  1.00  0.00    -0.550 OA
ATOM      4  O   UNL     1     -15.212 -22.367  29.921  1.00  0.00    -0.550 OA
ENDBRANCH   1   2
BRANCH   1   5
ATOM      5  C   UNL     1     -16.356 -21.045  32.031  1.00  0.00     0.006 C 
BRANCH   5   6
ATOM      6  C   UNL     1     -17.775 -20.469  32.125  1.00  0.00    -0.003 C 
ATOM      7  C   UNL     1     -18.773 -21.337  31.364  1.00  0.00     0.004 C 
ENDBRANCH   5   6
ENDBRANCH   1   5
TORSDOF 3
ENDMDL
MODEL 9
REMARK VINA RESULT:    -1.595      2.301      3.695
REMARK INTER + INTRA:          -1.944
REMARK INTER:                  -1.891
REMARK INTRA:                  -0.052
REMARK UNBOUND:                -0.069
REMARK SMILES CCCCC(=O)[O-]
REMARK SMILES IDX 4 1 5 2 6 3 7 4 3 5 2 6 1 7
REMARK H PARENT
REMARK Flexibility Score: inf
ROOT
ATOM      1  C   UNL     1     -32.958 -35.994  12.860  1.00  0.00     0.053 C 
ENDROOT
BRANCH   1   2
ATOM      2  C   UNL     1     -32.343 -34.686  12.470  1.00  0.00     0.041 C 
ATOM      3  O   UNL     1     -32.960 -33.609  12.677  1.00  0.00    -0.550 OA
ATOM      4  O   UNL     1     -31.068 -34.655  11.921  1.00  0.00    -0.550 OA
ENDBRANCH   1   2
BRANCH   1   5
ATOM      5  C   UNL     1     -33.919 -35.803  14.037  1.00  0.00     0.006 C 
BRANCH   5   6
ATOM      6  C   UNL     1     -33.226 -36.125  15.368  1.00  0.00    -0.003 C 
ATOM      7  C   UNL     1     -34.102 -35.730  16.554  1.00  0.00     0.004 C 
ENDBRANCH   5   6
ENDBRANCH   1   5
TORSDOF 3
ENDMDL
