MODEL 1
REMARK VINA RESULT:    -4.852      0.000      0.000
REMARK INTER + INTRA:         -10.540
REMARK INTER:                  -8.824
REMARK INTRA:                  -1.716
REMARK UNBOUND:                -1.716
REMARK SMILES CCCCCCCCCCCCCC[C@H](C)C(=O)[O-]
REMARK SMILES IDX 9 1 10 2 11 3 12 4 13 5 14 6 15 7 16 8 17 9 18 10 19 11 8 12
REMARK SMILES IDX 7 13 6 14 5 15 4 16 3 17 2 18 1 19
REMARK H PARENT
REMARK Flexibility Score: inf
ROOT
ATOM      1  C   UNL     1      -8.179   6.732  28.001  1.00  0.00     0.000 C 
ENDROOT
BRANCH   1   2
ATOM      2  C   UNL     1      -7.073   6.339  28.998  1.00  0.00     0.000 C 
BRANCH   2   3
ATOM      3  C   UNL     1      -6.844   7.336  30.148  1.00  0.00     0.000 C 
BRANCH   3   4
ATOM      4  C   UNL     1      -5.384   7.810  30.249  1.00  0.00     0.000 C 
BRANCH   4   5
ATOM      5  C   UNL     1      -4.400   6.647  30.458  1.00  0.00     0.001 C 
BRANCH   5   6
ATOM      6  C   UNL     1      -4.142   6.346  31.946  1.00  0.00     0.009 C 
BRANCH   6   7
ATOM      7  C   UNL     1      -4.219   4.836  32.254  1.00  0.00     0.032 C 
ATOM      8  C   UNL     1      -5.376   4.188  31.488  1.00  0.00     0.014 C 
BRANCH   7   9
ATOM      9  C   UNL     1      -4.385   4.589  33.730  1.00  0.00     0.044 C 
ATOM     10  O   UNL     1      -4.385   3.411  34.177  1.00  0.00    -0.550 OA
ATOM     11  O   UNL     1      -4.544   5.655  34.608  1.00  0.00    -0.550 OA
ENDBRANCH   7   9
ENDBRANCH   6   7
ENDBRANCH   5   6
ENDBRANCH   4   5
ENDBRANCH   3   4
ENDBRANCH   2   3
ENDBRANCH   1   2
BRANCH   1  12
ATOM     12  C   UNL     1      -7.627   7.287  26.681  1.00  0.00     0.000 C 
BRANCH  12  13
ATOM     13  C   UNL     1      -6.111   7.081  26.588  1.00  0.00    -0.000 C 
BRANCH  13  14
ATOM     14  C   UNL     1      -5.378   8.427  26.485  1.00  0.00    -0.000 C 
BRANCH  14  15
ATOM     15  C   UNL     1      -4.334   8.450  25.358  1.00  0.00    -0.000 C 
BRANCH  15  16
ATOM     16  C   UNL     1      -4.888   9.034  24.050  1.00  0.00    -0.000 C 
BRANCH  16  17
ATOM     17  C   UNL     1      -5.130   7.924  23.014  1.00  0.00    -0.000 C 
BRANCH  17  18
ATOM     18  C   UNL     1      -6.615   7.768  22.652  1.00  0.00    -0.003 C 
ATOM     19  C   UNL     1      -7.498   8.834  23.299  1.00  0.00     0.004 C 
ENDBRANCH  17  18
ENDBRANCH  16  17
ENDBRANCH  15  16
ENDBRANCH  14  15
ENDBRANCH  13  14
ENDBRANCH  12  13
ENDBRANCH   1  12
TORSDOF 14
ENDMDL
MODEL 2
REMARK VINA RESULT:    -4.818      0.903      1.811
REMARK INTER + INTRA:         -10.477
REMARK INTER:                  -8.431
REMARK INTRA:                  -2.046
REMARK UNBOUND:                -1.716
REMARK SMILES CCCCCCCCCCCCCC[C@H](C)C(=O)[O-]
REMARK SMILES IDX 9 1 10 2 11 3 12 4 13 5 14 6 15 7 16 8 17 9 18 10 19 11 8 12
REMARK SMILES IDX 7 13 6 14 5 15 4 16 3 17 2 18 1 19
REMARK H PARENT
REMARK Flexibility Score: inf
ROOT
ATOM      1  C   UNL     1      -8.061   6.971  29.267  1.00  0.00     0.000 C 
ENDROOT
BRANCH   1   2
ATOM      2  C   UNL     1      -6.805   6.838  30.148  1.00  0.00     0.000 C 
BRANCH   2   3
ATOM      3  C   UNL     1      -6.110   8.164  30.503  1.00  0.00     0.000 C 
BRANCH   3   4
ATOM      4  C   UNL     1      -4.578   8.037  30.579  1.00  0.00     0.000 C 
BRANCH   4   5
ATOM      5  C   UNL     1      -4.119   6.591  30.826  1.00  0.00     0.001 C 
BRANCH   5   6
ATOM      6  C   UNL     1      -3.979   6.258  32.323  1.00  0.00     0.009 C 
BRANCH   6   7
ATOM      7  C   UNL     1      -4.120   4.747  32.597  1.00  0.00     0.032 C 
ATOM      8  C   UNL     1      -5.223   4.141  31.723  1.00  0.00     0.014 C 
BRANCH   7   9
ATOM      9  C   UNL     1      -4.419   4.481  34.048  1.00  0.00     0.044 C 
ATOM     10  O   UNL     1      -4.752   5.428  34.809  1.00  0.00    -0.550 OA
ATOM     11  O   UNL     1      -4.325   3.191  34.560  1.00  0.00    -0.550 OA
ENDBRANCH   7   9
ENDBRANCH   6   7
ENDBRANCH   5   6
ENDBRANCH   4   5
ENDBRANCH   3   4
ENDBRANCH   2   3
ENDBRANCH   1   2
BRANCH   1  12
ATOM     12  C   UNL     1      -7.906   6.300  27.895  1.00  0.00     0.000 C 
BRANCH  12  13
ATOM     13  C   UNL     1      -6.588   5.523  27.809  1.00  0.00    -0.000 C 
BRANCH  13  14
ATOM     14  C   UNL     1      -5.700   6.067  26.679  1.00  0.00    -0.000 C 
BRANCH  14  15
ATOM     15  C   UNL     1      -4.476   6.834  27.202  1.00  0.00    -0.000 C 
BRANCH  15  16
ATOM     16  C   UNL     1      -4.482   8.313  26.785  1.00  0.00    -0.000 C 
BRANCH  16  17
ATOM     17  C   UNL     1      -5.701   8.628  25.903  1.00  0.00    -0.000 C 
BRANCH  17  18
ATOM     18  C   UNL     1      -5.311   8.976  24.459  1.00  0.00    -0.003 C 
ATOM     19  C   UNL     1      -5.915   8.016  23.435  1.00  0.00     0.004 C 
ENDBRANCH  17  18
ENDBRANCH  16  17
ENDBRANCH  15  16
ENDBRANCH  14  15
ENDBRANCH  13  14
ENDBRANCH  12  13
ENDBRANCH   1  12
TORSDOF 14
ENDMDL
MODEL 3
REMARK VINA RESULT:    -4.778     15.350     18.014
REMARK INTER + INTRA:         -10.405
REMARK INTER:                  -8.208
REMARK INTRA:                  -2.197
REMARK UNBOUND:                -1.716
REMARK SMILES CCCCCCCCCCCCCC[C@H](C)C(=O)[O-]
REMARK SMILES IDX 9 1 10 2 11 3 12 4 13 5 14 6 15 7 16 8 17 9 18 10 19 11 8 12
REMARK SMILES IDX 7 13 6 14 5 15 4 16 3 17 2 18 1 19
REMARK H PARENT
REMARK Flexibility Score: inf
ROOT
ATOM      1  C   UNL     1     -19.763   1.224  28.384  1.00  0.00     0.000 C 
ENDROOT
BRANCH   1   2
ATOM      2  C   UNL     1     -20.773   1.517  27.260  1.00  0.00     0.000 C 
BRANCH   2   3
ATOM      3  C   UNL     1     -20.833   0.462  26.141  1.00  0.00     0.000 C 
BRANCH   3   4
ATOM      4  C   UNL     1     -22.272   0.121  25.715  1.00  0.00     0.000 C 
BRANCH   4   5
ATOM      5  C   UNL     1     -23.227  -0.004  26.913  1.00  0.00     0.001 C 
BRANCH   5   6
ATOM      6  C   UNL     1     -23.123  -1.371  27.617  1.00  0.00     0.009 C 
BRANCH   6   7
ATOM      7  C   UNL     1     -23.615  -1.309  29.078  1.00  0.00     0.032 C 
ATOM      8  C   UNL     1     -23.050  -0.073  29.785  1.00  0.00     0.014 C 
BRANCH   7   9
ATOM      9  C   UNL     1     -23.227  -2.550  29.836  1.00  0.00     0.044 C 
ATOM     10  O   UNL     1     -22.745  -3.540  29.225  1.00  0.00    -0.550 OA
ATOM     11  O   UNL     1     -23.399  -2.614  31.215  1.00  0.00    -0.550 OA
ENDBRANCH   7   9
ENDBRANCH   6   7
ENDBRANCH   5   6
ENDBRANCH   4   5
ENDBRANCH   3   4
ENDBRANCH   2   3
ENDBRANCH   1   2
BRANCH   1  12
ATOM     12  C   UNL     1     -18.543   0.425  27.902  1.00  0.00     0.000 C 
BRANCH  12  13
ATOM     13  C   UNL     1     -18.328  -0.824  28.764  1.00  0.00    -0.000 C 
BRANCH  13  14
ATOM     14  C   UNL     1     -19.665  -1.376  29.279  1.00  0.00    -0.000 C 
BRANCH  14  15
ATOM     15  C   UNL     1     -19.487  -2.528  30.279  1.00  0.00    -0.000 C 
BRANCH  15  16
ATOM     16  C   UNL     1     -18.010  -2.818  30.590  1.00  0.00    -0.000 C 
BRANCH  16  17
ATOM     17  C   UNL     1     -17.709  -2.583  32.079  1.00  0.00    -0.000 C 
BRANCH  17  18
ATOM     18  C   UNL     1     -17.109  -1.194  32.348  1.00  0.00    -0.003 C 
ATOM     19  C   UNL     1     -15.882  -0.902  31.485  1.00  0.00     0.004 C 
ENDBRANCH  17  18
ENDBRANCH  16  17
ENDBRANCH  15  16
ENDBRANCH  14  15
ENDBRANCH  13  14
ENDBRANCH  12  13
ENDBRANCH   1  12
TORSDOF 14
ENDMDL
MODEL 4
REMARK VINA RESULT:    -4.774      2.036      4.047
REMARK INTER + INTRA:         -10.398
REMARK INTER:                  -8.710
REMARK INTRA:                  -1.688
REMARK UNBOUND:                -1.716
REMARK SMILES CCCCCCCCCCCCCC[C@H](C)C(=O)[O-]
REMARK SMILES IDX 9 1 10 2 11 3 12 4 13 5 14 6 15 7 16 8 17 9 18 10 19 11 8 12
REMARK SMILES IDX 7 13 6 14 5 15 4 16 3 17 2 18 1 19
REMARK H PARENT
REMARK Flexibility Score: inf
ROOT
ATOM      1  C   UNL     1      -4.471   7.762  23.845  1.00  0.00     0.000 C 
ENDROOT
BRANCH   1   2
ATOM      2  C   UNL     1      -4.251   8.353  25.250  1.00  0.00     0.000 C 
BRANCH   2   3
ATOM      3  C   UNL     1      -4.055   7.318  26.373  1.00  0.00     0.000 C 
BRANCH   3   4
ATOM      4  C   UNL     1      -5.290   6.425  26.587  1.00  0.00     0.000 C 
BRANCH   4   5
ATOM      5  C   UNL     1      -5.721   6.361  28.061  1.00  0.00     0.001 C 
BRANCH   5   6
ATOM      6  C   UNL     1      -4.633   6.875  29.023  1.00  0.00     0.009 C 
BRANCH   6   7
ATOM      7  C   UNL     1      -4.847   6.367  30.464  1.00  0.00     0.032 C 
ATOM      8  C   UNL     1      -5.833   5.195  30.482  1.00  0.00     0.014 C 
BRANCH   7   9
ATOM      9  C   UNL     1      -5.351   7.467  31.360  1.00  0.00     0.044 C 
ATOM     10  O   UNL     1      -6.122   8.352  30.903  1.00  0.00    -0.550 OA
ATOM     11  O   UNL     1      -4.966   7.518  32.695  1.00  0.00    -0.550 OA
ENDBRANCH   7   9
ENDBRANCH   6   7
ENDBRANCH   5   6
ENDBRANCH   4   5
ENDBRANCH   3   4
ENDBRANCH   2   3
ENDBRANCH   1   2
BRANCH   1  12
ATOM     12  C   UNL     1      -3.875   8.631  22.729  1.00  0.00     0.000 C 
BRANCH  12  13
ATOM     13  C   UNL     1      -4.174  10.116  22.968  1.00  0.00    -0.000 C 
BRANCH  13  14
ATOM     14  C   UNL     1      -5.350  10.588  22.100  1.00  0.00    -0.000 C 
BRANCH  14  15
ATOM     15  C   UNL     1      -6.449  11.285  22.917  1.00  0.00    -0.000 C 
BRANCH  15  16
ATOM     16  C   UNL     1      -7.030  10.384  24.017  1.00  0.00    -0.000 C 
BRANCH  16  17
ATOM     17  C   UNL     1      -7.811   9.209  23.407  1.00  0.00    -0.000 C 
BRANCH  17  18
ATOM     18  C   UNL     1      -8.720   8.510  24.430  1.00  0.00    -0.003 C 
ATOM     19  C   UNL     1      -8.186   8.604  25.858  1.00  0.00     0.004 C 
ENDBRANCH  17  18
ENDBRANCH  16  17
ENDBRANCH  15  16
ENDBRANCH  14  15
ENDBRANCH  13  14
ENDBRANCH  12  13
ENDBRANCH   1  12
TORSDOF 14
ENDMDL
MODEL 5
REMARK VINA RESULT:    -4.774      3.892      8.041
REMARK INTER + INTRA:         -10.397
REMARK INTER:                  -8.740
REMARK INTRA:                  -1.657
REMARK UNBOUND:                -1.716
REMARK SMILES CCCCCCCCCCCCCC[C@H](C)C(=O)[O-]
REMARK SMILES IDX 9 1 10 2 11 3 12 4 13 5 14 6 15 7 16 8 17 9 18 10 19 11 8 12
REMARK SMILES IDX 7 13 6 14 5 15 4 16 3 17 2 18 1 19
REMARK H PARENT
REMARK Flexibility Score: inf
ROOT
ATOM      1  C   UNL     1      -8.160   6.873  28.935  1.00  0.00     0.000 C 
ENDROOT
BRANCH   1   2
ATOM      2  C   UNL     1      -7.652   6.496  27.531  1.00  0.00     0.000 C 
BRANCH   2   3
ATOM      3  C   UNL     1      -6.260   5.840  27.493  1.00  0.00     0.000 C 
BRANCH   3   4
ATOM      4  C   UNL     1      -5.344   6.439  26.412  1.00  0.00     0.000 C 
BRANCH   4   5
ATOM      5  C   UNL     1      -5.095   7.942  26.619  1.00  0.00     0.001 C 
BRANCH   5   6
ATOM      6  C   UNL     1      -5.476   8.784  25.386  1.00  0.00     0.009 C 
BRANCH   6   7
ATOM      7  C   UNL     1      -6.408   8.017  24.426  1.00  0.00     0.032 C 
ATOM      8  C   UNL     1      -5.765   7.882  23.042  1.00  0.00     0.014 C 
BRANCH   7   9
ATOM      9  C   UNL     1      -7.744   8.700  24.301  1.00  0.00     0.044 C 
ATOM     10  O   UNL     1      -8.347   9.103  25.330  1.00  0.00    -0.550 OA
ATOM     11  O   UNL     1      -8.323   8.888  23.051  1.00  0.00    -0.550 OA
ENDBRANCH   7   9
ENDBRANCH   6   7
ENDBRANCH   5   6
ENDBRANCH   4   5
ENDBRANCH   3   4
ENDBRANCH   2   3
ENDBRANCH   1   2
BRANCH   1  12
ATOM     12  C   UNL     1      -7.110   6.653  30.033  1.00  0.00     0.000 C 
BRANCH  12  13
ATOM     13  C   UNL     1      -6.334   7.943  30.319  1.00  0.00    -0.000 C 
BRANCH  13  14
ATOM     14  C   UNL     1      -4.834   7.658  30.489  1.00  0.00    -0.000 C 
BRANCH  14  15
ATOM     15  C   UNL     1      -4.529   6.161  30.647  1.00  0.00    -0.000 C 
BRANCH  15  16
ATOM     16  C   UNL     1      -3.876   5.829  31.998  1.00  0.00    -0.000 C 
BRANCH  16  17
ATOM     17  C   UNL     1      -4.418   4.505  32.557  1.00  0.00    -0.000 C 
BRANCH  17  18
ATOM     18  C   UNL     1      -4.567   4.526  34.086  1.00  0.00    -0.003 C 
ATOM     19  C   UNL     1      -4.915   3.155  34.666  1.00  0.00     0.004 C 
ENDBRANCH  17  18
ENDBRANCH  16  17
ENDBRANCH  15  16
ENDBRANCH  14  15
ENDBRANCH  13  14
ENDBRANCH  12  13
ENDBRANCH   1  12
TORSDOF 14
ENDMDL
MODEL 6
REMARK VINA RESULT:    -4.740     15.295     17.658
REMARK INTER + INTRA:         -10.336
REMARK INTER:                  -8.472
REMARK INTRA:                  -1.864
REMARK UNBOUND:                -1.716
REMARK SMILES CCCCCCCCCCCCCC[C@H](C)C(=O)[O-]
REMARK SMILES IDX 9 1 10 2 11 3 12 4 13 5 14 6 15 7 16 8 17 9 18 10 19 11 8 12
REMARK SMILES IDX 7 13 6 14 5 15 4 16 3 17 2 18 1 19
REMARK H PARENT
REMARK Flexibility Score: inf
ROOT
ATOM      1  C   UNL     1     -20.608   0.623  26.354  1.00  0.00     0.000 C 
ENDROOT
BRANCH   1   2
ATOM      2  C   UNL     1     -21.984   0.089  26.794  1.00  0.00     0.000 C 
BRANCH   2   3
ATOM      3  C   UNL     1     -22.383   0.425  28.242  1.00  0.00     0.000 C 
BRANCH   3   4
ATOM      4  C   UNL     1     -22.885  -0.801  29.025  1.00  0.00     0.000 C 
BRANCH   4   5
ATOM      5  C   UNL     1     -21.751  -1.537  29.756  1.00  0.00     0.001 C 
BRANCH   5   6
ATOM      6  C   UNL     1     -21.916  -3.068  29.721  1.00  0.00     0.009 C 
BRANCH   6   7
ATOM      7  C   UNL     1     -20.946  -3.778  30.689  1.00  0.00     0.032 C 
ATOM      8  C   UNL     1     -20.177  -4.888  29.965  1.00  0.00     0.014 C 
BRANCH   7   9
ATOM      9  C   UNL     1     -21.680  -4.355  31.870  1.00  0.00     0.044 C 
ATOM     10  O   UNL     1     -22.939  -4.399  31.872  1.00  0.00    -0.550 OA
ATOM     11  O   UNL     1     -20.977  -4.841  32.966  1.00  0.00    -0.550 OA
ENDBRANCH   7   9
ENDBRANCH   6   7
ENDBRANCH   5   6
ENDBRANCH   4   5
ENDBRANCH   3   4
ENDBRANCH   2   3
ENDBRANCH   1   2
BRANCH   1  12
ATOM     12  C   UNL     1     -19.782   1.187  27.518  1.00  0.00     0.000 C 
BRANCH  12  13
ATOM     13  C   UNL     1     -18.473   0.408  27.693  1.00  0.00    -0.000 C 
BRANCH  13  14
ATOM     14  C   UNL     1     -18.395  -0.232  29.087  1.00  0.00    -0.000 C 
BRANCH  14  15
ATOM     15  C   UNL     1     -18.251  -1.761  29.032  1.00  0.00    -0.000 C 
BRANCH  15  16
ATOM     16  C   UNL     1     -17.492  -2.328  30.241  1.00  0.00    -0.000 C 
BRANCH  16  17
ATOM     17  C   UNL     1     -16.885  -1.197  31.086  1.00  0.00    -0.000 C 
BRANCH  17  18
ATOM     18  C   UNL     1     -17.208  -1.339  32.581  1.00  0.00    -0.003 C 
ATOM     19  C   UNL     1     -17.007  -2.762  33.098  1.00  0.00     0.004 C 
ENDBRANCH  17  18
ENDBRANCH  16  17
ENDBRANCH  15  16
ENDBRANCH  14  15
ENDBRANCH  13  14
ENDBRANCH  12  13
ENDBRANCH   1  12
TORSDOF 14
ENDMDL
MODEL 7
REMARK VINA RESULT:    -4.732     14.810     17.057
REMARK INTER + INTRA:         -10.321
REMARK INTER:                  -8.548
REMARK INTRA:                  -1.773
REMARK UNBOUND:                -1.716
REMARK SMILES CCCCCCCCCCCCCC[C@H](C)C(=O)[O-]
REMARK SMILES IDX 9 1 10 2 11 3 12 4 13 5 14 6 15 7 16 8 17 9 18 10 19 11 8 12
REMARK SMILES IDX 7 13 6 14 5 15 4 16 3 17 2 18 1 19
REMARK H PARENT
REMARK Flexibility Score: inf
ROOT
ATOM      1  C   UNL     1     -20.364   1.231  26.399  1.00  0.00     0.000 C 
ENDROOT
BRANCH   1   2
ATOM      2  C   UNL     1     -19.997   1.474  27.875  1.00  0.00     0.000 C 
BRANCH   2   3
ATOM      3  C   UNL     1     -19.788   0.202  28.716  1.00  0.00     0.000 C 
BRANCH   3   4
ATOM      4  C   UNL     1     -18.499  -0.554  28.348  1.00  0.00     0.000 C 
BRANCH   4   5
ATOM      5  C   UNL     1     -17.984  -1.434  29.499  1.00  0.00     0.001 C 
BRANCH   5   6
ATOM      6  C   UNL     1     -18.472  -0.955  30.879  1.00  0.00     0.009 C 
BRANCH   6   7
ATOM      7  C   UNL     1     -17.381  -1.099  31.961  1.00  0.00     0.032 C 
ATOM      8  C   UNL     1     -15.986  -1.028  31.333  1.00  0.00     0.014 C 
BRANCH   7   9
ATOM      9  C   UNL     1     -17.532  -2.391  32.719  1.00  0.00     0.044 C 
ATOM     10  O   UNL     1     -16.581  -2.827  33.419  1.00  0.00    -0.550 OA
ATOM     11  O   UNL     1     -18.718  -3.113  32.649  1.00  0.00    -0.550 OA
ENDBRANCH   7   9
ENDBRANCH   6   7
ENDBRANCH   5   6
ENDBRANCH   4   5
ENDBRANCH   3   4
ENDBRANCH   2   3
ENDBRANCH   1   2
BRANCH   1  12
ATOM     12  C   UNL     1     -21.239  -0.014  26.196  1.00  0.00     0.000 C 
BRANCH  12  13
ATOM     13  C   UNL     1     -22.603   0.362  25.607  1.00  0.00    -0.000 C 
BRANCH  13  14
ATOM     14  C   UNL     1     -23.745  -0.102  26.524  1.00  0.00    -0.000 C 
BRANCH  14  15
ATOM     15  C   UNL     1     -23.556   0.345  27.982  1.00  0.00    -0.000 C 
BRANCH  15  16
ATOM     16  C   UNL     1     -23.758  -0.802  28.983  1.00  0.00    -0.000 C 
BRANCH  16  17
ATOM     17  C   UNL     1     -22.876  -2.007  28.622  1.00  0.00    -0.000 C 
BRANCH  17  18
ATOM     18  C   UNL     1     -22.694  -2.980  29.796  1.00  0.00    -0.003 C 
ATOM     19  C   UNL     1     -21.226  -3.258  30.113  1.00  0.00     0.004 C 
ENDBRANCH  17  18
ENDBRANCH  16  17
ENDBRANCH  15  16
ENDBRANCH  14  15
ENDBRANCH  13  14
ENDBRANCH  12  13
ENDBRANCH   1  12
TORSDOF 14
ENDMDL
MODEL 8
REMARK VINA RESULT:    -4.718     15.360     17.819
REMARK INTER + INTRA:         -10.296
REMARK INTER:                  -8.405
REMARK INTRA:                  -1.891
REMARK UNBOUND:                -1.716
REMARK SMILES CCCCCCCCCCCCCC[C@H](C)C(=O)[O-]
REMARK SMILES IDX 9 1 10 2 11 3 12 4 13 5 14 6 15 7 16 8 17 9 18 10 19 11 8 12
REMARK SMILES IDX 7 13 6 14 5 15 4 16 3 17 2 18 1 19
REMARK H PARENT
REMARK Flexibility Score: inf
ROOT
ATOM      1  C   UNL     1     -20.587   0.758  26.359  1.00  0.00     0.000 C 
ENDROOT
BRANCH   1   2
ATOM      2  C   UNL     1     -21.863   0.061  25.852  1.00  0.00     0.000 C 
BRANCH   2   3
ATOM      3  C   UNL     1     -23.018  -0.012  26.868  1.00  0.00     0.000 C 
BRANCH   3   4
ATOM      4  C   UNL     1     -23.161  -1.401  27.514  1.00  0.00     0.000 C 
BRANCH   4   5
ATOM      5  C   UNL     1     -23.156  -1.338  29.050  1.00  0.00     0.001 C 
BRANCH   5   6
ATOM      6  C   UNL     1     -21.896  -1.975  29.668  1.00  0.00     0.009 C 
BRANCH   6   7
ATOM      7  C   UNL     1     -22.095  -3.473  29.974  1.00  0.00     0.032 C 
ATOM      8  C   UNL     1     -23.237  -3.672  30.976  1.00  0.00     0.014 C 
BRANCH   7   9
ATOM      9  C   UNL     1     -20.833  -4.092  30.514  1.00  0.00     0.044 C 
ATOM     10  O   UNL     1     -20.669  -4.210  31.757  1.00  0.00    -0.550 OA
ATOM     11  O   UNL     1     -19.840  -4.533  29.647  1.00  0.00    -0.550 OA
ENDBRANCH   7   9
ENDBRANCH   6   7
ENDBRANCH   5   6
ENDBRANCH   4   5
ENDBRANCH   3   4
ENDBRANCH   2   3
ENDBRANCH   1   2
BRANCH   1  12
ATOM     12  C   UNL     1     -20.733   1.315  27.783  1.00  0.00     0.000 C 
BRANCH  12  13
ATOM     13  C   UNL     1     -19.575   0.852  28.676  1.00  0.00    -0.000 C 
BRANCH  13  14
ATOM     14  C   UNL     1     -18.737  -0.228  27.975  1.00  0.00    -0.000 C 
BRANCH  14  15
ATOM     15  C   UNL     1     -18.429  -1.425  28.888  1.00  0.00    -0.000 C 
BRANCH  15  16
ATOM     16  C   UNL     1     -18.332  -1.030  30.370  1.00  0.00    -0.000 C 
BRANCH  16  17
ATOM     17  C   UNL     1     -16.881  -1.122  30.867  1.00  0.00    -0.000 C 
BRANCH  17  18
ATOM     18  C   UNL     1     -16.790  -1.427  32.370  1.00  0.00    -0.003 C 
ATOM     19  C   UNL     1     -17.760  -2.521  32.812  1.00  0.00     0.004 C 
ENDBRANCH  17  18
ENDBRANCH  16  17
ENDBRANCH  15  16
ENDBRANCH  14  15
ENDBRANCH  13  14
ENDBRANCH  12  13
ENDBRANCH   1  12
TORSDOF 14
ENDMDL
MODEL 9
REMARK VINA RESULT:    -4.692      4.160      8.280
REMARK INTER + INTRA:         -10.248
REMARK INTER:                  -8.685
REMARK INTRA:                  -1.563
REMARK UNBOUND:                -1.716
REMARK SMILES CCCCCCCCCCCCCC[C@H](C)C(=O)[O-]
REMARK SMILES IDX 9 1 10 2 11 3 12 4 13 5 14 6 15 7 16 8 17 9 18 10 19 11 8 12
REMARK SMILES IDX 7 13 6 14 5 15 4 16 3 17 2 18 1 19
REMARK H PARENT
REMARK Flexibility Score: inf
ROOT
ATOM      1  C   UNL     1      -8.013   7.001  27.261  1.00  0.00     0.000 C 
ENDROOT
BRANCH   1   2
ATOM      2  C   UNL     1      -7.089   7.659  26.220  1.00  0.00     0.000 C 
BRANCH   2   3
ATOM      3  C   UNL     1      -5.745   6.944  25.993  1.00  0.00     0.000 C 
BRANCH   3   4
ATOM      4  C   UNL     1      -4.545   7.909  25.996  1.00  0.00     0.000 C 
BRANCH   4   5
ATOM      5  C   UNL     1      -4.760   9.117  25.071  1.00  0.00     0.001 C 
BRANCH   5   6
ATOM      6  C   UNL     1      -4.350   8.832  23.614  1.00  0.00     0.009 C 
BRANCH   6   7
ATOM      7  C   UNL     1      -5.418   9.308  22.607  1.00  0.00     0.032 C 
ATOM      8  C   UNL     1      -5.806  10.765  22.882  1.00  0.00     0.014 C 
BRANCH   7   9
ATOM      9  C   UNL     1      -6.644   8.437  22.661  1.00  0.00     0.044 C 
ATOM     10  O   UNL     1      -6.576   7.227  22.317  1.00  0.00    -0.550 OA
ATOM     11  O   UNL     1      -7.861   8.961  23.085  1.00  0.00    -0.550 OA
ENDBRANCH   7   9
ENDBRANCH   6   7
ENDBRANCH   5   6
ENDBRANCH   4   5
ENDBRANCH   3   4
ENDBRANCH   2   3
ENDBRANCH   1   2
BRANCH   1  12
ATOM     12  C   UNL     1      -7.252   6.146  28.284  1.00  0.00     0.000 C 
BRANCH  12  13
ATOM     13  C   UNL     1      -7.349   6.751  29.689  1.00  0.00    -0.000 C 
BRANCH  13  14
ATOM     14  C   UNL     1      -6.067   7.516  30.050  1.00  0.00    -0.000 C 
BRANCH  14  15
ATOM     15  C   UNL     1      -4.801   6.657  29.899  1.00  0.00    -0.000 C 
BRANCH  15  16
ATOM     16  C   UNL     1      -4.014   6.527  31.212  1.00  0.00    -0.000 C 
BRANCH  16  17
ATOM     17  C   UNL     1      -4.875   5.871  32.302  1.00  0.00    -0.000 C 
BRANCH  17  18
ATOM     18  C   UNL     1      -4.713   4.343  32.342  1.00  0.00    -0.003 C 
ATOM     19  C   UNL     1      -4.532   3.804  33.761  1.00  0.00     0.004 C 
ENDBRANCH  17  18
ENDBRANCH  16  17
ENDBRANCH  15  16
ENDBRANCH  14  15
ENDBRANCH  13  14
ENDBRANCH  12  13
ENDBRANCH   1  12
TORSDOF 14
ENDMDL
