MODEL 1
REMARK VINA RESULT:    -5.541      0.000      0.000
REMARK INTER + INTRA:          -6.089
REMARK INTER:                  -6.027
REMARK INTRA:                  -0.062
REMARK UNBOUND:                -0.062
REMARK SMILES COc1cc2ccc(=O)oc2cc1O
REMARK SMILES IDX 3 1 13 2 12 3 11 4 5 5 4 6 6 7 7 8 8 9 9 10 10 11 2 12 1 13
REMARK SMILES IDX 14 14
REMARK H PARENT 14 15
REMARK Flexibility Score: inf
ROOT
ATOM      1  C   UNL     1     -21.769  -2.254  21.506  1.00  0.00     0.161 A 
ATOM      2  C   UNL     1     -21.027  -3.411  21.819  1.00  0.00     0.161 A 
ATOM      3  C   UNL     1     -20.277  -4.056  20.829  1.00  0.00     0.098 A 
ATOM      4  C   UNL     1     -20.258  -3.564  19.523  1.00  0.00     0.142 A 
ATOM      5  C   UNL     1     -20.997  -2.408  19.199  1.00  0.00     0.022 A 
ATOM      6  C   UNL     1     -21.749  -1.757  20.187  1.00  0.00     0.062 A 
ATOM      7  C   UNL     1     -20.957  -1.939  17.882  1.00  0.00     0.019 A 
ATOM      8  C   UNL     1     -20.195  -2.621  16.934  1.00  0.00     0.094 A 
ATOM      9  C   UNL     1     -19.487  -3.761  17.329  1.00  0.00     0.336 A 
ATOM     10  O   UNL     1     -18.792  -4.391  16.489  1.00  0.00    -0.246 OA
ATOM     11  O   UNL     1     -19.542  -4.186  18.589  1.00  0.00    -0.423 OA
ENDROOT
BRANCH   1  12
ATOM     12  O   UNL     1     -22.509  -1.631  22.523  1.00  0.00    -0.493 OA
ATOM     13  C   UNL     1     -22.211  -0.350  23.069  1.00  0.00     0.278 C 
ENDBRANCH   1  12
BRANCH   2  14
ATOM     14  O   UNL     1     -21.021  -3.933  23.112  1.00  0.00    -0.504 OA
ATOM     15  H   UNL     1     -21.175  -4.916  23.299  1.00  0.00     0.293 HD
ENDBRANCH   2  14
TORSDOF 2
ENDMDL
MODEL 2
REMARK VINA RESULT:    -5.539     16.321     18.413
REMARK INTER + INTRA:          -6.086
REMARK INTER:                  -6.021
REMARK INTRA:                  -0.065
REMARK UNBOUND:                -0.062
REMARK SMILES COc1cc2ccc(=O)oc2cc1O
REMARK SMILES IDX 3 1 13 2 12 3 11 4 5 5 4 6 6 7 7 8 8 9 9 10 10 11 2 12 1 13
REMARK SMILES IDX 14 14
REMARK H PARENT 14 15
REMARK Flexibility Score: inf
ROOT
ATOM      1  C   UNL     1      -8.522  -4.767   5.536  1.00  0.00     0.161 A 
ATOM      2  C   UNL     1      -9.789  -4.565   6.119  1.00  0.00     0.161 A 
ATOM      3  C   UNL     1     -10.087  -5.120   7.369  1.00  0.00     0.098 A 
ATOM      4  C   UNL     1      -9.134  -5.880   8.050  1.00  0.00     0.142 A 
ATOM      5  C   UNL     1      -7.863  -6.089   7.476  1.00  0.00     0.022 A 
ATOM      6  C   UNL     1      -7.560  -5.534   6.225  1.00  0.00     0.062 A 
ATOM      7  C   UNL     1      -6.930  -6.855   8.182  1.00  0.00     0.019 A 
ATOM      8  C   UNL     1      -7.279  -7.386   9.423  1.00  0.00     0.094 A 
ATOM      9  C   UNL     1      -8.559  -7.137   9.930  1.00  0.00     0.336 A 
ATOM     10  O   UNL     1      -8.893  -7.607  11.049  1.00  0.00    -0.246 OA
ATOM     11  O   UNL     1      -9.427  -6.405   9.238  1.00  0.00    -0.423 OA
ENDROOT
BRANCH   1  12
ATOM     12  O   UNL     1      -8.256  -4.194   4.282  1.00  0.00    -0.493 OA
ATOM     13  C   UNL     1      -8.235  -4.914   3.054  1.00  0.00     0.278 C 
ENDBRANCH   1  12
BRANCH   2  14
ATOM     14  O   UNL     1     -10.767  -3.811   5.470  1.00  0.00    -0.504 OA
ATOM     15  H   UNL     1     -10.794  -3.714   4.462  1.00  0.00     0.293 HD
ENDBRANCH   2  14
TORSDOF 2
ENDMDL
MODEL 3
REMARK VINA RESULT:    -5.441      1.264      5.372
REMARK INTER + INTRA:          -5.980
REMARK INTER:                  -5.963
REMARK INTRA:                  -0.016
REMARK UNBOUND:                -0.062
REMARK SMILES COc1cc2ccc(=O)oc2cc1O
REMARK SMILES IDX 3 1 13 2 12 3 11 4 5 5 4 6 6 7 7 8 8 9 9 10 10 11 2 12 1 13
REMARK SMILES IDX 14 14
REMARK H PARENT 14 15
REMARK Flexibility Score: inf
ROOT
ATOM      1  C   UNL     1     -19.918  -3.547  17.946  1.00  0.00     0.161 A 
ATOM      2  C   UNL     1     -20.727  -2.421  17.689  1.00  0.00     0.161 A 
ATOM      3  C   UNL     1     -21.465  -1.834  18.723  1.00  0.00     0.098 A 
ATOM      4  C   UNL     1     -21.409  -2.356  20.017  1.00  0.00     0.142 A 
ATOM      5  C   UNL     1     -20.603  -3.482  20.284  1.00  0.00     0.022 A 
ATOM      6  C   UNL     1     -19.861  -4.073  19.252  1.00  0.00     0.062 A 
ATOM      7  C   UNL     1     -20.567  -3.981  21.590  1.00  0.00     0.019 A 
ATOM      8  C   UNL     1     -21.323  -3.358  22.582  1.00  0.00     0.094 A 
ATOM      9  C   UNL     1     -22.100  -2.245  22.243  1.00  0.00     0.336 A 
ATOM     10  O   UNL     1     -22.789  -1.668  23.125  1.00  0.00    -0.246 OA
ATOM     11  O   UNL     1     -22.115  -1.790  20.993  1.00  0.00    -0.423 OA
ENDROOT
BRANCH   1  12
ATOM     12  O   UNL     1     -19.189  -4.110  16.886  1.00  0.00    -0.493 OA
ATOM     13  C   UNL     1     -17.929  -3.631  16.426  1.00  0.00     0.278 C 
ENDBRANCH   1  12
BRANCH   2  14
ATOM     14  O   UNL     1     -20.808  -1.871  16.411  1.00  0.00    -0.504 OA
ATOM     15  H   UNL     1     -21.594  -2.048  15.795  1.00  0.00     0.293 HD
ENDBRANCH   2  14
TORSDOF 2
ENDMDL
MODEL 4
REMARK VINA RESULT:    -5.374      2.133      2.946
REMARK INTER + INTRA:          -5.907
REMARK INTER:                  -5.862
REMARK INTRA:                  -0.045
REMARK UNBOUND:                -0.062
REMARK SMILES COc1cc2ccc(=O)oc2cc1O
REMARK SMILES IDX 3 1 13 2 12 3 11 4 5 5 4 6 6 7 7 8 8 9 9 10 10 11 2 12 1 13
REMARK SMILES IDX 14 14
REMARK H PARENT 14 15
REMARK Flexibility Score: inf
ROOT
ATOM      1  C   UNL     1     -22.246   0.393  20.649  1.00  0.00     0.161 A 
ATOM      2  C   UNL     1     -21.923  -0.247  21.862  1.00  0.00     0.161 A 
ATOM      3  C   UNL     1     -21.473  -1.572  21.862  1.00  0.00     0.098 A 
ATOM      4  C   UNL     1     -21.339  -2.273  20.662  1.00  0.00     0.142 A 
ATOM      5  C   UNL     1     -21.660  -1.643  19.442  1.00  0.00     0.022 A 
ATOM      6  C   UNL     1     -22.110  -0.315  19.437  1.00  0.00     0.062 A 
ATOM      7  C   UNL     1     -21.516  -2.371  18.257  1.00  0.00     0.019 A 
ATOM      8  C   UNL     1     -21.064  -3.689  18.314  1.00  0.00     0.094 A 
ATOM      9  C   UNL     1     -20.765  -4.249  19.561  1.00  0.00     0.336 A 
ATOM     10  O   UNL     1     -20.356  -5.438  19.634  1.00  0.00    -0.246 OA
ATOM     11  O   UNL     1     -20.911  -3.534  20.673  1.00  0.00    -0.423 OA
ENDROOT
BRANCH   1  12
ATOM     12  O   UNL     1     -22.693   1.724  20.685  1.00  0.00    -0.493 OA
ATOM     13  C   UNL     1     -23.576   2.305  19.730  1.00  0.00     0.278 C 
ENDBRANCH   1  12
BRANCH   2  14
ATOM     14  O   UNL     1     -22.043   0.421  23.081  1.00  0.00    -0.504 OA
ATOM     15  H   UNL     1     -22.788   1.084  23.263  1.00  0.00     0.293 HD
ENDBRANCH   2  14
TORSDOF 2
ENDMDL
MODEL 5
REMARK VINA RESULT:    -5.270      2.338      4.020
REMARK INTER + INTRA:          -5.794
REMARK INTER:                  -5.729
REMARK INTRA:                  -0.064
REMARK UNBOUND:                -0.062
REMARK SMILES COc1cc2ccc(=O)oc2cc1O
REMARK SMILES IDX 3 1 13 2 12 3 11 4 5 5 4 6 6 7 7 8 8 9 9 10 10 11 2 12 1 13
REMARK SMILES IDX 14 14
REMARK H PARENT 14 15
REMARK Flexibility Score: inf
ROOT
ATOM      1  C   UNL     1     -22.461   0.871  21.748  1.00  0.00     0.161 A 
ATOM      2  C   UNL     1     -22.458   0.869  20.338  1.00  0.00     0.161 A 
ATOM      3  C   UNL     1     -22.101  -0.288  19.636  1.00  0.00     0.098 A 
ATOM      4  C   UNL     1     -21.743  -1.449  20.323  1.00  0.00     0.142 A 
ATOM      5  C   UNL     1     -21.742  -1.459  21.733  1.00  0.00     0.022 A 
ATOM      6  C   UNL     1     -22.100  -0.303  22.440  1.00  0.00     0.062 A 
ATOM      7  C   UNL     1     -21.379  -2.638  22.392  1.00  0.00     0.019 A 
ATOM      8  C   UNL     1     -21.031  -3.761  21.643  1.00  0.00     0.094 A 
ATOM      9  C   UNL     1     -21.054  -3.678  20.247  1.00  0.00     0.336 A 
ATOM     10  O   UNL     1     -20.743  -4.682  19.553  1.00  0.00    -0.246 OA
ATOM     11  O   UNL     1     -21.404  -2.544  19.645  1.00  0.00    -0.423 OA
ENDROOT
BRANCH   1  12
ATOM     12  O   UNL     1     -22.827   2.048  22.421  1.00  0.00    -0.493 OA
ATOM     13  C   UNL     1     -24.132   2.320  22.922  1.00  0.00     0.278 C 
ENDBRANCH   1  12
BRANCH   2  14
ATOM     14  O   UNL     1     -22.809   2.010  19.617  1.00  0.00    -0.504 OA
ATOM     15  H   UNL     1     -23.064   1.973  18.637  1.00  0.00     0.293 HD
ENDBRANCH   2  14
TORSDOF 2
ENDMDL
MODEL 6
REMARK VINA RESULT:    -5.224      2.196      3.283
REMARK INTER + INTRA:          -5.743
REMARK INTER:                  -5.700
REMARK INTRA:                  -0.044
REMARK UNBOUND:                -0.062
REMARK SMILES COc1cc2ccc(=O)oc2cc1O
REMARK SMILES IDX 3 1 13 2 12 3 11 4 5 5 4 6 6 7 7 8 8 9 9 10 10 11 2 12 1 13
REMARK SMILES IDX 14 14
REMARK H PARENT 14 15
REMARK Flexibility Score: inf
ROOT
ATOM      1  C   UNL     1     -20.504  -2.994  19.903  1.00  0.00     0.161 A 
ATOM      2  C   UNL     1     -19.506  -3.339  18.970  1.00  0.00     0.161 A 
ATOM      3  C   UNL     1     -19.640  -2.970  17.626  1.00  0.00     0.098 A 
ATOM      4  C   UNL     1     -20.762  -2.259  17.197  1.00  0.00     0.142 A 
ATOM      5  C   UNL     1     -21.766  -1.908  18.122  1.00  0.00     0.022 A 
ATOM      6  C   UNL     1     -21.636  -2.275  19.469  1.00  0.00     0.062 A 
ATOM      7  C   UNL     1     -22.877  -1.195  17.662  1.00  0.00     0.019 A 
ATOM      8  C   UNL     1     -22.961  -0.854  16.312  1.00  0.00     0.094 A 
ATOM      9  C   UNL     1     -21.926  -1.236  15.452  1.00  0.00     0.336 A 
ATOM     10  O   UNL     1     -21.982  -0.937  14.230  1.00  0.00    -0.246 OA
ATOM     11  O   UNL     1     -20.879  -1.913  15.916  1.00  0.00    -0.423 OA
ENDROOT
BRANCH   1  12
ATOM     12  O   UNL     1     -20.338  -3.378  21.243  1.00  0.00    -0.493 OA
ATOM     13  C   UNL     1     -21.376  -3.382  22.217  1.00  0.00     0.278 C 
ENDBRANCH   1  12
BRANCH   2  14
ATOM     14  O   UNL     1     -18.371  -4.050  19.361  1.00  0.00    -0.504 OA
ATOM     15  H   UNL     1     -17.916  -3.893  20.252  1.00  0.00     0.293 HD
ENDBRANCH   2  14
TORSDOF 2
ENDMDL
MODEL 7
REMARK VINA RESULT:    -5.027     17.093     18.202
REMARK INTER + INTRA:          -5.529
REMARK INTER:                  -5.481
REMARK INTRA:                  -0.048
REMARK UNBOUND:                -0.062
REMARK SMILES COc1cc2ccc(=O)oc2cc1O
REMARK SMILES IDX 3 1 13 2 12 3 11 4 5 5 4 6 6 7 7 8 8 9 9 10 10 11 2 12 1 13
REMARK SMILES IDX 14 14
REMARK H PARENT 14 15
REMARK Flexibility Score: inf
ROOT
ATOM      1  C   UNL     1      -8.173  -4.640   6.744  1.00  0.00     0.161 A 
ATOM      2  C   UNL     1      -9.538  -4.990   6.752  1.00  0.00     0.161 A 
ATOM      3  C   UNL     1      -9.956  -6.181   7.357  1.00  0.00     0.098 A 
ATOM      4  C   UNL     1      -9.027  -7.034   7.956  1.00  0.00     0.142 A 
ATOM      5  C   UNL     1      -7.659  -6.693   7.954  1.00  0.00     0.022 A 
ATOM      6  C   UNL     1      -7.236  -5.501   7.350  1.00  0.00     0.062 A 
ATOM      7  C   UNL     1      -6.753  -7.567   8.562  1.00  0.00     0.019 A 
ATOM      8  C   UNL     1      -7.223  -8.741   9.149  1.00  0.00     0.094 A 
ATOM      9  C   UNL     1      -8.595  -9.014   9.113  1.00  0.00     0.336 A 
ATOM     10  O   UNL     1      -9.039 -10.069   9.638  1.00  0.00    -0.246 OA
ATOM     11  O   UNL     1      -9.435  -8.165   8.528  1.00  0.00    -0.423 OA
ENDROOT
BRANCH   1  12
ATOM     12  O   UNL     1      -7.788  -3.437   6.130  1.00  0.00    -0.493 OA
ATOM     13  C   UNL     1      -6.813  -2.540   6.652  1.00  0.00     0.278 C 
ENDBRANCH   1  12
BRANCH   2  14
ATOM     14  O   UNL     1     -10.496  -4.165   6.164  1.00  0.00    -0.504 OA
ATOM     15  H   UNL     1     -10.734  -3.256   6.545  1.00  0.00     0.293 HD
ENDBRANCH   2  14
TORSDOF 2
ENDMDL
MODEL 8
REMARK VINA RESULT:    -4.591      2.018      5.181
REMARK INTER + INTRA:          -5.055
REMARK INTER:                  -5.011
REMARK INTRA:                  -0.044
REMARK UNBOUND:                -0.062
REMARK SMILES COc1cc2ccc(=O)oc2cc1O
REMARK SMILES IDX 3 1 13 2 12 3 11 4 5 5 4 6 6 7 7 8 8 9 9 10 10 11 2 12 1 13
REMARK SMILES IDX 14 14
REMARK H PARENT 14 15
REMARK Flexibility Score: inf
ROOT
ATOM      1  C   UNL     1     -21.385  -2.670  20.232  1.00  0.00     0.161 A 
ATOM      2  C   UNL     1     -21.422  -2.861  21.628  1.00  0.00     0.161 A 
ATOM      3  C   UNL     1     -21.793  -1.809  22.473  1.00  0.00     0.098 A 
ATOM      4  C   UNL     1     -22.129  -0.561  21.943  1.00  0.00     0.142 A 
ATOM      5  C   UNL     1     -22.096  -0.360  20.548  1.00  0.00     0.022 A 
ATOM      6  C   UNL     1     -21.725  -1.410  19.698  1.00  0.00     0.062 A 
ATOM      7  C   UNL     1     -22.438   0.901  20.049  1.00  0.00     0.019 A 
ATOM      8  C   UNL     1     -22.800   1.914  20.936  1.00  0.00     0.094 A 
ATOM      9  C   UNL     1     -22.810   1.641  22.308  1.00  0.00     0.336 A 
ATOM     10  O   UNL     1     -23.134   2.542  23.125  1.00  0.00    -0.246 OA
ATOM     11  O   UNL     1     -22.481   0.433  22.757  1.00  0.00    -0.423 OA
ENDROOT
BRANCH   1  12
ATOM     12  O   UNL     1     -21.010  -3.747  19.412  1.00  0.00    -0.493 OA
ATOM     13  C   UNL     1     -20.526  -3.617  18.079  1.00  0.00     0.278 C 
ENDBRANCH   1  12
BRANCH   2  14
ATOM     14  O   UNL     1     -21.093  -4.092  22.193  1.00  0.00    -0.504 OA
ATOM     15  H   UNL     1     -21.446  -4.383  23.098  1.00  0.00     0.293 HD
ENDBRANCH   2  14
TORSDOF 2
ENDMDL
MODEL 9
REMARK VINA RESULT:    -3.405      1.113      4.889
REMARK INTER + INTRA:          -3.765
REMARK INTER:                  -3.721
REMARK INTRA:                  -0.044
REMARK UNBOUND:                -0.062
REMARK SMILES COc1cc2ccc(=O)oc2cc1O
REMARK SMILES IDX 3 1 13 2 12 3 11 4 5 5 4 6 6 7 7 8 8 9 9 10 10 11 2 12 1 13
REMARK SMILES IDX 14 14
REMARK H PARENT 14 15
REMARK Flexibility Score: inf
ROOT
ATOM      1  C   UNL     1     -20.051  -2.760  17.126  1.00  0.00     0.161 A 
ATOM      2  C   UNL     1     -19.483  -3.952  17.619  1.00  0.00     0.161 A 
ATOM      3  C   UNL     1     -19.678  -4.325  18.954  1.00  0.00     0.098 A 
ATOM      4  C   UNL     1     -20.434  -3.522  19.810  1.00  0.00     0.142 A 
ATOM      5  C   UNL     1     -21.007  -2.328  19.327  1.00  0.00     0.022 A 
ATOM      6  C   UNL     1     -20.816  -1.950  17.990  1.00  0.00     0.062 A 
ATOM      7  C   UNL     1     -21.759  -1.545  20.208  1.00  0.00     0.019 A 
ATOM      8  C   UNL     1     -21.921  -1.963  21.528  1.00  0.00     0.094 A 
ATOM      9  C   UNL     1     -21.323  -3.160  21.937  1.00  0.00     0.336 A 
ATOM     10  O   UNL     1     -21.457  -3.555  23.125  1.00  0.00    -0.246 OA
ATOM     11  O   UNL     1     -20.612  -3.886  21.078  1.00  0.00    -0.423 OA
ENDROOT
BRANCH   1  12
ATOM     12  O   UNL     1     -19.838  -2.416  15.781  1.00  0.00    -0.493 OA
ATOM     13  C   UNL     1     -20.628  -1.483  15.051  1.00  0.00     0.278 C 
ENDBRANCH   1  12
BRANCH   2  14
ATOM     14  O   UNL     1     -18.722  -4.780  16.795  1.00  0.00    -0.504 OA
ATOM     15  H   UNL     1     -18.839  -4.797  15.789  1.00  0.00     0.293 HD
ENDBRANCH   2  14
TORSDOF 2
ENDMDL
