MODEL 1
REMARK VINA RESULT:    -7.132      0.000      0.000
REMARK INTER + INTRA:         -10.627
REMARK INTER:                 -10.050
REMARK INTRA:                  -0.577
REMARK UNBOUND:                -0.577
REMARK SMILES O=C(C=Cc1ccc(O)cc1)CC(=O)C=Cc1ccc(O)cc1
REMARK SMILES IDX 12 1 2 2 1 3 3 4 4 5 5 6 6 7 7 8 8 9 11 10 10 11 9 12 13 14
REMARK SMILES IDX 14 15 15 16 16 17 17 18 18 19 23 20 19 21 22 22 20 23 21 24
REMARK H PARENT 9 13 21 25
REMARK Flexibility Score: inf
ROOT
ATOM      1  C   UNL     1      -6.102  24.824  49.592  1.00  0.00     0.160 C 
ENDROOT
BRANCH   1   2
ATOM      2  C   UNL     1      -5.639  26.031  48.816  1.00  0.00     0.163 C 
ATOM      3  O   UNL     1      -4.424  26.363  48.885  1.00  0.00    -0.294 OA
BRANCH   2   4
ATOM      4  C   UNL     1      -6.547  26.858  47.990  1.00  0.00     0.048 C 
ATOM      5  C   UNL     1      -7.746  27.287  48.413  1.00  0.00     0.012 C 
BRANCH   5   6
ATOM      6  C   UNL     1      -8.662  28.113  47.587  1.00  0.00    -0.025 A 
ATOM      7  C   UNL     1      -8.127  29.195  46.868  1.00  0.00     0.012 A 
ATOM      8  C   UNL     1      -8.950  29.993  46.068  1.00  0.00     0.047 A 
ATOM      9  C   UNL     1     -10.316  29.716  45.966  1.00  0.00     0.115 A 
ATOM     10  C   UNL     1     -10.037  27.829  47.466  1.00  0.00     0.012 A 
ATOM     11  C   UNL     1     -10.856  28.630  46.664  1.00  0.00     0.047 A 
BRANCH   9  12
ATOM     12  O   UNL     1     -11.123  30.520  45.165  1.00  0.00    -0.508 OA
ATOM     13  H   UNL     1     -11.941  30.148  44.695  1.00  0.00     0.293 HD
ENDBRANCH   9  12
ENDBRANCH   5   6
ENDBRANCH   2   4
ENDBRANCH   1   2
BRANCH   1  14
ATOM     14  C   UNL     1      -4.952  24.020  50.153  1.00  0.00     0.163 C 
ATOM     15  O   UNL     1      -4.508  24.279  51.305  1.00  0.00    -0.294 OA
BRANCH  14  16
ATOM     16  C   UNL     1      -4.292  22.945  49.381  1.00  0.00     0.048 C 
ATOM     17  C   UNL     1      -4.915  22.224  48.435  1.00  0.00     0.012 C 
BRANCH  17  18
ATOM     18  C   UNL     1      -4.260  21.138  47.665  1.00  0.00    -0.025 A 
ATOM     19  C   UNL     1      -3.672  21.452  46.427  1.00  0.00     0.012 A 
ATOM     20  C   UNL     1      -4.173  19.815  48.143  1.00  0.00     0.012 A 
ATOM     21  C   UNL     1      -3.035  20.464  45.671  1.00  0.00     0.047 A 
ATOM     22  C   UNL     1      -3.534  18.829  47.383  1.00  0.00     0.047 A 
ATOM     23  C   UNL     1      -2.967  19.148  46.146  1.00  0.00     0.115 A 
BRANCH  23  24
ATOM     24  O   UNL     1      -2.336  18.155  45.401  1.00  0.00    -0.508 OA
ATOM     25  H   UNL     1      -1.772  18.380  44.589  1.00  0.00     0.293 HD
ENDBRANCH  23  24
ENDBRANCH  17  18
ENDBRANCH  14  16
ENDBRANCH   1  14
TORSDOF 8
ENDMDL
MODEL 2
REMARK VINA RESULT:    -7.058      3.896      6.963
REMARK INTER + INTRA:         -10.524
REMARK INTER:                  -9.016
REMARK INTRA:                  -1.507
REMARK UNBOUND:                -0.577
REMARK SMILES O=C(C=Cc1ccc(O)cc1)CC(=O)C=Cc1ccc(O)cc1
REMARK SMILES IDX 12 1 2 2 1 3 3 4 4 5 5 6 6 7 7 8 8 9 11 10 10 11 9 12 13 14
REMARK SMILES IDX 14 15 15 16 16 17 17 18 18 19 23 20 19 21 22 22 20 23 21 24
REMARK H PARENT 9 13 21 25
REMARK Flexibility Score: inf
ROOT
ATOM      1  C   UNL     1      -2.180  19.073  47.229  1.00  0.00     0.160 C 
ENDROOT
BRANCH   1   2
ATOM      2  C   UNL     1      -3.172  19.123  48.365  1.00  0.00     0.163 C 
ATOM      3  O   UNL     1      -3.325  18.094  49.077  1.00  0.00    -0.294 OA
BRANCH   2   4
ATOM      4  C   UNL     1      -3.991  20.317  48.670  1.00  0.00     0.048 C 
ATOM      5  C   UNL     1      -3.470  21.494  49.049  1.00  0.00     0.012 C 
BRANCH   5   6
ATOM      6  C   UNL     1      -4.287  22.693  49.361  1.00  0.00    -0.025 A 
ATOM      7  C   UNL     1      -4.041  23.381  50.561  1.00  0.00     0.012 A 
ATOM      8  C   UNL     1      -4.779  24.522  50.891  1.00  0.00     0.047 A 
ATOM      9  C   UNL     1      -5.765  24.998  50.024  1.00  0.00     0.115 A 
ATOM     10  C   UNL     1      -5.273  23.189  48.483  1.00  0.00     0.012 A 
ATOM     11  C   UNL     1      -6.008  24.330  48.817  1.00  0.00     0.047 A 
BRANCH   9  12
ATOM     12  O   UNL     1      -6.493  26.135  50.367  1.00  0.00    -0.508 OA
ATOM     13  H   UNL     1      -7.506  26.146  50.329  1.00  0.00     0.293 HD
ENDBRANCH   9  12
ENDBRANCH   5   6
ENDBRANCH   2   4
ENDBRANCH   1   2
BRANCH   1  14
ATOM     14  C   UNL     1      -2.782  19.511  45.915  1.00  0.00     0.163 C 
ATOM     15  O   UNL     1      -3.232  18.648  45.112  1.00  0.00    -0.294 OA
BRANCH  14  16
ATOM     16  C   UNL     1      -2.839  20.933  45.508  1.00  0.00     0.048 C 
ATOM     17  C   UNL     1      -1.906  21.836  45.849  1.00  0.00     0.012 C 
BRANCH  17  18
ATOM     18  C   UNL     1      -1.963  23.265  45.453  1.00  0.00    -0.025 A 
ATOM     19  C   UNL     1      -2.585  24.179  46.320  1.00  0.00     0.012 A 
ATOM     20  C   UNL     1      -1.385  23.745  44.259  1.00  0.00     0.012 A 
ATOM     21  C   UNL     1      -2.654  25.536  45.994  1.00  0.00     0.047 A 
ATOM     22  C   UNL     1      -1.456  25.105  43.937  1.00  0.00     0.047 A 
ATOM     23  C   UNL     1      -2.091  26.002  44.799  1.00  0.00     0.115 A 
BRANCH  23  24
ATOM     24  O   UNL     1      -2.154  27.353  44.463  1.00  0.00    -0.508 OA
ATOM     25  H   UNL     1      -2.976  27.911  44.666  1.00  0.00     0.293 HD
ENDBRANCH  23  24
ENDBRANCH  17  18
ENDBRANCH  14  16
ENDBRANCH   1  14
TORSDOF 8
ENDMDL
MODEL 3
REMARK VINA RESULT:    -7.029      0.144      9.242
REMARK INTER + INTRA:         -10.482
REMARK INTER:                  -9.881
REMARK INTRA:                  -0.601
REMARK UNBOUND:                -0.577
REMARK SMILES O=C(C=Cc1ccc(O)cc1)CC(=O)C=Cc1ccc(O)cc1
REMARK SMILES IDX 12 1 2 2 1 3 3 4 4 5 5 6 6 7 7 8 8 9 11 10 10 11 9 12 13 14
REMARK SMILES IDX 14 15 15 16 16 17 17 18 18 19 23 20 19 21 22 22 20 23 21 24
REMARK H PARENT 9 13 21 25
REMARK Flexibility Score: inf
ROOT
ATOM      1  C   UNL     1      -6.042  24.834  49.675  1.00  0.00     0.160 C 
ENDROOT
BRANCH   1   2
ATOM      2  C   UNL     1      -4.891  23.997  50.175  1.00  0.00     0.163 C 
ATOM      3  O   UNL     1      -4.429  24.233  51.324  1.00  0.00    -0.294 OA
BRANCH   2   4
ATOM      4  C   UNL     1      -4.265  22.923  49.373  1.00  0.00     0.048 C 
ATOM      5  C   UNL     1      -4.911  22.241  48.415  1.00  0.00     0.012 C 
BRANCH   5   6
ATOM      6  C   UNL     1      -4.288  21.160  47.612  1.00  0.00    -0.025 A 
ATOM      7  C   UNL     1      -3.682  21.495  46.390  1.00  0.00     0.012 A 
ATOM      8  C   UNL     1      -3.072  20.511  45.606  1.00  0.00     0.047 A 
ATOM      9  C   UNL     1      -3.050  19.181  46.035  1.00  0.00     0.115 A 
ATOM     10  C   UNL     1      -4.247  19.819  48.047  1.00  0.00     0.012 A 
ATOM     11  C   UNL     1      -3.637  18.839  47.259  1.00  0.00     0.047 A 
BRANCH   9  12
ATOM     12  O   UNL     1      -2.440  18.212  45.242  1.00  0.00    -0.508 OA
ATOM     13  H   UNL     1      -1.431  18.155  45.158  1.00  0.00     0.293 HD
ENDBRANCH   9  12
ENDBRANCH   5   6
ENDBRANCH   2   4
ENDBRANCH   1   2
BRANCH   1  14
ATOM     14  C   UNL     1      -5.593  25.943  48.752  1.00  0.00     0.163 C 
ATOM     15  O   UNL     1      -4.375  26.267  48.707  1.00  0.00    -0.294 OA
BRANCH  14  16
ATOM     16  C   UNL     1      -6.544  26.699  47.907  1.00  0.00     0.048 C 
ATOM     17  C   UNL     1      -7.531  27.461  48.405  1.00  0.00     0.012 C 
BRANCH  17  18
ATOM     18  C   UNL     1      -8.493  28.213  47.563  1.00  0.00    -0.025 A 
ATOM     19  C   UNL     1      -8.028  29.326  46.842  1.00  0.00     0.012 A 
ATOM     20  C   UNL     1      -9.844  27.831  47.429  1.00  0.00     0.012 A 
ATOM     21  C   UNL     1      -8.896  30.059  46.028  1.00  0.00     0.047 A 
ATOM     22  C   UNL     1     -10.708  28.568  46.612  1.00  0.00     0.047 A 
ATOM     23  C   UNL     1     -10.240  29.683  45.913  1.00  0.00     0.115 A 
BRANCH  23  24
ATOM     24  O   UNL     1     -11.114  30.407  45.105  1.00  0.00    -0.508 OA
ATOM     25  H   UNL     1     -11.380  30.076  44.184  1.00  0.00     0.293 HD
ENDBRANCH  23  24
ENDBRANCH  17  18
ENDBRANCH  14  16
ENDBRANCH   1  14
TORSDOF 8
ENDMDL
MODEL 4
REMARK VINA RESULT:    -7.020      3.910      7.381
REMARK INTER + INTRA:         -10.470
REMARK INTER:                  -8.959
REMARK INTRA:                  -1.511
REMARK UNBOUND:                -0.577
REMARK SMILES O=C(C=Cc1ccc(O)cc1)CC(=O)C=Cc1ccc(O)cc1
REMARK SMILES IDX 12 1 2 2 1 3 3 4 4 5 5 6 6 7 7 8 8 9 11 10 10 11 9 12 13 14
REMARK SMILES IDX 14 15 15 16 16 17 17 18 18 19 23 20 19 21 22 22 20 23 21 24
REMARK H PARENT 9 13 21 25
REMARK Flexibility Score: inf
ROOT
ATOM      1  C   UNL     1      -2.164  19.113  47.212  1.00  0.00     0.160 C 
ENDROOT
BRANCH   1   2
ATOM      2  C   UNL     1      -2.750  19.552  45.894  1.00  0.00     0.163 C 
ATOM      3  O   UNL     1      -3.204  18.672  45.113  1.00  0.00    -0.294 OA
BRANCH   2   4
ATOM      4  C   UNL     1      -2.798  20.966  45.461  1.00  0.00     0.048 C 
ATOM      5  C   UNL     1      -1.940  21.902  45.894  1.00  0.00     0.012 C 
BRANCH   5   6
ATOM      6  C   UNL     1      -1.988  23.323  45.467  1.00  0.00    -0.025 A 
ATOM      7  C   UNL     1      -2.576  24.264  46.329  1.00  0.00     0.012 A 
ATOM      8  C   UNL     1      -2.633  25.615  45.973  1.00  0.00     0.047 A 
ATOM      9  C   UNL     1      -2.095  26.047  44.758  1.00  0.00     0.115 A 
ATOM     10  C   UNL     1      -1.432  23.768  44.250  1.00  0.00     0.012 A 
ATOM     11  C   UNL     1      -1.492  25.120  43.899  1.00  0.00     0.047 A 
BRANCH   9  12
ATOM     12  O   UNL     1      -2.160  27.396  44.416  1.00  0.00    -0.508 OA
ATOM     13  H   UNL     1      -2.841  28.017  44.839  1.00  0.00     0.293 HD
ENDBRANCH   9  12
ENDBRANCH   5   6
ENDBRANCH   2   4
ENDBRANCH   1   2
BRANCH   1  14
ATOM     14  C   UNL     1      -3.183  19.116  48.328  1.00  0.00     0.163 C 
ATOM     15  O   UNL     1      -3.381  18.066  48.999  1.00  0.00    -0.294 OA
BRANCH  14  16
ATOM     16  C   UNL     1      -3.996  20.309  48.650  1.00  0.00     0.048 C 
ATOM     17  C   UNL     1      -3.467  21.483  49.032  1.00  0.00     0.012 C 
BRANCH  17  18
ATOM     18  C   UNL     1      -4.278  22.679  49.365  1.00  0.00    -0.025 A 
ATOM     19  C   UNL     1      -4.034  23.339  50.582  1.00  0.00     0.012 A 
ATOM     20  C   UNL     1      -5.256  23.201  48.494  1.00  0.00     0.012 A 
ATOM     21  C   UNL     1      -4.767  24.475  50.935  1.00  0.00     0.047 A 
ATOM     22  C   UNL     1      -5.986  24.339  48.851  1.00  0.00     0.047 A 
ATOM     23  C   UNL     1      -5.747  24.978  50.071  1.00  0.00     0.115 A 
BRANCH  23  24
ATOM     24  O   UNL     1      -6.484  26.110  50.412  1.00  0.00    -0.508 OA
ATOM     25  H   UNL     1      -6.032  26.995  50.610  1.00  0.00     0.293 HD
ENDBRANCH  23  24
ENDBRANCH  17  18
ENDBRANCH  14  16
ENDBRANCH   1  14
TORSDOF 8
ENDMDL
MODEL 5
REMARK VINA RESULT:    -6.852      3.900     10.303
REMARK INTER + INTRA:         -10.232
REMARK INTER:                  -9.400
REMARK INTRA:                  -0.832
REMARK UNBOUND:                -0.577
REMARK SMILES O=C(C=Cc1ccc(O)cc1)CC(=O)C=Cc1ccc(O)cc1
REMARK SMILES IDX 12 1 2 2 1 3 3 4 4 5 5 6 6 7 7 8 8 9 11 10 10 11 9 12 13 14
REMARK SMILES IDX 14 15 15 16 16 17 17 18 18 19 23 20 19 21 22 22 20 23 21 24
REMARK H PARENT 9 13 21 25
REMARK Flexibility Score: inf
ROOT
ATOM      1  C   UNL     1      -3.095  18.934  46.687  1.00  0.00     0.160 C 
ENDROOT
BRANCH   1   2
ATOM      2  C   UNL     1      -1.849  18.086  46.648  1.00  0.00     0.163 C 
ATOM      3  O   UNL     1      -1.955  16.874  46.316  1.00  0.00    -0.294 OA
BRANCH   2   4
ATOM      4  C   UNL     1      -0.508  18.603  46.999  1.00  0.00     0.048 C 
ATOM      5  C   UNL     1      -0.209  19.910  47.053  1.00  0.00     0.012 C 
BRANCH   5   6
ATOM      6  C   UNL     1       1.136  20.433  47.401  1.00  0.00    -0.025 A 
ATOM      7  C   UNL     1       2.242  19.575  47.280  1.00  0.00     0.012 A 
ATOM      8  C   UNL     1       3.529  20.028  47.585  1.00  0.00     0.047 A 
ATOM      9  C   UNL     1       3.731  21.345  48.005  1.00  0.00     0.115 A 
ATOM     10  C   UNL     1       1.349  21.765  47.809  1.00  0.00     0.012 A 
ATOM     11  C   UNL     1       2.638  22.213  48.113  1.00  0.00     0.047 A 
BRANCH   9  12
ATOM     12  O   UNL     1       5.019  21.782  48.307  1.00  0.00    -0.508 OA
ATOM     13  H   UNL     1       5.806  21.144  48.313  1.00  0.00     0.293 HD
ENDBRANCH   9  12
ENDBRANCH   5   6
ENDBRANCH   2   4
ENDBRANCH   1   2
BRANCH   1  14
ATOM     14  C   UNL     1      -3.622  19.125  48.090  1.00  0.00     0.163 C 
ATOM     15  O   UNL     1      -3.499  18.199  48.938  1.00  0.00    -0.294 OA
BRANCH  14  16
ATOM     16  C   UNL     1      -4.315  20.362  48.510  1.00  0.00     0.048 C 
ATOM     17  C   UNL     1      -3.673  21.487  48.863  1.00  0.00     0.012 C 
BRANCH  17  18
ATOM     18  C   UNL     1      -4.364  22.727  49.294  1.00  0.00    -0.025 A 
ATOM     19  C   UNL     1      -5.357  23.268  48.460  1.00  0.00     0.012 A 
ATOM     20  C   UNL     1      -4.089  23.360  50.524  1.00  0.00     0.012 A 
ATOM     21  C   UNL     1      -6.041  24.429  48.829  1.00  0.00     0.047 A 
ATOM     22  C   UNL     1      -4.778  24.522  50.889  1.00  0.00     0.047 A 
ATOM     23  C   UNL     1      -5.752  25.061  50.044  1.00  0.00     0.115 A 
BRANCH  23  24
ATOM     24  O   UNL     1      -6.427  26.220  50.423  1.00  0.00    -0.508 OA
ATOM     25  H   UNL     1      -7.433  26.300  50.329  1.00  0.00     0.293 HD
ENDBRANCH  23  24
ENDBRANCH  17  18
ENDBRANCH  14  16
ENDBRANCH   1  14
TORSDOF 8
ENDMDL
MODEL 6
REMARK VINA RESULT:    -6.831      3.864      7.219
REMARK INTER + INTRA:         -10.204
REMARK INTER:                  -9.392
REMARK INTRA:                  -0.812
REMARK UNBOUND:                -0.577
REMARK SMILES O=C(C=Cc1ccc(O)cc1)CC(=O)C=Cc1ccc(O)cc1
REMARK SMILES IDX 12 1 2 2 1 3 3 4 4 5 5 6 6 7 7 8 8 9 11 10 10 11 9 12 13 14
REMARK SMILES IDX 14 15 15 16 16 17 17 18 18 19 23 20 19 21 22 22 20 23 21 24
REMARK H PARENT 9 13 21 25
REMARK Flexibility Score: inf
ROOT
ATOM      1  C   UNL     1      -3.114  19.060  46.651  1.00  0.00     0.160 C 
ENDROOT
BRANCH   1   2
ATOM      2  C   UNL     1      -3.691  19.254  48.031  1.00  0.00     0.163 C 
ATOM      3  O   UNL     1      -3.611  18.304  48.857  1.00  0.00    -0.294 OA
BRANCH   2   4
ATOM      4  C   UNL     1      -4.365  20.500  48.458  1.00  0.00     0.048 C 
ATOM      5  C   UNL     1      -3.709  21.579  48.909  1.00  0.00     0.012 C 
BRANCH   5   6
ATOM      6  C   UNL     1      -4.382  22.830  49.342  1.00  0.00    -0.025 A 
ATOM      7  C   UNL     1      -5.394  23.365  48.529  1.00  0.00     0.012 A 
ATOM      8  C   UNL     1      -6.064  24.534  48.903  1.00  0.00     0.047 A 
ATOM      9  C   UNL     1      -5.738  25.179  50.099  1.00  0.00     0.115 A 
ATOM     10  C   UNL     1      -4.071  23.477  50.556  1.00  0.00     0.012 A 
ATOM     11  C   UNL     1      -4.742  24.645  50.926  1.00  0.00     0.047 A 
BRANCH   9  12
ATOM     12  O   UNL     1      -6.413  26.344  50.459  1.00  0.00    -0.508 OA
ATOM     13  H   UNL     1      -6.235  26.807  51.342  1.00  0.00     0.293 HD
ENDBRANCH   9  12
ENDBRANCH   5   6
ENDBRANCH   2   4
ENDBRANCH   1   2
BRANCH   1  14
ATOM     14  C   UNL     1      -1.897  18.165  46.652  1.00  0.00     0.163 C 
ATOM     15  O   UNL     1      -2.015  16.945  46.358  1.00  0.00    -0.294 OA
BRANCH  14  16
ATOM     16  C   UNL     1      -0.553  18.663  47.022  1.00  0.00     0.048 C 
ATOM     17  C   UNL     1      -0.226  19.964  47.042  1.00  0.00     0.012 C 
BRANCH  17  18
ATOM     18  C   UNL     1       1.122  20.468  47.402  1.00  0.00    -0.025 A 
ATOM     19  C   UNL     1       2.221  19.603  47.263  1.00  0.00     0.012 A 
ATOM     20  C   UNL     1       1.346  21.788  47.843  1.00  0.00     0.012 A 
ATOM     21  C   UNL     1       3.512  20.036  47.581  1.00  0.00     0.047 A 
ATOM     22  C   UNL     1       2.640  22.217  48.159  1.00  0.00     0.047 A 
ATOM     23  C   UNL     1       3.724  21.344  48.033  1.00  0.00     0.115 A 
BRANCH  23  24
ATOM     24  O   UNL     1       5.006  21.787  48.354  1.00  0.00    -0.508 OA
ATOM     25  H   UNL     1       5.810  21.175  48.282  1.00  0.00     0.293 HD
ENDBRANCH  23  24
ENDBRANCH  17  18
ENDBRANCH  14  16
ENDBRANCH   1  14
TORSDOF 8
ENDMDL
MODEL 7
REMARK VINA RESULT:    -6.820      4.454      7.354
REMARK INTER + INTRA:         -10.189
REMARK INTER:                  -9.564
REMARK INTRA:                  -0.625
REMARK UNBOUND:                -0.577
REMARK SMILES O=C(C=Cc1ccc(O)cc1)CC(=O)C=Cc1ccc(O)cc1
REMARK SMILES IDX 12 1 2 2 1 3 3 4 4 5 5 6 6 7 7 8 8 9 11 10 10 11 9 12 13 14
REMARK SMILES IDX 14 15 15 16 16 17 17 18 18 19 23 20 19 21 22 22 20 23 21 24
REMARK H PARENT 9 13 21 25
REMARK Flexibility Score: inf
ROOT
ATOM      1  C   UNL     1      -2.518  19.207  47.079  1.00  0.00     0.160 C 
ENDROOT
BRANCH   1   2
ATOM      2  C   UNL     1      -3.099  19.468  48.446  1.00  0.00     0.163 C 
ATOM      3  O   UNL     1      -2.856  18.647  49.372  1.00  0.00    -0.294 OA
BRANCH   2   4
ATOM      4  C   UNL     1      -3.960  20.633  48.749  1.00  0.00     0.048 C 
ATOM      5  C   UNL     1      -3.482  21.827  49.132  1.00  0.00     0.012 C 
BRANCH   5   6
ATOM      6  C   UNL     1      -4.342  22.996  49.442  1.00  0.00    -0.025 A 
ATOM      7  C   UNL     1      -4.135  23.681  50.651  1.00  0.00     0.012 A 
ATOM      8  C   UNL     1      -4.914  24.795  50.979  1.00  0.00     0.047 A 
ATOM      9  C   UNL     1      -5.902  25.247  50.100  1.00  0.00     0.115 A 
ATOM     10  C   UNL     1      -5.329  23.468  48.553  1.00  0.00     0.012 A 
ATOM     11  C   UNL     1      -6.105  24.582  48.885  1.00  0.00     0.047 A 
BRANCH   9  12
ATOM     12  O   UNL     1      -6.670  26.358  50.441  1.00  0.00    -0.508 OA
ATOM     13  H   UNL     1      -7.404  26.300  51.139  1.00  0.00     0.293 HD
ENDBRANCH   9  12
ENDBRANCH   5   6
ENDBRANCH   2   4
ENDBRANCH   1   2
BRANCH   1  14
ATOM     14  C   UNL     1      -1.272  20.021  46.815  1.00  0.00     0.163 C 
ATOM     15  O   UNL     1      -1.374  21.201  46.382  1.00  0.00    -0.294 OA
BRANCH  14  16
ATOM     16  C   UNL     1       0.086  19.470  47.016  1.00  0.00     0.048 C 
ATOM     17  C   UNL     1       1.208  20.131  46.690  1.00  0.00     0.012 C 
BRANCH  17  18
ATOM     18  C   UNL     1       2.572  19.579  46.880  1.00  0.00    -0.025 A 
ATOM     19  C   UNL     1       3.097  18.729  45.892  1.00  0.00     0.012 A 
ATOM     20  C   UNL     1       3.374  19.905  47.994  1.00  0.00     0.012 A 
ATOM     21  C   UNL     1       4.381  18.193  46.023  1.00  0.00     0.047 A 
ATOM     22  C   UNL     1       4.659  19.366  48.120  1.00  0.00     0.047 A 
ATOM     23  C   UNL     1       5.165  18.508  47.140  1.00  0.00     0.115 A 
BRANCH  23  24
ATOM     24  O   UNL     1       6.446  17.980  47.282  1.00  0.00    -0.508 OA
ATOM     25  H   UNL     1       6.845  17.798  48.196  1.00  0.00     0.293 HD
ENDBRANCH  23  24
ENDBRANCH  17  18
ENDBRANCH  14  16
ENDBRANCH   1  14
TORSDOF 8
ENDMDL
MODEL 8
REMARK VINA RESULT:    -6.747      3.852      9.379
REMARK INTER + INTRA:         -10.086
REMARK INTER:                  -8.774
REMARK INTRA:                  -1.311
REMARK UNBOUND:                -0.577
REMARK SMILES O=C(C=Cc1ccc(O)cc1)CC(=O)C=Cc1ccc(O)cc1
REMARK SMILES IDX 12 1 2 2 1 3 3 4 4 5 5 6 6 7 7 8 8 9 11 10 10 11 9 12 13 14
REMARK SMILES IDX 14 15 15 16 16 17 17 18 18 19 23 20 19 21 22 22 20 23 21 24
REMARK H PARENT 9 13 21 25
REMARK Flexibility Score: inf
ROOT
ATOM      1  C   UNL     1      -3.034  19.310  46.302  1.00  0.00     0.160 C 
ENDROOT
BRANCH   1   2
ATOM      2  C   UNL     1      -1.648  18.833  46.659  1.00  0.00     0.163 C 
ATOM      3  O   UNL     1      -1.301  17.673  46.307  1.00  0.00    -0.294 OA
BRANCH   2   4
ATOM      4  C   UNL     1      -0.682  19.655  47.421  1.00  0.00     0.048 C 
ATOM      5  C   UNL     1      -0.593  20.989  47.308  1.00  0.00     0.012 C 
BRANCH   5   6
ATOM      6  C   UNL     1       0.377  21.816  48.067  1.00  0.00    -0.025 A 
ATOM      7  C   UNL     1      -0.103  22.634  49.103  1.00  0.00     0.012 A 
ATOM      8  C   UNL     1       0.776  23.422  49.852  1.00  0.00     0.047 A 
ATOM      9  C   UNL     1       2.147  23.396  49.585  1.00  0.00     0.115 A 
ATOM     10  C   UNL     1       1.764  21.782  47.814  1.00  0.00     0.012 A 
ATOM     11  C   UNL     1       2.639  22.571  48.566  1.00  0.00     0.047 A 
BRANCH   9  12
ATOM     12  O   UNL     1       3.011  24.186  50.340  1.00  0.00    -0.508 OA
ATOM     13  H   UNL     1       3.603  23.786  51.058  1.00  0.00     0.293 HD
ENDBRANCH   9  12
ENDBRANCH   5   6
ENDBRANCH   2   4
ENDBRANCH   1   2
BRANCH   1  14
ATOM     14  C   UNL     1      -3.961  19.340  47.495  1.00  0.00     0.163 C 
ATOM     15  O   UNL     1      -4.287  18.263  48.064  1.00  0.00    -0.294 OA
BRANCH  14  16
ATOM     16  C   UNL     1      -4.538  20.600  48.013  1.00  0.00     0.048 C 
ATOM     17  C   UNL     1      -3.824  21.523  48.677  1.00  0.00     0.012 C 
BRANCH  17  18
ATOM     18  C   UNL     1      -4.401  22.783  49.207  1.00  0.00    -0.025 A 
ATOM     19  C   UNL     1      -5.417  23.418  48.472  1.00  0.00     0.012 A 
ATOM     20  C   UNL     1      -3.995  23.346  50.434  1.00  0.00     0.012 A 
ATOM     21  C   UNL     1      -5.997  24.602  48.936  1.00  0.00     0.047 A 
ATOM     22  C   UNL     1      -4.579  24.531  50.895  1.00  0.00     0.047 A 
ATOM     23  C   UNL     1      -5.577  25.163  50.149  1.00  0.00     0.115 A 
BRANCH  23  24
ATOM     24  O   UNL     1      -6.147  26.344  50.622  1.00  0.00    -0.508 OA
ATOM     25  H   UNL     1      -6.552  27.025  49.990  1.00  0.00     0.293 HD
ENDBRANCH  23  24
ENDBRANCH  17  18
ENDBRANCH  14  16
ENDBRANCH   1  14
TORSDOF 8
ENDMDL
MODEL 9
REMARK VINA RESULT:    -6.682      3.849      7.105
REMARK INTER + INTRA:          -9.994
REMARK INTER:                  -9.210
REMARK INTRA:                  -0.784
REMARK UNBOUND:                -0.577
REMARK SMILES O=C(C=Cc1ccc(O)cc1)CC(=O)C=Cc1ccc(O)cc1
REMARK SMILES IDX 12 1 2 2 1 3 3 4 4 5 5 6 6 7 7 8 8 9 11 10 10 11 9 12 13 14
REMARK SMILES IDX 14 15 15 16 16 17 17 18 18 19 23 20 19 21 22 22 20 23 21 24
REMARK H PARENT 9 13 21 25
REMARK Flexibility Score: inf
ROOT
ATOM      1  C   UNL     1      -6.244  24.546  49.313  1.00  0.00     0.160 C 
ENDROOT
BRANCH   1   2
ATOM      2  C   UNL     1      -5.595  25.642  50.121  1.00  0.00     0.163 C 
ATOM      3  O   UNL     1      -6.234  26.714  50.305  1.00  0.00    -0.294 OA
BRANCH   2   4
ATOM      4  C   UNL     1      -4.235  25.528  50.693  1.00  0.00     0.048 C 
ATOM      5  C   UNL     1      -3.958  24.841  51.811  1.00  0.00     0.012 C 
BRANCH   5   6
ATOM      6  C   UNL     1      -2.596  24.728  52.390  1.00  0.00    -0.025 A 
ATOM      7  C   UNL     1      -1.763  23.685  51.951  1.00  0.00     0.012 A 
ATOM      8  C   UNL     1      -0.468  23.547  52.460  1.00  0.00     0.047 A 
ATOM      9  C   UNL     1       0.016  24.453  53.407  1.00  0.00     0.115 A 
ATOM     10  C   UNL     1      -2.095  25.648  53.334  1.00  0.00     0.012 A 
ATOM     11  C   UNL     1      -0.799  25.505  53.841  1.00  0.00     0.047 A 
BRANCH   9  12
ATOM     12  O   UNL     1       1.308  24.302  53.907  1.00  0.00    -0.508 OA
ATOM     13  H   UNL     1       1.489  24.263  54.903  1.00  0.00     0.293 HD
ENDBRANCH   9  12
ENDBRANCH   5   6
ENDBRANCH   2   4
ENDBRANCH   1   2
BRANCH   1  14
ATOM     14  C   UNL     1      -5.351  24.037  48.205  1.00  0.00     0.163 C 
ATOM     15  O   UNL     1      -5.123  24.763  47.199  1.00  0.00    -0.294 OA
BRANCH  14  16
ATOM     16  C   UNL     1      -4.748  22.687  48.237  1.00  0.00     0.048 C 
ATOM     17  C   UNL     1      -4.755  21.849  47.188  1.00  0.00     0.012 C 
BRANCH  17  18
ATOM     18  C   UNL     1      -4.160  20.490  47.218  1.00  0.00    -0.025 A 
ATOM     19  C   UNL     1      -4.672  19.553  48.132  1.00  0.00     0.012 A 
ATOM     20  C   UNL     1      -3.130  20.093  46.341  1.00  0.00     0.012 A 
ATOM     21  C   UNL     1      -4.150  18.257  48.190  1.00  0.00     0.047 A 
ATOM     22  C   UNL     1      -2.612  18.795  46.402  1.00  0.00     0.047 A 
ATOM     23  C   UNL     1      -3.116  17.875  47.326  1.00  0.00     0.115 A 
BRANCH  23  24
ATOM     24  O   UNL     1      -2.588  16.587  47.375  1.00  0.00    -0.508 OA
ATOM     25  H   UNL     1      -2.852  15.934  48.103  1.00  0.00     0.293 HD
ENDBRANCH  23  24
ENDBRANCH  17  18
ENDBRANCH  14  16
ENDBRANCH   1  14
TORSDOF 8
ENDMDL
