MODEL 1
REMARK VINA RESULT:    -5.287      0.000      0.000
REMARK INTER + INTRA:          -5.287
REMARK INTER:                  -5.287
REMARK INTRA:                   0.000
REMARK UNBOUND:                 0.000
REMARK SMILES CC1=CC[C@]2(C)CCCC(C)(C)[C@@]23C[C@@H]13
REMARK SMILES IDX 1 1 2 2 3 3 4 4 5 5 7 6 8 7 9 8 10 9 13 10 15 11 14 12 11 13
REMARK SMILES IDX 12 14 6 15
REMARK H PARENT
REMARK Flexibility Score: inf
ROOT
ATOM      1  C   UNL     1       3.994  14.207   3.329  1.00  0.00     0.039 C 
ATOM      2  C   UNL     1       2.744  14.549   2.564  1.00  0.00    -0.074 C 
ATOM      3  C   UNL     1       1.575  14.047   2.982  1.00  0.00    -0.027 C 
ATOM      4  C   UNL     1       0.274  14.462   2.378  1.00  0.00     0.034 C 
ATOM      5  C   UNL     1       0.323  14.695   0.835  1.00  0.00    -0.022 C 
ATOM      6  C   UNL     1       0.246  13.313   0.135  1.00  0.00     0.008 C 
ATOM      7  C   UNL     1       0.413  13.389  -1.390  1.00  0.00     0.001 C 
ATOM      8  C   UNL     1       1.740  14.043  -1.788  1.00  0.00     0.007 C 
ATOM      9  C   UNL     1       1.962  15.466  -1.200  1.00  0.00    -0.029 C 
ATOM     10  C   UNL     1       1.637  15.435   0.357  1.00  0.00    -0.012 C 
ATOM     11  C   UNL     1       2.867  15.359   1.293  1.00  0.00     0.022 C 
ATOM     12  C   UNL     1       2.047  16.646   1.212  1.00  0.00     0.017 C 
ATOM     13  C   UNL     1       3.431  15.850  -1.550  1.00  0.00     0.012 C 
ATOM     14  C   UNL     1       1.065  16.500  -1.926  1.00  0.00     0.012 C 
ATOM     15  C   UNL     1      -0.946  15.530   0.507  1.00  0.00     0.012 C 
ENDROOT
TORSDOF 0
ENDMDL
MODEL 2
REMARK VINA RESULT:    -5.178      2.170      4.655
REMARK INTER + INTRA:          -5.178
REMARK INTER:                  -5.178
REMARK INTRA:                   0.000
REMARK UNBOUND:                 0.000
REMARK SMILES CC1=CC[C@]2(C)CCCC(C)(C)[C@@]23C[C@@H]13
REMARK SMILES IDX 1 1 2 2 3 3 4 4 5 5 7 6 8 7 9 8 10 9 13 10 15 11 14 12 11 13
REMARK SMILES IDX 12 14 6 15
REMARK H PARENT
REMARK Flexibility Score: inf
ROOT
ATOM      1  C   UNL     1      -0.084  14.299   6.927  1.00  0.00     0.039 C 
ATOM      2  C   UNL     1       0.934  13.823   5.927  1.00  0.00    -0.074 C 
ATOM      3  C   UNL     1       2.206  13.683   6.319  1.00  0.00    -0.027 C 
ATOM      4  C   UNL     1       3.244  13.069   5.439  1.00  0.00     0.034 C 
ATOM      5  C   UNL     1       3.108  13.436   3.928  1.00  0.00    -0.022 C 
ATOM      6  C   UNL     1       3.715  14.848   3.716  1.00  0.00     0.008 C 
ATOM      7  C   UNL     1       3.532  15.386   2.290  1.00  0.00     0.001 C 
ATOM      8  C   UNL     1       2.054  15.446   1.888  1.00  0.00     0.007 C 
ATOM      9  C   UNL     1       1.297  14.093   2.000  1.00  0.00    -0.029 C 
ATOM     10  C   UNL     1       1.609  13.446   3.420  1.00  0.00    -0.012 C 
ATOM     11  C   UNL     1       0.506  13.625   4.490  1.00  0.00     0.022 C 
ATOM     12  C   UNL     1       0.761  12.247   3.878  1.00  0.00     0.017 C 
ATOM     13  C   UNL     1      -0.206  14.420   1.751  1.00  0.00     0.012 C 
ATOM     14  C   UNL     1       1.722  13.135   0.858  1.00  0.00     0.012 C 
ATOM     15  C   UNL     1       3.952  12.373   3.171  1.00  0.00     0.012 C 
ENDROOT
TORSDOF 0
ENDMDL
MODEL 3
REMARK VINA RESULT:    -4.900      1.783      4.457
REMARK INTER + INTRA:          -4.900
REMARK INTER:                  -4.900
REMARK INTRA:                   0.000
REMARK UNBOUND:                 0.000
REMARK SMILES CC1=CC[C@]2(C)CCCC(C)(C)[C@@]23C[C@@H]13
REMARK SMILES IDX 1 1 2 2 3 3 4 4 5 5 7 6 8 7 9 8 10 9 13 10 15 11 14 12 11 13
REMARK SMILES IDX 12 14 6 15
REMARK H PARENT
REMARK Flexibility Score: inf
ROOT
ATOM      1  C   UNL     1       4.560  17.509   2.700  1.00  0.00     0.039 C 
ATOM      2  C   UNL     1       3.766  16.297   2.295  1.00  0.00    -0.074 C 
ATOM      3  C   UNL     1       3.098  16.322   1.136  1.00  0.00    -0.027 C 
ATOM      4  C   UNL     1       2.418  15.112   0.586  1.00  0.00     0.034 C 
ATOM      5  C   UNL     1       1.740  14.207   1.662  1.00  0.00    -0.022 C 
ATOM      6  C   UNL     1       0.377  14.843   2.040  1.00  0.00     0.008 C 
ATOM      7  C   UNL     1      -0.341  14.118   3.187  1.00  0.00     0.001 C 
ATOM      8  C   UNL     1       0.519  14.064   4.456  1.00  0.00     0.007 C 
ATOM      9  C   UNL     1       1.917  13.411   4.263  1.00  0.00    -0.029 C 
ATOM     10  C   UNL     1       2.607  14.045   2.977  1.00  0.00    -0.012 C 
ATOM     11  C   UNL     1       3.666  15.136   3.259  1.00  0.00     0.022 C 
ATOM     12  C   UNL     1       4.101  13.767   2.739  1.00  0.00     0.017 C 
ATOM     13  C   UNL     1       2.687  13.647   5.596  1.00  0.00     0.012 C 
ATOM     14  C   UNL     1       1.783  11.874   4.110  1.00  0.00     0.012 C 
ATOM     15  C   UNL     1       1.515  12.837   0.963  1.00  0.00     0.012 C 
ENDROOT
TORSDOF 0
ENDMDL
MODEL 4
REMARK VINA RESULT:    -4.798      1.445      2.001
REMARK INTER + INTRA:          -4.798
REMARK INTER:                  -4.798
REMARK INTRA:                   0.000
REMARK UNBOUND:                 0.000
REMARK SMILES CC1=CC[C@]2(C)CCCC(C)(C)[C@@]23C[C@@H]13
REMARK SMILES IDX 1 1 2 2 3 3 4 4 5 5 7 6 8 7 9 8 10 9 13 10 15 11 14 12 11 13
REMARK SMILES IDX 12 14 6 15
REMARK H PARENT
REMARK Flexibility Score: inf
ROOT
ATOM      1  C   UNL     1       1.832  13.451   3.643  1.00  0.00     0.039 C 
ATOM      2  C   UNL     1       0.784  14.068   2.757  1.00  0.00    -0.074 C 
ATOM      3  C   UNL     1      -0.475  14.143   3.204  1.00  0.00    -0.027 C 
ATOM      4  C   UNL     1      -1.539  14.878   2.457  1.00  0.00     0.034 C 
ATOM      5  C   UNL     1      -1.448  14.744   0.904  1.00  0.00    -0.022 C 
ATOM      6  C   UNL     1      -2.062  13.378   0.501  1.00  0.00     0.008 C 
ATOM      7  C   UNL     1      -1.922  13.061  -0.995  1.00  0.00     0.001 C 
ATOM      8  C   UNL     1      -0.457  13.068  -1.446  1.00  0.00     0.007 C 
ATOM      9  C   UNL     1       0.304  14.392  -1.153  1.00  0.00    -0.029 C 
ATOM     10  C   UNL     1       0.035  14.816   0.357  1.00  0.00    -0.012 C 
ATOM     11  C   UNL     1       1.169  14.483   1.354  1.00  0.00     0.022 C 
ATOM     12  C   UNL     1       0.897  15.936   0.965  1.00  0.00     0.017 C 
ATOM     13  C   UNL     1       1.798  14.112  -1.493  1.00  0.00     0.012 C 
ATOM     14  C   UNL     1      -0.155  15.509  -2.125  1.00  0.00     0.012 C 
ATOM     15  C   UNL     1      -2.314  15.905   0.341  1.00  0.00     0.012 C 
ENDROOT
TORSDOF 0
ENDMDL
MODEL 5
REMARK VINA RESULT:    -4.662      1.364      3.577
REMARK INTER + INTRA:          -4.662
REMARK INTER:                  -4.662
REMARK INTRA:                   0.000
REMARK UNBOUND:                 0.000
REMARK SMILES CC1=CC[C@]2(C)CCCC(C)(C)[C@@]23C[C@@H]13
REMARK SMILES IDX 1 1 2 2 3 3 4 4 5 5 7 6 8 7 9 8 10 9 13 10 15 11 14 12 11 13
REMARK SMILES IDX 12 14 6 15
REMARK H PARENT
REMARK Flexibility Score: inf
ROOT
ATOM      1  C   UNL     1      -2.876  15.679   2.724  1.00  0.00     0.039 C 
ATOM      2  C   UNL     1      -1.583  14.984   2.393  1.00  0.00    -0.074 C 
ATOM      3  C   UNL     1      -0.842  14.492   3.394  1.00  0.00    -0.027 C 
ATOM      4  C   UNL     1       0.368  13.655   3.145  1.00  0.00     0.034 C 
ATOM      5  C   UNL     1       1.220  14.099   1.915  1.00  0.00    -0.022 C 
ATOM      6  C   UNL     1       2.099  15.303   2.344  1.00  0.00     0.008 C 
ATOM      7  C   UNL     1       2.898  15.922   1.189  1.00  0.00     0.001 C 
ATOM      8  C   UNL     1       1.985  16.392   0.051  1.00  0.00     0.007 C 
ATOM      9  C   UNL     1       1.057  15.288  -0.532  1.00  0.00    -0.029 C 
ATOM     10  C   UNL     1       0.342  14.530   0.671  1.00  0.00    -0.012 C 
ATOM     11  C   UNL     1      -1.117  14.960   0.955  1.00  0.00     0.022 C 
ATOM     12  C   UNL     1      -0.829  13.587   0.346  1.00  0.00     0.017 C 
ATOM     13  C   UNL     1       0.087  16.016  -1.510  1.00  0.00     0.012 C 
ATOM     14  C   UNL     1       1.872  14.293  -1.398  1.00  0.00     0.012 C 
ATOM     15  C   UNL     1       2.118  12.877   1.575  1.00  0.00     0.012 C 
ENDROOT
TORSDOF 0
ENDMDL
MODEL 6
REMARK VINA RESULT:    -4.657      1.398      3.564
REMARK INTER + INTRA:          -4.657
REMARK INTER:                  -4.657
REMARK INTRA:                   0.000
REMARK UNBOUND:                 0.000
REMARK SMILES CC1=CC[C@]2(C)CCCC(C)(C)[C@@]23C[C@@H]13
REMARK SMILES IDX 1 1 2 2 3 3 4 4 5 5 7 6 8 7 9 8 10 9 13 10 15 11 14 12 11 13
REMARK SMILES IDX 12 14 6 15
REMARK H PARENT
REMARK Flexibility Score: inf
ROOT
ATOM      1  C   UNL     1       3.615  17.040   2.000  1.00  0.00     0.039 C 
ATOM      2  C   UNL     1       2.887  16.231   0.961  1.00  0.00    -0.074 C 
ATOM      3  C   UNL     1       3.250  16.353  -0.321  1.00  0.00    -0.027 C 
ATOM      4  C   UNL     1       2.690  15.474  -1.391  1.00  0.00     0.034 C 
ATOM      5  C   UNL     1       1.178  15.127  -1.215  1.00  0.00    -0.022 C 
ATOM      6  C   UNL     1       0.343  16.332  -1.720  1.00  0.00     0.008 C 
ATOM      7  C   UNL     1      -1.166  16.173  -1.485  1.00  0.00     0.001 C 
ATOM      8  C   UNL     1      -1.495  15.963  -0.003  1.00  0.00     0.007 C 
ATOM      9  C   UNL     1      -0.768  14.757   0.657  1.00  0.00    -0.029 C 
ATOM     10  C   UNL     1       0.778  14.824   0.286  1.00  0.00    -0.012 C 
ATOM     11  C   UNL     1       1.703  15.393   1.389  1.00  0.00     0.022 C 
ATOM     12  C   UNL     1       1.751  13.904   1.044  1.00  0.00     0.017 C 
ATOM     13  C   UNL     1      -1.076  14.853   2.181  1.00  0.00     0.012 C 
ATOM     14  C   UNL     1      -1.388  13.419   0.177  1.00  0.00     0.012 C 
ATOM     15  C   UNL     1       0.934  13.890  -2.123  1.00  0.00     0.012 C 
ENDROOT
TORSDOF 0
ENDMDL
MODEL 7
REMARK VINA RESULT:    -4.252      2.460      5.481
REMARK INTER + INTRA:          -4.252
REMARK INTER:                  -4.252
REMARK INTRA:                   0.000
REMARK UNBOUND:                 0.000
REMARK SMILES CC1=CC[C@]2(C)CCCC(C)(C)[C@@]23C[C@@H]13
REMARK SMILES IDX 1 1 2 2 3 3 4 4 5 5 7 6 8 7 9 8 10 9 13 10 15 11 14 12 11 13
REMARK SMILES IDX 12 14 6 15
REMARK H PARENT
REMARK Flexibility Score: inf
ROOT
ATOM      1  C   UNL     1      -3.907  11.221  -1.062  1.00  0.00     0.039 C 
ATOM      2  C   UNL     1      -2.937  12.371  -1.016  1.00  0.00    -0.074 C 
ATOM      3  C   UNL     1      -1.709  12.198  -1.520  1.00  0.00    -0.027 C 
ATOM      4  C   UNL     1      -0.742  13.327  -1.657  1.00  0.00     0.034 C 
ATOM      5  C   UNL     1      -0.782  14.357  -0.485  1.00  0.00    -0.022 C 
ATOM      6  C   UNL     1       0.022  13.769   0.704  1.00  0.00     0.008 C 
ATOM      7  C   UNL     1      -0.043  14.629   1.974  1.00  0.00     0.001 C 
ATOM      8  C   UNL     1      -1.486  14.844   2.445  1.00  0.00     0.007 C 
ATOM      9  C   UNL     1      -2.428  15.473   1.379  1.00  0.00    -0.029 C 
ATOM     10  C   UNL     1      -2.250  14.686   0.008  1.00  0.00    -0.012 C 
ATOM     11  C   UNL     1      -3.348  13.642  -0.308  1.00  0.00     0.022 C 
ATOM     12  C   UNL     1      -3.270  14.938  -1.116  1.00  0.00     0.017 C 
ATOM     13  C   UNL     1      -3.862  15.409   1.984  1.00  0.00     0.012 C 
ATOM     14  C   UNL     1      -2.108  16.978   1.191  1.00  0.00     0.012 C 
ATOM     15  C   UNL     1      -0.073  15.628  -1.031  1.00  0.00     0.012 C 
ENDROOT
TORSDOF 0
ENDMDL
MODEL 8
REMARK VINA RESULT:    -3.841      1.901      4.531
REMARK INTER + INTRA:          -3.841
REMARK INTER:                  -3.841
REMARK INTRA:                   0.000
REMARK UNBOUND:                 0.000
REMARK SMILES CC1=CC[C@]2(C)CCCC(C)(C)[C@@]23C[C@@H]13
REMARK SMILES IDX 1 1 2 2 3 3 4 4 5 5 7 6 8 7 9 8 10 9 13 10 15 11 14 12 11 13
REMARK SMILES IDX 12 14 6 15
REMARK H PARENT
REMARK Flexibility Score: inf
ROOT
ATOM      1  C   UNL     1      -4.426  13.394   0.493  1.00  0.00     0.039 C 
ATOM      2  C   UNL     1      -3.218  14.078  -0.088  1.00  0.00    -0.074 C 
ATOM      3  C   UNL     1      -3.100  14.157  -1.419  1.00  0.00    -0.027 C 
ATOM      4  C   UNL     1      -2.020  14.952  -2.073  1.00  0.00     0.034 C 
ATOM      5  C   UNL     1      -0.643  14.897  -1.340  1.00  0.00    -0.022 C 
ATOM      6  C   UNL     1       0.057  13.567  -1.724  1.00  0.00     0.008 C 
ATOM      7  C   UNL     1       1.372  13.326  -0.969  1.00  0.00     0.001 C 
ATOM      8  C   UNL     1       1.167  13.325   0.550  1.00  0.00     0.007 C 
ATOM      9  C   UNL     1       0.508  14.616   1.114  1.00  0.00    -0.029 C 
ATOM     10  C   UNL     1      -0.771  14.966   0.236  1.00  0.00    -0.012 C 
ATOM     11  C   UNL     1      -2.132  14.557   0.849  1.00  0.00     0.022 C 
ATOM     12  C   UNL     1      -1.747  16.034   0.761  1.00  0.00     0.017 C 
ATOM     13  C   UNL     1       0.206  14.322   2.614  1.00  0.00     0.012 C 
ATOM     14  C   UNL     1       1.518  15.791   1.103  1.00  0.00     0.012 C 
ATOM     15  C   UNL     1       0.165  16.104  -1.893  1.00  0.00     0.012 C 
ENDROOT
TORSDOF 0
ENDMDL
