MODEL 1
REMARK VINA RESULT:    -6.389      0.000      0.000
REMARK INTER + INTRA:          -8.262
REMARK INTER:                  -7.883
REMARK INTRA:                  -0.379
REMARK UNBOUND:                -0.379
REMARK SMILES Oc1cc(O)c2cc(O)c(-c3cc(O)c(O)c(O)c3)[o+]c2c1
REMARK SMILES IDX 10 1 20 2 21 3 22 4 2 5 3 6 4 7 6 8 7 9 8 10 11 11 12 12
REMARK SMILES IDX 13 13 19 14 15 15 17 16 14 17 16 19 18 21 9 23 1 25 5 27
REMARK H PARENT 14 18 16 20 18 22 9 24 1 26 5 28
REMARK Flexibility Score: inf
ROOT
ATOM      1  C   UNL     1      38.184 -49.144 -17.181  1.00  0.00     0.402 A 
ATOM      2  O   UNL     1      39.065 -48.747 -16.267  1.00  0.00    -0.202 OA
ATOM      3  C   UNL     1      38.929 -48.991 -14.968  1.00  0.00     0.368 A 
ATOM      4  C   UNL     1      39.911 -48.537 -14.084  1.00  0.00     0.162 A 
ATOM      5  C   UNL     1      39.796 -48.781 -12.715  1.00  0.00     0.128 A 
ATOM      6  C   UNL     1      38.693 -49.487 -12.224  1.00  0.00     0.093 A 
ATOM      7  C   UNL     1      37.695 -49.954 -13.088  1.00  0.00     0.136 A 
ATOM      8  C   UNL     1      37.807 -49.705 -14.481  1.00  0.00     0.125 A 
ATOM      9  C   UNL     1      36.851 -50.123 -15.420  1.00  0.00     0.078 A 
ATOM     10  C   UNL     1      37.027 -49.836 -16.777  1.00  0.00     0.223 A 
ENDROOT
BRANCH   1  11
ATOM     11  C   UNL     1      38.452 -48.819 -18.601  1.00  0.00     0.091 A 
ATOM     12  C   UNL     1      39.107 -49.759 -19.412  1.00  0.00     0.068 A 
ATOM     13  C   UNL     1      39.354 -49.485 -20.764  1.00  0.00     0.162 A 
ATOM     14  C   UNL     1      38.015 -47.611 -19.171  1.00  0.00     0.068 A 
ATOM     15  C   UNL     1      38.935 -48.269 -21.320  1.00  0.00     0.200 A 
ATOM     16  C   UNL     1      38.259 -47.331 -20.522  1.00  0.00     0.162 A 
BRANCH  13  17
ATOM     17  O   UNL     1      40.017 -50.416 -21.560  1.00  0.00    -0.504 OA
ATOM     18  H   UNL     1      40.230 -50.226 -22.533  1.00  0.00     0.293 HD
ENDBRANCH  13  17
BRANCH  15  19
ATOM     19  O   UNL     1      39.193 -48.013 -22.667  1.00  0.00    -0.502 OA
ATOM     20  H   UNL     1      38.449 -47.898 -23.346  1.00  0.00     0.293 HD
ENDBRANCH  15  19
BRANCH  16  21
ATOM     21  O   UNL     1      37.827 -46.127 -21.077  1.00  0.00    -0.504 OA
ATOM     22  H   UNL     1      36.905 -45.754 -20.883  1.00  0.00     0.293 HD
ENDBRANCH  16  21
ENDBRANCH   1  11
BRANCH  10  23
ATOM     23  O   UNL     1      36.053 -50.207 -17.703  1.00  0.00    -0.500 OA
ATOM     24  H   UNL     1      36.295 -50.515 -18.638  1.00  0.00     0.294 HD
ENDBRANCH  10  23
BRANCH   5  25
ATOM     25  O   UNL     1      40.785 -48.318 -11.849  1.00  0.00    -0.507 OA
ATOM     26  H   UNL     1      41.049 -47.340 -11.821  1.00  0.00     0.293 HD
ENDBRANCH   5  25
BRANCH   7  27
ATOM     27  O   UNL     1      36.627 -50.654 -12.520  1.00  0.00    -0.507 OA
ATOM     28  H   UNL     1      36.683 -51.604 -12.183  1.00  0.00     0.293 HD
ENDBRANCH   7  27
TORSDOF 7
ENDMDL
MODEL 2
REMARK VINA RESULT:    -6.382      0.109      1.792
REMARK INTER + INTRA:          -8.253
REMARK INTER:                  -7.869
REMARK INTRA:                  -0.385
REMARK UNBOUND:                -0.379
REMARK SMILES Oc1cc(O)c2cc(O)c(-c3cc(O)c(O)c(O)c3)[o+]c2c1
REMARK SMILES IDX 10 1 20 2 21 3 22 4 2 5 3 6 4 7 6 8 7 9 8 10 11 11 12 12
REMARK SMILES IDX 13 13 19 14 15 15 17 16 14 17 16 19 18 21 9 23 1 25 5 27
REMARK H PARENT 14 18 16 20 18 22 9 24 1 26 5 28
REMARK Flexibility Score: inf
ROOT
ATOM      1  C   UNL     1      38.157 -49.223 -17.272  1.00  0.00     0.402 A 
ATOM      2  O   UNL     1      39.042 -48.799 -16.374  1.00  0.00    -0.202 OA
ATOM      3  C   UNL     1      38.915 -49.008 -15.068  1.00  0.00     0.368 A 
ATOM      4  C   UNL     1      39.899 -48.526 -14.203  1.00  0.00     0.162 A 
ATOM      5  C   UNL     1      39.794 -48.734 -12.827  1.00  0.00     0.128 A 
ATOM      6  C   UNL     1      38.697 -49.431 -12.311  1.00  0.00     0.093 A 
ATOM      7  C   UNL     1      37.696 -49.926 -13.156  1.00  0.00     0.136 A 
ATOM      8  C   UNL     1      37.799 -49.714 -14.556  1.00  0.00     0.125 A 
ATOM      9  C   UNL     1      36.839 -50.161 -15.478  1.00  0.00     0.078 A 
ATOM     10  C   UNL     1      37.006 -49.910 -16.843  1.00  0.00     0.223 A 
ENDROOT
BRANCH   1  11
ATOM     11  C   UNL     1      38.416 -48.935 -18.702  1.00  0.00     0.091 A 
ATOM     12  C   UNL     1      38.014 -47.704 -19.241  1.00  0.00     0.068 A 
ATOM     13  C   UNL     1      38.265 -47.398 -20.585  1.00  0.00     0.162 A 
ATOM     14  C   UNL     1      39.107 -49.846 -19.519  1.00  0.00     0.068 A 
ATOM     15  C   UNL     1      38.934 -48.319 -21.400  1.00  0.00     0.200 A 
ATOM     16  C   UNL     1      39.361 -49.545 -20.864  1.00  0.00     0.162 A 
BRANCH  13  17
ATOM     17  O   UNL     1      37.850 -46.179 -21.119  1.00  0.00    -0.504 OA
ATOM     18  H   UNL     1      38.265 -45.800 -21.963  1.00  0.00     0.293 HD
ENDBRANCH  13  17
BRANCH  15  19
ATOM     19  O   UNL     1      39.173 -47.999 -22.737  1.00  0.00    -0.502 OA
ATOM     20  H   UNL     1      39.356 -48.709 -23.437  1.00  0.00     0.293 HD
ENDBRANCH  15  19
BRANCH  16  21
ATOM     21  O   UNL     1      40.042 -50.459 -21.668  1.00  0.00    -0.504 OA
ATOM     22  H   UNL     1      40.269 -51.390 -21.339  1.00  0.00     0.293 HD
ENDBRANCH  16  21
ENDBRANCH   1  11
BRANCH  10  23
ATOM     23  O   UNL     1      36.028 -50.310 -17.753  1.00  0.00    -0.500 OA
ATOM     24  H   UNL     1      35.580 -51.217 -17.689  1.00  0.00     0.294 HD
ENDBRANCH  10  23
BRANCH   5  25
ATOM     25  O   UNL     1      40.786 -48.243 -11.980  1.00  0.00    -0.507 OA
ATOM     26  H   UNL     1      40.823 -47.265 -11.720  1.00  0.00     0.293 HD
ENDBRANCH   5  25
BRANCH   7  27
ATOM     27  O   UNL     1      36.635 -50.615 -12.563  1.00  0.00    -0.507 OA
ATOM     28  H   UNL     1      36.740 -51.301 -11.830  1.00  0.00     0.293 HD
ENDBRANCH   7  27
TORSDOF 7
ENDMDL
MODEL 3
REMARK VINA RESULT:    -5.615      1.894      7.191
REMARK INTER + INTRA:          -7.307
REMARK INTER:                  -6.979
REMARK INTRA:                  -0.328
REMARK UNBOUND:                -0.379
REMARK SMILES Oc1cc(O)c2cc(O)c(-c3cc(O)c(O)c(O)c3)[o+]c2c1
REMARK SMILES IDX 10 1 20 2 21 3 22 4 2 5 3 6 4 7 6 8 7 9 8 10 11 11 12 12
REMARK SMILES IDX 13 13 19 14 15 15 17 16 14 17 16 19 18 21 9 23 1 25 5 27
REMARK H PARENT 14 18 16 20 18 22 9 24 1 26 5 28
REMARK Flexibility Score: inf
ROOT
ATOM      1  C   UNL     1      39.751 -48.614 -16.514  1.00  0.00     0.402 A 
ATOM      2  O   UNL     1      39.546 -47.375 -16.953  1.00  0.00    -0.202 OA
ATOM      3  C   UNL     1      39.159 -47.095 -18.192  1.00  0.00     0.368 A 
ATOM      4  C   UNL     1      38.966 -45.761 -18.559  1.00  0.00     0.162 A 
ATOM      5  C   UNL     1      38.556 -45.436 -19.853  1.00  0.00     0.128 A 
ATOM      6  C   UNL     1      38.335 -46.452 -20.788  1.00  0.00     0.093 A 
ATOM      7  C   UNL     1      38.521 -47.797 -20.446  1.00  0.00     0.136 A 
ATOM      8  C   UNL     1      38.939 -48.131 -19.132  1.00  0.00     0.125 A 
ATOM      9  C   UNL     1      39.163 -49.449 -18.704  1.00  0.00     0.078 A 
ATOM     10  C   UNL     1      39.581 -49.700 -17.393  1.00  0.00     0.223 A 
ENDROOT
BRANCH   1  11
ATOM     11  C   UNL     1      40.173 -48.799 -15.107  1.00  0.00     0.091 A 
ATOM     12  C   UNL     1      39.214 -48.732 -14.085  1.00  0.00     0.068 A 
ATOM     13  C   UNL     1      39.583 -48.923 -12.746  1.00  0.00     0.162 A 
ATOM     14  C   UNL     1      41.506 -49.098 -14.775  1.00  0.00     0.068 A 
ATOM     15  C   UNL     1      40.917 -49.199 -12.421  1.00  0.00     0.200 A 
ATOM     16  C   UNL     1      41.881 -49.291 -13.438  1.00  0.00     0.162 A 
BRANCH  13  17
ATOM     17  O   UNL     1      38.629 -48.840 -11.734  1.00  0.00    -0.504 OA
ATOM     18  H   UNL     1      37.819 -48.237 -11.817  1.00  0.00     0.293 HD
ENDBRANCH  13  17
BRANCH  15  19
ATOM     19  O   UNL     1      41.267 -49.384 -11.082  1.00  0.00    -0.502 OA
ATOM     20  H   UNL     1      40.995 -50.211 -10.564  1.00  0.00     0.293 HD
ENDBRANCH  15  19
BRANCH  16  21
ATOM     21  O   UNL     1      43.207 -49.581 -13.119  1.00  0.00    -0.504 OA
ATOM     22  H   UNL     1      43.567 -49.456 -12.180  1.00  0.00     0.293 HD
ENDBRANCH  16  21
ENDBRANCH   1  11
BRANCH  10  23
ATOM     23  O   UNL     1      39.851 -51.005 -16.983  1.00  0.00    -0.500 OA
ATOM     24  H   UNL     1      40.717 -51.473 -17.227  1.00  0.00     0.294 HD
ENDBRANCH  10  23
BRANCH   5  25
ATOM     25  O   UNL     1      38.371 -44.099 -20.199  1.00  0.00    -0.507 OA
ATOM     26  H   UNL     1      37.589 -43.563 -19.842  1.00  0.00     0.293 HD
ENDBRANCH   5  25
BRANCH   7  27
ATOM     27  O   UNL     1      38.275 -48.753 -21.437  1.00  0.00    -0.507 OA
ATOM     28  H   UNL     1      37.381 -48.892 -21.885  1.00  0.00     0.293 HD
ENDBRANCH   7  27
TORSDOF 7
ENDMDL
MODEL 4
REMARK VINA RESULT:    -5.453      2.730      3.499
REMARK INTER + INTRA:          -7.108
REMARK INTER:                  -7.067
REMARK INTRA:                  -0.041
REMARK UNBOUND:                -0.379
REMARK SMILES Oc1cc(O)c2cc(O)c(-c3cc(O)c(O)c(O)c3)[o+]c2c1
REMARK SMILES IDX 10 1 20 2 21 3 22 4 2 5 3 6 4 7 6 8 7 9 8 10 11 11 12 12
REMARK SMILES IDX 13 13 19 14 15 15 17 16 14 17 16 19 18 21 9 23 1 25 5 27
REMARK H PARENT 14 18 16 20 18 22 9 24 1 26 5 28
REMARK Flexibility Score: inf
ROOT
ATOM      1  C   UNL     1      37.634 -47.015 -17.491  1.00  0.00     0.402 A 
ATOM      2  O   UNL     1      38.078 -47.351 -16.283  1.00  0.00    -0.202 OA
ATOM      3  C   UNL     1      37.563 -48.344 -15.566  1.00  0.00     0.368 A 
ATOM      4  C   UNL     1      38.100 -48.624 -14.307  1.00  0.00     0.162 A 
ATOM      5  C   UNL     1      37.581 -49.663 -13.533  1.00  0.00     0.128 A 
ATOM      6  C   UNL     1      36.518 -50.430 -14.021  1.00  0.00     0.093 A 
ATOM      7  C   UNL     1      35.961 -50.170 -15.279  1.00  0.00     0.136 A 
ATOM      8  C   UNL     1      36.485 -49.113 -16.068  1.00  0.00     0.125 A 
ATOM      9  C   UNL     1      35.983 -48.772 -17.334  1.00  0.00     0.078 A 
ATOM     10  C   UNL     1      36.548 -47.713 -18.051  1.00  0.00     0.223 A 
ENDROOT
BRANCH   1  11
ATOM     11  C   UNL     1      38.298 -45.894 -18.195  1.00  0.00     0.091 A 
ATOM     12  C   UNL     1      39.692 -45.909 -18.354  1.00  0.00     0.068 A 
ATOM     13  C   UNL     1      40.343 -44.871 -19.035  1.00  0.00     0.162 A 
ATOM     14  C   UNL     1      37.556 -44.842 -18.759  1.00  0.00     0.068 A 
ATOM     15  C   UNL     1      39.600 -43.814 -19.575  1.00  0.00     0.200 A 
ATOM     16  C   UNL     1      38.202 -43.801 -19.441  1.00  0.00     0.162 A 
BRANCH  13  17
ATOM     17  O   UNL     1      41.729 -44.883 -19.177  1.00  0.00    -0.504 OA
ATOM     18  H   UNL     1      42.279 -44.035 -19.096  1.00  0.00     0.293 HD
ENDBRANCH  13  17
BRANCH  15  19
ATOM     19  O   UNL     1      40.265 -42.788 -20.247  1.00  0.00    -0.502 OA
ATOM     20  H   UNL     1      40.559 -42.878 -21.213  1.00  0.00     0.293 HD
ENDBRANCH  15  19
BRANCH  16  21
ATOM     21  O   UNL     1      37.458 -42.758 -19.991  1.00  0.00    -0.504 OA
ATOM     22  H   UNL     1      37.475 -41.826 -19.594  1.00  0.00     0.293 HD
ENDBRANCH  16  21
ENDBRANCH   1  11
BRANCH  10  23
ATOM     23  O   UNL     1      36.017 -47.342 -19.286  1.00  0.00    -0.500 OA
ATOM     24  H   UNL     1      35.050 -47.528 -19.528  1.00  0.00     0.294 HD
ENDBRANCH  10  23
BRANCH   5  25
ATOM     25  O   UNL     1      38.130 -49.926 -12.280  1.00  0.00    -0.507 OA
ATOM     26  H   UNL     1      38.052 -50.839 -11.848  1.00  0.00     0.293 HD
ENDBRANCH   5  25
BRANCH   7  27
ATOM     27  O   UNL     1      34.904 -50.984 -15.696  1.00  0.00    -0.507 OA
ATOM     28  H   UNL     1      34.303 -51.502 -15.071  1.00  0.00     0.293 HD
ENDBRANCH   7  27
TORSDOF 7
ENDMDL
MODEL 5
REMARK VINA RESULT:    -5.422      1.607      7.198
REMARK INTER + INTRA:          -7.070
REMARK INTER:                  -6.816
REMARK INTRA:                  -0.253
REMARK UNBOUND:                -0.379
REMARK SMILES Oc1cc(O)c2cc(O)c(-c3cc(O)c(O)c(O)c3)[o+]c2c1
REMARK SMILES IDX 10 1 20 2 21 3 22 4 2 5 3 6 4 7 6 8 7 9 8 10 11 11 12 12
REMARK SMILES IDX 13 13 19 14 15 15 17 16 14 17 16 19 18 21 9 23 1 25 5 27
REMARK H PARENT 14 18 16 20 18 22 9 24 1 26 5 28
REMARK Flexibility Score: inf
ROOT
ATOM      1  C   UNL     1      38.951 -47.774 -16.264  1.00  0.00     0.402 A 
ATOM      2  O   UNL     1      39.410 -48.417 -17.334  1.00  0.00    -0.202 OA
ATOM      3  C   UNL     1      39.008 -48.152 -18.572  1.00  0.00     0.368 A 
ATOM      4  C   UNL     1      39.551 -48.879 -19.634  1.00  0.00     0.162 A 
ATOM      5  C   UNL     1      39.150 -48.620 -20.946  1.00  0.00     0.128 A 
ATOM      6  C   UNL     1      38.199 -47.627 -21.199  1.00  0.00     0.093 A 
ATOM      7  C   UNL     1      37.638 -46.884 -20.153  1.00  0.00     0.136 A 
ATOM      8  C   UNL     1      38.043 -47.145 -18.818  1.00  0.00     0.125 A 
ATOM      9  C   UNL     1      37.526 -46.460 -17.706  1.00  0.00     0.078 A 
ATOM     10  C   UNL     1      37.970 -46.778 -16.419  1.00  0.00     0.223 A 
ENDROOT
BRANCH   1  11
ATOM     11  C   UNL     1      39.485 -48.154 -14.935  1.00  0.00     0.091 A 
ATOM     12  C   UNL     1      38.656 -48.829 -14.026  1.00  0.00     0.068 A 
ATOM     13  C   UNL     1      39.143 -49.218 -12.771  1.00  0.00     0.162 A 
ATOM     14  C   UNL     1      40.823 -47.904 -14.586  1.00  0.00     0.068 A 
ATOM     15  C   UNL     1      40.472 -48.946 -12.420  1.00  0.00     0.200 A 
ATOM     16  C   UNL     1      41.316 -48.291 -13.332  1.00  0.00     0.162 A 
BRANCH  13  17
ATOM     17  O   UNL     1      38.312 -49.876 -11.866  1.00  0.00    -0.504 OA
ATOM     18  H   UNL     1      37.417 -50.260 -12.150  1.00  0.00     0.293 HD
ENDBRANCH  13  17
BRANCH  15  19
ATOM     19  O   UNL     1      40.938 -49.339 -11.164  1.00  0.00    -0.502 OA
ATOM     20  H   UNL     1      41.918 -49.281 -10.912  1.00  0.00     0.293 HD
ENDBRANCH  15  19
BRANCH  16  21
ATOM     21  O   UNL     1      42.643 -48.033 -12.992  1.00  0.00    -0.504 OA
ATOM     22  H   UNL     1      42.997 -48.212 -12.059  1.00  0.00     0.293 HD
ENDBRANCH  16  21
ENDBRANCH   1  11
BRANCH  10  23
ATOM     23  O   UNL     1      37.421 -46.132 -15.311  1.00  0.00    -0.500 OA
ATOM     24  H   UNL     1      37.981 -45.896 -14.500  1.00  0.00     0.294 HD
ENDBRANCH  10  23
BRANCH   5  25
ATOM     25  O   UNL     1      39.703 -49.358 -21.991  1.00  0.00    -0.507 OA
ATOM     26  H   UNL     1      40.703 -49.500 -22.067  1.00  0.00     0.293 HD
ENDBRANCH   5  25
BRANCH   7  27
ATOM     27  O   UNL     1      36.698 -45.906 -20.490  1.00  0.00    -0.507 OA
ATOM     28  H   UNL     1      36.555 -45.051 -19.972  1.00  0.00     0.293 HD
ENDBRANCH   7  27
TORSDOF 7
ENDMDL
MODEL 6
REMARK VINA RESULT:    -5.412      2.828      4.787
REMARK INTER + INTRA:          -7.057
REMARK INTER:                  -7.035
REMARK INTRA:                  -0.022
REMARK UNBOUND:                -0.379
REMARK SMILES Oc1cc(O)c2cc(O)c(-c3cc(O)c(O)c(O)c3)[o+]c2c1
REMARK SMILES IDX 10 1 20 2 21 3 22 4 2 5 3 6 4 7 6 8 7 9 8 10 11 11 12 12
REMARK SMILES IDX 13 13 19 14 15 15 17 16 14 17 16 19 18 21 9 23 1 25 5 27
REMARK H PARENT 14 18 16 20 18 22 9 24 1 26 5 28
REMARK Flexibility Score: inf
ROOT
ATOM      1  C   UNL     1      38.124 -47.087 -18.440  1.00  0.00     0.402 A 
ATOM      2  O   UNL     1      37.306 -47.366 -17.429  1.00  0.00    -0.202 OA
ATOM      3  C   UNL     1      37.136 -48.591 -16.944  1.00  0.00     0.368 A 
ATOM      4  C   UNL     1      36.256 -48.785 -15.877  1.00  0.00     0.162 A 
ATOM      5  C   UNL     1      36.061 -50.060 -15.345  1.00  0.00     0.128 A 
ATOM      6  C   UNL     1      36.752 -51.152 -15.883  1.00  0.00     0.093 A 
ATOM      7  C   UNL     1      37.640 -50.985 -16.952  1.00  0.00     0.136 A 
ATOM      8  C   UNL     1      37.839 -49.689 -17.497  1.00  0.00     0.125 A 
ATOM      9  C   UNL     1      38.699 -49.430 -18.576  1.00  0.00     0.078 A 
ATOM     10  C   UNL     1      38.840 -48.126 -19.063  1.00  0.00     0.223 A 
ENDROOT
BRANCH   1  11
ATOM     11  C   UNL     1      38.234 -45.678 -18.884  1.00  0.00     0.091 A 
ATOM     12  C   UNL     1      37.076 -44.890 -18.972  1.00  0.00     0.068 A 
ATOM     13  C   UNL     1      37.155 -43.549 -19.370  1.00  0.00     0.162 A 
ATOM     14  C   UNL     1      39.481 -45.095 -19.167  1.00  0.00     0.068 A 
ATOM     15  C   UNL     1      38.399 -42.980 -19.671  1.00  0.00     0.200 A 
ATOM     16  C   UNL     1      39.566 -43.753 -19.564  1.00  0.00     0.162 A 
BRANCH  13  17
ATOM     17  O   UNL     1      36.001 -42.775 -19.469  1.00  0.00    -0.504 OA
ATOM     18  H   UNL     1      35.079 -43.179 -19.347  1.00  0.00     0.293 HD
ENDBRANCH  13  17
BRANCH  15  19
ATOM     19  O   UNL     1      38.458 -41.643 -20.068  1.00  0.00    -0.502 OA
ATOM     20  H   UNL     1      38.173 -40.886 -19.457  1.00  0.00     0.293 HD
ENDBRANCH  15  19
BRANCH  16  21
ATOM     21  O   UNL     1      40.808 -43.186 -19.849  1.00  0.00    -0.504 OA
ATOM     22  H   UNL     1      40.964 -42.645 -20.692  1.00  0.00     0.293 HD
ENDBRANCH  16  21
ENDBRANCH   1  11
BRANCH  10  23
ATOM     23  O   UNL     1      39.655 -47.876 -20.166  1.00  0.00    -0.500 OA
ATOM     24  H   UNL     1      40.636 -48.130 -20.173  1.00  0.00     0.294 HD
ENDBRANCH  10  23
BRANCH   5  25
ATOM     25  O   UNL     1      35.177 -50.233 -14.282  1.00  0.00    -0.507 OA
ATOM     26  H   UNL     1      35.424 -49.957 -13.339  1.00  0.00     0.293 HD
ENDBRANCH   5  25
BRANCH   7  27
ATOM     27  O   UNL     1      38.294 -52.125 -17.430  1.00  0.00    -0.507 OA
ATOM     28  H   UNL     1      38.153 -53.056 -17.067  1.00  0.00     0.293 HD
ENDBRANCH   7  27
TORSDOF 7
ENDMDL
MODEL 7
REMARK VINA RESULT:    -5.269      2.690      7.177
REMARK INTER + INTRA:          -6.881
REMARK INTER:                  -6.533
REMARK INTRA:                  -0.348
REMARK UNBOUND:                -0.379
REMARK SMILES Oc1cc(O)c2cc(O)c(-c3cc(O)c(O)c(O)c3)[o+]c2c1
REMARK SMILES IDX 10 1 20 2 21 3 22 4 2 5 3 6 4 7 6 8 7 9 8 10 11 11 12 12
REMARK SMILES IDX 13 13 19 14 15 15 17 16 14 17 16 19 18 21 9 23 1 25 5 27
REMARK H PARENT 14 18 16 20 18 22 9 24 1 26 5 28
REMARK Flexibility Score: inf
ROOT
ATOM      1  C   UNL     1      39.093 -48.368 -13.686  1.00  0.00     0.402 A 
ATOM      2  O   UNL     1      38.850 -47.908 -14.911  1.00  0.00    -0.202 OA
ATOM      3  C   UNL     1      37.824 -48.312 -15.651  1.00  0.00     0.368 A 
ATOM      4  C   UNL     1      37.649 -47.768 -16.926  1.00  0.00     0.162 A 
ATOM      5  C   UNL     1      36.577 -48.171 -17.724  1.00  0.00     0.128 A 
ATOM      6  C   UNL     1      35.672 -49.124 -17.246  1.00  0.00     0.093 A 
ATOM      7  C   UNL     1      35.824 -49.684 -15.972  1.00  0.00     0.136 A 
ATOM      8  C   UNL     1      36.914 -49.278 -15.157  1.00  0.00     0.125 A 
ATOM      9  C   UNL     1      37.153 -49.795 -13.874  1.00  0.00     0.078 A 
ATOM     10  C   UNL     1      38.252 -49.350 -13.132  1.00  0.00     0.223 A 
ENDROOT
BRANCH   1  11
ATOM     11  C   UNL     1      40.266 -47.832 -12.956  1.00  0.00     0.091 A 
ATOM     12  C   UNL     1      40.073 -46.873 -11.951  1.00  0.00     0.068 A 
ATOM     13  C   UNL     1      41.163 -46.365 -11.231  1.00  0.00     0.162 A 
ATOM     14  C   UNL     1      41.565 -48.306 -13.209  1.00  0.00     0.068 A 
ATOM     15  C   UNL     1      42.457 -46.825 -11.504  1.00  0.00     0.200 A 
ATOM     16  C   UNL     1      42.659 -47.802 -12.492  1.00  0.00     0.162 A 
BRANCH  13  17
ATOM     17  O   UNL     1      40.967 -45.401 -10.244  1.00  0.00    -0.504 OA
ATOM     18  H   UNL     1      40.977 -44.411 -10.459  1.00  0.00     0.293 HD
ENDBRANCH  13  17
BRANCH  15  19
ATOM     19  O   UNL     1      43.531 -46.306 -10.779  1.00  0.00    -0.502 OA
ATOM     20  H   UNL     1      44.278 -46.894 -10.427  1.00  0.00     0.293 HD
ENDBRANCH  15  19
BRANCH  16  21
ATOM     21  O   UNL     1      43.944 -48.274 -12.755  1.00  0.00    -0.504 OA
ATOM     22  H   UNL     1      44.191 -48.668 -13.656  1.00  0.00     0.293 HD
ENDBRANCH  16  21
ENDBRANCH   1  11
BRANCH  10  23
ATOM     23  O   UNL     1      38.517 -49.899 -11.878  1.00  0.00    -0.500 OA
ATOM     24  H   UNL     1      37.773 -50.155 -11.240  1.00  0.00     0.294 HD
ENDBRANCH  10  23
BRANCH   5  25
ATOM     25  O   UNL     1      36.421 -47.617 -18.994  1.00  0.00    -0.507 OA
ATOM     26  H   UNL     1      37.202 -47.205 -19.491  1.00  0.00     0.293 HD
ENDBRANCH   5  25
BRANCH   7  27
ATOM     27  O   UNL     1      34.875 -50.627 -15.566  1.00  0.00    -0.507 OA
ATOM     28  H   UNL     1      35.100 -51.513 -15.136  1.00  0.00     0.293 HD
ENDBRANCH   7  27
TORSDOF 7
ENDMDL
MODEL 8
REMARK VINA RESULT:    -5.255      2.327      6.593
REMARK INTER + INTRA:          -6.863
REMARK INTER:                  -6.536
REMARK INTRA:                  -0.327
REMARK UNBOUND:                -0.379
REMARK SMILES Oc1cc(O)c2cc(O)c(-c3cc(O)c(O)c(O)c3)[o+]c2c1
REMARK SMILES IDX 10 1 20 2 21 3 22 4 2 5 3 6 4 7 6 8 7 9 8 10 11 11 12 12
REMARK SMILES IDX 13 13 19 14 15 15 17 16 14 17 16 19 18 21 9 23 1 25 5 27
REMARK H PARENT 14 18 16 20 18 22 9 24 1 26 5 28
REMARK Flexibility Score: inf
ROOT
ATOM      1  C   UNL     1      39.650 -48.665 -15.600  1.00  0.00     0.402 A 
ATOM      2  O   UNL     1      39.835 -48.107 -16.793  1.00  0.00    -0.202 OA
ATOM      3  C   UNL     1      38.837 -47.744 -17.592  1.00  0.00     0.368 A 
ATOM      4  C   UNL     1      39.131 -47.162 -18.827  1.00  0.00     0.162 A 
ATOM      5  C   UNL     1      38.104 -46.768 -19.685  1.00  0.00     0.128 A 
ATOM      6  C   UNL     1      36.770 -46.955 -19.306  1.00  0.00     0.093 A 
ATOM      7  C   UNL     1      36.448 -47.535 -18.073  1.00  0.00     0.136 A 
ATOM      8  C   UNL     1      37.491 -47.939 -17.199  1.00  0.00     0.125 A 
ATOM      9  C   UNL     1      37.262 -48.541 -15.951  1.00  0.00     0.078 A 
ATOM     10  C   UNL     1      38.342 -48.918 -15.146  1.00  0.00     0.223 A 
ENDROOT
BRANCH   1  11
ATOM     11  C   UNL     1      40.844 -49.017 -14.798  1.00  0.00     0.091 A 
ATOM     12  C   UNL     1      41.665 -50.077 -15.212  1.00  0.00     0.068 A 
ATOM     13  C   UNL     1      42.812 -50.417 -14.483  1.00  0.00     0.162 A 
ATOM     14  C   UNL     1      41.207 -48.275 -13.660  1.00  0.00     0.068 A 
ATOM     15  C   UNL     1      43.156 -49.688 -13.337  1.00  0.00     0.200 A 
ATOM     16  C   UNL     1      42.354 -48.611 -12.927  1.00  0.00     0.162 A 
BRANCH  13  17
ATOM     17  O   UNL     1      43.615 -51.481 -14.890  1.00  0.00    -0.504 OA
ATOM     18  H   UNL     1      44.608 -51.362 -15.061  1.00  0.00     0.293 HD
ENDBRANCH  13  17
BRANCH  15  19
ATOM     19  O   UNL     1      44.300 -50.044 -12.622  1.00  0.00    -0.502 OA
ATOM     20  H   UNL     1      45.075 -49.403 -12.493  1.00  0.00     0.293 HD
ENDBRANCH  15  19
BRANCH  16  21
ATOM     21  O   UNL     1      42.701 -47.873 -11.796  1.00  0.00    -0.504 OA
ATOM     22  H   UNL     1      43.504 -47.255 -11.791  1.00  0.00     0.293 HD
ENDBRANCH  16  21
ENDBRANCH   1  11
BRANCH  10  23
ATOM     23  O   UNL     1      38.116 -49.560 -13.929  1.00  0.00    -0.500 OA
ATOM     24  H   UNL     1      37.521 -49.157 -13.215  1.00  0.00     0.294 HD
ENDBRANCH  10  23
BRANCH   5  25
ATOM     25  O   UNL     1      38.418 -46.190 -20.913  1.00  0.00    -0.507 OA
ATOM     26  H   UNL     1      39.168 -46.552 -21.492  1.00  0.00     0.293 HD
ENDBRANCH   5  25
BRANCH   7  27
ATOM     27  O   UNL     1      35.092 -47.684 -17.766  1.00  0.00    -0.507 OA
ATOM     28  H   UNL     1      34.558 -48.524 -17.937  1.00  0.00     0.293 HD
ENDBRANCH   7  27
TORSDOF 7
ENDMDL
MODEL 9
REMARK VINA RESULT:    -5.236      3.086      4.739
REMARK INTER + INTRA:          -6.840
REMARK INTER:                  -6.519
REMARK INTRA:                  -0.321
REMARK UNBOUND:                -0.379
REMARK SMILES Oc1cc(O)c2cc(O)c(-c3cc(O)c(O)c(O)c3)[o+]c2c1
REMARK SMILES IDX 10 1 20 2 21 3 22 4 2 5 3 6 4 7 6 8 7 9 8 10 11 11 12 12
REMARK SMILES IDX 13 13 19 14 15 15 17 16 14 17 16 19 18 21 9 23 1 25 5 27
REMARK H PARENT 14 18 16 20 18 22 9 24 1 26 5 28
REMARK Flexibility Score: inf
ROOT
ATOM      1  C   UNL     1      37.644 -46.768 -16.853  1.00  0.00     0.402 A 
ATOM      2  O   UNL     1      36.961 -47.826 -17.284  1.00  0.00    -0.202 OA
ATOM      3  C   UNL     1      36.706 -48.887 -16.527  1.00  0.00     0.368 A 
ATOM      4  C   UNL     1      35.977 -49.949 -17.068  1.00  0.00     0.162 A 
ATOM      5  C   UNL     1      35.692 -51.076 -16.295  1.00  0.00     0.128 A 
ATOM      6  C   UNL     1      36.137 -51.142 -14.970  1.00  0.00     0.093 A 
ATOM      7  C   UNL     1      36.869 -50.092 -14.404  1.00  0.00     0.136 A 
ATOM      8  C   UNL     1      37.163 -48.945 -15.188  1.00  0.00     0.125 A 
ATOM      9  C   UNL     1      37.901 -47.851 -14.709  1.00  0.00     0.078 A 
ATOM     10  C   UNL     1      38.155 -46.758 -15.543  1.00  0.00     0.223 A 
ENDROOT
BRANCH   1  11
ATOM     11  C   UNL     1      37.854 -45.641 -17.790  1.00  0.00     0.091 A 
ATOM     12  C   UNL     1      36.811 -44.732 -18.021  1.00  0.00     0.068 A 
ATOM     13  C   UNL     1      36.991 -43.645 -18.888  1.00  0.00     0.162 A 
ATOM     14  C   UNL     1      39.097 -45.427 -18.411  1.00  0.00     0.068 A 
ATOM     15  C   UNL     1      38.225 -43.450 -19.520  1.00  0.00     0.200 A 
ATOM     16  C   UNL     1      39.283 -44.341 -19.277  1.00  0.00     0.162 A 
BRANCH  13  17
ATOM     17  O   UNL     1      35.946 -42.754 -19.125  1.00  0.00    -0.504 OA
ATOM     18  H   UNL     1      36.038 -41.992 -19.788  1.00  0.00     0.293 HD
ENDBRANCH  13  17
BRANCH  15  19
ATOM     19  O   UNL     1      38.385 -42.364 -20.381  1.00  0.00    -0.502 OA
ATOM     20  H   UNL     1      38.721 -41.464 -20.057  1.00  0.00     0.293 HD
ENDBRANCH  15  19
BRANCH  16  21
ATOM     21  O   UNL     1      40.518 -44.142 -19.893  1.00  0.00    -0.504 OA
ATOM     22  H   UNL     1      41.210 -43.510 -19.506  1.00  0.00     0.293 HD
ENDBRANCH  16  21
ENDBRANCH   1  11
BRANCH  10  23
ATOM     23  O   UNL     1      38.931 -45.693 -15.083  1.00  0.00    -0.500 OA
ATOM     24  H   UNL     1      38.800 -45.299 -14.159  1.00  0.00     0.294 HD
ENDBRANCH  10  23
BRANCH   5  25
ATOM     25  O   UNL     1      34.965 -52.125 -16.854  1.00  0.00    -0.507 OA
ATOM     26  H   UNL     1      34.193 -52.557 -16.359  1.00  0.00     0.293 HD
ENDBRANCH   5  25
BRANCH   7  27
ATOM     27  O   UNL     1      37.274 -50.233 -13.074  1.00  0.00    -0.507 OA
ATOM     28  H   UNL     1      38.145 -50.654 -12.785  1.00  0.00     0.293 HD
ENDBRANCH   7  27
TORSDOF 7
ENDMDL
