MODEL 1
REMARK VINA RESULT:    -5.027      0.000      0.000
REMARK INTER + INTRA:          -6.912
REMARK INTER:                  -6.496
REMARK INTRA:                  -0.416
REMARK UNBOUND:                -0.416
REMARK SMILES CCO[C@H]1O[C@@H](CO)[C@@H](O)[C@@H](O)[C@H]1O
REMARK SMILES IDX 4 1 13 2 11 3 9 4 6 5 5 6 3 7 2 8 1 9 14 10 12 12 7 14 8 15
REMARK SMILES IDX 10 17
REMARK H PARENT 14 11 12 13 8 16 10 18
REMARK Flexibility Score: inf
ROOT
ATOM      1  C   UNL     1     -11.462  -0.799 -39.605  1.00  0.00     0.281 C 
ATOM      2  C   UNL     1     -10.458  -0.175 -40.592  1.00  0.00     0.202 C 
ATOM      3  C   UNL     1      -9.330  -1.158 -40.932  1.00  0.00     0.179 C 
ATOM      4  C   UNL     1      -8.710  -1.686 -39.631  1.00  0.00     0.177 C 
ATOM      5  C   UNL     1      -9.784  -2.203 -38.633  1.00  0.00     0.178 C 
ATOM      6  O   UNL     1     -10.831  -1.261 -38.415  1.00  0.00    -0.341 OA
ENDROOT
BRANCH   1   7
ATOM      7  O   UNL     1     -12.205  -1.829 -40.236  1.00  0.00    -0.350 OA
BRANCH   7   8
ATOM      8  C   UNL     1     -13.479  -1.952 -39.640  1.00  0.00     0.160 C 
ATOM      9  C   UNL     1     -14.473  -1.098 -40.412  1.00  0.00     0.035 C 
ENDBRANCH   7   8
ENDBRANCH   1   7
BRANCH   2  10
ATOM     10  O   UNL     1     -11.129   0.225 -41.758  1.00  0.00    -0.385 OA
ATOM     11  H   UNL     1     -10.665  -0.209 -42.520  1.00  0.00     0.211 HD
ENDBRANCH   2  10
BRANCH   3  12
ATOM     12  O   UNL     1      -9.823  -2.206 -41.729  1.00  0.00    -0.387 OA
ATOM     13  H   UNL     1      -9.321  -2.182 -42.584  1.00  0.00     0.211 HD
ENDBRANCH   3  12
BRANCH   5  14
ATOM     14  C   UNL     1     -10.328  -3.622 -38.919  1.00  0.00     0.191 C 
BRANCH  14  15
ATOM     15  O   UNL     1      -9.552  -4.589 -38.259  1.00  0.00    -0.394 OA
ATOM     16  H   UNL     1      -9.955  -5.475 -38.452  1.00  0.00     0.210 HD
ENDBRANCH  14  15
ENDBRANCH   5  14
BRANCH   4  17
ATOM     17  O   UNL     1      -7.755  -2.674 -39.920  1.00  0.00    -0.387 OA
ATOM     18  H   UNL     1      -8.208  -3.354 -40.484  1.00  0.00     0.211 HD
ENDBRANCH   4  17
TORSDOF 7
ENDMDL
MODEL 2
REMARK VINA RESULT:    -4.981     10.605     12.129
REMARK INTER + INTRA:          -6.853
REMARK INTER:                  -6.373
REMARK INTRA:                  -0.480
REMARK UNBOUND:                -0.416
REMARK SMILES CCO[C@H]1O[C@@H](CO)[C@@H](O)[C@@H](O)[C@H]1O
REMARK SMILES IDX 4 1 13 2 11 3 9 4 6 5 5 6 3 7 2 8 1 9 14 10 12 12 7 14 8 15
REMARK SMILES IDX 10 17
REMARK H PARENT 14 11 12 13 8 16 10 18
REMARK Flexibility Score: inf
ROOT
ATOM      1  C   UNL     1     -15.988   7.337 -42.312  1.00  0.00     0.281 C 
ATOM      2  C   UNL     1     -16.906   6.996 -43.501  1.00  0.00     0.202 C 
ATOM      3  C   UNL     1     -18.379   6.968 -43.075  1.00  0.00     0.179 C 
ATOM      4  C   UNL     1     -18.536   6.049 -41.857  1.00  0.00     0.177 C 
ATOM      5  C   UNL     1     -17.510   6.375 -40.735  1.00  0.00     0.178 C 
ATOM      6  O   UNL     1     -16.171   6.445 -41.218  1.00  0.00    -0.341 OA
ENDROOT
BRANCH   1   7
ATOM      7  O   UNL     1     -16.164   8.688 -41.920  1.00  0.00    -0.350 OA
BRANCH   7   8
ATOM      8  C   UNL     1     -14.920   9.272 -41.595  1.00  0.00     0.160 C 
ATOM      9  C   UNL     1     -14.449  10.123 -42.764  1.00  0.00     0.035 C 
ENDBRANCH   7   8
ENDBRANCH   1   7
BRANCH   2  10
ATOM     10  O   UNL     1     -16.709   7.929 -44.532  1.00  0.00    -0.385 OA
ATOM     11  H   UNL     1     -15.981   7.576 -45.104  1.00  0.00     0.211 HD
ENDBRANCH   2  10
BRANCH   3  12
ATOM     12  O   UNL     1     -18.829   8.271 -42.797  1.00  0.00    -0.387 OA
ATOM     13  H   UNL     1     -19.477   8.513 -43.507  1.00  0.00     0.211 HD
ENDBRANCH   3  12
BRANCH   5  14
ATOM     14  C   UNL     1     -17.870   7.582 -39.837  1.00  0.00     0.191 C 
BRANCH  14  15
ATOM     15  O   UNL     1     -18.817   7.209 -38.869  1.00  0.00    -0.394 OA
ATOM     16  H   UNL     1     -19.595   7.817 -38.967  1.00  0.00     0.210 HD
ENDBRANCH  14  15
ENDBRANCH   5  14
BRANCH   4  17
ATOM     17  O   UNL     1     -19.856   6.101 -41.381  1.00  0.00    -0.387 OA
ATOM     18  H   UNL     1     -19.832   6.607 -40.527  1.00  0.00     0.211 HD
ENDBRANCH   4  17
TORSDOF 7
ENDMDL
MODEL 3
REMARK VINA RESULT:    -4.949      8.544     10.940
REMARK INTER + INTRA:          -6.811
REMARK INTER:                  -6.351
REMARK INTRA:                  -0.460
REMARK UNBOUND:                -0.416
REMARK SMILES CCO[C@H]1O[C@@H](CO)[C@@H](O)[C@@H](O)[C@H]1O
REMARK SMILES IDX 4 1 13 2 11 3 9 4 6 5 5 6 3 7 2 8 1 9 14 10 12 12 7 14 8 15
REMARK SMILES IDX 10 17
REMARK H PARENT 14 11 12 13 8 16 10 18
REMARK Flexibility Score: inf
ROOT
ATOM      1  C   UNL     1     -16.807   6.902 -42.657  1.00  0.00     0.281 C 
ATOM      2  C   UNL     1     -18.343   6.946 -42.549  1.00  0.00     0.202 C 
ATOM      3  C   UNL     1     -18.855   5.940 -41.510  1.00  0.00     0.179 C 
ATOM      4  C   UNL     1     -18.272   4.554 -41.817  1.00  0.00     0.177 C 
ATOM      5  C   UNL     1     -16.731   4.595 -42.022  1.00  0.00     0.178 C 
ATOM      6  O   UNL     1     -16.326   5.594 -42.953  1.00  0.00    -0.341 OA
ENDROOT
BRANCH   1   7
ATOM      7  O   UNL     1     -16.210   7.424 -41.482  1.00  0.00    -0.350 OA
BRANCH   7   8
ATOM      8  C   UNL     1     -15.202   8.355 -41.814  1.00  0.00     0.160 C 
ATOM      9  C   UNL     1     -15.687   9.756 -41.473  1.00  0.00     0.035 C 
ENDBRANCH   7   8
ENDBRANCH   1   7
BRANCH   2  10
ATOM     10  O   UNL     1     -18.755   8.247 -42.218  1.00  0.00    -0.385 OA
ATOM     11  H   UNL     1     -19.172   8.632 -43.032  1.00  0.00     0.211 HD
ENDBRANCH   2  10
BRANCH   3  12
ATOM     12  O   UNL     1     -18.515   6.365 -40.213  1.00  0.00    -0.387 OA
ATOM     13  H   UNL     1     -18.018   7.218 -40.308  1.00  0.00     0.211 HD
ENDBRANCH   3  12
BRANCH   5  14
ATOM     14  C   UNL     1     -15.891   4.632 -40.724  1.00  0.00     0.191 C 
BRANCH  14  15
ATOM     15  O   UNL     1     -15.973   3.403 -40.050  1.00  0.00    -0.394 OA
ATOM     16  H   UNL     1     -15.218   3.368 -39.405  1.00  0.00     0.210 HD
ENDBRANCH  14  15
ENDBRANCH   5  14
BRANCH   4  17
ATOM     17  O   UNL     1     -18.636   3.645 -40.811  1.00  0.00    -0.387 OA
ATOM     18  H   UNL     1     -19.183   2.940 -41.247  1.00  0.00     0.211 HD
ENDBRANCH   4  17
TORSDOF 7
ENDMDL
MODEL 4
REMARK VINA RESULT:    -4.926      9.116     11.032
REMARK INTER + INTRA:          -6.781
REMARK INTER:                  -6.507
REMARK INTRA:                  -0.274
REMARK UNBOUND:                -0.416
REMARK SMILES CCO[C@H]1O[C@@H](CO)[C@@H](O)[C@@H](O)[C@H]1O
REMARK SMILES IDX 4 1 13 2 11 3 9 4 6 5 5 6 3 7 2 8 1 9 14 10 12 12 7 14 8 15
REMARK SMILES IDX 10 17
REMARK H PARENT 14 11 12 13 8 16 10 18
REMARK Flexibility Score: inf
ROOT
ATOM      1  C   UNL     1     -17.140   5.493 -40.850  1.00  0.00     0.281 C 
ATOM      2  C   UNL     1     -17.386   6.829 -40.125  1.00  0.00     0.202 C 
ATOM      3  C   UNL     1     -17.446   7.996 -41.118  1.00  0.00     0.179 C 
ATOM      4  C   UNL     1     -16.196   7.968 -42.008  1.00  0.00     0.177 C 
ATOM      5  C   UNL     1     -15.943   6.563 -42.625  1.00  0.00     0.178 C 
ATOM      6  O   UNL     1     -15.963   5.524 -41.651  1.00  0.00    -0.341 OA
ENDROOT
BRANCH   1   7
ATOM      7  O   UNL     1     -18.279   5.122 -41.609  1.00  0.00    -0.350 OA
BRANCH   7   8
ATOM      8  C   UNL     1     -18.437   3.719 -41.607  1.00  0.00     0.160 C 
ATOM      9  C   UNL     1     -17.585   3.125 -40.496  1.00  0.00     0.035 C 
ENDBRANCH   7   8
ENDBRANCH   1   7
BRANCH   2  10
ATOM     10  O   UNL     1     -18.576   6.751 -39.384  1.00  0.00    -0.385 OA
ATOM     11  H   UNL     1     -18.878   5.807 -39.423  1.00  0.00     0.211 HD
ENDBRANCH   2  10
BRANCH   3  12
ATOM     12  O   UNL     1     -18.623   7.924 -41.883  1.00  0.00    -0.387 OA
ATOM     13  H   UNL     1     -18.499   8.521 -42.665  1.00  0.00     0.211 HD
ENDBRANCH   3  12
BRANCH   5  14
ATOM     14  C   UNL     1     -16.801   6.219 -43.864  1.00  0.00     0.191 C 
BRANCH  14  15
ATOM     15  O   UNL     1     -16.580   4.890 -44.262  1.00  0.00    -0.394 OA
ATOM     16  H   UNL     1     -16.243   4.913 -45.196  1.00  0.00     0.210 HD
ENDBRANCH  14  15
ENDBRANCH   5  14
BRANCH   4  17
ATOM     17  O   UNL     1     -16.289   8.959 -42.999  1.00  0.00    -0.387 OA
ATOM     18  H   UNL     1     -16.340   8.487 -43.871  1.00  0.00     0.211 HD
ENDBRANCH   4  17
TORSDOF 7
ENDMDL
MODEL 5
REMARK VINA RESULT:    -4.893      1.671      2.575
REMARK INTER + INTRA:          -6.739
REMARK INTER:                  -6.323
REMARK INTRA:                  -0.416
REMARK UNBOUND:                -0.416
REMARK SMILES CCO[C@H]1O[C@@H](CO)[C@@H](O)[C@@H](O)[C@H]1O
REMARK SMILES IDX 4 1 13 2 11 3 9 4 6 5 5 6 3 7 2 8 1 9 14 10 12 12 7 14 8 15
REMARK SMILES IDX 10 17
REMARK H PARENT 14 11 12 13 8 16 10 18
REMARK Flexibility Score: inf
ROOT
ATOM      1  C   UNL     1     -10.229  -1.447 -38.968  1.00  0.00     0.281 C 
ATOM      2  C   UNL     1      -9.328  -0.237 -38.656  1.00  0.00     0.202 C 
ATOM      3  C   UNL     1      -8.474   0.147 -39.871  1.00  0.00     0.179 C 
ATOM      4  C   UNL     1      -7.730  -1.095 -40.379  1.00  0.00     0.177 C 
ATOM      5  C   UNL     1      -8.677  -2.313 -40.572  1.00  0.00     0.178 C 
ATOM      6  O   UNL     1      -9.481  -2.570 -39.425  1.00  0.00    -0.341 OA
ENDROOT
BRANCH   1   7
ATOM      7  O   UNL     1     -11.245  -1.087 -39.889  1.00  0.00    -0.350 OA
BRANCH   7   8
ATOM      8  C   UNL     1     -12.442  -1.774 -39.594  1.00  0.00     0.160 C 
ATOM      9  C   UNL     1     -13.596  -1.098 -40.319  1.00  0.00     0.035 C 
ENDBRANCH   7   8
ENDBRANCH   1   7
BRANCH   2  10
ATOM     10  O   UNL     1     -10.121   0.848 -38.249  1.00  0.00    -0.385 OA
ATOM     11  H   UNL     1     -10.211   1.448 -39.034  1.00  0.00     0.211 HD
ENDBRANCH   2  10
BRANCH   3  12
ATOM     12  O   UNL     1      -9.283   0.708 -40.876  1.00  0.00    -0.387 OA
ATOM     13  H   UNL     1      -8.851   1.556 -41.156  1.00  0.00     0.211 HD
ENDBRANCH   3  12
BRANCH   5  14
ATOM     14  C   UNL     1      -9.506  -2.308 -41.877  1.00  0.00     0.191 C 
BRANCH  14  15
ATOM     15  O   UNL     1      -8.741  -2.803 -42.947  1.00  0.00    -0.394 OA
ATOM     16  H   UNL     1      -8.717  -2.097 -43.644  1.00  0.00     0.210 HD
ENDBRANCH  14  15
ENDBRANCH   5  14
BRANCH   4  17
ATOM     17  O   UNL     1      -7.034  -0.789 -41.560  1.00  0.00    -0.387 OA
ATOM     18  H   UNL     1      -6.544  -1.612 -41.824  1.00  0.00     0.211 HD
ENDBRANCH   4  17
TORSDOF 7
ENDMDL
MODEL 6
REMARK VINA RESULT:    -4.873      1.813      3.076
REMARK INTER + INTRA:          -6.714
REMARK INTER:                  -6.293
REMARK INTRA:                  -0.421
REMARK UNBOUND:                -0.416
REMARK SMILES CCO[C@H]1O[C@@H](CO)[C@@H](O)[C@@H](O)[C@H]1O
REMARK SMILES IDX 4 1 13 2 11 3 9 4 6 5 5 6 3 7 2 8 1 9 14 10 12 12 7 14 8 15
REMARK SMILES IDX 10 17
REMARK H PARENT 14 11 12 13 8 16 10 18
REMARK Flexibility Score: inf
ROOT
ATOM      1  C   UNL     1     -11.178  -0.520 -39.724  1.00  0.00     0.281 C 
ATOM      2  C   UNL     1     -10.367  -0.534 -38.416  1.00  0.00     0.202 C 
ATOM      3  C   UNL     1      -8.930  -1.011 -38.658  1.00  0.00     0.179 C 
ATOM      4  C   UNL     1      -8.962  -2.349 -39.409  1.00  0.00     0.177 C 
ATOM      5  C   UNL     1      -9.883  -2.302 -40.661  1.00  0.00     0.178 C 
ATOM      6  O   UNL     1     -11.180  -1.790 -40.369  1.00  0.00    -0.341 OA
ENDROOT
BRANCH   1   7
ATOM      7  O   UNL     1     -10.713   0.504 -40.587  1.00  0.00    -0.350 OA
BRANCH   7   8
ATOM      8  C   UNL     1     -11.800   1.235 -41.114  1.00  0.00     0.160 C 
ATOM      9  C   UNL     1     -11.651   2.698 -40.724  1.00  0.00     0.035 C 
ENDBRANCH   7   8
ENDBRANCH   1   7
BRANCH   2  10
ATOM     10  O   UNL     1     -10.369   0.750 -37.846  1.00  0.00    -0.385 OA
ATOM     11  H   UNL     1     -10.329   0.628 -36.862  1.00  0.00     0.211 HD
ENDBRANCH   2  10
BRANCH   3  12
ATOM     12  O   UNL     1      -8.208  -0.039 -39.372  1.00  0.00    -0.387 OA
ATOM     13  H   UNL     1      -7.440   0.228 -38.805  1.00  0.00     0.211 HD
ENDBRANCH   3  12
BRANCH   5  14
ATOM     14  C   UNL     1      -9.263  -1.643 -41.915  1.00  0.00     0.191 C 
BRANCH  14  15
ATOM     15  O   UNL     1      -8.652  -2.611 -42.728  1.00  0.00    -0.394 OA
ATOM     16  H   UNL     1      -9.136  -3.466 -42.586  1.00  0.00     0.210 HD
ENDBRANCH  14  15
ENDBRANCH   5  14
BRANCH   4  17
ATOM     17  O   UNL     1      -7.657  -2.745 -39.742  1.00  0.00    -0.387 OA
ATOM     18  H   UNL     1      -7.533  -3.661 -39.377  1.00  0.00     0.211 HD
ENDBRANCH   4  17
TORSDOF 7
ENDMDL
MODEL 7
REMARK VINA RESULT:    -4.814      8.492     10.970
REMARK INTER + INTRA:          -6.637
REMARK INTER:                  -6.209
REMARK INTRA:                  -0.428
REMARK UNBOUND:                -0.416
REMARK SMILES CCO[C@H]1O[C@@H](CO)[C@@H](O)[C@@H](O)[C@H]1O
REMARK SMILES IDX 4 1 13 2 11 3 9 4 6 5 5 6 3 7 2 8 1 9 14 10 12 12 7 14 8 15
REMARK SMILES IDX 10 17
REMARK H PARENT 14 11 12 13 8 16 10 18
REMARK Flexibility Score: inf
ROOT
ATOM      1  C   UNL     1     -15.286   5.950 -41.734  1.00  0.00     0.281 C 
ATOM      2  C   UNL     1     -15.679   5.310 -40.389  1.00  0.00     0.202 C 
ATOM      3  C   UNL     1     -17.172   5.505 -40.097  1.00  0.00     0.179 C 
ATOM      4  C   UNL     1     -17.523   6.993 -40.228  1.00  0.00     0.177 C 
ATOM      5  C   UNL     1     -17.005   7.606 -41.560  1.00  0.00     0.178 C 
ATOM      6  O   UNL     1     -15.627   7.331 -41.792  1.00  0.00    -0.341 OA
ENDROOT
BRANCH   1   7
ATOM      7  O   UNL     1     -15.852   5.226 -42.813  1.00  0.00    -0.350 OA
BRANCH   7   8
ATOM      8  C   UNL     1     -14.973   5.222 -43.918  1.00  0.00     0.160 C 
ATOM      9  C   UNL     1     -15.754   4.874 -45.175  1.00  0.00     0.035 C 
ENDBRANCH   7   8
ENDBRANCH   1   7
BRANCH   2  10
ATOM     10  O   UNL     1     -15.355   3.944 -40.404  1.00  0.00    -0.385 OA
ATOM     11  H   UNL     1     -14.382   3.882 -40.587  1.00  0.00     0.211 HD
ENDBRANCH   2  10
BRANCH   3  12
ATOM     12  O   UNL     1     -17.944   4.716 -40.968  1.00  0.00    -0.387 OA
ATOM     13  H   UNL     1     -18.234   5.304 -41.713  1.00  0.00     0.211 HD
ENDBRANCH   3  12
BRANCH   5  14
ATOM     14  C   UNL     1     -17.875   7.318 -42.805  1.00  0.00     0.191 C 
BRANCH  14  15
ATOM     15  O   UNL     1     -18.882   8.289 -42.938  1.00  0.00    -0.394 OA
ATOM     16  H   UNL     1     -18.645   9.045 -42.340  1.00  0.00     0.210 HD
ENDBRANCH  14  15
ENDBRANCH   5  14
BRANCH   4  17
ATOM     17  O   UNL     1     -18.907   7.176 -40.079  1.00  0.00    -0.387 OA
ATOM     18  H   UNL     1     -19.046   7.602 -39.193  1.00  0.00     0.211 HD
ENDBRANCH   4  17
TORSDOF 7
ENDMDL
MODEL 8
REMARK VINA RESULT:    -4.807      8.164     10.621
REMARK INTER + INTRA:          -6.627
REMARK INTER:                  -6.137
REMARK INTRA:                  -0.491
REMARK UNBOUND:                -0.416
REMARK SMILES CCO[C@H]1O[C@@H](CO)[C@@H](O)[C@@H](O)[C@H]1O
REMARK SMILES IDX 4 1 13 2 11 3 9 4 6 5 5 6 3 7 2 8 1 9 14 10 12 12 7 14 8 15
REMARK SMILES IDX 10 17
REMARK H PARENT 14 11 12 13 8 16 10 18
REMARK Flexibility Score: inf
ROOT
ATOM      1  C   UNL     1     -15.808   6.310 -42.027  1.00  0.00     0.281 C 
ATOM      2  C   UNL     1     -16.678   7.570 -41.864  1.00  0.00     0.202 C 
ATOM      3  C   UNL     1     -17.987   7.249 -41.131  1.00  0.00     0.179 C 
ATOM      4  C   UNL     1     -18.682   6.073 -41.829  1.00  0.00     0.177 C 
ATOM      5  C   UNL     1     -17.721   4.872 -42.061  1.00  0.00     0.178 C 
ATOM      6  O   UNL     1     -16.502   5.258 -42.690  1.00  0.00    -0.341 OA
ENDROOT
BRANCH   1   7
ATOM      7  O   UNL     1     -15.299   5.891 -40.772  1.00  0.00    -0.350 OA
BRANCH   7   8
ATOM      8  C   UNL     1     -13.914   5.635 -40.863  1.00  0.00     0.160 C 
ATOM      9  C   UNL     1     -13.676   4.137 -40.747  1.00  0.00     0.035 C 
ENDBRANCH   7   8
ENDBRANCH   1   7
BRANCH   2  10
ATOM     10  O   UNL     1     -15.956   8.556 -41.173  1.00  0.00    -0.385 OA
ATOM     11  H   UNL     1     -16.287   8.551 -40.237  1.00  0.00     0.211 HD
ENDBRANCH   2  10
BRANCH   3  12
ATOM     12  O   UNL     1     -17.729   6.964 -39.779  1.00  0.00    -0.387 OA
ATOM     13  H   UNL     1     -17.066   7.630 -39.463  1.00  0.00     0.211 HD
ENDBRANCH   3  12
BRANCH   5  14
ATOM     14  C   UNL     1     -17.483   3.967 -40.831  1.00  0.00     0.191 C 
BRANCH  14  15
ATOM     15  O   UNL     1     -18.570   3.098 -40.641  1.00  0.00    -0.394 OA
ATOM     16  H   UNL     1     -19.010   3.356 -39.790  1.00  0.00     0.210 HD
ENDBRANCH  14  15
ENDBRANCH   5  14
BRANCH   4  17
ATOM     17  O   UNL     1     -19.822   5.690 -41.106  1.00  0.00    -0.387 OA
ATOM     18  H   UNL     1     -20.386   5.153 -41.723  1.00  0.00     0.211 HD
ENDBRANCH   4  17
TORSDOF 7
ENDMDL
MODEL 9
REMARK VINA RESULT:    -4.656      1.636      2.483
REMARK INTER + INTRA:          -6.433
REMARK INTER:                  -6.074
REMARK INTRA:                  -0.359
REMARK UNBOUND:                -0.416
REMARK SMILES CCO[C@H]1O[C@@H](CO)[C@@H](O)[C@@H](O)[C@H]1O
REMARK SMILES IDX 4 1 13 2 11 3 9 4 6 5 5 6 3 7 2 8 1 9 14 10 12 12 7 14 8 15
REMARK SMILES IDX 10 17
REMARK H PARENT 14 11 12 13 8 16 10 18
REMARK Flexibility Score: inf
ROOT
ATOM      1  C   UNL     1     -10.473  -0.938 -41.041  1.00  0.00     0.281 C 
ATOM      2  C   UNL     1      -9.206  -1.577 -41.638  1.00  0.00     0.202 C 
ATOM      3  C   UNL     1      -8.160  -1.855 -40.551  1.00  0.00     0.179 C 
ATOM      4  C   UNL     1      -7.914  -0.572 -39.746  1.00  0.00     0.177 C 
ATOM      5  C   UNL     1      -9.239   0.084 -39.263  1.00  0.00     0.178 C 
ATOM      6  O   UNL     1     -10.184   0.252 -40.315  1.00  0.00    -0.341 OA
ENDROOT
BRANCH   1   7
ATOM      7  O   UNL     1     -11.177  -1.877 -40.245  1.00  0.00    -0.350 OA
BRANCH   7   8
ATOM      8  C   UNL     1     -12.531  -1.498 -40.118  1.00  0.00     0.160 C 
ATOM      9  C   UNL     1     -13.275  -2.565 -39.330  1.00  0.00     0.035 C 
ENDBRANCH   7   8
ENDBRANCH   1   7
BRANCH   2  10
ATOM     10  O   UNL     1      -9.546  -2.765 -42.307  1.00  0.00    -0.385 OA
ATOM     11  H   UNL     1     -10.394  -2.588 -42.791  1.00  0.00     0.211 HD
ENDBRANCH   2  10
BRANCH   3  12
ATOM     12  O   UNL     1      -8.587  -2.907 -39.722  1.00  0.00    -0.387 OA
ATOM     13  H   UNL     1      -8.146  -3.733 -40.051  1.00  0.00     0.211 HD
ENDBRANCH   3  12
BRANCH   5  14
ATOM     14  C   UNL     1      -9.874  -0.553 -38.005  1.00  0.00     0.191 C 
BRANCH  14  15
ATOM     15  O   UNL     1      -9.167  -0.174 -36.851  1.00  0.00    -0.394 OA
ATOM     16  H   UNL     1      -8.923   0.782 -36.955  1.00  0.00     0.210 HD
ENDBRANCH  14  15
ENDBRANCH   5  14
BRANCH   4  17
ATOM     17  O   UNL     1      -7.047  -0.835 -38.674  1.00  0.00    -0.387 OA
ATOM     18  H   UNL     1      -7.468  -0.445 -37.863  1.00  0.00     0.211 HD
ENDBRANCH   4  17
TORSDOF 7
ENDMDL
