MODEL 1
REMARK VINA RESULT:    -7.328      0.000      0.000
REMARK INTER + INTRA:          -8.909
REMARK INTER:                  -8.613
REMARK INTRA:                  -0.296
REMARK UNBOUND:                -0.296
REMARK SMILES O=c1cc(-c2ccc(O)c(O)c2)oc2cc(O)cc(O)c12
REMARK SMILES IDX 4 1 3 2 2 3 1 4 21 5 19 6 18 7 16 8 15 9 14 10 13 11 5 12
REMARK SMILES IDX 6 13 7 14 8 15 12 16 10 17 9 18 11 20 20 22 17 24
REMARK H PARENT 9 19 11 21 20 23 17 25
REMARK Flexibility Score: inf
ROOT
ATOM      1  C   UNL     1      29.212  23.422  48.796  1.00  0.00     0.138 A 
ATOM      2  C   UNL     1      30.521  22.938  48.923  1.00  0.00     0.100 A 
ATOM      3  C   UNL     1      30.966  22.467  50.158  1.00  0.00     0.197 A 
ATOM      4  O   UNL     1      32.125  21.982  50.226  1.00  0.00    -0.289 OA
ATOM      5  C   UNL     1      30.104  22.510  51.280  1.00  0.00     0.107 A 
ATOM      6  C   UNL     1      30.462  22.094  52.597  1.00  0.00     0.134 A 
ATOM      7  C   UNL     1      29.489  22.074  53.603  1.00  0.00     0.093 A 
ATOM      8  C   UNL     1      28.188  22.510  53.356  1.00  0.00     0.123 A 
ATOM      9  C   UNL     1      27.840  22.968  52.085  1.00  0.00     0.094 A 
ATOM     10  C   UNL     1      28.779  22.969  51.051  1.00  0.00     0.146 A 
ATOM     11  O   UNL     1      28.404  23.400  49.851  1.00  0.00    -0.456 OA
ENDROOT
BRANCH   1  12
ATOM     12  C   UNL     1      28.687  23.936  47.506  1.00  0.00     0.021 A 
ATOM     13  C   UNL     1      29.510  24.735  46.693  1.00  0.00     0.016 A 
ATOM     14  C   UNL     1      29.043  25.224  45.471  1.00  0.00     0.051 A 
ATOM     15  C   UNL     1      27.749  24.917  45.036  1.00  0.00     0.157 A 
ATOM     16  C   UNL     1      27.390  23.620  47.056  1.00  0.00     0.062 A 
ATOM     17  C   UNL     1      26.921  24.111  45.828  1.00  0.00     0.158 A 
BRANCH  15  18
ATOM     18  O   UNL     1      27.278  25.404  43.818  1.00  0.00    -0.504 OA
ATOM     19  H   UNL     1      26.462  25.006  43.367  1.00  0.00     0.293 HD
ENDBRANCH  15  18
BRANCH  17  20
ATOM     20  O   UNL     1      25.637  23.798  45.386  1.00  0.00    -0.504 OA
ATOM     21  H   UNL     1      24.831  24.340  45.673  1.00  0.00     0.293 HD
ENDBRANCH  17  20
ENDBRANCH   1  12
BRANCH   6  22
ATOM     22  O   UNL     1      31.756  21.720  52.973  1.00  0.00    -0.507 OA
ATOM     23  H   UNL     1      31.989  20.878  53.476  1.00  0.00     0.293 HD
ENDBRANCH   6  22
BRANCH   8  24
ATOM     24  O   UNL     1      27.248  22.490  54.386  1.00  0.00    -0.508 OA
ATOM     25  H   UNL     1      27.389  21.932  55.221  1.00  0.00     0.293 HD
ENDBRANCH   8  24
TORSDOF 5
ENDMDL
MODEL 2
REMARK VINA RESULT:    -7.158      1.729      2.633
REMARK INTER + INTRA:          -8.709
REMARK INTER:                  -8.418
REMARK INTRA:                  -0.292
REMARK UNBOUND:                -0.296
REMARK SMILES O=c1cc(-c2ccc(O)c(O)c2)oc2cc(O)cc(O)c12
REMARK SMILES IDX 4 1 3 2 2 3 1 4 21 5 19 6 18 7 16 8 15 9 14 10 13 11 5 12
REMARK SMILES IDX 6 13 7 14 8 15 12 16 10 17 9 18 11 20 20 22 17 24
REMARK H PARENT 9 19 11 21 20 23 17 25
REMARK Flexibility Score: inf
ROOT
ATOM      1  C   UNL     1      27.879  23.434  49.467  1.00  0.00     0.138 A 
ATOM      2  C   UNL     1      26.893  22.498  49.809  1.00  0.00     0.100 A 
ATOM      3  C   UNL     1      26.795  22.050  51.127  1.00  0.00     0.197 A 
ATOM      4  O   UNL     1      25.862  21.258  51.417  1.00  0.00    -0.289 OA
ATOM      5  C   UNL     1      27.710  22.519  52.100  1.00  0.00     0.107 A 
ATOM      6  C   UNL     1      27.731  22.102  53.464  1.00  0.00     0.134 A 
ATOM      7  C   UNL     1      28.608  22.721  54.362  1.00  0.00     0.093 A 
ATOM      8  C   UNL     1      29.505  23.699  53.935  1.00  0.00     0.123 A 
ATOM      9  C   UNL     1      29.530  24.078  52.592  1.00  0.00     0.094 A 
ATOM     10  C   UNL     1      28.644  23.502  51.678  1.00  0.00     0.146 A 
ATOM     11  O   UNL     1      28.690  23.900  50.411  1.00  0.00    -0.456 OA
ENDROOT
BRANCH   1  12
ATOM     12  C   UNL     1      28.029  23.944  48.081  1.00  0.00     0.021 A 
ATOM     13  C   UNL     1      29.258  24.492  47.674  1.00  0.00     0.016 A 
ATOM     14  C   UNL     1      29.427  24.971  46.372  1.00  0.00     0.051 A 
ATOM     15  C   UNL     1      28.374  24.903  45.453  1.00  0.00     0.157 A 
ATOM     16  C   UNL     1      26.978  23.866  47.146  1.00  0.00     0.062 A 
ATOM     17  C   UNL     1      27.148  24.346  45.839  1.00  0.00     0.158 A 
BRANCH  15  18
ATOM     18  O   UNL     1      28.538  25.380  44.154  1.00  0.00    -0.504 OA
ATOM     19  H   UNL     1      29.290  25.051  43.559  1.00  0.00     0.293 HD
ENDBRANCH  15  18
BRANCH  17  20
ATOM     20  O   UNL     1      26.105  24.270  44.917  1.00  0.00    -0.504 OA
ATOM     21  H   UNL     1      25.383  23.564  44.991  1.00  0.00     0.293 HD
ENDBRANCH  17  20
ENDBRANCH   1  12
BRANCH   6  22
ATOM     22  O   UNL     1      26.935  21.073  53.978  1.00  0.00    -0.507 OA
ATOM     23  H   UNL     1      26.764  20.192  53.519  1.00  0.00     0.293 HD
ENDBRANCH   6  22
BRANCH   8  24
ATOM     24  O   UNL     1      30.374  24.284  54.854  1.00  0.00    -0.508 OA
ATOM     25  H   UNL     1      30.404  25.288  54.991  1.00  0.00     0.293 HD
ENDBRANCH   8  24
TORSDOF 5
ENDMDL
MODEL 3
REMARK VINA RESULT:    -6.924      1.448      2.024
REMARK INTER + INTRA:          -8.434
REMARK INTER:                  -8.138
REMARK INTRA:                  -0.296
REMARK UNBOUND:                -0.296
REMARK SMILES O=c1cc(-c2ccc(O)c(O)c2)oc2cc(O)cc(O)c12
REMARK SMILES IDX 4 1 3 2 2 3 1 4 21 5 19 6 18 7 16 8 15 9 14 10 13 11 5 12
REMARK SMILES IDX 6 13 7 14 8 15 12 16 10 17 9 18 11 20 20 22 17 24
REMARK H PARENT 9 19 11 21 20 23 17 25
REMARK Flexibility Score: inf
ROOT
ATOM      1  C   UNL     1      28.934  23.803  49.812  1.00  0.00     0.138 A 
ATOM      2  C   UNL     1      30.195  24.140  50.322  1.00  0.00     0.100 A 
ATOM      3  C   UNL     1      30.501  23.851  51.652  1.00  0.00     0.197 A 
ATOM      4  O   UNL     1      31.661  24.110  52.064  1.00  0.00    -0.289 OA
ATOM      5  C   UNL     1      29.527  23.248  52.483  1.00  0.00     0.107 A 
ATOM      6  C   UNL     1      29.713  22.944  53.865  1.00  0.00     0.134 A 
ATOM      7  C   UNL     1      28.719  22.241  54.557  1.00  0.00     0.093 A 
ATOM      8  C   UNL     1      27.523  21.885  53.936  1.00  0.00     0.123 A 
ATOM      9  C   UNL     1      27.308  22.223  52.599  1.00  0.00     0.094 A 
ATOM     10  C   UNL     1      28.294  22.894  51.872  1.00  0.00     0.146 A 
ATOM     11  O   UNL     1      28.057  23.187  50.597  1.00  0.00    -0.456 OA
ENDROOT
BRANCH   1  12
ATOM     12  C   UNL     1      28.555  24.088  48.405  1.00  0.00     0.021 A 
ATOM     13  C   UNL     1      27.225  23.893  47.993  1.00  0.00     0.016 A 
ATOM     14  C   UNL     1      26.841  24.163  46.677  1.00  0.00     0.051 A 
ATOM     15  C   UNL     1      27.778  24.639  45.753  1.00  0.00     0.157 A 
ATOM     16  C   UNL     1      29.489  24.581  47.472  1.00  0.00     0.062 A 
ATOM     17  C   UNL     1      29.103  24.852  46.151  1.00  0.00     0.158 A 
BRANCH  15  18
ATOM     18  O   UNL     1      27.400  24.908  44.438  1.00  0.00    -0.504 OA
ATOM     19  H   UNL     1      26.537  25.395  44.224  1.00  0.00     0.293 HD
ENDBRANCH  15  18
BRANCH  17  20
ATOM     20  O   UNL     1      30.031  25.338  45.231  1.00  0.00    -0.504 OA
ATOM     21  H   UNL     1      30.640  26.115  45.452  1.00  0.00     0.293 HD
ENDBRANCH  17  20
ENDBRANCH   1  12
BRANCH   6  22
ATOM     22  O   UNL     1      30.835  23.329  54.605  1.00  0.00    -0.507 OA
ATOM     23  H   UNL     1      31.653  23.775  54.221  1.00  0.00     0.293 HD
ENDBRANCH   6  22
BRANCH   8  24
ATOM     24  O   UNL     1      26.550  21.198  54.660  1.00  0.00    -0.508 OA
ATOM     25  H   UNL     1      26.272  21.495  55.589  1.00  0.00     0.293 HD
ENDBRANCH   8  24
TORSDOF 5
ENDMDL
MODEL 4
REMARK VINA RESULT:    -6.437      1.601      7.285
REMARK INTER + INTRA:          -7.862
REMARK INTER:                  -7.598
REMARK INTRA:                  -0.264
REMARK UNBOUND:                -0.296
REMARK SMILES O=c1cc(-c2ccc(O)c(O)c2)oc2cc(O)cc(O)c12
REMARK SMILES IDX 4 1 3 2 2 3 1 4 21 5 19 6 18 7 16 8 15 9 14 10 13 11 5 12
REMARK SMILES IDX 6 13 7 14 8 15 12 16 10 17 9 18 11 20 20 22 17 24
REMARK H PARENT 9 19 11 21 20 23 17 25
REMARK Flexibility Score: inf
ROOT
ATOM      1  C   UNL     1      28.810  23.446  49.959  1.00  0.00     0.138 A 
ATOM      2  C   UNL     1      27.512  23.034  49.625  1.00  0.00     0.100 A 
ATOM      3  C   UNL     1      27.026  23.265  48.337  1.00  0.00     0.197 A 
ATOM      4  O   UNL     1      25.882  22.830  48.048  1.00  0.00    -0.289 OA
ATOM      5  C   UNL     1      27.835  23.938  47.390  1.00  0.00     0.107 A 
ATOM      6  C   UNL     1      27.430  24.264  46.061  1.00  0.00     0.134 A 
ATOM      7  C   UNL     1      28.356  24.829  45.176  1.00  0.00     0.093 A 
ATOM      8  C   UNL     1      29.652  25.134  45.588  1.00  0.00     0.123 A 
ATOM      9  C   UNL     1      30.044  24.869  46.901  1.00  0.00     0.094 A 
ATOM     10  C   UNL     1      29.153  24.275  47.798  1.00  0.00     0.146 A 
ATOM     11  O   UNL     1      29.568  24.026  49.036  1.00  0.00    -0.456 OA
ENDROOT
BRANCH   1  12
ATOM     12  C   UNL     1      29.376  23.227  51.315  1.00  0.00     0.021 A 
ATOM     13  C   UNL     1      30.354  22.234  51.504  1.00  0.00     0.016 A 
ATOM     14  C   UNL     1      30.909  22.014  52.767  1.00  0.00     0.051 A 
ATOM     15  C   UNL     1      30.502  22.787  53.861  1.00  0.00     0.157 A 
ATOM     16  C   UNL     1      28.981  24.009  52.418  1.00  0.00     0.062 A 
ATOM     17  C   UNL     1      29.539  23.789  53.685  1.00  0.00     0.158 A 
BRANCH  15  18
ATOM     18  O   UNL     1      31.051  22.570  55.123  1.00  0.00    -0.504 OA
ATOM     19  H   UNL     1      30.471  22.334  55.920  1.00  0.00     0.293 HD
ENDBRANCH  15  18
BRANCH  17  20
ATOM     20  O   UNL     1      29.144  24.564  54.775  1.00  0.00    -0.504 OA
ATOM     21  H   UNL     1      29.800  25.155  55.270  1.00  0.00     0.293 HD
ENDBRANCH  17  20
ENDBRANCH   1  12
BRANCH   6  22
ATOM     22  O   UNL     1      26.133  24.078  45.573  1.00  0.00    -0.507 OA
ATOM     23  H   UNL     1      25.567  24.798  45.151  1.00  0.00     0.293 HD
ENDBRANCH   6  22
BRANCH   8  24
ATOM     24  O   UNL     1      30.544  25.710  44.684  1.00  0.00    -0.508 OA
ATOM     25  H   UNL     1      31.169  26.459  44.959  1.00  0.00     0.293 HD
ENDBRANCH   8  24
TORSDOF 5
ENDMDL
MODEL 5
REMARK VINA RESULT:    -6.359     12.134     13.764
REMARK INTER + INTRA:          -7.770
REMARK INTER:                  -7.496
REMARK INTRA:                  -0.274
REMARK UNBOUND:                -0.296
REMARK SMILES O=c1cc(-c2ccc(O)c(O)c2)oc2cc(O)cc(O)c12
REMARK SMILES IDX 4 1 3 2 2 3 1 4 21 5 19 6 18 7 16 8 15 9 14 10 13 11 5 12
REMARK SMILES IDX 6 13 7 14 8 15 12 16 10 17 9 18 11 20 20 22 17 24
REMARK H PARENT 9 19 11 21 20 23 17 25
REMARK Flexibility Score: inf
ROOT
ATOM      1  C   UNL     1      16.177  28.428  51.231  1.00  0.00     0.138 A 
ATOM      2  C   UNL     1      16.357  29.752  51.654  1.00  0.00     0.100 A 
ATOM      3  C   UNL     1      17.242  30.029  52.697  1.00  0.00     0.197 A 
ATOM      4  O   UNL     1      17.429  31.231  53.014  1.00  0.00    -0.289 OA
ATOM      5  C   UNL     1      17.926  28.969  53.339  1.00  0.00     0.107 A 
ATOM      6  C   UNL     1      18.821  29.127  54.439  1.00  0.00     0.134 A 
ATOM      7  C   UNL     1      19.529  28.019  54.918  1.00  0.00     0.093 A 
ATOM      8  C   UNL     1      19.332  26.749  54.377  1.00  0.00     0.123 A 
ATOM      9  C   UNL     1      18.420  26.573  53.336  1.00  0.00     0.094 A 
ATOM     10  C   UNL     1      17.723  27.665  52.814  1.00  0.00     0.146 A 
ATOM     11  O   UNL     1      16.873  27.458  51.813  1.00  0.00    -0.456 OA
ENDROOT
BRANCH   1  12
ATOM     12  C   UNL     1      15.248  28.077  50.127  1.00  0.00     0.021 A 
ATOM     13  C   UNL     1      13.872  28.326  50.276  1.00  0.00     0.016 A 
ATOM     14  C   UNL     1      12.978  28.013  49.248  1.00  0.00     0.051 A 
ATOM     15  C   UNL     1      13.444  27.453  48.053  1.00  0.00     0.157 A 
ATOM     16  C   UNL     1      15.711  27.526  48.916  1.00  0.00     0.062 A 
ATOM     17  C   UNL     1      14.814  27.213  47.885  1.00  0.00     0.158 A 
BRANCH  15  18
ATOM     18  O   UNL     1      12.556  27.138  47.027  1.00  0.00    -0.504 OA
ATOM     19  H   UNL     1      12.372  27.784  46.267  1.00  0.00     0.293 HD
ENDBRANCH  15  18
BRANCH  17  20
ATOM     20  O   UNL     1      15.276  26.666  46.689  1.00  0.00    -0.504 OA
ATOM     21  H   UNL     1      14.947  27.000  45.791  1.00  0.00     0.293 HD
ENDBRANCH  17  20
ENDBRANCH   1  12
BRANCH   6  22
ATOM     22  O   UNL     1      19.028  30.337  55.109  1.00  0.00    -0.507 OA
ATOM     23  H   UNL     1      18.598  30.593  55.984  1.00  0.00     0.293 HD
ENDBRANCH   6  22
BRANCH   8  24
ATOM     24  O   UNL     1      20.044  25.665  54.888  1.00  0.00    -0.508 OA
ATOM     25  H   UNL     1      20.494  25.707  55.796  1.00  0.00     0.293 HD
ENDBRANCH   8  24
TORSDOF 5
ENDMDL
MODEL 6
REMARK VINA RESULT:    -6.172     13.681     16.406
REMARK INTER + INTRA:          -7.550
REMARK INTER:                  -7.254
REMARK INTRA:                  -0.296
REMARK UNBOUND:                -0.296
REMARK SMILES O=c1cc(-c2ccc(O)c(O)c2)oc2cc(O)cc(O)c12
REMARK SMILES IDX 4 1 3 2 2 3 1 4 21 5 19 6 18 7 16 8 15 9 14 10 13 11 5 12
REMARK SMILES IDX 6 13 7 14 8 15 12 16 10 17 9 18 11 20 20 22 17 24
REMARK H PARENT 9 19 11 21 20 23 17 25
REMARK Flexibility Score: inf
ROOT
ATOM      1  C   UNL     1      15.842  22.085  42.760  1.00  0.00     0.138 A 
ATOM      2  C   UNL     1      17.090  22.563  42.340  1.00  0.00     0.100 A 
ATOM      3  C   UNL     1      17.155  23.681  41.507  1.00  0.00     0.197 A 
ATOM      4  O   UNL     1      18.291  24.124  41.196  1.00  0.00    -0.289 OA
ATOM      5  C   UNL     1      15.962  24.303  41.070  1.00  0.00     0.107 A 
ATOM      6  C   UNL     1      15.905  25.424  40.188  1.00  0.00     0.134 A 
ATOM      7  C   UNL     1      14.671  26.027  39.917  1.00  0.00     0.093 A 
ATOM      8  C   UNL     1      13.487  25.516  40.447  1.00  0.00     0.123 A 
ATOM      9  C   UNL     1      13.525  24.388  41.268  1.00  0.00     0.094 A 
ATOM     10  C   UNL     1      14.744  23.784  41.584  1.00  0.00     0.146 A 
ATOM     11  O   UNL     1      14.739  22.720  42.381  1.00  0.00    -0.456 OA
ENDROOT
BRANCH   1  12
ATOM     12  C   UNL     1      15.714  20.899  43.645  1.00  0.00     0.021 A 
ATOM     13  C   UNL     1      14.461  20.577  44.195  1.00  0.00     0.016 A 
ATOM     14  C   UNL     1      14.313  19.462  45.024  1.00  0.00     0.051 A 
ATOM     15  C   UNL     1      15.413  18.645  45.310  1.00  0.00     0.157 A 
ATOM     16  C   UNL     1      16.814  20.064  43.927  1.00  0.00     0.062 A 
ATOM     17  C   UNL     1      16.665  18.944  44.758  1.00  0.00     0.158 A 
BRANCH  15  18
ATOM     18  O   UNL     1      15.271  17.532  46.138  1.00  0.00    -0.504 OA
ATOM     19  H   UNL     1      14.383  17.304  46.571  1.00  0.00     0.293 HD
ENDBRANCH  15  18
BRANCH  17  20
ATOM     20  O   UNL     1      17.756  18.122  45.037  1.00  0.00    -0.504 OA
ATOM     21  H   UNL     1      18.470  17.935  44.343  1.00  0.00     0.293 HD
ENDBRANCH  17  20
ENDBRANCH   1  12
BRANCH   6  22
ATOM     22  O   UNL     1      17.019  25.962  39.537  1.00  0.00    -0.507 OA
ATOM     23  H   UNL     1      16.996  26.424  38.641  1.00  0.00     0.293 HD
ENDBRANCH   6  22
BRANCH   8  24
ATOM     24  O   UNL     1      12.275  26.134  40.144  1.00  0.00    -0.508 OA
ATOM     25  H   UNL     1      12.035  27.044  40.520  1.00  0.00     0.293 HD
ENDBRANCH   8  24
TORSDOF 5
ENDMDL
MODEL 7
REMARK VINA RESULT:    -5.820     13.324     15.602
REMARK INTER + INTRA:          -7.137
REMARK INTER:                  -6.841
REMARK INTRA:                  -0.296
REMARK UNBOUND:                -0.296
REMARK SMILES O=c1cc(-c2ccc(O)c(O)c2)oc2cc(O)cc(O)c12
REMARK SMILES IDX 4 1 3 2 2 3 1 4 21 5 19 6 18 7 16 8 15 9 14 10 13 11 5 12
REMARK SMILES IDX 6 13 7 14 8 15 12 16 10 17 9 18 11 20 20 22 17 24
REMARK H PARENT 9 19 11 21 20 23 17 25
REMARK Flexibility Score: inf
ROOT
ATOM      1  C   UNL     1      15.914  27.925  51.287  1.00  0.00     0.138 A 
ATOM      2  C   UNL     1      16.051  26.531  51.335  1.00  0.00     0.100 A 
ATOM      3  C   UNL     1      15.287  25.733  50.483  1.00  0.00     0.197 A 
ATOM      4  O   UNL     1      15.476  24.490  50.506  1.00  0.00    -0.289 OA
ATOM      5  C   UNL     1      14.358  26.334  49.601  1.00  0.00     0.107 A 
ATOM      6  C   UNL     1      13.497  25.619  48.716  1.00  0.00     0.134 A 
ATOM      7  C   UNL     1      12.702  26.325  47.805  1.00  0.00     0.093 A 
ATOM      8  C   UNL     1      12.692  27.719  47.788  1.00  0.00     0.123 A 
ATOM      9  C   UNL     1      13.490  28.430  48.685  1.00  0.00     0.094 A 
ATOM     10  C   UNL     1      14.320  27.754  49.582  1.00  0.00     0.146 A 
ATOM     11  O   UNL     1      15.076  28.468  50.411  1.00  0.00    -0.456 OA
ENDROOT
BRANCH   1  12
ATOM     12  C   UNL     1      16.701  28.821  52.172  1.00  0.00     0.021 A 
ATOM     13  C   UNL     1      16.645  30.212  51.973  1.00  0.00     0.016 A 
ATOM     14  C   UNL     1      17.370  31.077  52.798  1.00  0.00     0.051 A 
ATOM     15  C   UNL     1      18.156  30.568  53.838  1.00  0.00     0.157 A 
ATOM     16  C   UNL     1      17.484  28.317  53.229  1.00  0.00     0.062 A 
ATOM     17  C   UNL     1      18.210  29.185  54.057  1.00  0.00     0.158 A 
BRANCH  15  18
ATOM     18  O   UNL     1      18.882  31.427  54.661  1.00  0.00    -0.504 OA
ATOM     19  H   UNL     1      18.569  31.653  55.599  1.00  0.00     0.293 HD
ENDBRANCH  15  18
BRANCH  17  20
ATOM     20  O   UNL     1      18.985  28.683  55.101  1.00  0.00    -0.504 OA
ATOM     21  H   UNL     1      19.872  28.225  54.930  1.00  0.00     0.293 HD
ENDBRANCH  17  20
ENDBRANCH   1  12
BRANCH   6  22
ATOM     22  O   UNL     1      13.367  24.227  48.709  1.00  0.00    -0.507 OA
ATOM     23  H   UNL     1      13.091  23.678  47.910  1.00  0.00     0.293 HD
ENDBRANCH   6  22
BRANCH   8  24
ATOM     24  O   UNL     1      11.876  28.390  46.877  1.00  0.00    -0.508 OA
ATOM     25  H   UNL     1      11.413  29.258  47.120  1.00  0.00     0.293 HD
ENDBRANCH   8  24
TORSDOF 5
ENDMDL
MODEL 8
REMARK VINA RESULT:    -5.705     12.495     13.925
REMARK INTER + INTRA:          -7.002
REMARK INTER:                  -6.727
REMARK INTRA:                  -0.275
REMARK UNBOUND:                -0.296
REMARK SMILES O=c1cc(-c2ccc(O)c(O)c2)oc2cc(O)cc(O)c12
REMARK SMILES IDX 4 1 3 2 2 3 1 4 21 5 19 6 18 7 16 8 15 9 14 10 13 11 5 12
REMARK SMILES IDX 6 13 7 14 8 15 12 16 10 17 9 18 11 20 20 22 17 24
REMARK H PARENT 9 19 11 21 20 23 17 25
REMARK Flexibility Score: inf
ROOT
ATOM      1  C   UNL     1      16.000  27.639  51.209  1.00  0.00     0.138 A 
ATOM      2  C   UNL     1      16.617  26.469  51.671  1.00  0.00     0.100 A 
ATOM      3  C   UNL     1      17.499  26.534  52.750  1.00  0.00     0.197 A 
ATOM      4  O   UNL     1      17.990  25.459  53.181  1.00  0.00    -0.289 OA
ATOM      5  C   UNL     1      17.788  27.784  53.348  1.00  0.00     0.107 A 
ATOM      6  C   UNL     1      18.701  27.977  54.427  1.00  0.00     0.134 A 
ATOM      7  C   UNL     1      18.819  29.243  55.015  1.00  0.00     0.093 A 
ATOM      8  C   UNL     1      18.102  30.333  54.525  1.00  0.00     0.123 A 
ATOM      9  C   UNL     1      17.245  30.168  53.436  1.00  0.00     0.094 A 
ATOM     10  C   UNL     1      17.081  28.911  52.850  1.00  0.00     0.146 A 
ATOM     11  O   UNL     1      16.244  28.791  51.823  1.00  0.00    -0.456 OA
ENDROOT
BRANCH   1  12
ATOM     12  C   UNL     1      15.054  27.627  50.064  1.00  0.00     0.021 A 
ATOM     13  C   UNL     1      13.810  28.270  50.188  1.00  0.00     0.016 A 
ATOM     14  C   UNL     1      12.905  28.280  49.123  1.00  0.00     0.051 A 
ATOM     15  C   UNL     1      13.232  27.655  47.914  1.00  0.00     0.157 A 
ATOM     16  C   UNL     1      15.382  27.012  48.839  1.00  0.00     0.062 A 
ATOM     17  C   UNL     1      14.474  27.024  47.770  1.00  0.00     0.158 A 
BRANCH  15  18
ATOM     18  O   UNL     1      12.333  27.662  46.849  1.00  0.00    -0.504 OA
ATOM     19  H   UNL     1      12.451  28.286  46.059  1.00  0.00     0.293 HD
ENDBRANCH  15  18
BRANCH  17  20
ATOM     20  O   UNL     1      14.801  26.413  46.560  1.00  0.00    -0.504 OA
ATOM     21  H   UNL     1      14.091  26.167  45.882  1.00  0.00     0.293 HD
ENDBRANCH  17  20
ENDBRANCH   1  12
BRANCH   6  22
ATOM     22  O   UNL     1      19.529  26.973  54.938  1.00  0.00    -0.507 OA
ATOM     23  H   UNL     1      19.870  26.934  55.886  1.00  0.00     0.293 HD
ENDBRANCH   6  22
BRANCH   8  24
ATOM     24  O   UNL     1      18.254  31.582  55.125  1.00  0.00    -0.508 OA
ATOM     25  H   UNL     1      19.151  32.055  55.145  1.00  0.00     0.293 HD
ENDBRANCH   8  24
TORSDOF 5
ENDMDL
