MODEL 1
REMARK VINA RESULT:    -3.263      0.000      0.000
REMARK INTER + INTRA:         -14.074
REMARK INTER:                  -8.605
REMARK INTRA:                  -5.469
REMARK UNBOUND:                -5.469
REMARK SMILES CCCCCCCCCCCCCCCCCCCCCCCCCCCCCC(=O)[O-]
REMARK SMILES IDX 16 1 17 2 18 3 19 4 20 5 21 6 22 7 23 8 24 9 25 10 26 11
REMARK SMILES IDX 27 12 28 13 29 14 30 15 31 16 32 17 15 18 14 19 13 20 12 21
REMARK SMILES IDX 11 22 10 23 9 24 8 25 7 26 6 27 5 28 4 29 3 30 2 31 1 32
REMARK H PARENT
REMARK Flexibility Score: inf
ROOT
ATOM      1  C   UNL     1      85.742  27.438  27.013  1.00  0.00     0.000 C 
ENDROOT
BRANCH   1   2
ATOM      2  C   UNL     1      86.824  27.237  28.087  1.00  0.00     0.000 C 
BRANCH   2   3
ATOM      3  C   UNL     1      86.864  28.383  29.110  1.00  0.00     0.000 C 
BRANCH   3   4
ATOM      4  C   UNL     1      88.116  29.266  28.968  1.00  0.00     0.000 C 
BRANCH   4   5
ATOM      5  C   UNL     1      89.270  28.635  28.166  1.00  0.00     0.000 C 
BRANCH   5   6
ATOM      6  C   UNL     1      89.749  29.520  27.006  1.00  0.00     0.000 C 
BRANCH   6   7
ATOM      7  C   UNL     1      88.858  29.337  25.767  1.00  0.00     0.000 C 
BRANCH   7   8
ATOM      8  C   UNL     1      88.139  30.633  25.357  1.00  0.00     0.000 C 
BRANCH   8   9
ATOM      9  C   UNL     1      86.625  30.583  25.616  1.00  0.00     0.000 C 
BRANCH   9  10
ATOM     10  C   UNL     1      86.244  31.468  26.808  1.00  0.00     0.000 C 
BRANCH  10  11
ATOM     11  C   UNL     1      84.851  31.100  27.343  1.00  0.00     0.000 C 
BRANCH  11  12
ATOM     12  C   UNL     1      84.416  31.980  28.528  1.00  0.00     0.000 C 
BRANCH  12  13
ATOM     13  C   UNL     1      84.757  31.351  29.887  1.00  0.00     0.006 C 
BRANCH  13  14
ATOM     14  C   UNL     1      85.625  32.295  30.728  1.00  0.00     0.053 C 
BRANCH  14  15
ATOM     15  C   UNL     1      85.262  32.201  32.178  1.00  0.00     0.041 C 
ATOM     16  O   UNL     1      86.021  32.696  33.058  1.00  0.00    -0.550 OA
ATOM     17  O   UNL     1      84.079  31.578  32.559  1.00  0.00    -0.550 OA
ENDBRANCH  14  15
ENDBRANCH  13  14
ENDBRANCH  12  13
ENDBRANCH  11  12
ENDBRANCH  10  11
ENDBRANCH   9  10
ENDBRANCH   8   9
ENDBRANCH   7   8
ENDBRANCH   6   7
ENDBRANCH   5   6
ENDBRANCH   4   5
ENDBRANCH   3   4
ENDBRANCH   2   3
ENDBRANCH   1   2
BRANCH   1  18
ATOM     18  C   UNL     1      86.003  26.602  25.750  1.00  0.00     0.000 C 
BRANCH  18  19
ATOM     19  C   UNL     1      84.779  25.779  25.312  1.00  0.00     0.000 C 
BRANCH  19  20
ATOM     20  C   UNL     1      85.125  24.346  24.853  1.00  0.00     0.000 C 
BRANCH  20  21
ATOM     21  C   UNL     1      84.729  23.287  25.892  1.00  0.00     0.000 C 
BRANCH  21  22
ATOM     22  C   UNL     1      85.926  22.902  26.774  1.00  0.00     0.000 C 
BRANCH  22  23
ATOM     23  C   UNL     1      85.912  23.601  28.144  1.00  0.00     0.000 C 
BRANCH  23  24
ATOM     24  C   UNL     1      84.520  23.596  28.797  1.00  0.00    -0.000 C 
BRANCH  24  25
ATOM     25  C   UNL     1      84.139  24.996  29.313  1.00  0.00    -0.000 C 
BRANCH  25  26
ATOM     26  C   UNL     1      82.953  25.596  28.539  1.00  0.00    -0.000 C 
BRANCH  26  27
ATOM     27  C   UNL     1      81.734  24.654  28.494  1.00  0.00    -0.000 C 
BRANCH  27  28
ATOM     28  C   UNL     1      80.587  25.134  29.407  1.00  0.00    -0.000 C 
BRANCH  28  29
ATOM     29  C   UNL     1      80.813  24.850  30.907  1.00  0.00    -0.000 C 
BRANCH  29  30
ATOM     30  C   UNL     1      80.779  26.100  31.809  1.00  0.00    -0.000 C 
BRANCH  30  31
ATOM     31  C   UNL     1      82.184  26.611  32.164  1.00  0.00    -0.003 C 
ATOM     32  C   UNL     1      82.490  27.925  31.451  1.00  0.00     0.004 C 
ENDBRANCH  30  31
ENDBRANCH  29  30
ENDBRANCH  28  29
ENDBRANCH  27  28
ENDBRANCH  26  27
ENDBRANCH  25  26
ENDBRANCH  24  25
ENDBRANCH  23  24
ENDBRANCH  22  23
ENDBRANCH  21  22
ENDBRANCH  20  21
ENDBRANCH  19  20
ENDBRANCH  18  19
ENDBRANCH   1  18
TORSDOF 28
ENDMDL
MODEL 2
REMARK VINA RESULT:    -3.246      1.337      2.890
REMARK INTER + INTRA:         -14.029
REMARK INTER:                  -8.386
REMARK INTRA:                  -5.643
REMARK UNBOUND:                -5.469
REMARK SMILES CCCCCCCCCCCCCCCCCCCCCCCCCCCCCC(=O)[O-]
REMARK SMILES IDX 16 1 17 2 18 3 19 4 20 5 21 6 22 7 23 8 24 9 25 10 26 11
REMARK SMILES IDX 27 12 28 13 29 14 30 15 31 16 32 17 15 18 14 19 13 20 12 21
REMARK SMILES IDX 11 22 10 23 9 24 8 25 7 26 6 27 5 28 4 29 3 30 2 31 1 32
REMARK H PARENT
REMARK Flexibility Score: inf
ROOT
ATOM      1  C   UNL     1      87.528  29.231  29.154  1.00  0.00     0.000 C 
ENDROOT
BRANCH   1   2
ATOM      2  C   UNL     1      88.882  29.810  28.713  1.00  0.00     0.000 C 
BRANCH   2   3
ATOM      3  C   UNL     1      89.807  28.750  28.094  1.00  0.00     0.000 C 
BRANCH   3   4
ATOM      4  C   UNL     1      89.706  28.692  26.559  1.00  0.00     0.000 C 
BRANCH   4   5
ATOM      5  C   UNL     1      89.236  29.996  25.889  1.00  0.00     0.000 C 
BRANCH   5   6
ATOM      6  C   UNL     1      87.849  29.871  25.240  1.00  0.00     0.000 C 
BRANCH   6   7
ATOM      7  C   UNL     1      87.022  31.148  25.453  1.00  0.00     0.000 C 
BRANCH   7   8
ATOM      8  C   UNL     1      85.645  30.867  26.079  1.00  0.00     0.000 C 
BRANCH   8   9
ATOM      9  C   UNL     1      85.414  31.638  27.387  1.00  0.00     0.000 C 
BRANCH   9  10
ATOM     10  C   UNL     1      84.368  30.935  28.260  1.00  0.00     0.000 C 
BRANCH  10  11
ATOM     11  C   UNL     1      83.231  31.896  28.637  1.00  0.00     0.000 C 
BRANCH  11  12
ATOM     12  C   UNL     1      83.047  32.036  30.158  1.00  0.00     0.000 C 
BRANCH  12  13
ATOM     13  C   UNL     1      84.088  31.236  30.954  1.00  0.00     0.006 C 
BRANCH  13  14
ATOM     14  C   UNL     1      84.208  31.765  32.389  1.00  0.00     0.053 C 
BRANCH  14  15
ATOM     15  C   UNL     1      84.783  33.148  32.399  1.00  0.00     0.041 C 
ATOM     16  O   UNL     1      85.972  33.346  32.023  1.00  0.00    -0.550 OA
ATOM     17  O   UNL     1      84.003  34.222  32.813  1.00  0.00    -0.550 OA
ENDBRANCH  14  15
ENDBRANCH  13  14
ENDBRANCH  12  13
ENDBRANCH  11  12
ENDBRANCH  10  11
ENDBRANCH   9  10
ENDBRANCH   8   9
ENDBRANCH   7   8
ENDBRANCH   6   7
ENDBRANCH   5   6
ENDBRANCH   4   5
ENDBRANCH   3   4
ENDBRANCH   2   3
ENDBRANCH   1   2
BRANCH   1  18
ATOM     18  C   UNL     1      87.562  27.700  29.301  1.00  0.00     0.000 C 
BRANCH  18  19
ATOM     19  C   UNL     1      86.265  27.023  28.826  1.00  0.00     0.000 C 
BRANCH  19  20
ATOM     20  C   UNL     1      85.731  27.574  27.486  1.00  0.00     0.000 C 
BRANCH  20  21
ATOM     21  C   UNL     1      86.087  26.668  26.298  1.00  0.00     0.000 C 
BRANCH  21  22
ATOM     22  C   UNL     1      84.849  26.360  25.445  1.00  0.00     0.000 C 
BRANCH  22  23
ATOM     23  C   UNL     1      84.657  24.856  25.185  1.00  0.00     0.000 C 
BRANCH  23  24
ATOM     24  C   UNL     1      85.766  24.000  25.819  1.00  0.00    -0.000 C 
BRANCH  24  25
ATOM     25  C   UNL     1      85.198  23.060  26.898  1.00  0.00    -0.000 C 
BRANCH  25  26
ATOM     26  C   UNL     1      85.377  23.628  28.315  1.00  0.00    -0.000 C 
BRANCH  26  27
ATOM     27  C   UNL     1      84.085  23.558  29.152  1.00  0.00    -0.000 C 
BRANCH  27  28
ATOM     28  C   UNL     1      82.871  24.151  28.408  1.00  0.00    -0.000 C 
BRANCH  28  29
ATOM     29  C   UNL     1      82.735  25.683  28.541  1.00  0.00    -0.000 C 
BRANCH  29  30
ATOM     30  C   UNL     1      82.743  26.203  29.992  1.00  0.00    -0.000 C 
BRANCH  30  31
ATOM     31  C   UNL     1      83.004  27.715  30.076  1.00  0.00    -0.003 C 
ATOM     32  C   UNL     1      81.696  28.496  30.174  1.00  0.00     0.004 C 
ENDBRANCH  30  31
ENDBRANCH  29  30
ENDBRANCH  28  29
ENDBRANCH  27  28
ENDBRANCH  26  27
ENDBRANCH  25  26
ENDBRANCH  24  25
ENDBRANCH  23  24
ENDBRANCH  22  23
ENDBRANCH  21  22
ENDBRANCH  20  21
ENDBRANCH  19  20
ENDBRANCH  18  19
ENDBRANCH   1  18
TORSDOF 28
ENDMDL
MODEL 3
REMARK VINA RESULT:    -3.237      1.457      2.211
REMARK INTER + INTRA:         -14.004
REMARK INTER:                  -7.905
REMARK INTRA:                  -6.100
REMARK UNBOUND:                -5.469
REMARK SMILES CCCCCCCCCCCCCCCCCCCCCCCCCCCCCC(=O)[O-]
REMARK SMILES IDX 16 1 17 2 18 3 19 4 20 5 21 6 22 7 23 8 24 9 25 10 26 11
REMARK SMILES IDX 27 12 28 13 29 14 30 15 31 16 32 17 15 18 14 19 13 20 12 21
REMARK SMILES IDX 11 22 10 23 9 24 8 25 7 26 6 27 5 28 4 29 3 30 2 31 1 32
REMARK H PARENT
REMARK Flexibility Score: inf
ROOT
ATOM      1  C   UNL     1      85.820  27.333  26.437  1.00  0.00     0.000 C 
ENDROOT
BRANCH   1   2
ATOM      2  C   UNL     1      87.037  27.247  27.373  1.00  0.00     0.000 C 
BRANCH   2   3
ATOM      3  C   UNL     1      86.769  27.868  28.753  1.00  0.00     0.000 C 
BRANCH   3   4
ATOM      4  C   UNL     1      87.920  28.769  29.235  1.00  0.00     0.000 C 
BRANCH   4   5
ATOM      5  C   UNL     1      89.198  28.706  28.378  1.00  0.00     0.000 C 
BRANCH   5   6
ATOM      6  C   UNL     1      89.382  29.941  27.484  1.00  0.00     0.000 C 
BRANCH   6   7
ATOM      7  C   UNL     1      89.961  29.551  26.115  1.00  0.00     0.000 C 
BRANCH   7   8
ATOM      8  C   UNL     1      89.271  30.280  24.950  1.00  0.00     0.000 C 
BRANCH   8   9
ATOM      9  C   UNL     1      88.047  29.522  24.413  1.00  0.00     0.000 C 
BRANCH   9  10
ATOM     10  C   UNL     1      86.843  30.461  24.267  1.00  0.00     0.000 C 
BRANCH  10  11
ATOM     11  C   UNL     1      87.107  31.805  24.963  1.00  0.00     0.000 C 
BRANCH  11  12
ATOM     12  C   UNL     1      86.081  32.117  26.066  1.00  0.00     0.000 C 
BRANCH  12  13
ATOM     13  C   UNL     1      85.941  30.976  27.083  1.00  0.00     0.006 C 
BRANCH  13  14
ATOM     14  C   UNL     1      84.695  31.168  27.958  1.00  0.00     0.053 C 
BRANCH  14  15
ATOM     15  C   UNL     1      85.019  31.980  29.173  1.00  0.00     0.041 C 
ATOM     16  O   UNL     1      85.930  31.606  29.964  1.00  0.00    -0.550 OA
ATOM     17  O   UNL     1      84.324  33.156  29.430  1.00  0.00    -0.550 OA
ENDBRANCH  14  15
ENDBRANCH  13  14
ENDBRANCH  12  13
ENDBRANCH  11  12
ENDBRANCH  10  11
ENDBRANCH   9  10
ENDBRANCH   8   9
ENDBRANCH   7   8
ENDBRANCH   6   7
ENDBRANCH   5   6
ENDBRANCH   4   5
ENDBRANCH   3   4
ENDBRANCH   2   3
ENDBRANCH   1   2
BRANCH   1  18
ATOM     18  C   UNL     1      86.012  26.522  25.145  1.00  0.00     0.000 C 
BRANCH  18  19
ATOM     19  C   UNL     1      84.912  25.469  24.929  1.00  0.00     0.000 C 
BRANCH  19  20
ATOM     20  C   UNL     1      85.446  24.024  24.825  1.00  0.00     0.000 C 
BRANCH  20  21
ATOM     21  C   UNL     1      84.957  23.135  25.977  1.00  0.00     0.000 C 
BRANCH  21  22
ATOM     22  C   UNL     1      86.054  22.945  27.035  1.00  0.00     0.000 C 
BRANCH  22  23
ATOM     23  C   UNL     1      85.886  23.875  28.248  1.00  0.00     0.000 C 
BRANCH  23  24
ATOM     24  C   UNL     1      84.437  23.924  28.760  1.00  0.00    -0.000 C 
BRANCH  24  25
ATOM     25  C   UNL     1      84.007  25.367  29.085  1.00  0.00    -0.000 C 
BRANCH  25  26
ATOM     26  C   UNL     1      82.528  25.621  28.749  1.00  0.00    -0.000 C 
BRANCH  26  27
ATOM     27  C   UNL     1      82.342  26.408  27.438  1.00  0.00    -0.000 C 
BRANCH  27  28
ATOM     28  C   UNL     1      82.505  27.929  27.638  1.00  0.00    -0.000 C 
BRANCH  28  29
ATOM     29  C   UNL     1      81.366  28.584  28.449  1.00  0.00    -0.000 C 
BRANCH  29  30
ATOM     30  C   UNL     1      81.839  29.461  29.625  1.00  0.00    -0.000 C 
BRANCH  30  31
ATOM     31  C   UNL     1      83.034  28.849  30.374  1.00  0.00    -0.003 C 
ATOM     32  C   UNL     1      82.570  28.009  31.561  1.00  0.00     0.004 C 
ENDBRANCH  30  31
ENDBRANCH  29  30
ENDBRANCH  28  29
ENDBRANCH  27  28
ENDBRANCH  26  27
ENDBRANCH  25  26
ENDBRANCH  24  25
ENDBRANCH  23  24
ENDBRANCH  22  23
ENDBRANCH  21  22
ENDBRANCH  20  21
ENDBRANCH  19  20
ENDBRANCH  18  19
ENDBRANCH   1  18
TORSDOF 28
ENDMDL
MODEL 4
REMARK VINA RESULT:    -3.212      2.202      4.898
REMARK INTER + INTRA:         -13.938
REMARK INTER:                  -7.676
REMARK INTRA:                  -6.262
REMARK UNBOUND:                -5.469
REMARK SMILES CCCCCCCCCCCCCCCCCCCCCCCCCCCCCC(=O)[O-]
REMARK SMILES IDX 16 1 17 2 18 3 19 4 20 5 21 6 22 7 23 8 24 9 25 10 26 11
REMARK SMILES IDX 27 12 28 13 29 14 30 15 31 16 32 17 15 18 14 19 13 20 12 21
REMARK SMILES IDX 11 22 10 23 9 24 8 25 7 26 6 27 5 28 4 29 3 30 2 31 1 32
REMARK H PARENT
REMARK Flexibility Score: inf
ROOT
ATOM      1  C   UNL     1      88.129  28.151  28.884  1.00  0.00     0.000 C 
ENDROOT
BRANCH   1   2
ATOM      2  C   UNL     1      88.430  29.650  28.717  1.00  0.00     0.000 C 
BRANCH   2   3
ATOM      3  C   UNL     1      89.283  29.948  27.474  1.00  0.00     0.000 C 
BRANCH   3   4
ATOM      4  C   UNL     1      89.635  28.682  26.673  1.00  0.00     0.000 C 
BRANCH   4   5
ATOM      5  C   UNL     1      90.233  28.940  25.277  1.00  0.00     0.000 C 
BRANCH   5   6
ATOM      6  C   UNL     1      90.517  30.426  25.013  1.00  0.00     0.000 C 
BRANCH   6   7
ATOM      7  C   UNL     1      89.712  30.937  23.808  1.00  0.00     0.000 C 
BRANCH   7   8
ATOM      8  C   UNL     1      88.830  32.149  24.154  1.00  0.00     0.000 C 
BRANCH   8   9
ATOM      9  C   UNL     1      87.578  32.250  23.268  1.00  0.00     0.000 C 
BRANCH   9  10
ATOM     10  C   UNL     1      86.303  32.229  24.118  1.00  0.00     0.000 C 
BRANCH  10  11
ATOM     11  C   UNL     1      86.619  31.863  25.576  1.00  0.00     0.000 C 
BRANCH  11  12
ATOM     12  C   UNL     1      86.018  30.510  25.995  1.00  0.00     0.000 C 
BRANCH  12  13
ATOM     13  C   UNL     1      84.876  30.660  27.011  1.00  0.00     0.006 C 
BRANCH  13  14
ATOM     14  C   UNL     1      85.221  31.710  28.074  1.00  0.00     0.053 C 
BRANCH  14  15
ATOM     15  C   UNL     1      85.048  31.148  29.452  1.00  0.00     0.041 C 
ATOM     16  O   UNL     1      84.153  30.287  29.680  1.00  0.00    -0.550 OA
ATOM     17  O   UNL     1      85.882  31.566  30.483  1.00  0.00    -0.550 OA
ENDBRANCH  14  15
ENDBRANCH  13  14
ENDBRANCH  12  13
ENDBRANCH  11  12
ENDBRANCH  10  11
ENDBRANCH   9  10
ENDBRANCH   8   9
ENDBRANCH   7   8
ENDBRANCH   6   7
ENDBRANCH   5   6
ENDBRANCH   4   5
ENDBRANCH   3   4
ENDBRANCH   2   3
ENDBRANCH   1   2
BRANCH   1  18
ATOM     18  C   UNL     1      86.630  27.834  28.759  1.00  0.00     0.000 C 
BRANCH  18  19
ATOM     19  C   UNL     1      86.333  26.325  28.778  1.00  0.00     0.000 C 
BRANCH  19  20
ATOM     20  C   UNL     1      84.829  25.988  28.866  1.00  0.00     0.000 C 
BRANCH  20  21
ATOM     21  C   UNL     1      84.544  24.507  28.578  1.00  0.00     0.000 C 
BRANCH  21  22
ATOM     22  C   UNL     1      85.845  23.729  28.336  1.00  0.00     0.000 C 
BRANCH  22  23
ATOM     23  C   UNL     1      85.808  22.881  27.053  1.00  0.00     0.000 C 
BRANCH  23  24
ATOM     24  C   UNL     1      84.827  23.433  26.006  1.00  0.00    -0.000 C 
BRANCH  24  25
ATOM     25  C   UNL     1      85.543  24.349  24.997  1.00  0.00    -0.000 C 
BRANCH  25  26
ATOM     26  C   UNL     1      84.697  25.578  24.627  1.00  0.00    -0.000 C 
BRANCH  26  27
ATOM     27  C   UNL     1      85.146  26.854  25.366  1.00  0.00    -0.000 C 
BRANCH  27  28
ATOM     28  C   UNL     1      86.630  27.188  25.112  1.00  0.00    -0.000 C 
BRANCH  28  29
ATOM     29  C   UNL     1      87.014  27.259  23.619  1.00  0.00    -0.000 C 
BRANCH  29  30
ATOM     30  C   UNL     1      87.054  28.685  23.034  1.00  0.00    -0.000 C 
BRANCH  30  31
ATOM     31  C   UNL     1      85.925  28.941  22.024  1.00  0.00    -0.003 C 
ATOM     32  C   UNL     1      84.630  29.332  22.730  1.00  0.00     0.004 C 
ENDBRANCH  30  31
ENDBRANCH  29  30
ENDBRANCH  28  29
ENDBRANCH  27  28
ENDBRANCH  26  27
ENDBRANCH  25  26
ENDBRANCH  24  25
ENDBRANCH  23  24
ENDBRANCH  22  23
ENDBRANCH  21  22
ENDBRANCH  20  21
ENDBRANCH  19  20
ENDBRANCH  18  19
ENDBRANCH   1  18
TORSDOF 28
ENDMDL
MODEL 5
REMARK VINA RESULT:    -3.167      1.746      3.327
REMARK INTER + INTRA:         -13.820
REMARK INTER:                  -8.139
REMARK INTRA:                  -5.681
REMARK UNBOUND:                -5.469
REMARK SMILES CCCCCCCCCCCCCCCCCCCCCCCCCCCCCC(=O)[O-]
REMARK SMILES IDX 16 1 17 2 18 3 19 4 20 5 21 6 22 7 23 8 24 9 25 10 26 11
REMARK SMILES IDX 27 12 28 13 29 14 30 15 31 16 32 17 15 18 14 19 13 20 12 21
REMARK SMILES IDX 11 22 10 23 9 24 8 25 7 26 6 27 5 28 4 29 3 30 2 31 1 32
REMARK H PARENT
REMARK Flexibility Score: inf
ROOT
ATOM      1  C   UNL     1      87.639  27.721  29.171  1.00  0.00     0.000 C 
ENDROOT
BRANCH   1   2
ATOM      2  C   UNL     1      88.118  28.433  27.895  1.00  0.00     0.000 C 
BRANCH   2   3
ATOM      3  C   UNL     1      88.352  29.937  28.108  1.00  0.00     0.000 C 
BRANCH   3   4
ATOM      4  C   UNL     1      87.246  30.600  28.947  1.00  0.00     0.000 C 
BRANCH   4   5
ATOM      5  C   UNL     1      86.122  31.266  28.131  1.00  0.00     0.000 C 
BRANCH   5   6
ATOM      6  C   UNL     1      84.933  30.329  27.872  1.00  0.00     0.000 C 
BRANCH   6   7
ATOM      7  C   UNL     1      84.533  29.575  29.150  1.00  0.00     0.000 C 
BRANCH   7   8
ATOM      8  C   UNL     1      83.023  29.296  29.226  1.00  0.00     0.000 C 
BRANCH   8   9
ATOM      9  C   UNL     1      82.172  30.566  29.070  1.00  0.00     0.000 C 
BRANCH   9  10
ATOM     10  C   UNL     1      81.762  31.122  30.439  1.00  0.00     0.000 C 
BRANCH  10  11
ATOM     11  C   UNL     1      82.821  32.095  30.977  1.00  0.00     0.000 C 
BRANCH  11  12
ATOM     12  C   UNL     1      83.602  31.525  32.174  1.00  0.00     0.000 C 
BRANCH  12  13
ATOM     13  C   UNL     1      85.089  31.903  32.143  1.00  0.00     0.006 C 
BRANCH  13  14
ATOM     14  C   UNL     1      85.322  33.149  31.279  1.00  0.00     0.053 C 
BRANCH  14  15
ATOM     15  C   UNL     1      85.634  34.339  32.134  1.00  0.00     0.041 C 
ATOM     16  O   UNL     1      86.310  34.203  33.192  1.00  0.00    -0.550 OA
ATOM     17  O   UNL     1      85.187  35.601  31.759  1.00  0.00    -0.550 OA
ENDBRANCH  14  15
ENDBRANCH  13  14
ENDBRANCH  12  13
ENDBRANCH  11  12
ENDBRANCH  10  11
ENDBRANCH   9  10
ENDBRANCH   8   9
ENDBRANCH   7   8
ENDBRANCH   6   7
ENDBRANCH   5   6
ENDBRANCH   4   5
ENDBRANCH   3   4
ENDBRANCH   2   3
ENDBRANCH   1   2
BRANCH   1  18
ATOM     18  C   UNL     1      86.613  26.614  28.877  1.00  0.00     0.000 C 
BRANCH  18  19
ATOM     19  C   UNL     1      86.168  26.584  27.405  1.00  0.00     0.000 C 
BRANCH  19  20
ATOM     20  C   UNL     1      85.787  25.176  26.898  1.00  0.00     0.000 C 
BRANCH  20  21
ATOM     21  C   UNL     1      85.861  24.116  28.007  1.00  0.00     0.000 C 
BRANCH  21  22
ATOM     22  C   UNL     1      84.900  22.952  27.727  1.00  0.00     0.000 C 
BRANCH  22  23
ATOM     23  C   UNL     1      83.579  23.407  27.083  1.00  0.00     0.000 C 
BRANCH  23  24
ATOM     24  C   UNL     1      82.479  23.686  28.121  1.00  0.00    -0.000 C 
BRANCH  24  25
ATOM     25  C   UNL     1      82.327  25.195  28.383  1.00  0.00    -0.000 C 
BRANCH  25  26
ATOM     26  C   UNL     1      83.078  25.644  29.647  1.00  0.00    -0.000 C 
BRANCH  26  27
ATOM     27  C   UNL     1      82.808  24.729  30.857  1.00  0.00    -0.000 C 
BRANCH  27  28
ATOM     28  C   UNL     1      81.858  25.379  31.884  1.00  0.00    -0.000 C 
BRANCH  28  29
ATOM     29  C   UNL     1      82.070  26.897  32.066  1.00  0.00    -0.000 C 
BRANCH  29  30
ATOM     30  C   UNL     1      80.794  27.746  31.897  1.00  0.00    -0.000 C 
BRANCH  30  31
ATOM     31  C   UNL     1      79.777  27.101  30.942  1.00  0.00    -0.003 C 
ATOM     32  C   UNL     1      79.683  27.875  29.630  1.00  0.00     0.004 C 
ENDBRANCH  30  31
ENDBRANCH  29  30
ENDBRANCH  28  29
ENDBRANCH  27  28
ENDBRANCH  26  27
ENDBRANCH  25  26
ENDBRANCH  24  25
ENDBRANCH  23  24
ENDBRANCH  22  23
ENDBRANCH  21  22
ENDBRANCH  20  21
ENDBRANCH  19  20
ENDBRANCH  18  19
ENDBRANCH   1  18
TORSDOF 28
ENDMDL
MODEL 6
REMARK VINA RESULT:    -3.101      2.374      6.375
REMARK INTER + INTRA:         -13.647
REMARK INTER:                  -7.739
REMARK INTRA:                  -5.908
REMARK UNBOUND:                -5.469
REMARK SMILES CCCCCCCCCCCCCCCCCCCCCCCCCCCCCC(=O)[O-]
REMARK SMILES IDX 16 1 17 2 18 3 19 4 20 5 21 6 22 7 23 8 24 9 25 10 26 11
REMARK SMILES IDX 27 12 28 13 29 14 30 15 31 16 32 17 15 18 14 19 13 20 12 21
REMARK SMILES IDX 11 22 10 23 9 24 8 25 7 26 6 27 5 28 4 29 3 30 2 31 1 32
REMARK H PARENT
REMARK Flexibility Score: inf
ROOT
ATOM      1  C   UNL     1      86.532  27.321  25.674  1.00  0.00     0.000 C 
ENDROOT
BRANCH   1   2
ATOM      2  C   UNL     1      85.238  27.560  26.469  1.00  0.00     0.000 C 
BRANCH   2   3
ATOM      3  C   UNL     1      85.338  27.075  27.924  1.00  0.00     0.000 C 
BRANCH   3   4
ATOM      4  C   UNL     1      86.301  25.887  28.092  1.00  0.00     0.000 C 
BRANCH   4   5
ATOM      5  C   UNL     1      85.672  24.621  28.703  1.00  0.00     0.000 C 
BRANCH   5   6
ATOM      6  C   UNL     1      85.894  23.367  27.844  1.00  0.00     0.000 C 
BRANCH   6   7
ATOM      7  C   UNL     1      85.886  23.713  26.347  1.00  0.00     0.000 C 
BRANCH   7   8
ATOM      8  C   UNL     1      84.626  23.204  25.627  1.00  0.00     0.000 C 
BRANCH   8   9
ATOM      9  C   UNL     1      83.510  24.259  25.558  1.00  0.00     0.000 C 
BRANCH   9  10
ATOM     10  C   UNL     1      82.428  23.980  26.608  1.00  0.00     0.000 C 
BRANCH  10  11
ATOM     11  C   UNL     1      82.173  25.221  27.477  1.00  0.00     0.000 C 
BRANCH  11  12
ATOM     12  C   UNL     1      81.566  24.875  28.847  1.00  0.00     0.000 C 
BRANCH  12  13
ATOM     13  C   UNL     1      82.213  23.637  29.485  1.00  0.00     0.006 C 
BRANCH  13  14
ATOM     14  C   UNL     1      82.902  23.996  30.807  1.00  0.00     0.053 C 
BRANCH  14  15
ATOM     15  C   UNL     1      81.943  24.668  31.741  1.00  0.00     0.041 C 
ATOM     16  O   UNL     1      82.122  25.872  32.080  1.00  0.00    -0.550 OA
ATOM     17  O   UNL     1      80.845  23.971  32.230  1.00  0.00    -0.550 OA
ENDBRANCH  14  15
ENDBRANCH  13  14
ENDBRANCH  12  13
ENDBRANCH  11  12
ENDBRANCH  10  11
ENDBRANCH   9  10
ENDBRANCH   8   9
ENDBRANCH   7   8
ENDBRANCH   6   7
ENDBRANCH   5   6
ENDBRANCH   4   5
ENDBRANCH   3   4
ENDBRANCH   2   3
ENDBRANCH   1   2
BRANCH   1  18
ATOM     18  C   UNL     1      87.297  28.624  25.388  1.00  0.00     0.000 C 
BRANCH  18  19
ATOM     19  C   UNL     1      88.820  28.470  25.537  1.00  0.00     0.000 C 
BRANCH  19  20
ATOM     20  C   UNL     1      89.431  29.362  26.639  1.00  0.00     0.000 C 
BRANCH  20  21
ATOM     21  C   UNL     1      89.496  28.650  27.998  1.00  0.00     0.000 C 
BRANCH  21  22
ATOM     22  C   UNL     1      88.335  29.082  28.906  1.00  0.00     0.000 C 
BRANCH  22  23
ATOM     23  C   UNL     1      87.966  30.566  28.743  1.00  0.00     0.000 C 
BRANCH  23  24
ATOM     24  C   UNL     1      86.706  30.954  29.535  1.00  0.00    -0.000 C 
BRANCH  24  25
ATOM     25  C   UNL     1      85.432  30.420  28.855  1.00  0.00    -0.000 C 
BRANCH  25  26
ATOM     26  C   UNL     1      84.797  31.459  27.917  1.00  0.00    -0.000 C 
BRANCH  26  27
ATOM     27  C   UNL     1      83.682  30.862  27.036  1.00  0.00    -0.000 C 
BRANCH  27  28
ATOM     28  C   UNL     1      82.273  31.183  27.575  1.00  0.00    -0.000 C 
BRANCH  28  29
ATOM     29  C   UNL     1      81.354  29.951  27.711  1.00  0.00    -0.000 C 
BRANCH  29  30
ATOM     30  C   UNL     1      82.020  28.724  28.365  1.00  0.00    -0.000 C 
BRANCH  30  31
ATOM     31  C   UNL     1      81.643  28.567  29.847  1.00  0.00    -0.003 C 
ATOM     32  C   UNL     1      82.744  29.105  30.757  1.00  0.00     0.004 C 
ENDBRANCH  30  31
ENDBRANCH  29  30
ENDBRANCH  28  29
ENDBRANCH  27  28
ENDBRANCH  26  27
ENDBRANCH  25  26
ENDBRANCH  24  25
ENDBRANCH  23  24
ENDBRANCH  22  23
ENDBRANCH  21  22
ENDBRANCH  20  21
ENDBRANCH  19  20
ENDBRANCH  18  19
ENDBRANCH   1  18
TORSDOF 28
ENDMDL
MODEL 7
REMARK VINA RESULT:    -3.083      2.721      7.031
REMARK INTER + INTRA:         -13.599
REMARK INTER:                  -8.163
REMARK INTRA:                  -5.436
REMARK UNBOUND:                -5.469
REMARK SMILES CCCCCCCCCCCCCCCCCCCCCCCCCCCCCC(=O)[O-]
REMARK SMILES IDX 16 1 17 2 18 3 19 4 20 5 21 6 22 7 23 8 24 9 25 10 26 11
REMARK SMILES IDX 27 12 28 13 29 14 30 15 31 16 32 17 15 18 14 19 13 20 12 21
REMARK SMILES IDX 11 22 10 23 9 24 8 25 7 26 6 27 5 28 4 29 3 30 2 31 1 32
REMARK H PARENT
REMARK Flexibility Score: inf
ROOT
ATOM      1  C   UNL     1      83.796  31.918  27.778  1.00  0.00     0.000 C 
ENDROOT
BRANCH   1   2
ATOM      2  C   UNL     1      85.177  31.304  28.059  1.00  0.00     0.000 C 
BRANCH   2   3
ATOM      3  C   UNL     1      86.140  31.442  26.869  1.00  0.00     0.000 C 
BRANCH   3   4
ATOM      4  C   UNL     1      86.004  30.293  25.854  1.00  0.00     0.000 C 
BRANCH   4   5
ATOM      5  C   UNL     1      87.331  29.800  25.249  1.00  0.00     0.000 C 
BRANCH   5   6
ATOM      6  C   UNL     1      88.564  30.324  26.000  1.00  0.00     0.000 C 
BRANCH   6   7
ATOM      7  C   UNL     1      89.561  29.190  26.287  1.00  0.00     0.000 C 
BRANCH   7   8
ATOM      8  C   UNL     1      89.640  28.834  27.781  1.00  0.00     0.000 C 
BRANCH   8   9
ATOM      9  C   UNL     1      89.001  29.901  28.684  1.00  0.00     0.000 C 
BRANCH   9  10
ATOM     10  C   UNL     1      87.820  29.318  29.468  1.00  0.00     0.000 C 
BRANCH  10  11
ATOM     11  C   UNL     1      87.578  27.849  29.087  1.00  0.00     0.000 C 
BRANCH  11  12
ATOM     12  C   UNL     1      86.312  27.654  28.234  1.00  0.00     0.000 C 
BRANCH  12  13
ATOM     13  C   UNL     1      86.527  26.672  27.074  1.00  0.00     0.006 C 
BRANCH  13  14
ATOM     14  C   UNL     1      85.323  25.735  26.916  1.00  0.00     0.053 C 
BRANCH  14  15
ATOM     15  C   UNL     1      85.350  24.654  27.952  1.00  0.00     0.041 C 
ATOM     16  O   UNL     1      85.980  23.581  27.736  1.00  0.00    -0.550 OA
ATOM     17  O   UNL     1      84.690  24.834  29.162  1.00  0.00    -0.550 OA
ENDBRANCH  14  15
ENDBRANCH  13  14
ENDBRANCH  12  13
ENDBRANCH  11  12
ENDBRANCH  10  11
ENDBRANCH   9  10
ENDBRANCH   8   9
ENDBRANCH   7   8
ENDBRANCH   6   7
ENDBRANCH   5   6
ENDBRANCH   4   5
ENDBRANCH   3   4
ENDBRANCH   2   3
ENDBRANCH   1   2
BRANCH   1  18
ATOM     18  C   UNL     1      83.675  33.359  28.301  1.00  0.00     0.000 C 
BRANCH  18  19
ATOM     19  C   UNL     1      83.462  33.429  29.823  1.00  0.00     0.000 C 
BRANCH  19  20
ATOM     20  C   UNL     1      84.641  34.069  30.587  1.00  0.00     0.000 C 
BRANCH  20  21
ATOM     21  C   UNL     1      85.576  33.020  31.205  1.00  0.00     0.000 C 
BRANCH  21  22
ATOM     22  C   UNL     1      85.920  33.372  32.659  1.00  0.00     0.000 C 
BRANCH  22  23
ATOM     23  C   UNL     1      84.730  33.966  33.431  1.00  0.00     0.000 C 
BRANCH  23  24
ATOM     24  C   UNL     1      83.809  32.885  34.021  1.00  0.00    -0.000 C 
BRANCH  24  25
ATOM     25  C   UNL     1      82.365  33.039  33.508  1.00  0.00    -0.000 C 
BRANCH  25  26
ATOM     26  C   UNL     1      81.812  31.726  32.930  1.00  0.00    -0.000 C 
BRANCH  26  27
ATOM     27  C   UNL     1      82.909  30.838  32.312  1.00  0.00    -0.000 C 
BRANCH  27  28
ATOM     28  C   UNL     1      82.445  30.153  31.010  1.00  0.00    -0.000 C 
BRANCH  28  29
ATOM     29  C   UNL     1      82.442  28.611  31.076  1.00  0.00    -0.000 C 
BRANCH  29  30
ATOM     30  C   UNL     1      83.298  27.921  29.995  1.00  0.00    -0.000 C 
BRANCH  30  31
ATOM     31  C   UNL     1      82.825  28.248  28.570  1.00  0.00    -0.003 C 
ATOM     32  C   UNL     1      81.885  27.169  28.038  1.00  0.00     0.004 C 
ENDBRANCH  30  31
ENDBRANCH  29  30
ENDBRANCH  28  29
ENDBRANCH  27  28
ENDBRANCH  26  27
ENDBRANCH  25  26
ENDBRANCH  24  25
ENDBRANCH  23  24
ENDBRANCH  22  23
ENDBRANCH  21  22
ENDBRANCH  20  21
ENDBRANCH  19  20
ENDBRANCH  18  19
ENDBRANCH   1  18
TORSDOF 28
ENDMDL
MODEL 8
REMARK VINA RESULT:    -3.082      2.532      7.603
REMARK INTER + INTRA:         -13.596
REMARK INTER:                  -8.160
REMARK INTRA:                  -5.436
REMARK UNBOUND:                -5.469
REMARK SMILES CCCCCCCCCCCCCCCCCCCCCCCCCCCCCC(=O)[O-]
REMARK SMILES IDX 16 1 17 2 18 3 19 4 20 5 21 6 22 7 23 8 24 9 25 10 26 11
REMARK SMILES IDX 27 12 28 13 29 14 30 15 31 16 32 17 15 18 14 19 13 20 12 21
REMARK SMILES IDX 11 22 10 23 9 24 8 25 7 26 6 27 5 28 4 29 3 30 2 31 1 32
REMARK H PARENT
REMARK Flexibility Score: inf
ROOT
ATOM      1  C   UNL     1      84.443  30.176  29.039  1.00  0.00     0.000 C 
ENDROOT
BRANCH   1   2
ATOM      2  C   UNL     1      83.994  28.712  29.169  1.00  0.00     0.000 C 
BRANCH   2   3
ATOM      3  C   UNL     1      83.371  28.165  27.875  1.00  0.00     0.000 C 
BRANCH   3   4
ATOM      4  C   UNL     1      83.197  26.636  27.895  1.00  0.00     0.000 C 
BRANCH   4   5
ATOM      5  C   UNL     1      83.972  25.909  29.010  1.00  0.00     0.000 C 
BRANCH   5   6
ATOM      6  C   UNL     1      84.411  24.493  28.609  1.00  0.00     0.000 C 
BRANCH   6   7
ATOM      7  C   UNL     1      83.759  23.435  29.514  1.00  0.00     0.000 C 
BRANCH   7   8
ATOM      8  C   UNL     1      83.236  24.025  30.834  1.00  0.00     0.000 C 
BRANCH   8   9
ATOM      9  C   UNL     1      81.821  23.538  31.187  1.00  0.00     0.000 C 
BRANCH   9  10
ATOM     10  C   UNL     1      80.981  24.679  31.772  1.00  0.00     0.000 C 
BRANCH  10  11
ATOM     11  C   UNL     1      81.761  26.002  31.756  1.00  0.00     0.000 C 
BRANCH  11  12
ATOM     12  C   UNL     1      81.040  27.110  30.968  1.00  0.00     0.000 C 
BRANCH  12  13
ATOM     13  C   UNL     1      79.875  27.729  31.752  1.00  0.00     0.006 C 
BRANCH  13  14
ATOM     14  C   UNL     1      80.329  28.184  33.145  1.00  0.00     0.053 C 
BRANCH  14  15
ATOM     15  C   UNL     1      79.218  28.044  34.139  1.00  0.00     0.041 C 
ATOM     16  O   UNL     1      79.314  28.574  35.281  1.00  0.00    -0.550 OA
ATOM     17  O   UNL     1      78.068  27.339  33.801  1.00  0.00    -0.550 OA
ENDBRANCH  14  15
ENDBRANCH  13  14
ENDBRANCH  12  13
ENDBRANCH  11  12
ENDBRANCH  10  11
ENDBRANCH   9  10
ENDBRANCH   8   9
ENDBRANCH   7   8
ENDBRANCH   6   7
ENDBRANCH   5   6
ENDBRANCH   4   5
ENDBRANCH   3   4
ENDBRANCH   2   3
ENDBRANCH   1   2
BRANCH   1  18
ATOM     18  C   UNL     1      85.055  30.484  27.662  1.00  0.00     0.000 C 
BRANCH  18  19
ATOM     19  C   UNL     1      86.460  31.102  27.756  1.00  0.00     0.000 C 
BRANCH  19  20
ATOM     20  C   UNL     1      87.225  30.717  29.040  1.00  0.00     0.000 C 
BRANCH  20  21
ATOM     21  C   UNL     1      88.699  30.384  28.765  1.00  0.00     0.000 C 
BRANCH  21  22
ATOM     22  C   UNL     1      88.904  28.870  28.603  1.00  0.00     0.000 C 
BRANCH  22  23
ATOM     23  C   UNL     1      87.755  28.042  29.204  1.00  0.00     0.000 C 
BRANCH  23  24
ATOM     24  C   UNL     1      87.054  27.158  28.159  1.00  0.00    -0.000 C 
BRANCH  24  25
ATOM     25  C   UNL     1      87.318  27.665  26.730  1.00  0.00    -0.000 C 
BRANCH  25  26
ATOM     26  C   UNL     1      86.282  27.133  25.725  1.00  0.00    -0.000 C 
BRANCH  26  27
ATOM     27  C   UNL     1      86.353  27.847  24.362  1.00  0.00    -0.000 C 
BRANCH  27  28
ATOM     28  C   UNL     1      86.733  29.336  24.499  1.00  0.00    -0.000 C 
BRANCH  28  29
ATOM     29  C   UNL     1      88.172  29.664  24.046  1.00  0.00    -0.000 C 
BRANCH  29  30
ATOM     30  C   UNL     1      88.964  30.554  25.024  1.00  0.00    -0.000 C 
BRANCH  30  31
ATOM     31  C   UNL     1      90.377  30.016  25.300  1.00  0.00    -0.003 C 
ATOM     32  C   UNL     1      90.418  28.493  25.197  1.00  0.00     0.004 C 
ENDBRANCH  30  31
ENDBRANCH  29  30
ENDBRANCH  28  29
ENDBRANCH  27  28
ENDBRANCH  26  27
ENDBRANCH  25  26
ENDBRANCH  24  25
ENDBRANCH  23  24
ENDBRANCH  22  23
ENDBRANCH  21  22
ENDBRANCH  20  21
ENDBRANCH  19  20
ENDBRANCH  18  19
ENDBRANCH   1  18
TORSDOF 28
ENDMDL
MODEL 9
REMARK VINA RESULT:    -3.048      3.105      6.344
REMARK INTER + INTRA:         -13.507
REMARK INTER:                  -8.067
REMARK INTRA:                  -5.440
REMARK UNBOUND:                -5.469
REMARK SMILES CCCCCCCCCCCCCCCCCCCCCCCCCCCCCC(=O)[O-]
REMARK SMILES IDX 16 1 17 2 18 3 19 4 20 5 21 6 22 7 23 8 24 9 25 10 26 11
REMARK SMILES IDX 27 12 28 13 29 14 30 15 31 16 32 17 15 18 14 19 13 20 12 21
REMARK SMILES IDX 11 22 10 23 9 24 8 25 7 26 6 27 5 28 4 29 3 30 2 31 1 32
REMARK H PARENT
REMARK Flexibility Score: inf
ROOT
ATOM      1  C   UNL     1      89.185  29.049  28.724  1.00  0.00     0.000 C 
ENDROOT
BRANCH   1   2
ATOM      2  C   UNL     1      87.745  28.862  29.228  1.00  0.00     0.000 C 
BRANCH   2   3
ATOM      3  C   UNL     1      87.376  27.383  29.430  1.00  0.00     0.000 C 
BRANCH   3   4
ATOM      4  C   UNL     1      86.173  26.946  28.575  1.00  0.00     0.000 C 
BRANCH   4   5
ATOM      5  C   UNL     1      86.502  26.626  27.105  1.00  0.00     0.000 C 
BRANCH   5   6
ATOM      6  C   UNL     1      85.547  27.308  26.115  1.00  0.00     0.000 C 
BRANCH   6   7
ATOM      7  C   UNL     1      85.887  28.798  25.955  1.00  0.00     0.000 C 
BRANCH   7   8
ATOM      8  C   UNL     1      84.744  29.720  26.412  1.00  0.00     0.000 C 
BRANCH   8   9
ATOM      9  C   UNL     1      85.079  30.494  27.697  1.00  0.00     0.000 C 
BRANCH   9  10
ATOM     10  C   UNL     1      84.253  29.975  28.880  1.00  0.00     0.000 C 
BRANCH  10  11
ATOM     11  C   UNL     1      84.141  31.040  29.981  1.00  0.00     0.000 C 
BRANCH  11  12
ATOM     12  C   UNL     1      85.466  31.779  30.233  1.00  0.00     0.000 C 
BRANCH  12  13
ATOM     13  C   UNL     1      85.259  33.166  30.860  1.00  0.00     0.006 C 
BRANCH  13  14
ATOM     14  C   UNL     1      85.899  33.241  32.253  1.00  0.00     0.053 C 
BRANCH  14  15
ATOM     15  C   UNL     1      85.956  34.658  32.735  1.00  0.00     0.041 C 
ATOM     16  O   UNL     1      86.345  34.915  33.909  1.00  0.00    -0.550 OA
ATOM     17  O   UNL     1      85.590  35.696  31.887  1.00  0.00    -0.550 OA
ENDBRANCH  14  15
ENDBRANCH  13  14
ENDBRANCH  12  13
ENDBRANCH  11  12
ENDBRANCH  10  11
ENDBRANCH   9  10
ENDBRANCH   8   9
ENDBRANCH   7   8
ENDBRANCH   6   7
ENDBRANCH   5   6
ENDBRANCH   4   5
ENDBRANCH   3   4
ENDBRANCH   2   3
ENDBRANCH   1   2
BRANCH   1  18
ATOM     18  C   UNL     1      89.240  29.603  27.291  1.00  0.00     0.000 C 
BRANCH  18  19
ATOM     19  C   UNL     1      89.649  28.543  26.254  1.00  0.00     0.000 C 
BRANCH  19  20
ATOM     20  C   UNL     1      90.146  29.137  24.919  1.00  0.00     0.000 C 
BRANCH  20  21
ATOM     21  C   UNL     1      90.270  30.667  24.971  1.00  0.00     0.000 C 
BRANCH  21  22
ATOM     22  C   UNL     1      89.789  31.307  23.660  1.00  0.00     0.000 C 
BRANCH  22  23
ATOM     23  C   UNL     1      88.663  32.333  23.871  1.00  0.00     0.000 C 
BRANCH  23  24
ATOM     24  C   UNL     1      87.492  31.767  24.691  1.00  0.00    -0.000 C 
BRANCH  24  25
ATOM     25  C   UNL     1      86.443  32.853  24.991  1.00  0.00    -0.000 C 
BRANCH  25  26
ATOM     26  C   UNL     1      85.183  32.698  24.124  1.00  0.00    -0.000 C 
BRANCH  26  27
ATOM     27  C   UNL     1      83.883  32.956  24.910  1.00  0.00    -0.000 C 
BRANCH  27  28
ATOM     28  C   UNL     1      84.020  34.132  25.899  1.00  0.00    -0.000 C 
BRANCH  28  29
ATOM     29  C   UNL     1      83.777  33.747  27.374  1.00  0.00    -0.000 C 
BRANCH  29  30
ATOM     30  C   UNL     1      82.336  33.301  27.691  1.00  0.00    -0.000 C 
BRANCH  30  31
ATOM     31  C   UNL     1      81.716  34.091  28.854  1.00  0.00    -0.003 C 
ATOM     32  C   UNL     1      82.610  35.255  29.270  1.00  0.00     0.004 C 
ENDBRANCH  30  31
ENDBRANCH  29  30
ENDBRANCH  28  29
ENDBRANCH  27  28
ENDBRANCH  26  27
ENDBRANCH  25  26
ENDBRANCH  24  25
ENDBRANCH  23  24
ENDBRANCH  22  23
ENDBRANCH  21  22
ENDBRANCH  20  21
ENDBRANCH  19  20
ENDBRANCH  18  19
ENDBRANCH   1  18
TORSDOF 28
ENDMDL
