MODEL 1
REMARK VINA RESULT:    -4.334      0.000      0.000
REMARK INTER + INTRA:          -4.625
REMARK INTER:                  -4.587
REMARK INTRA:                  -0.038
REMARK UNBOUND:                -0.038
REMARK SMILES COc1ccc2ccc(=O)oc2c1
REMARK SMILES IDX 3 1 13 2 12 3 6 4 5 5 4 6 7 7 8 8 9 9 10 10 11 11 2 12 1 13
REMARK H PARENT
REMARK Flexibility Score: inf
ROOT
ATOM      1  C   UNL     1      37.256 -32.427   9.445  1.00  0.00     0.122 A 
ATOM      2  C   UNL     1      37.286 -31.172  10.069  1.00  0.00     0.094 A 
ATOM      3  C   UNL     1      36.102 -30.558  10.487  1.00  0.00     0.142 A 
ATOM      4  C   UNL     1      34.865 -31.206  10.281  1.00  0.00     0.018 A 
ATOM      5  C   UNL     1      34.829 -32.460   9.659  1.00  0.00     0.016 A 
ATOM      6  C   UNL     1      36.017 -33.068   9.243  1.00  0.00     0.047 A 
ATOM      7  C   UNL     1      33.697 -30.567  10.710  1.00  0.00     0.019 A 
ATOM      8  C   UNL     1      33.786 -29.318  11.324  1.00  0.00     0.094 A 
ATOM      9  C   UNL     1      35.047 -28.736  11.495  1.00  0.00     0.336 A 
ATOM     10  O   UNL     1      35.149 -27.609  12.047  1.00  0.00    -0.246 OA
ATOM     11  O   UNL     1      36.143 -29.367  11.078  1.00  0.00    -0.423 OA
ENDROOT
BRANCH   1  12
ATOM     12  O   UNL     1      38.472 -32.999   9.045  1.00  0.00    -0.497 OA
ATOM     13  C   UNL     1      39.617 -33.123   9.881  1.00  0.00     0.278 C 
ENDBRANCH   1  12
TORSDOF 1
ENDMDL
MODEL 2
REMARK VINA RESULT:    -4.198      1.874      2.908
REMARK INTER + INTRA:          -4.481
REMARK INTER:                  -4.448
REMARK INTRA:                  -0.033
REMARK UNBOUND:                -0.038
REMARK SMILES COc1ccc2ccc(=O)oc2c1
REMARK SMILES IDX 3 1 13 2 12 3 6 4 5 5 4 6 7 7 8 8 9 9 10 10 11 11 2 12 1 13
REMARK H PARENT
REMARK Flexibility Score: inf
ROOT
ATOM      1  C   UNL     1      35.059 -32.047   9.167  1.00  0.00     0.122 A 
ATOM      2  C   UNL     1      34.191 -31.193   9.860  1.00  0.00     0.094 A 
ATOM      3  C   UNL     1      34.689 -30.103  10.580  1.00  0.00     0.142 A 
ATOM      4  C   UNL     1      36.079 -29.859  10.610  1.00  0.00     0.018 A 
ATOM      5  C   UNL     1      36.952 -30.709   9.919  1.00  0.00     0.016 A 
ATOM      6  C   UNL     1      36.446 -31.797   9.201  1.00  0.00     0.047 A 
ATOM      7  C   UNL     1      36.549 -28.762  11.338  1.00  0.00     0.019 A 
ATOM      8  C   UNL     1      35.638 -27.946  12.010  1.00  0.00     0.094 A 
ATOM      9  C   UNL     1      34.274 -28.248  11.936  1.00  0.00     0.336 A 
ATOM     10  O   UNL     1      33.437 -27.525  12.534  1.00  0.00    -0.246 OA
ATOM     11  O   UNL     1      33.855 -29.299  11.234  1.00  0.00    -0.423 OA
ENDROOT
BRANCH   1  12
ATOM     12  O   UNL     1      34.507 -33.125   8.460  1.00  0.00    -0.497 OA
ATOM     13  C   UNL     1      34.217 -33.109   7.067  1.00  0.00     0.278 C 
ENDBRANCH   1  12
TORSDOF 1
ENDMDL
MODEL 3
REMARK VINA RESULT:    -3.947      1.240      4.455
REMARK INTER + INTRA:          -4.216
REMARK INTER:                  -4.172
REMARK INTRA:                  -0.043
REMARK UNBOUND:                -0.038
REMARK SMILES COc1ccc2ccc(=O)oc2c1
REMARK SMILES IDX 3 1 13 2 12 3 6 4 5 5 4 6 7 7 8 8 9 9 10 10 11 11 2 12 1 13
REMARK H PARENT
REMARK Flexibility Score: inf
ROOT
ATOM      1  C   UNL     1      35.507 -28.968  11.334  1.00  0.00     0.122 A 
ATOM      2  C   UNL     1      36.496 -29.655  10.620  1.00  0.00     0.094 A 
ATOM      3  C   UNL     1      36.180 -30.809   9.896  1.00  0.00     0.142 A 
ATOM      4  C   UNL     1      34.852 -31.287   9.884  1.00  0.00     0.018 A 
ATOM      5  C   UNL     1      33.858 -30.604  10.596  1.00  0.00     0.016 A 
ATOM      6  C   UNL     1      34.182 -29.450  11.318  1.00  0.00     0.047 A 
ATOM      7  C   UNL     1      34.564 -32.443   9.152  1.00  0.00     0.019 A 
ATOM      8  C   UNL     1      35.590 -33.087   8.460  1.00  0.00     0.094 A 
ATOM      9  C   UNL     1      36.884 -32.556   8.517  1.00  0.00     0.336 A 
ATOM     10  O   UNL     1      37.823 -33.122   7.899  1.00  0.00    -0.246 OA
ATOM     11  O   UNL     1      37.129 -31.453   9.221  1.00  0.00    -0.423 OA
ENDROOT
BRANCH   1  12
ATOM     12  O   UNL     1      35.877 -27.816  12.043  1.00  0.00    -0.497 OA
ATOM     13  C   UNL     1      37.217 -27.362  12.197  1.00  0.00     0.278 C 
ENDBRANCH   1  12
TORSDOF 1
ENDMDL
MODEL 4
REMARK VINA RESULT:    -3.597     19.255     21.890
REMARK INTER + INTRA:          -3.845
REMARK INTER:                  -3.808
REMARK INTRA:                  -0.037
REMARK UNBOUND:                -0.038
REMARK SMILES COc1ccc2ccc(=O)oc2c1
REMARK SMILES IDX 3 1 13 2 12 3 6 4 5 5 4 6 7 7 8 8 9 9 10 10 11 11 2 12 1 13
REMARK H PARENT
REMARK Flexibility Score: inf
ROOT
ATOM      1  C   UNL     1      20.738 -14.672   4.560  1.00  0.00     0.122 A 
ATOM      2  C   UNL     1      21.384 -15.743   5.192  1.00  0.00     0.094 A 
ATOM      3  C   UNL     1      22.254 -15.519   6.262  1.00  0.00     0.142 A 
ATOM      4  C   UNL     1      22.485 -14.202   6.713  1.00  0.00     0.018 A 
ATOM      5  C   UNL     1      21.843 -13.126   6.088  1.00  0.00     0.016 A 
ATOM      6  C   UNL     1      20.974 -13.359   5.017  1.00  0.00     0.047 A 
ATOM      7  C   UNL     1      23.360 -14.007   7.787  1.00  0.00     0.019 A 
ATOM      8  C   UNL     1      23.976 -15.112   8.376  1.00  0.00     0.094 A 
ATOM      9  C   UNL     1      23.699 -16.389   7.876  1.00  0.00     0.336 A 
ATOM     10  O   UNL     1      24.244 -17.398   8.394  1.00  0.00    -0.246 OA
ATOM     11  O   UNL     1      22.861 -16.545   6.854  1.00  0.00    -0.423 OA
ENDROOT
BRANCH   1  12
ATOM     12  O   UNL     1      19.875 -14.952   3.491  1.00  0.00    -0.497 OA
ATOM     13  C   UNL     1      20.239 -15.706   2.341  1.00  0.00     0.278 C 
ENDBRANCH   1  12
TORSDOF 1
ENDMDL
MODEL 5
REMARK VINA RESULT:    -3.516      2.232      2.878
REMARK INTER + INTRA:          -3.760
REMARK INTER:                  -3.724
REMARK INTRA:                  -0.035
REMARK UNBOUND:                -0.038
REMARK SMILES COc1ccc2ccc(=O)oc2c1
REMARK SMILES IDX 3 1 13 2 12 3 6 4 5 5 4 6 7 7 8 8 9 9 10 10 11 11 2 12 1 13
REMARK H PARENT
REMARK Flexibility Score: inf
ROOT
ATOM      1  C   UNL     1      35.272 -31.791   9.449  1.00  0.00     0.122 A 
ATOM      2  C   UNL     1      34.507 -31.707  10.620  1.00  0.00     0.094 A 
ATOM      3  C   UNL     1      34.499 -30.535  11.382  1.00  0.00     0.142 A 
ATOM      4  C   UNL     1      35.268 -29.426  10.971  1.00  0.00     0.018 A 
ATOM      5  C   UNL     1      36.035 -29.503   9.802  1.00  0.00     0.016 A 
ATOM      6  C   UNL     1      36.038 -30.678   9.044  1.00  0.00     0.047 A 
ATOM      7  C   UNL     1      35.240 -28.267  11.754  1.00  0.00     0.019 A 
ATOM      8  C   UNL     1      34.460 -28.241  12.910  1.00  0.00     0.094 A 
ATOM      9  C   UNL     1      33.723 -29.380  13.256  1.00  0.00     0.336 A 
ATOM     10  O   UNL     1      33.013 -29.376  14.295  1.00  0.00    -0.246 OA
ATOM     11  O   UNL     1      33.767 -30.469  12.492  1.00  0.00    -0.423 OA
ENDROOT
BRANCH   1  12
ATOM     12  O   UNL     1      35.245 -32.988   8.720  1.00  0.00    -0.497 OA
ATOM     13  C   UNL     1      35.702 -33.125   7.380  1.00  0.00     0.278 C 
ENDBRANCH   1  12
TORSDOF 1
ENDMDL
MODEL 6
REMARK VINA RESULT:    -3.345      2.054      4.839
REMARK INTER + INTRA:          -3.578
REMARK INTER:                  -3.536
REMARK INTRA:                  -0.043
REMARK UNBOUND:                -0.038
REMARK SMILES COc1ccc2ccc(=O)oc2c1
REMARK SMILES IDX 3 1 13 2 12 3 6 4 5 5 4 6 7 7 8 8 9 9 10 10 11 11 2 12 1 13
REMARK H PARENT
REMARK Flexibility Score: inf
ROOT
ATOM      1  C   UNL     1      35.842 -29.334  11.199  1.00  0.00     0.122 A 
ATOM      2  C   UNL     1      34.888 -29.983  10.404  1.00  0.00     0.094 A 
ATOM      3  C   UNL     1      35.267 -31.003   9.526  1.00  0.00     0.142 A 
ATOM      4  C   UNL     1      36.622 -31.385   9.440  1.00  0.00     0.018 A 
ATOM      5  C   UNL     1      37.581 -30.742  10.232  1.00  0.00     0.016 A 
ATOM      6  C   UNL     1      37.194 -29.722  11.107  1.00  0.00     0.047 A 
ATOM      7  C   UNL     1      36.973 -32.409   8.554  1.00  0.00     0.019 A 
ATOM      8  C   UNL     1      35.980 -33.019   7.786  1.00  0.00     0.094 A 
ATOM      9  C   UNL     1      34.655 -32.588   7.925  1.00  0.00     0.336 A 
ATOM     10  O   UNL     1      33.745 -33.125   7.242  1.00  0.00    -0.246 OA
ATOM     11  O   UNL     1      34.351 -31.611   8.777  1.00  0.00    -0.423 OA
ENDROOT
BRANCH   1  12
ATOM     12  O   UNL     1      35.409 -28.318  12.062  1.00  0.00    -0.497 OA
ATOM     13  C   UNL     1      34.046 -28.053  12.373  1.00  0.00     0.278 C 
ENDBRANCH   1  12
TORSDOF 1
ENDMDL
MODEL 7
REMARK VINA RESULT:    -3.185     19.545     22.089
REMARK INTER + INTRA:          -3.409
REMARK INTER:                  -3.366
REMARK INTRA:                  -0.042
REMARK UNBOUND:                -0.038
REMARK SMILES COc1ccc2ccc(=O)oc2c1
REMARK SMILES IDX 3 1 13 2 12 3 6 4 5 5 4 6 7 7 8 8 9 9 10 10 11 11 2 12 1 13
REMARK H PARENT
REMARK Flexibility Score: inf
ROOT
ATOM      1  C   UNL     1      23.159 -14.833   7.602  1.00  0.00     0.122 A 
ATOM      2  C   UNL     1      22.572 -15.778   6.751  1.00  0.00     0.094 A 
ATOM      3  C   UNL     1      21.729 -15.372   5.711  1.00  0.00     0.142 A 
ATOM      4  C   UNL     1      21.467 -13.999   5.516  1.00  0.00     0.018 A 
ATOM      5  C   UNL     1      22.052 -13.050   6.363  1.00  0.00     0.016 A 
ATOM      6  C   UNL     1      22.893 -13.463   7.401  1.00  0.00     0.047 A 
ATOM      7  C   UNL     1      20.621 -13.623   4.468  1.00  0.00     0.019 A 
ATOM      8  C   UNL     1      20.063 -14.608   3.652  1.00  0.00     0.094 A 
ATOM      9  C   UNL     1      20.368 -15.950   3.905  1.00  0.00     0.336 A 
ATOM     10  O   UNL     1      19.875 -16.853   3.181  1.00  0.00    -0.246 OA
ATOM     11  O   UNL     1      21.177 -16.279   4.909  1.00  0.00    -0.423 OA
ENDROOT
BRANCH   1  12
ATOM     12  O   UNL     1      23.996 -15.292   8.629  1.00  0.00    -0.497 OA
ATOM     13  C   UNL     1      24.004 -16.626   9.124  1.00  0.00     0.278 C 
ENDBRANCH   1  12
TORSDOF 1
ENDMDL
MODEL 8
REMARK VINA RESULT:    -2.837     21.994     23.175
REMARK INTER + INTRA:          -3.041
REMARK INTER:                  -3.008
REMARK INTRA:                  -0.033
REMARK UNBOUND:                -0.038
REMARK SMILES COc1ccc2ccc(=O)oc2c1
REMARK SMILES IDX 3 1 13 2 12 3 6 4 5 5 4 6 7 7 8 8 9 9 10 10 11 11 2 12 1 13
REMARK H PARENT
REMARK Flexibility Score: inf
ROOT
ATOM      1  C   UNL     1      21.694 -13.936   6.275  1.00  0.00     0.122 A 
ATOM      2  C   UNL     1      21.444 -13.515   4.962  1.00  0.00     0.094 A 
ATOM      3  C   UNL     1      20.990 -14.421   3.999  1.00  0.00     0.142 A 
ATOM      4  C   UNL     1      20.781 -15.771   4.350  1.00  0.00     0.018 A 
ATOM      5  C   UNL     1      21.030 -16.199   5.660  1.00  0.00     0.016 A 
ATOM      6  C   UNL     1      21.484 -15.287   6.618  1.00  0.00     0.047 A 
ATOM      7  C   UNL     1      20.327 -16.655   3.365  1.00  0.00     0.019 A 
ATOM      8  C   UNL     1      20.094 -16.179   2.074  1.00  0.00     0.094 A 
ATOM      9  C   UNL     1      20.323 -14.826   1.799  1.00  0.00     0.336 A 
ATOM     10  O   UNL     1      20.119 -14.378   0.641  1.00  0.00    -0.246 OA
ATOM     11  O   UNL     1      20.755 -14.008   2.756  1.00  0.00    -0.423 OA
ENDROOT
BRANCH   1  12
ATOM     12  O   UNL     1      22.148 -12.988   7.203  1.00  0.00    -0.497 OA
ATOM     13  C   UNL     1      23.464 -12.958   7.744  1.00  0.00     0.278 C 
ENDBRANCH   1  12
TORSDOF 1
ENDMDL
