MODEL 1
REMARK VINA RESULT:    -5.241      0.000      0.000
REMARK INTER + INTRA:         -10.511
REMARK INTER:                  -9.530
REMARK INTRA:                  -0.981
REMARK UNBOUND:                -0.981
REMARK SMILES CCCCCCCCCCCCCCCC(=O)[O-]
REMARK SMILES IDX 9 1 10 2 11 3 12 4 13 5 14 6 15 7 16 8 17 9 18 10 8 11 7 12
REMARK SMILES IDX 6 13 5 14 4 15 3 16 2 17 1 18
REMARK H PARENT
REMARK Flexibility Score: inf
ROOT
ATOM      1  C   UNL     1      -0.864   4.141  16.526  1.00  0.00     0.000 C 
ENDROOT
BRANCH   1   2
ATOM      2  C   UNL     1      -1.969   3.106  16.801  1.00  0.00     0.000 C 
BRANCH   2   3
ATOM      3  C   UNL     1      -3.192   3.283  15.885  1.00  0.00     0.000 C 
BRANCH   3   4
ATOM      4  C   UNL     1      -4.460   2.635  16.461  1.00  0.00     0.000 C 
BRANCH   4   5
ATOM      5  C   UNL     1      -5.383   3.653  17.149  1.00  0.00     0.000 C 
BRANCH   5   6
ATOM      6  C   UNL     1      -5.341   5.007  16.426  1.00  0.00     0.006 C 
BRANCH   6   7
ATOM      7  C   UNL     1      -5.278   6.186  17.406  1.00  0.00     0.053 C 
BRANCH   7   8
ATOM      8  C   UNL     1      -6.571   6.941  17.451  1.00  0.00     0.041 C 
ATOM      9  O   UNL     1      -7.481   6.690  16.618  1.00  0.00    -0.550 OA
ATOM     10  O   UNL     1      -6.758   7.943  18.394  1.00  0.00    -0.550 OA
ENDBRANCH   7   8
ENDBRANCH   6   7
ENDBRANCH   5   6
ENDBRANCH   4   5
ENDBRANCH   3   4
ENDBRANCH   2   3
ENDBRANCH   1   2
BRANCH   1  11
ATOM     11  C   UNL     1      -1.059   5.468  17.289  1.00  0.00     0.000 C 
BRANCH  11  12
ATOM     12  C   UNL     1       0.199   5.875  18.076  1.00  0.00    -0.000 C 
BRANCH  12  13
ATOM     13  C   UNL     1       0.491   7.381  17.991  1.00  0.00    -0.000 C 
BRANCH  13  14
ATOM     14  C   UNL     1       0.613   8.041  19.373  1.00  0.00    -0.000 C 
BRANCH  14  15
ATOM     15  C   UNL     1       0.293   7.037  20.489  1.00  0.00    -0.000 C 
BRANCH  15  16
ATOM     16  C   UNL     1       1.405   6.944  21.551  1.00  0.00    -0.000 C 
BRANCH  16  17
ATOM     17  C   UNL     1       0.926   6.538  22.955  1.00  0.00    -0.003 C 
ATOM     18  C   UNL     1      -0.597   6.534  23.089  1.00  0.00     0.004 C 
ENDBRANCH  16  17
ENDBRANCH  15  16
ENDBRANCH  14  15
ENDBRANCH  13  14
ENDBRANCH  12  13
ENDBRANCH  11  12
ENDBRANCH   1  11
TORSDOF 14
ENDMDL
MODEL 2
REMARK VINA RESULT:    -4.912      1.778      2.191
REMARK INTER + INTRA:          -9.913
REMARK INTER:                  -9.084
REMARK INTRA:                  -0.829
REMARK UNBOUND:                -0.981
REMARK SMILES CCCCCCCCCCCCCCCC(=O)[O-]
REMARK SMILES IDX 9 1 10 2 11 3 12 4 13 5 14 6 15 7 16 8 17 9 18 10 8 11 7 12
REMARK SMILES IDX 6 13 5 14 4 15 3 16 2 17 1 18
REMARK H PARENT
REMARK Flexibility Score: inf
ROOT
ATOM      1  C   UNL     1      -0.878   4.420  16.281  1.00  0.00     0.000 C 
ENDROOT
BRANCH   1   2
ATOM      2  C   UNL     1      -1.953   3.333  16.450  1.00  0.00     0.000 C 
BRANCH   2   3
ATOM      3  C   UNL     1      -3.147   3.522  15.498  1.00  0.00     0.000 C 
BRANCH   3   4
ATOM      4  C   UNL     1      -4.499   3.424  16.219  1.00  0.00     0.000 C 
BRANCH   4   5
ATOM      5  C   UNL     1      -4.910   4.745  16.889  1.00  0.00     0.000 C 
BRANCH   5   6
ATOM      6  C   UNL     1      -5.943   5.494  16.034  1.00  0.00     0.006 C 
BRANCH   6   7
ATOM      7  C   UNL     1      -6.687   4.559  15.072  1.00  0.00     0.053 C 
BRANCH   7   8
ATOM      8  C   UNL     1      -6.332   4.836  13.643  1.00  0.00     0.041 C 
ATOM      9  O   UNL     1      -6.750   4.079  12.727  1.00  0.00    -0.550 OA
ATOM     10  O   UNL     1      -5.512   5.912  13.327  1.00  0.00    -0.550 OA
ENDBRANCH   7   8
ENDBRANCH   6   7
ENDBRANCH   5   6
ENDBRANCH   4   5
ENDBRANCH   3   4
ENDBRANCH   2   3
ENDBRANCH   1   2
BRANCH   1  11
ATOM     11  C   UNL     1      -1.050   5.613  17.245  1.00  0.00     0.000 C 
BRANCH  11  12
ATOM     12  C   UNL     1       0.240   5.918  18.026  1.00  0.00    -0.000 C 
BRANCH  12  13
ATOM     13  C   UNL     1       0.586   7.416  18.037  1.00  0.00    -0.000 C 
BRANCH  13  14
ATOM     14  C   UNL     1       0.567   8.017  19.450  1.00  0.00    -0.000 C 
BRANCH  14  15
ATOM     15  C   UNL     1       0.320   6.930  20.506  1.00  0.00    -0.000 C 
BRANCH  15  16
ATOM     16  C   UNL     1       1.385   6.921  21.619  1.00  0.00    -0.000 C 
BRANCH  16  17
ATOM     17  C   UNL     1       0.857   6.548  23.015  1.00  0.00    -0.003 C 
ATOM     18  C   UNL     1      -0.669   6.577  23.105  1.00  0.00     0.004 C 
ENDBRANCH  16  17
ENDBRANCH  15  16
ENDBRANCH  14  15
ENDBRANCH  13  14
ENDBRANCH  12  13
ENDBRANCH  11  12
ENDBRANCH   1  11
TORSDOF 14
ENDMDL
MODEL 3
REMARK VINA RESULT:    -4.829      3.070      7.383
REMARK INTER + INTRA:          -9.762
REMARK INTER:                  -8.636
REMARK INTRA:                  -1.127
REMARK UNBOUND:                -0.981
REMARK SMILES CCCCCCCCCCCCCCCC(=O)[O-]
REMARK SMILES IDX 9 1 10 2 11 3 12 4 13 5 14 6 15 7 16 8 17 9 18 10 8 11 7 12
REMARK SMILES IDX 6 13 5 14 4 15 3 16 2 17 1 18
REMARK H PARENT
REMARK Flexibility Score: inf
ROOT
ATOM      1  C   UNL     1       0.400   5.548  16.926  1.00  0.00     0.000 C 
ENDROOT
BRANCH   1   2
ATOM      2  C   UNL     1       0.184   7.041  16.629  1.00  0.00     0.000 C 
BRANCH   2   3
ATOM      3  C   UNL     1       1.477   7.865  16.748  1.00  0.00     0.000 C 
BRANCH   3   4
ATOM      4  C   UNL     1       1.359   9.007  17.769  1.00  0.00     0.000 C 
BRANCH   4   5
ATOM      5  C   UNL     1       1.652   8.548  19.206  1.00  0.00     0.000 C 
BRANCH   5   6
ATOM      6  C   UNL     1       0.348   8.323  19.986  1.00  0.00     0.006 C 
BRANCH   6   7
ATOM      7  C   UNL     1       0.184   6.864  20.433  1.00  0.00     0.053 C 
BRANCH   7   8
ATOM      8  C   UNL     1       0.446   6.701  21.899  1.00  0.00     0.041 C 
ATOM      9  O   UNL     1      -0.513   6.559  22.703  1.00  0.00    -0.550 OA
ATOM     10  O   UNL     1       1.748   6.737  22.381  1.00  0.00    -0.550 OA
ENDBRANCH   7   8
ENDBRANCH   6   7
ENDBRANCH   5   6
ENDBRANCH   4   5
ENDBRANCH   3   4
ENDBRANCH   2   3
ENDBRANCH   1   2
BRANCH   1  11
ATOM     11  C   UNL     1      -0.894   4.803  17.318  1.00  0.00     0.000 C 
BRANCH  11  12
ATOM     12  C   UNL     1      -1.252   3.693  16.316  1.00  0.00    -0.000 C 
BRANCH  12  13
ATOM     13  C   UNL     1      -2.742   3.690  15.939  1.00  0.00    -0.000 C 
BRANCH  13  14
ATOM     14  C   UNL     1      -3.550   2.646  16.725  1.00  0.00    -0.000 C 
BRANCH  14  15
ATOM     15  C   UNL     1      -5.050   2.969  16.684  1.00  0.00    -0.000 C 
BRANCH  15  16
ATOM     16  C   UNL     1      -5.479   3.668  15.380  1.00  0.00    -0.000 C 
BRANCH  16  17
ATOM     17  C   UNL     1      -6.108   5.059  15.571  1.00  0.00    -0.003 C 
ATOM     18  C   UNL     1      -5.838   5.654  16.952  1.00  0.00     0.004 C 
ENDBRANCH  16  17
ENDBRANCH  15  16
ENDBRANCH  14  15
ENDBRANCH  13  14
ENDBRANCH  12  13
ENDBRANCH  11  12
ENDBRANCH   1  11
TORSDOF 14
ENDMDL
MODEL 4
REMARK VINA RESULT:    -4.801      4.831      8.261
REMARK INTER + INTRA:          -9.712
REMARK INTER:                  -7.312
REMARK INTRA:                  -2.400
REMARK UNBOUND:                -0.981
REMARK SMILES CCCCCCCCCCCCCCCC(=O)[O-]
REMARK SMILES IDX 9 1 10 2 11 3 12 4 13 5 14 6 15 7 16 8 17 9 18 10 8 11 7 12
REMARK SMILES IDX 6 13 5 14 4 15 3 16 2 17 1 18
REMARK H PARENT
REMARK Flexibility Score: inf
ROOT
ATOM      1  C   UNL     1      -8.404   6.465  16.007  1.00  0.00     0.000 C 
ENDROOT
BRANCH   1   2
ATOM      2  C   UNL     1      -7.164   6.940  16.782  1.00  0.00     0.000 C 
BRANCH   2   3
ATOM      3  C   UNL     1      -5.935   7.135  15.879  1.00  0.00     0.000 C 
BRANCH   3   4
ATOM      4  C   UNL     1      -4.860   6.060  16.102  1.00  0.00     0.000 C 
BRANCH   4   5
ATOM      5  C   UNL     1      -5.367   4.884  16.952  1.00  0.00     0.000 C 
BRANCH   5   6
ATOM      6  C   UNL     1      -4.544   3.616  16.680  1.00  0.00     0.006 C 
BRANCH   6   7
ATOM      7  C   UNL     1      -3.558   3.803  15.519  1.00  0.00     0.053 C 
BRANCH   7   8
ATOM      8  C   UNL     1      -2.147   3.529  15.941  1.00  0.00     0.041 C 
ATOM      9  O   UNL     1      -1.214   4.286  15.565  1.00  0.00    -0.550 OA
ATOM     10  O   UNL     1      -1.859   2.418  16.723  1.00  0.00    -0.550 OA
ENDBRANCH   7   8
ENDBRANCH   6   7
ENDBRANCH   5   6
ENDBRANCH   4   5
ENDBRANCH   3   4
ENDBRANCH   2   3
ENDBRANCH   1   2
BRANCH   1  11
ATOM     11  C   UNL     1      -8.311   6.708  14.486  1.00  0.00     0.000 C 
BRANCH  11  12
ATOM     12  C   UNL     1      -9.124   5.679  13.682  1.00  0.00    -0.000 C 
BRANCH  12  13
ATOM     13  C   UNL     1      -8.238   4.746  12.843  1.00  0.00    -0.000 C 
BRANCH  13  14
ATOM     14  C   UNL     1      -6.985   4.280  13.601  1.00  0.00    -0.000 C 
BRANCH  14  15
ATOM     15  C   UNL     1      -5.829   4.001  12.629  1.00  0.00    -0.000 C 
BRANCH  15  16
ATOM     16  C   UNL     1      -5.535   5.185  11.690  1.00  0.00    -0.000 C 
BRANCH  16  17
ATOM     17  C   UNL     1      -4.966   6.435  12.384  1.00  0.00    -0.003 C 
ATOM     18  C   UNL     1      -5.736   7.710  12.045  1.00  0.00     0.004 C 
ENDBRANCH  16  17
ENDBRANCH  15  16
ENDBRANCH  14  15
ENDBRANCH  13  14
ENDBRANCH  12  13
ENDBRANCH  11  12
ENDBRANCH   1  11
TORSDOF 14
ENDMDL
MODEL 5
REMARK VINA RESULT:    -4.761      2.660      4.357
REMARK INTER + INTRA:          -9.639
REMARK INTER:                  -8.239
REMARK INTRA:                  -1.400
REMARK UNBOUND:                -0.981
REMARK SMILES CCCCCCCCCCCCCCCC(=O)[O-]
REMARK SMILES IDX 9 1 10 2 11 3 12 4 13 5 14 6 15 7 16 8 17 9 18 10 8 11 7 12
REMARK SMILES IDX 6 13 5 14 4 15 3 16 2 17 1 18
REMARK H PARENT
REMARK Flexibility Score: inf
ROOT
ATOM      1  C   UNL     1      -4.407   2.387  17.193  1.00  0.00     0.000 C 
ENDROOT
BRANCH   1   2
ATOM      2  C   UNL     1      -5.293   3.304  16.334  1.00  0.00     0.000 C 
BRANCH   2   3
ATOM      3  C   UNL     1      -5.400   4.730  16.900  1.00  0.00     0.000 C 
BRANCH   3   4
ATOM      4  C   UNL     1      -6.192   5.673  15.982  1.00  0.00     0.000 C 
BRANCH   4   5
ATOM      5  C   UNL     1      -5.294   6.695  15.267  1.00  0.00     0.000 C 
BRANCH   5   6
ATOM      6  C   UNL     1      -4.494   6.027  14.140  1.00  0.00     0.006 C 
BRANCH   6   7
ATOM      7  C   UNL     1      -5.244   6.052  12.801  1.00  0.00     0.053 C 
BRANCH   7   8
ATOM      8  C   UNL     1      -5.764   4.697  12.430  1.00  0.00     0.041 C 
ATOM      9  O   UNL     1      -5.246   3.662  12.926  1.00  0.00    -0.550 OA
ATOM     10  O   UNL     1      -6.798   4.577  11.511  1.00  0.00    -0.550 OA
ENDBRANCH   7   8
ENDBRANCH   6   7
ENDBRANCH   5   6
ENDBRANCH   4   5
ENDBRANCH   3   4
ENDBRANCH   2   3
ENDBRANCH   1   2
BRANCH   1  11
ATOM     11  C   UNL     1      -2.897   2.562  16.927  1.00  0.00     0.000 C 
BRANCH  11  12
ATOM     12  C   UNL     1      -2.618   3.174  15.544  1.00  0.00    -0.000 C 
BRANCH  12  13
ATOM     13  C   UNL     1      -1.504   4.232  15.577  1.00  0.00    -0.000 C 
BRANCH  13  14
ATOM     14  C   UNL     1      -1.547   5.100  16.843  1.00  0.00    -0.000 C 
BRANCH  14  15
ATOM     15  C   UNL     1      -0.142   5.587  17.223  1.00  0.00    -0.000 C 
BRANCH  15  16
ATOM     16  C   UNL     1      -0.118   6.386  18.539  1.00  0.00    -0.000 C 
BRANCH  16  17
ATOM     17  C   UNL     1       0.642   7.723  18.469  1.00  0.00    -0.003 C 
ATOM     18  C   UNL     1       0.987   8.287  19.847  1.00  0.00     0.004 C 
ENDBRANCH  16  17
ENDBRANCH  15  16
ENDBRANCH  14  15
ENDBRANCH  13  14
ENDBRANCH  12  13
ENDBRANCH  11  12
ENDBRANCH   1  11
TORSDOF 14
ENDMDL
MODEL 6
REMARK VINA RESULT:    -4.745      4.471      7.870
REMARK INTER + INTRA:          -9.609
REMARK INTER:                  -7.488
REMARK INTRA:                  -2.121
REMARK UNBOUND:                -0.981
REMARK SMILES CCCCCCCCCCCCCCCC(=O)[O-]
REMARK SMILES IDX 9 1 10 2 11 3 12 4 13 5 14 6 15 7 16 8 17 9 18 10 8 11 7 12
REMARK SMILES IDX 6 13 5 14 4 15 3 16 2 17 1 18
REMARK H PARENT
REMARK Flexibility Score: inf
ROOT
ATOM      1  C   UNL     1      -6.147   6.349  18.414  1.00  0.00     0.000 C 
ENDROOT
BRANCH   1   2
ATOM      2  C   UNL     1      -5.087   5.767  17.464  1.00  0.00     0.000 C 
BRANCH   2   3
ATOM      3  C   UNL     1      -5.476   4.385  16.913  1.00  0.00     0.000 C 
BRANCH   3   4
ATOM      4  C   UNL     1      -4.845   4.096  15.542  1.00  0.00     0.000 C 
BRANCH   4   5
ATOM      5  C   UNL     1      -4.001   5.269  15.021  1.00  0.00     0.000 C 
BRANCH   5   6
ATOM      6  C   UNL     1      -2.528   5.107  15.424  1.00  0.00     0.006 C 
BRANCH   6   7
ATOM      7  C   UNL     1      -2.109   3.633  15.509  1.00  0.00     0.053 C 
BRANCH   7   8
ATOM      8  C   UNL     1      -1.411   3.327  16.798  1.00  0.00     0.041 C 
ATOM      9  O   UNL     1      -0.704   4.205  17.361  1.00  0.00    -0.550 OA
ATOM     10  O   UNL     1      -1.515   2.062  17.362  1.00  0.00    -0.550 OA
ENDBRANCH   7   8
ENDBRANCH   6   7
ENDBRANCH   5   6
ENDBRANCH   4   5
ENDBRANCH   3   4
ENDBRANCH   2   3
ENDBRANCH   1   2
BRANCH   1  11
ATOM     11  C   UNL     1      -7.042   7.421  17.756  1.00  0.00     0.000 C 
BRANCH  11  12
ATOM     12  C   UNL     1      -6.542   7.816  16.356  1.00  0.00    -0.000 C 
BRANCH  12  13
ATOM     13  C   UNL     1      -7.565   7.508  15.251  1.00  0.00    -0.000 C 
BRANCH  13  14
ATOM     14  C   UNL     1      -8.429   6.279  15.570  1.00  0.00    -0.000 C 
BRANCH  14  15
ATOM     15  C   UNL     1      -8.241   5.186  14.509  1.00  0.00    -0.000 C 
BRANCH  15  16
ATOM     16  C   UNL     1      -7.376   5.645  13.320  1.00  0.00    -0.000 C 
BRANCH  16  17
ATOM     17  C   UNL     1      -6.851   4.508  12.426  1.00  0.00    -0.003 C 
ATOM     18  C   UNL     1      -5.604   4.899  11.633  1.00  0.00     0.004 C 
ENDBRANCH  16  17
ENDBRANCH  15  16
ENDBRANCH  14  15
ENDBRANCH  13  14
ENDBRANCH  12  13
ENDBRANCH  11  12
ENDBRANCH   1  11
TORSDOF 14
ENDMDL
MODEL 7
REMARK VINA RESULT:    -4.664      3.456      7.547
REMARK INTER + INTRA:          -9.462
REMARK INTER:                  -7.410
REMARK INTRA:                  -2.052
REMARK UNBOUND:                -0.981
REMARK SMILES CCCCCCCCCCCCCCCC(=O)[O-]
REMARK SMILES IDX 9 1 10 2 11 3 12 4 13 5 14 6 15 7 16 8 17 9 18 10 8 11 7 12
REMARK SMILES IDX 6 13 5 14 4 15 3 16 2 17 1 18
REMARK H PARENT
REMARK Flexibility Score: inf
ROOT
ATOM      1  C   UNL     1      -5.805   3.695  15.513  1.00  0.00     0.000 C 
ENDROOT
BRANCH   1   2
ATOM      2  C   UNL     1      -5.133   3.285  16.834  1.00  0.00     0.000 C 
BRANCH   2   3
ATOM      3  C   UNL     1      -3.621   3.045  16.684  1.00  0.00     0.000 C 
BRANCH   3   4
ATOM      4  C   UNL     1      -3.054   3.639  15.386  1.00  0.00     0.000 C 
BRANCH   4   5
ATOM      5  C   UNL     1      -1.604   4.123  15.542  1.00  0.00     0.000 C 
BRANCH   5   6
ATOM      6  C   UNL     1      -1.517   5.278  16.550  1.00  0.00     0.006 C 
BRANCH   6   7
ATOM      7  C   UNL     1      -0.465   5.020  17.637  1.00  0.00     0.053 C 
BRANCH   7   8
ATOM      8  C   UNL     1      -0.045   6.288  18.315  1.00  0.00     0.041 C 
ATOM      9  O   UNL     1       0.467   7.225  17.648  1.00  0.00    -0.550 OA
ATOM     10  O   UNL     1      -0.191   6.422  19.691  1.00  0.00    -0.550 OA
ENDBRANCH   7   8
ENDBRANCH   6   7
ENDBRANCH   5   6
ENDBRANCH   4   5
ENDBRANCH   3   4
ENDBRANCH   2   3
ENDBRANCH   1   2
BRANCH   1  11
ATOM     11  C   UNL     1      -6.548   5.045  15.592  1.00  0.00     0.000 C 
BRANCH  11  12
ATOM     12  C   UNL     1      -5.615   6.198  16.002  1.00  0.00    -0.000 C 
BRANCH  12  13
ATOM     13  C   UNL     1      -5.369   7.197  14.860  1.00  0.00    -0.000 C 
BRANCH  13  14
ATOM     14  C   UNL     1      -4.478   6.619  13.750  1.00  0.00    -0.000 C 
BRANCH  14  15
ATOM     15  C   UNL     1      -5.263   6.469  12.439  1.00  0.00    -0.000 C 
BRANCH  15  16
ATOM     16  C   UNL     1      -5.439   5.001  12.009  1.00  0.00    -0.000 C 
BRANCH  16  17
ATOM     17  C   UNL     1      -6.900   4.526  11.914  1.00  0.00    -0.003 C 
ATOM     18  C   UNL     1      -7.909   5.638  12.198  1.00  0.00     0.004 C 
ENDBRANCH  16  17
ENDBRANCH  15  16
ENDBRANCH  14  15
ENDBRANCH  13  14
ENDBRANCH  12  13
ENDBRANCH  11  12
ENDBRANCH   1  11
TORSDOF 14
ENDMDL
MODEL 8
REMARK VINA RESULT:    -4.661      3.327      7.406
REMARK INTER + INTRA:          -9.457
REMARK INTER:                  -8.024
REMARK INTRA:                  -1.433
REMARK UNBOUND:                -0.981
REMARK SMILES CCCCCCCCCCCCCCCC(=O)[O-]
REMARK SMILES IDX 9 1 10 2 11 3 12 4 13 5 14 6 15 7 16 8 17 9 18 10 8 11 7 12
REMARK SMILES IDX 6 13 5 14 4 15 3 16 2 17 1 18
REMARK H PARENT
REMARK Flexibility Score: inf
ROOT
ATOM      1  C   UNL     1      -5.113   3.927  14.670  1.00  0.00     0.000 C 
ENDROOT
BRANCH   1   2
ATOM      2  C   UNL     1      -4.096   5.045  14.955  1.00  0.00     0.000 C 
BRANCH   2   3
ATOM      3  C   UNL     1      -3.206   4.745  16.173  1.00  0.00     0.000 C 
BRANCH   3   4
ATOM      4  C   UNL     1      -1.738   4.505  15.789  1.00  0.00     0.000 C 
BRANCH   4   5
ATOM      5  C   UNL     1      -0.822   4.356  17.013  1.00  0.00     0.000 C 
BRANCH   5   6
ATOM      6  C   UNL     1      -0.083   5.670  17.307  1.00  0.00     0.006 C 
BRANCH   6   7
ATOM      7  C   UNL     1      -0.210   6.090  18.778  1.00  0.00     0.053 C 
BRANCH   7   8
ATOM      8  C   UNL     1       0.390   7.441  19.023  1.00  0.00     0.041 C 
ATOM      9  O   UNL     1       0.354   7.951  20.173  1.00  0.00    -0.550 OA
ATOM     10  O   UNL     1       0.960   8.149  17.972  1.00  0.00    -0.550 OA
ENDBRANCH   7   8
ENDBRANCH   6   7
ENDBRANCH   5   6
ENDBRANCH   4   5
ENDBRANCH   3   4
ENDBRANCH   2   3
ENDBRANCH   1   2
BRANCH   1  11
ATOM     11  C   UNL     1      -5.724   3.997  13.255  1.00  0.00     0.000 C 
BRANCH  11  12
ATOM     12  C   UNL     1      -7.253   4.167  13.290  1.00  0.00    -0.000 C 
BRANCH  12  13
ATOM     13  C   UNL     1      -7.682   5.611  13.597  1.00  0.00    -0.000 C 
BRANCH  13  14
ATOM     14  C   UNL     1      -8.595   5.708  14.828  1.00  0.00    -0.000 C 
BRANCH  14  15
ATOM     15  C   UNL     1      -8.305   6.988  15.625  1.00  0.00    -0.000 C 
BRANCH  15  16
ATOM     16  C   UNL     1      -6.879   7.524  15.404  1.00  0.00    -0.000 C 
BRANCH  16  17
ATOM     17  C   UNL     1      -6.058   7.727  16.690  1.00  0.00    -0.003 C 
ATOM     18  C   UNL     1      -6.186   6.563  17.671  1.00  0.00     0.004 C 
ENDBRANCH  16  17
ENDBRANCH  15  16
ENDBRANCH  14  15
ENDBRANCH  13  14
ENDBRANCH  12  13
ENDBRANCH  11  12
ENDBRANCH   1  11
TORSDOF 14
ENDMDL
MODEL 9
REMARK VINA RESULT:    -4.609      4.951      8.067
REMARK INTER + INTRA:          -9.362
REMARK INTER:                  -6.769
REMARK INTRA:                  -2.594
REMARK UNBOUND:                -0.981
REMARK SMILES CCCCCCCCCCCCCCCC(=O)[O-]
REMARK SMILES IDX 9 1 10 2 11 3 12 4 13 5 14 6 15 7 16 8 17 9 18 10 8 11 7 12
REMARK SMILES IDX 6 13 5 14 4 15 3 16 2 17 1 18
REMARK H PARENT
REMARK Flexibility Score: inf
ROOT
ATOM      1  C   UNL     1      -8.223   4.687  13.424  1.00  0.00     0.000 C 
ENDROOT
BRANCH   1   2
ATOM      2  C   UNL     1      -8.458   5.986  14.212  1.00  0.00     0.000 C 
BRANCH   2   3
ATOM      3  C   UNL     1      -7.781   5.976  15.593  1.00  0.00     0.000 C 
BRANCH   3   4
ATOM      4  C   UNL     1      -6.782   7.129  15.770  1.00  0.00     0.000 C 
BRANCH   4   5
ATOM      5  C   UNL     1      -5.676   6.802  16.785  1.00  0.00     0.000 C 
BRANCH   5   6
ATOM      6  C   UNL     1      -5.564   5.286  17.005  1.00  0.00     0.006 C 
BRANCH   6   7
ATOM      7  C   UNL     1      -4.308   4.697  16.347  1.00  0.00     0.053 C 
BRANCH   7   8
ATOM      8  C   UNL     1      -4.223   3.214  16.544  1.00  0.00     0.041 C 
ATOM      9  O   UNL     1      -5.268   2.511  16.528  1.00  0.00    -0.550 OA
ATOM     10  O   UNL     1      -2.993   2.613  16.777  1.00  0.00    -0.550 OA
ENDBRANCH   7   8
ENDBRANCH   6   7
ENDBRANCH   5   6
ENDBRANCH   4   5
ENDBRANCH   3   4
ENDBRANCH   2   3
ENDBRANCH   1   2
BRANCH   1  11
ATOM     11  C   UNL     1      -6.818   4.083  13.635  1.00  0.00     0.000 C 
BRANCH  11  12
ATOM     12  C   UNL     1      -5.998   4.050  12.333  1.00  0.00    -0.000 C 
BRANCH  12  13
ATOM     13  C   UNL     1      -6.778   4.597  11.127  1.00  0.00    -0.000 C 
BRANCH  13  14
ATOM     14  C   UNL     1      -6.109   5.829  10.499  1.00  0.00    -0.000 C 
BRANCH  14  15
ATOM     15  C   UNL     1      -6.753   7.124  11.014  1.00  0.00    -0.000 C 
BRANCH  15  16
ATOM     16  C   UNL     1      -5.927   7.808  12.119  1.00  0.00    -0.000 C 
BRANCH  16  17
ATOM     17  C   UNL     1      -4.430   7.453  12.120  1.00  0.00    -0.003 C 
ATOM     18  C   UNL     1      -3.926   6.991  13.487  1.00  0.00     0.004 C 
ENDBRANCH  16  17
ENDBRANCH  15  16
ENDBRANCH  14  15
ENDBRANCH  13  14
ENDBRANCH  12  13
ENDBRANCH  11  12
ENDBRANCH   1  11
TORSDOF 14
ENDMDL
