MODEL 1
REMARK VINA RESULT:    -4.740      0.000      0.000
REMARK INTER + INTRA:          -4.740
REMARK INTER:                  -4.740
REMARK INTRA:                   0.000
REMARK UNBOUND:                 0.000
REMARK SMILES CC1=CC(=O)[C@@H]2C[C@H]1C2(C)C
REMARK SMILES IDX 1 1 2 2 3 3 4 4 5 5 6 6 7 7 8 8 9 9 10 10 11 11
REMARK H PARENT
REMARK Flexibility Score: inf
ROOT
ATOM      1  C   UNL     1      13.480  15.028  12.523  1.00  0.00     0.040 C 
ATOM      2  C   UNL     1      14.051  14.697  13.865  1.00  0.00    -0.066 C 
ATOM      3  C   UNL     1      14.894  15.552  14.508  1.00  0.00     0.047 C 
ATOM      4  C   UNL     1      15.373  15.120  15.860  1.00  0.00     0.159 C 
ATOM      5  O   UNL     1      16.123  15.840  16.569  1.00  0.00    -0.295 OA
ATOM      6  C   UNL     1      14.887  13.745  16.318  1.00  0.00     0.067 C 
ATOM      7  C   UNL     1      15.093  12.841  15.084  1.00  0.00     0.021 C 
ATOM      8  C   UNL     1      13.730  13.366  14.579  1.00  0.00     0.022 C 
ATOM      9  C   UNL     1      13.355  13.651  16.062  1.00  0.00    -0.019 C 
ATOM     10  C   UNL     1      12.715  12.422  16.756  1.00  0.00     0.012 C 
ATOM     11  C   UNL     1      12.477  14.897  16.372  1.00  0.00     0.012 C 
ENDROOT
TORSDOF 0
ENDMDL
MODEL 2
REMARK VINA RESULT:    -4.519      1.152      2.644
REMARK INTER + INTRA:          -4.519
REMARK INTER:                  -4.519
REMARK INTRA:                   0.000
REMARK UNBOUND:                 0.000
REMARK SMILES CC1=CC(=O)[C@@H]2C[C@H]1C2(C)C
REMARK SMILES IDX 1 1 2 2 3 3 4 4 5 5 6 6 7 7 8 8 9 9 10 10 11 11
REMARK H PARENT
REMARK Flexibility Score: inf
ROOT
ATOM      1  C   UNL     1      15.953  11.285  15.265  1.00  0.00     0.040 C 
ATOM      2  C   UNL     1      15.442  12.639  15.642  1.00  0.00    -0.066 C 
ATOM      3  C   UNL     1      16.292  13.653  15.966  1.00  0.00     0.047 C 
ATOM      4  C   UNL     1      15.657  14.970  16.296  1.00  0.00     0.159 C 
ATOM      5  O   UNL     1      16.336  15.993  16.572  1.00  0.00    -0.295 OA
ATOM      6  C   UNL     1      14.128  14.984  16.272  1.00  0.00     0.067 C 
ATOM      7  C   UNL     1      13.727  13.704  17.036  1.00  0.00     0.021 C 
ATOM      8  C   UNL     1      13.931  12.948  15.703  1.00  0.00     0.022 C 
ATOM      9  C   UNL     1      13.647  14.289  14.966  1.00  0.00    -0.019 C 
ATOM     10  C   UNL     1      12.136  14.510  14.703  1.00  0.00     0.012 C 
ATOM     11  C   UNL     1      14.418  14.582  13.648  1.00  0.00     0.012 C 
ENDROOT
TORSDOF 0
ENDMDL
MODEL 3
REMARK VINA RESULT:    -4.419      1.609      2.979
REMARK INTER + INTRA:          -4.419
REMARK INTER:                  -4.419
REMARK INTRA:                   0.000
REMARK UNBOUND:                 0.000
REMARK SMILES CC1=CC(=O)[C@@H]2C[C@H]1C2(C)C
REMARK SMILES IDX 1 1 2 2 3 3 4 4 5 5 6 6 7 7 8 8 9 9 10 10 11 11
REMARK H PARENT
REMARK Flexibility Score: inf
ROOT
ATOM      1  C   UNL     1      16.216  15.784  16.711  1.00  0.00     0.040 C 
ATOM      2  C   UNL     1      15.088  15.206  15.918  1.00  0.00    -0.066 C 
ATOM      3  C   UNL     1      15.002  15.388  14.570  1.00  0.00     0.047 C 
ATOM      4  C   UNL     1      13.842  14.732  13.885  1.00  0.00     0.159 C 
ATOM      5  O   UNL     1      13.675  14.793  12.639  1.00  0.00    -0.295 OA
ATOM      6  C   UNL     1      12.876  13.984  14.805  1.00  0.00     0.067 C 
ATOM      7  C   UNL     1      12.649  14.954  15.984  1.00  0.00     0.021 C 
ATOM      8  C   UNL     1      13.958  14.394  16.585  1.00  0.00     0.022 C 
ATOM      9  C   UNL     1      13.706  13.091  15.772  1.00  0.00    -0.019 C 
ATOM     10  C   UNL     1      12.823  12.076  16.541  1.00  0.00     0.012 C 
ATOM     11  C   UNL     1      14.937  12.331  15.202  1.00  0.00     0.012 C 
ENDROOT
TORSDOF 0
ENDMDL
MODEL 4
REMARK VINA RESULT:    -4.010      1.780      3.138
REMARK INTER + INTRA:          -4.010
REMARK INTER:                  -4.010
REMARK INTRA:                   0.000
REMARK UNBOUND:                 0.000
REMARK SMILES CC1=CC(=O)[C@@H]2C[C@H]1C2(C)C
REMARK SMILES IDX 1 1 2 2 3 3 4 4 5 5 6 6 7 7 8 8 9 9 10 10 11 11
REMARK H PARENT
REMARK Flexibility Score: inf
ROOT
ATOM      1  C   UNL     1      15.993  15.753  16.687  1.00  0.00     0.040 C 
ATOM      2  C   UNL     1      15.001  14.804  16.094  1.00  0.00    -0.066 C 
ATOM      3  C   UNL     1      14.529  13.738  16.800  1.00  0.00     0.047 C 
ATOM      4  C   UNL     1      13.516  12.880  16.106  1.00  0.00     0.159 C 
ATOM      5  O   UNL     1      12.976  11.891  16.667  1.00  0.00    -0.295 OA
ATOM      6  C   UNL     1      13.184  13.289  14.671  1.00  0.00     0.067 C 
ATOM      7  C   UNL     1      14.561  13.559  14.027  1.00  0.00     0.021 C 
ATOM      8  C   UNL     1      14.480  14.971  14.651  1.00  0.00     0.022 C 
ATOM      9  C   UNL     1      12.931  14.824  14.641  1.00  0.00    -0.019 C 
ATOM     10  C   UNL     1      12.302  15.291  13.303  1.00  0.00     0.012 C 
ATOM     11  C   UNL     1      12.123  15.462  15.806  1.00  0.00     0.012 C 
ENDROOT
TORSDOF 0
ENDMDL
MODEL 5
REMARK VINA RESULT:    -3.977      1.826      3.100
REMARK INTER + INTRA:          -3.977
REMARK INTER:                  -3.977
REMARK INTRA:                   0.000
REMARK UNBOUND:                 0.000
REMARK SMILES CC1=CC(=O)[C@@H]2C[C@H]1C2(C)C
REMARK SMILES IDX 1 1 2 2 3 3 4 4 5 5 6 6 7 7 8 8 9 9 10 10 11 11
REMARK H PARENT
REMARK Flexibility Score: inf
ROOT
ATOM      1  C   UNL     1      12.660  14.820  12.818  1.00  0.00     0.040 C 
ATOM      2  C   UNL     1      13.045  14.386  14.197  1.00  0.00    -0.066 C 
ATOM      3  C   UNL     1      12.638  13.188  14.702  1.00  0.00     0.047 C 
ATOM      4  C   UNL     1      13.116  12.854  16.083  1.00  0.00     0.159 C 
ATOM      5  O   UNL     1      12.841  11.761  16.643  1.00  0.00    -0.295 OA
ATOM      6  C   UNL     1      13.961  13.933  16.762  1.00  0.00     0.067 C 
ATOM      7  C   UNL     1      13.190  15.243  16.490  1.00  0.00     0.021 C 
ATOM      8  C   UNL     1      13.903  15.277  15.119  1.00  0.00     0.022 C 
ATOM      9  C   UNL     1      15.039  14.423  15.753  1.00  0.00    -0.019 C 
ATOM     10  C   UNL     1      16.126  15.297  16.431  1.00  0.00     0.012 C 
ATOM     11  C   UNL     1      15.751  13.367  14.861  1.00  0.00     0.012 C 
ENDROOT
TORSDOF 0
ENDMDL
MODEL 6
REMARK VINA RESULT:    -3.174      1.574      2.343
REMARK INTER + INTRA:          -3.174
REMARK INTER:                  -3.174
REMARK INTRA:                   0.000
REMARK UNBOUND:                 0.000
REMARK SMILES CC1=CC(=O)[C@@H]2C[C@H]1C2(C)C
REMARK SMILES IDX 1 1 2 2 3 3 4 4 5 5 6 6 7 7 8 8 9 9 10 10 11 11
REMARK H PARENT
REMARK Flexibility Score: inf
ROOT
ATOM      1  C   UNL     1      13.552  14.967  12.211  1.00  0.00     0.040 C 
ATOM      2  C   UNL     1      13.669  14.859  13.698  1.00  0.00    -0.066 C 
ATOM      3  C   UNL     1      12.649  15.237  14.519  1.00  0.00     0.047 C 
ATOM      4  C   UNL     1      12.877  15.050  15.988  1.00  0.00     0.159 C 
ATOM      5  O   UNL     1      11.996  15.324  16.845  1.00  0.00    -0.295 OA
ATOM      6  C   UNL     1      14.252  14.504  16.373  1.00  0.00     0.067 C 
ATOM      7  C   UNL     1      15.239  15.332  15.522  1.00  0.00     0.021 C 
ATOM      8  C   UNL     1      14.952  14.335  14.376  1.00  0.00     0.022 C 
ATOM      9  C   UNL     1      14.573  13.286  15.461  1.00  0.00    -0.019 C 
ATOM     10  C   UNL     1      15.802  12.483  15.961  1.00  0.00     0.012 C 
ATOM     11  C   UNL     1      13.431  12.279  15.144  1.00  0.00     0.012 C 
ENDROOT
TORSDOF 0
ENDMDL
MODEL 7
REMARK VINA RESULT:    -3.151      4.369      6.016
REMARK INTER + INTRA:          -3.151
REMARK INTER:                  -3.151
REMARK INTRA:                   0.000
REMARK UNBOUND:                 0.000
REMARK SMILES CC1=CC(=O)[C@@H]2C[C@H]1C2(C)C
REMARK SMILES IDX 1 1 2 2 3 3 4 4 5 5 6 6 7 7 8 8 9 9 10 10 11 11
REMARK H PARENT
REMARK Flexibility Score: inf
ROOT
ATOM      1  C   UNL     1      14.178  16.362   9.887  1.00  0.00     0.040 C 
ATOM      2  C   UNL     1      12.812  15.860  10.235  1.00  0.00    -0.066 C 
ATOM      3  C   UNL     1      12.404  14.610   9.877  1.00  0.00     0.047 C 
ATOM      4  C   UNL     1      11.026  14.214  10.312  1.00  0.00     0.159 C 
ATOM      5  O   UNL     1      10.549  13.072  10.076  1.00  0.00    -0.295 OA
ATOM      6  C   UNL     1      10.240  15.290  11.060  1.00  0.00     0.067 C 
ATOM      7  C   UNL     1      10.465  16.570  10.227  1.00  0.00     0.021 C 
ATOM      8  C   UNL     1      11.795  16.735  10.997  1.00  0.00     0.022 C 
ATOM      9  C   UNL     1      11.162  15.906  12.152  1.00  0.00    -0.019 C 
ATOM     10  C   UNL     1      10.378  16.792  13.154  1.00  0.00     0.012 C 
ATOM     11  C   UNL     1      12.083  14.952  12.964  1.00  0.00     0.012 C 
ENDROOT
TORSDOF 0
ENDMDL
MODEL 8
REMARK VINA RESULT:    -3.016      4.046      5.837
REMARK INTER + INTRA:          -3.016
REMARK INTER:                  -3.016
REMARK INTRA:                   0.000
REMARK UNBOUND:                 0.000
REMARK SMILES CC1=CC(=O)[C@@H]2C[C@H]1C2(C)C
REMARK SMILES IDX 1 1 2 2 3 3 4 4 5 5 6 6 7 7 8 8 9 9 10 10 11 11
REMARK H PARENT
REMARK Flexibility Score: inf
ROOT
ATOM      1  C   UNL     1       9.283  13.427  10.125  1.00  0.00     0.040 C 
ATOM      2  C   UNL     1      10.279  14.519  10.351  1.00  0.00    -0.066 C 
ATOM      3  C   UNL     1      10.062  15.784   9.892  1.00  0.00     0.047 C 
ATOM      4  C   UNL     1      11.121  16.795  10.210  1.00  0.00     0.159 C 
ATOM      5  O   UNL     1      11.017  18.004   9.876  1.00  0.00    -0.295 OA
ATOM      6  C   UNL     1      12.334  16.256  10.968  1.00  0.00     0.067 C 
ATOM      7  C   UNL     1      12.691  14.948  10.230  1.00  0.00     0.021 C 
ATOM      8  C   UNL     1      11.607  14.265  11.095  1.00  0.00     0.022 C 
ATOM      9  C   UNL     1      11.829  15.384  12.154  1.00  0.00    -0.019 C 
ATOM     10  C   UNL     1      12.962  15.035  13.153  1.00  0.00     0.012 C 
ATOM     11  C   UNL     1      10.601  15.883  12.966  1.00  0.00     0.012 C 
ENDROOT
TORSDOF 0
ENDMDL
MODEL 9
REMARK VINA RESULT:    -2.873      5.012      6.390
REMARK INTER + INTRA:          -2.873
REMARK INTER:                  -2.873
REMARK INTRA:                   0.000
REMARK UNBOUND:                 0.000
REMARK SMILES CC1=CC(=O)[C@@H]2C[C@H]1C2(C)C
REMARK SMILES IDX 1 1 2 2 3 3 4 4 5 5 6 6 7 7 8 8 9 9 10 10 11 11
REMARK H PARENT
REMARK Flexibility Score: inf
ROOT
ATOM      1  C   UNL     1      10.476  17.024  13.717  1.00  0.00     0.040 C 
ATOM      2  C   UNL     1      10.672  16.148  12.522  1.00  0.00    -0.066 C 
ATOM      3  C   UNL     1       9.611  15.655  11.822  1.00  0.00     0.047 C 
ATOM      4  C   UNL     1       9.940  14.814  10.626  1.00  0.00     0.159 C 
ATOM      5  O   UNL     1       9.049  14.335   9.876  1.00  0.00    -0.295 OA
ATOM      6  C   UNL     1      11.430  14.581  10.378  1.00  0.00     0.067 C 
ATOM      7  C   UNL     1      11.992  14.222  11.771  1.00  0.00     0.021 C 
ATOM      8  C   UNL     1      12.079  15.743  12.033  1.00  0.00     0.022 C 
ATOM      9  C   UNL     1      12.170  15.945  10.493  1.00  0.00    -0.019 C 
ATOM     10  C   UNL     1      13.628  15.870   9.973  1.00  0.00     0.012 C 
ATOM     11  C   UNL     1      11.497  17.204   9.875  1.00  0.00     0.012 C 
ENDROOT
TORSDOF 0
ENDMDL
