MODEL 1
REMARK VINA RESULT:    -3.244      0.000      0.000
REMARK INTER + INTRA:          -8.496
REMARK INTER:                  -5.899
REMARK INTRA:                  -2.597
REMARK UNBOUND:                -2.597
REMARK SMILES CCCCCCCCCCCCCC[C@H](C)C(=O)[O-]
REMARK SMILES IDX 9 1 10 2 11 3 12 4 13 5 14 6 15 7 16 8 17 9 18 10 19 11 8 12
REMARK SMILES IDX 7 13 6 14 5 15 4 16 3 17 2 18 1 19
REMARK H PARENT
REMARK Flexibility Score: inf
ROOT
ATOM      1  C   UNL     1     -98.603  70.429  22.522  1.00  0.00     0.000 C 
ENDROOT
BRANCH   1   2
ATOM      2  C   UNL     1     -99.655  69.462  23.078  1.00  0.00     0.000 C 
BRANCH   2   3
ATOM      3  C   UNL     1     -99.065  68.585  24.190  1.00  0.00     0.000 C 
BRANCH   3   4
ATOM      4  C   UNL     1     -99.714  68.901  25.543  1.00  0.00     0.000 C 
BRANCH   4   5
ATOM      5  C   UNL     1     -98.827  69.834  26.375  1.00  0.00     0.001 C 
BRANCH   5   6
ATOM      6  C   UNL     1     -99.367  71.273  26.351  1.00  0.00     0.009 C 
BRANCH   6   7
ATOM      7  C   UNL     1    -100.893  71.334  26.119  1.00  0.00     0.032 C 
ATOM      8  C   UNL     1    -101.314  72.581  25.329  1.00  0.00     0.014 C 
BRANCH   7   9
ATOM      9  C   UNL     1    -101.614  71.300  27.439  1.00  0.00     0.044 C 
ATOM     10  O   UNL     1    -101.145  71.905  28.440  1.00  0.00    -0.550 OA
ATOM     11  O   UNL     1    -102.806  70.597  27.560  1.00  0.00    -0.550 OA
ENDBRANCH   7   9
ENDBRANCH   6   7
ENDBRANCH   5   6
ENDBRANCH   4   5
ENDBRANCH   3   4
ENDBRANCH   2   3
ENDBRANCH   1   2
BRANCH   1  12
ATOM     12  C   UNL     1     -99.173  71.851  22.408  1.00  0.00     0.000 C 
BRANCH  12  13
ATOM     13  C   UNL     1     -98.283  72.903  23.090  1.00  0.00    -0.000 C 
BRANCH  13  14
ATOM     14  C   UNL     1     -97.034  72.287  23.742  1.00  0.00    -0.000 C 
BRANCH  14  15
ATOM     15  C   UNL     1     -95.721  72.811  23.131  1.00  0.00    -0.000 C 
BRANCH  15  16
ATOM     16  C   UNL     1     -95.883  73.931  22.083  1.00  0.00    -0.000 C 
BRANCH  16  17
ATOM     17  C   UNL     1     -95.421  73.566  20.661  1.00  0.00    -0.000 C 
BRANCH  17  18
ATOM     18  C   UNL     1     -96.082  72.286  20.130  1.00  0.00    -0.003 C 
ATOM     19  C   UNL     1     -97.310  72.611  19.284  1.00  0.00     0.004 C 
ENDBRANCH  17  18
ENDBRANCH  16  17
ENDBRANCH  15  16
ENDBRANCH  14  15
ENDBRANCH  13  14
ENDBRANCH  12  13
ENDBRANCH   1  12
TORSDOF 14
ENDMDL
MODEL 2
REMARK VINA RESULT:    -3.224      1.877      4.035
REMARK INTER + INTRA:          -8.460
REMARK INTER:                  -5.493
REMARK INTRA:                  -2.967
REMARK UNBOUND:                -2.597
REMARK SMILES CCCCCCCCCCCCCC[C@H](C)C(=O)[O-]
REMARK SMILES IDX 9 1 10 2 11 3 12 4 13 5 14 6 15 7 16 8 17 9 18 10 19 11 8 12
REMARK SMILES IDX 7 13 6 14 5 15 4 16 3 17 2 18 1 19
REMARK H PARENT
REMARK Flexibility Score: inf
ROOT
ATOM      1  C   UNL     1     -98.219  70.967  22.095  1.00  0.00     0.000 C 
ENDROOT
BRANCH   1   2
ATOM      2  C   UNL     1     -99.749  70.886  22.050  1.00  0.00     0.000 C 
BRANCH   2   3
ATOM      3  C   UNL     1    -100.261  69.673  22.837  1.00  0.00     0.000 C 
BRANCH   3   4
ATOM      4  C   UNL     1     -99.103  68.920  23.504  1.00  0.00     0.000 C 
BRANCH   4   5
ATOM      5  C   UNL     1     -99.376  68.702  24.997  1.00  0.00     0.001 C 
BRANCH   5   6
ATOM      6  C   UNL     1    -100.306  69.793  25.552  1.00  0.00     0.009 C 
BRANCH   6   7
ATOM      7  C   UNL     1     -99.970  70.179  27.009  1.00  0.00     0.032 C 
ATOM      8  C   UNL     1     -98.491  69.947  27.349  1.00  0.00     0.014 C 
BRANCH   7   9
ATOM      9  C   UNL     1    -100.839  69.401  27.959  1.00  0.00     0.044 C 
ATOM     10  O   UNL     1    -101.942  69.869  28.347  1.00  0.00    -0.550 OA
ATOM     11  O   UNL     1    -100.426  68.155  28.415  1.00  0.00    -0.550 OA
ENDBRANCH   7   9
ENDBRANCH   6   7
ENDBRANCH   5   6
ENDBRANCH   4   5
ENDBRANCH   3   4
ENDBRANCH   2   3
ENDBRANCH   1   2
BRANCH   1  12
ATOM     12  C   UNL     1     -97.759  72.258  22.790  1.00  0.00     0.000 C 
BRANCH  12  13
ATOM     13  C   UNL     1     -97.487  72.060  24.290  1.00  0.00    -0.000 C 
BRANCH  13  14
ATOM     14  C   UNL     1     -98.315  73.012  25.171  1.00  0.00    -0.000 C 
BRANCH  14  15
ATOM     15  C   UNL     1     -99.527  73.609  24.431  1.00  0.00    -0.000 C 
BRANCH  15  16
ATOM     16  C   UNL     1    -100.899  73.304  25.065  1.00  0.00    -0.000 C 
BRANCH  16  17
ATOM     17  C   UNL     1    -102.022  72.975  24.065  1.00  0.00    -0.000 C 
BRANCH  17  18
ATOM     18  C   UNL     1    -103.090  72.042  24.654  1.00  0.00    -0.003 C 
ATOM     19  C   UNL     1    -103.528  70.995  23.634  1.00  0.00     0.004 C 
ENDBRANCH  17  18
ENDBRANCH  16  17
ENDBRANCH  15  16
ENDBRANCH  14  15
ENDBRANCH  13  14
ENDBRANCH  12  13
ENDBRANCH   1  12
TORSDOF 14
ENDMDL
MODEL 3
REMARK VINA RESULT:    -3.216      2.181      3.638
REMARK INTER + INTRA:          -8.445
REMARK INTER:                  -6.237
REMARK INTRA:                  -2.207
REMARK UNBOUND:                -2.597
REMARK SMILES CCCCCCCCCCCCCC[C@H](C)C(=O)[O-]
REMARK SMILES IDX 9 1 10 2 11 3 12 4 13 5 14 6 15 7 16 8 17 9 18 10 19 11 8 12
REMARK SMILES IDX 7 13 6 14 5 15 4 16 3 17 2 18 1 19
REMARK H PARENT
REMARK Flexibility Score: inf
ROOT
ATOM      1  C   UNL     1    -100.574  72.171  25.216  1.00  0.00     0.000 C 
ENDROOT
BRANCH   1   2
ATOM      2  C   UNL     1    -101.441  72.383  26.463  1.00  0.00     0.000 C 
BRANCH   2   3
ATOM      3  C   UNL     1    -102.375  71.188  26.695  1.00  0.00     0.000 C 
BRANCH   3   4
ATOM      4  C   UNL     1    -101.759  69.893  26.152  1.00  0.00     0.000 C 
BRANCH   4   5
ATOM      5  C   UNL     1    -101.245  69.007  27.292  1.00  0.00     0.001 C 
BRANCH   5   6
ATOM      6  C   UNL     1     -99.715  69.099  27.414  1.00  0.00     0.009 C 
BRANCH   6   7
ATOM      7  C   UNL     1     -99.262  69.906  28.650  1.00  0.00     0.032 C 
ATOM      8  C   UNL     1     -97.884  70.553  28.452  1.00  0.00     0.014 C 
BRANCH   7   9
ATOM      9  C   UNL     1     -99.238  69.017  29.863  1.00  0.00     0.044 C 
ATOM     10  O   UNL     1     -99.787  69.383  30.936  1.00  0.00    -0.550 OA
ATOM     11  O   UNL     1     -98.607  67.780  29.804  1.00  0.00    -0.550 OA
ENDBRANCH   7   9
ENDBRANCH   6   7
ENDBRANCH   5   6
ENDBRANCH   4   5
ENDBRANCH   3   4
ENDBRANCH   2   3
ENDBRANCH   1   2
BRANCH   1  12
ATOM     12  C   UNL     1     -99.090  72.411  25.533  1.00  0.00     0.000 C 
BRANCH  12  13
ATOM     13  C   UNL     1     -98.151  71.597  24.627  1.00  0.00    -0.000 C 
BRANCH  13  14
ATOM     14  C   UNL     1     -98.829  70.345  24.047  1.00  0.00    -0.000 C 
BRANCH  14  15
ATOM     15  C   UNL     1     -98.694  70.246  22.516  1.00  0.00    -0.000 C 
BRANCH  15  16
ATOM     16  C   UNL     1     -98.188  71.524  21.817  1.00  0.00    -0.000 C 
BRANCH  16  17
ATOM     17  C   UNL     1     -96.758  71.437  21.252  1.00  0.00    -0.000 C 
BRANCH  17  18
ATOM     18  C   UNL     1     -95.987  72.759  21.379  1.00  0.00    -0.003 C 
ATOM     19  C   UNL     1     -95.285  72.858  22.730  1.00  0.00     0.004 C 
ENDBRANCH  17  18
ENDBRANCH  16  17
ENDBRANCH  15  16
ENDBRANCH  14  15
ENDBRANCH  13  14
ENDBRANCH  12  13
ENDBRANCH   1  12
TORSDOF 14
ENDMDL
MODEL 4
REMARK VINA RESULT:    -3.212      3.216      7.222
REMARK INTER + INTRA:          -8.437
REMARK INTER:                  -6.791
REMARK INTRA:                  -1.646
REMARK UNBOUND:                -2.597
REMARK SMILES CCCCCCCCCCCCCC[C@H](C)C(=O)[O-]
REMARK SMILES IDX 9 1 10 2 11 3 12 4 13 5 14 6 15 7 16 8 17 9 18 10 19 11 8 12
REMARK SMILES IDX 7 13 6 14 5 15 4 16 3 17 2 18 1 19
REMARK H PARENT
REMARK Flexibility Score: inf
ROOT
ATOM      1  C   UNL     1     -98.868  71.794  23.106  1.00  0.00     0.000 C 
ENDROOT
BRANCH   1   2
ATOM      2  C   UNL     1     -97.602  71.915  23.962  1.00  0.00     0.000 C 
BRANCH   2   3
ATOM      3  C   UNL     1     -97.303  73.380  24.301  1.00  0.00     0.000 C 
BRANCH   3   4
ATOM      4  C   UNL     1     -95.855  73.743  23.951  1.00  0.00     0.000 C 
BRANCH   4   5
ATOM      5  C   UNL     1     -95.328  72.865  22.810  1.00  0.00     0.001 C 
BRANCH   5   6
ATOM      6  C   UNL     1     -95.263  73.655  21.493  1.00  0.00     0.009 C 
BRANCH   6   7
ATOM      7  C   UNL     1     -95.870  72.882  20.302  1.00  0.00     0.032 C 
ATOM      8  C   UNL     1     -95.140  73.172  18.983  1.00  0.00     0.014 C 
BRANCH   7   9
ATOM      9  C   UNL     1     -97.329  73.220  20.161  1.00  0.00     0.044 C 
ATOM     10  O   UNL     1     -98.094  72.486  19.480  1.00  0.00    -0.550 OA
ATOM     11  O   UNL     1     -97.842  74.350  20.785  1.00  0.00    -0.550 OA
ENDBRANCH   7   9
ENDBRANCH   6   7
ENDBRANCH   5   6
ENDBRANCH   4   5
ENDBRANCH   3   4
ENDBRANCH   2   3
ENDBRANCH   1   2
BRANCH   1  12
ATOM     12  C   UNL     1     -98.903  70.448  22.365  1.00  0.00     0.000 C 
BRANCH  12  13
ATOM     13  C   UNL     1     -99.877  69.444  23.003  1.00  0.00    -0.000 C 
BRANCH  13  14
ATOM     14  C   UNL     1     -99.168  68.439  23.927  1.00  0.00    -0.000 C 
BRANCH  14  15
ATOM     15  C   UNL     1     -99.423  68.715  25.420  1.00  0.00    -0.000 C 
BRANCH  15  16
ATOM     16  C   UNL     1    -100.570  69.702  25.720  1.00  0.00    -0.000 C 
BRANCH  16  17
ATOM     17  C   UNL     1    -101.426  69.354  26.951  1.00  0.00    -0.000 C 
BRANCH  17  18
ATOM     18  C   UNL     1    -100.612  68.696  28.075  1.00  0.00    -0.003 C 
ATOM     19  C   UNL     1    -100.886  69.370  29.417  1.00  0.00     0.004 C 
ENDBRANCH  17  18
ENDBRANCH  16  17
ENDBRANCH  15  16
ENDBRANCH  14  15
ENDBRANCH  13  14
ENDBRANCH  12  13
ENDBRANCH   1  12
TORSDOF 14
ENDMDL
MODEL 5
REMARK VINA RESULT:    -3.198      1.840      2.286
REMARK INTER + INTRA:          -8.413
REMARK INTER:                  -6.319
REMARK INTRA:                  -2.094
REMARK UNBOUND:                -2.597
REMARK SMILES CCCCCCCCCCCCCC[C@H](C)C(=O)[O-]
REMARK SMILES IDX 9 1 10 2 11 3 12 4 13 5 14 6 15 7 16 8 17 9 18 10 19 11 8 12
REMARK SMILES IDX 7 13 6 14 5 15 4 16 3 17 2 18 1 19
REMARK H PARENT
REMARK Flexibility Score: inf
ROOT
ATOM      1  C   UNL     1     -99.557  71.693  23.037  1.00  0.00     0.000 C 
ENDROOT
BRANCH   1   2
ATOM      2  C   UNL     1     -98.687  70.436  22.924  1.00  0.00     0.000 C 
BRANCH   2   3
ATOM      3  C   UNL     1     -99.523  69.166  23.124  1.00  0.00     0.000 C 
BRANCH   3   4
ATOM      4  C   UNL     1     -99.041  68.375  24.346  1.00  0.00     0.000 C 
BRANCH   4   5
ATOM      5  C   UNL     1     -99.709  68.884  25.629  1.00  0.00     0.001 C 
BRANCH   5   6
ATOM      6  C   UNL     1     -98.721  69.701  26.477  1.00  0.00     0.009 C 
BRANCH   6   7
ATOM      7  C   UNL     1     -99.361  70.261  27.766  1.00  0.00     0.032 C 
ATOM      8  C   UNL     1     -99.183  71.780  27.895  1.00  0.00     0.014 C 
BRANCH   7   9
ATOM      9  C   UNL     1     -98.774  69.575  28.970  1.00  0.00     0.044 C 
ATOM     10  O   UNL     1     -98.208  68.456  28.856  1.00  0.00    -0.550 OA
ATOM     11  O   UNL     1     -98.854  70.178  30.219  1.00  0.00    -0.550 OA
ENDBRANCH   7   9
ENDBRANCH   6   7
ENDBRANCH   5   6
ENDBRANCH   4   5
ENDBRANCH   3   4
ENDBRANCH   2   3
ENDBRANCH   1   2
BRANCH   1  12
ATOM     12  C   UNL     1     -98.744  72.876  23.585  1.00  0.00     0.000 C 
BRANCH  12  13
ATOM     13  C   UNL     1     -97.414  72.439  24.219  1.00  0.00    -0.000 C 
BRANCH  13  14
ATOM     14  C   UNL     1     -96.244  73.359  23.831  1.00  0.00    -0.000 C 
BRANCH  14  15
ATOM     15  C   UNL     1     -95.327  72.742  22.758  1.00  0.00    -0.000 C 
BRANCH  15  16
ATOM     16  C   UNL     1     -95.078  73.625  21.519  1.00  0.00    -0.000 C 
BRANCH  16  17
ATOM     17  C   UNL     1     -96.273  73.754  20.558  1.00  0.00    -0.000 C 
BRANCH  17  18
ATOM     18  C   UNL     1     -96.918  72.401  20.225  1.00  0.00    -0.003 C 
ATOM     19  C   UNL     1     -98.329  72.586  19.674  1.00  0.00     0.004 C 
ENDBRANCH  17  18
ENDBRANCH  16  17
ENDBRANCH  15  16
ENDBRANCH  14  15
ENDBRANCH  13  14
ENDBRANCH  12  13
ENDBRANCH   1  12
TORSDOF 14
ENDMDL
MODEL 6
REMARK VINA RESULT:    -3.163      1.645      3.641
REMARK INTER + INTRA:          -8.348
REMARK INTER:                  -5.871
REMARK INTRA:                  -2.477
REMARK UNBOUND:                -2.597
REMARK SMILES CCCCCCCCCCCCCC[C@H](C)C(=O)[O-]
REMARK SMILES IDX 9 1 10 2 11 3 12 4 13 5 14 6 15 7 16 8 17 9 18 10 19 11 8 12
REMARK SMILES IDX 7 13 6 14 5 15 4 16 3 17 2 18 1 19
REMARK H PARENT
REMARK Flexibility Score: inf
ROOT
ATOM      1  C   UNL     1     -97.141  74.646  23.488  1.00  0.00     0.000 C 
ENDROOT
BRANCH   1   2
ATOM      2  C   UNL     1     -98.584  74.376  23.929  1.00  0.00     0.000 C 
BRANCH   2   3
ATOM      3  C   UNL     1     -98.625  73.427  25.133  1.00  0.00     0.000 C 
BRANCH   3   4
ATOM      4  C   UNL     1    -100.064  73.007  25.456  1.00  0.00     0.000 C 
BRANCH   4   5
ATOM      5  C   UNL     1    -100.117  71.556  25.949  1.00  0.00     0.001 C 
BRANCH   5   6
ATOM      6  C   UNL     1     -98.704  70.961  26.057  1.00  0.00     0.009 C 
BRANCH   6   7
ATOM      7  C   UNL     1     -98.716  69.431  26.274  1.00  0.00     0.032 C 
ATOM      8  C   UNL     1     -99.632  68.708  25.277  1.00  0.00     0.014 C 
BRANCH   7   9
ATOM      9  C   UNL     1     -99.146  69.116  27.681  1.00  0.00     0.044 C 
ATOM     10  O   UNL     1     -98.390  69.379  28.654  1.00  0.00    -0.550 OA
ATOM     11  O   UNL     1    -100.384  68.531  27.914  1.00  0.00    -0.550 OA
ENDBRANCH   7   9
ENDBRANCH   6   7
ENDBRANCH   5   6
ENDBRANCH   4   5
ENDBRANCH   3   4
ENDBRANCH   2   3
ENDBRANCH   1   2
BRANCH   1  12
ATOM     12  C   UNL     1     -96.183  73.600  24.079  1.00  0.00     0.000 C 
BRANCH  12  13
ATOM     13  C   UNL     1     -95.263  72.972  23.019  1.00  0.00    -0.000 C 
BRANCH  13  14
ATOM     14  C   UNL     1     -95.420  73.628  21.637  1.00  0.00    -0.000 C 
BRANCH  14  15
ATOM     15  C   UNL     1     -95.981  72.662  20.577  1.00  0.00    -0.000 C 
BRANCH  15  16
ATOM     16  C   UNL     1     -96.772  71.462  21.134  1.00  0.00    -0.000 C 
BRANCH  16  17
ATOM     17  C   UNL     1     -98.268  71.725  21.387  1.00  0.00    -0.000 C 
BRANCH  17  18
ATOM     18  C   UNL     1     -98.905  70.690  22.324  1.00  0.00    -0.003 C 
ATOM     19  C   UNL     1    -100.428  70.768  22.275  1.00  0.00     0.004 C 
ENDBRANCH  17  18
ENDBRANCH  16  17
ENDBRANCH  15  16
ENDBRANCH  14  15
ENDBRANCH  13  14
ENDBRANCH  12  13
ENDBRANCH   1  12
TORSDOF 14
ENDMDL
MODEL 7
REMARK VINA RESULT:    -3.152      1.875      3.827
REMARK INTER + INTRA:          -8.329
REMARK INTER:                  -5.948
REMARK INTRA:                  -2.382
REMARK UNBOUND:                -2.597
REMARK SMILES CCCCCCCCCCCCCC[C@H](C)C(=O)[O-]
REMARK SMILES IDX 9 1 10 2 11 3 12 4 13 5 14 6 15 7 16 8 17 9 18 10 19 11 8 12
REMARK SMILES IDX 7 13 6 14 5 15 4 16 3 17 2 18 1 19
REMARK H PARENT
REMARK Flexibility Score: inf
ROOT
ATOM      1  C   UNL     1     -95.932  72.898  23.486  1.00  0.00     0.000 C 
ENDROOT
BRANCH   1   2
ATOM      2  C   UNL     1     -97.388  72.496  23.221  1.00  0.00     0.000 C 
BRANCH   2   3
ATOM      3  C   UNL     1     -97.481  71.490  22.067  1.00  0.00     0.000 C 
BRANCH   3   4
ATOM      4  C   UNL     1     -98.894  70.907  21.957  1.00  0.00     0.000 C 
BRANCH   4   5
ATOM      5  C   UNL     1     -99.782  71.392  23.109  1.00  0.00     0.001 C 
BRANCH   5   6
ATOM      6  C   UNL     1    -100.297  70.209  23.944  1.00  0.00     0.009 C 
BRANCH   6   7
ATOM      7  C   UNL     1     -99.155  69.369  24.557  1.00  0.00     0.032 C 
ATOM      8  C   UNL     1     -99.136  67.930  24.022  1.00  0.00     0.014 C 
BRANCH   7   9
ATOM      9  C   UNL     1     -99.278  69.353  26.056  1.00  0.00     0.044 C 
ATOM     10  O   UNL     1    -100.195  68.696  26.616  1.00  0.00    -0.550 OA
ATOM     11  O   UNL     1     -98.375  70.067  26.834  1.00  0.00    -0.550 OA
ENDBRANCH   7   9
ENDBRANCH   6   7
ENDBRANCH   5   6
ENDBRANCH   4   5
ENDBRANCH   3   4
ENDBRANCH   2   3
ENDBRANCH   1   2
BRANCH   1  12
ATOM     12  C   UNL     1     -95.252  73.377  22.195  1.00  0.00     0.000 C 
BRANCH  12  13
ATOM     13  C   UNL     1     -95.737  74.766  21.748  1.00  0.00    -0.000 C 
BRANCH  13  14
ATOM     14  C   UNL     1     -95.696  74.942  20.220  1.00  0.00    -0.000 C 
BRANCH  14  15
ATOM     15  C   UNL     1     -95.600  73.604  19.465  1.00  0.00    -0.000 C 
BRANCH  15  16
ATOM     16  C   UNL     1     -96.907  73.130  18.797  1.00  0.00    -0.000 C 
BRANCH  16  17
ATOM     17  C   UNL     1     -98.049  74.161  18.793  1.00  0.00    -0.000 C 
BRANCH  17  18
ATOM     18  C   UNL     1     -99.247  73.728  19.650  1.00  0.00    -0.003 C 
ATOM     19  C   UNL     1     -99.419  74.645  20.857  1.00  0.00     0.004 C 
ENDBRANCH  17  18
ENDBRANCH  16  17
ENDBRANCH  15  16
ENDBRANCH  14  15
ENDBRANCH  13  14
ENDBRANCH  12  13
ENDBRANCH   1  12
TORSDOF 14
ENDMDL
MODEL 8
REMARK VINA RESULT:    -3.138      2.290      4.154
REMARK INTER + INTRA:          -8.304
REMARK INTER:                  -5.728
REMARK INTRA:                  -2.576
REMARK UNBOUND:                -2.597
REMARK SMILES CCCCCCCCCCCCCC[C@H](C)C(=O)[O-]
REMARK SMILES IDX 9 1 10 2 11 3 12 4 13 5 14 6 15 7 16 8 17 9 18 10 19 11 8 12
REMARK SMILES IDX 7 13 6 14 5 15 4 16 3 17 2 18 1 19
REMARK H PARENT
REMARK Flexibility Score: inf
ROOT
ATOM      1  C   UNL     1     -99.808  70.680  22.213  1.00  0.00     0.000 C 
ENDROOT
BRANCH   1   2
ATOM      2  C   UNL     1    -100.398  69.801  23.322  1.00  0.00     0.000 C 
BRANCH   2   3
ATOM      3  C   UNL     1     -99.360  68.799  23.842  1.00  0.00     0.000 C 
BRANCH   3   4
ATOM      4  C   UNL     1     -99.224  68.887  25.367  1.00  0.00     0.000 C 
BRANCH   4   5
ATOM      5  C   UNL     1    -100.500  69.453  26.002  1.00  0.00     0.001 C 
BRANCH   5   6
ATOM      6  C   UNL     1    -100.952  68.590  27.191  1.00  0.00     0.009 C 
BRANCH   6   7
ATOM      7  C   UNL     1    -100.650  69.249  28.555  1.00  0.00     0.032 C 
ATOM      8  C   UNL     1    -100.685  70.782  28.484  1.00  0.00     0.014 C 
BRANCH   7   9
ATOM      9  C   UNL     1     -99.307  68.792  29.058  1.00  0.00     0.044 C 
ATOM     10  O   UNL     1     -99.156  67.627  29.512  1.00  0.00    -0.550 OA
ATOM     11  O   UNL     1     -98.222  69.660  29.024  1.00  0.00    -0.550 OA
ENDBRANCH   7   9
ENDBRANCH   6   7
ENDBRANCH   5   6
ENDBRANCH   4   5
ENDBRANCH   3   4
ENDBRANCH   2   3
ENDBRANCH   1   2
BRANCH   1  12
ATOM     12  C   UNL     1     -98.273  70.636  22.236  1.00  0.00     0.000 C 
BRANCH  12  13
ATOM     13  C   UNL     1     -97.647  71.970  22.673  1.00  0.00    -0.000 C 
BRANCH  13  14
ATOM     14  C   UNL     1     -97.485  72.074  24.199  1.00  0.00    -0.000 C 
BRANCH  14  15
ATOM     15  C   UNL     1     -98.306  73.224  24.811  1.00  0.00    -0.000 C 
BRANCH  15  16
ATOM     16  C   UNL     1     -99.614  72.800  25.508  1.00  0.00    -0.000 C 
BRANCH  16  17
ATOM     17  C   UNL     1    -100.905  73.183  24.761  1.00  0.00    -0.000 C 
BRANCH  17  18
ATOM     18  C   UNL     1    -102.149  73.135  25.659  1.00  0.00    -0.003 C 
ATOM     19  C   UNL     1    -102.976  71.881  25.387  1.00  0.00     0.004 C 
ENDBRANCH  17  18
ENDBRANCH  16  17
ENDBRANCH  15  16
ENDBRANCH  14  15
ENDBRANCH  13  14
ENDBRANCH  12  13
ENDBRANCH   1  12
TORSDOF 14
ENDMDL
MODEL 9
REMARK VINA RESULT:    -3.129      3.051      6.847
REMARK INTER + INTRA:          -8.287
REMARK INTER:                  -5.908
REMARK INTRA:                  -2.379
REMARK UNBOUND:                -2.597
REMARK SMILES CCCCCCCCCCCCCC[C@H](C)C(=O)[O-]
REMARK SMILES IDX 9 1 10 2 11 3 12 4 13 5 14 6 15 7 16 8 17 9 18 10 19 11 8 12
REMARK SMILES IDX 7 13 6 14 5 15 4 16 3 17 2 18 1 19
REMARK H PARENT
REMARK Flexibility Score: inf
ROOT
ATOM      1  C   UNL     1     -98.619  70.999  26.610  1.00  0.00     0.000 C 
ENDROOT
BRANCH   1   2
ATOM      2  C   UNL     1     -98.745  69.531  26.185  1.00  0.00     0.000 C 
BRANCH   2   3
ATOM      3  C   UNL     1     -99.848  69.355  25.133  1.00  0.00     0.000 C 
BRANCH   3   4
ATOM      4  C   UNL     1     -99.258  68.948  23.778  1.00  0.00     0.000 C 
BRANCH   4   5
ATOM      5  C   UNL     1     -99.506  70.032  22.722  1.00  0.00     0.001 C 
BRANCH   5   6
ATOM      6  C   UNL     1     -98.185  70.682  22.280  1.00  0.00     0.009 C 
BRANCH   6   7
ATOM      7  C   UNL     1     -97.724  71.806  23.234  1.00  0.00     0.032 C 
ATOM      8  C   UNL     1     -98.761  72.932  23.353  1.00  0.00     0.014 C 
BRANCH   7   9
ATOM      9  C   UNL     1     -96.411  72.371  22.764  1.00  0.00     0.044 C 
ATOM     10  O   UNL     1     -95.664  72.999  23.560  1.00  0.00    -0.550 OA
ATOM     11  O   UNL     1     -96.014  72.199  21.444  1.00  0.00    -0.550 OA
ENDBRANCH   7   9
ENDBRANCH   6   7
ENDBRANCH   5   6
ENDBRANCH   4   5
ENDBRANCH   3   4
ENDBRANCH   2   3
ENDBRANCH   1   2
BRANCH   1  12
ATOM     12  C   UNL     1     -98.323  71.111  28.113  1.00  0.00     0.000 C 
BRANCH  12  13
ATOM     13  C   UNL     1     -98.336  69.748  28.824  1.00  0.00    -0.000 C 
BRANCH  13  14
ATOM     14  C   UNL     1     -99.442  69.647  29.888  1.00  0.00    -0.000 C 
BRANCH  14  15
ATOM     15  C   UNL     1    -100.757  69.069  29.332  1.00  0.00    -0.000 C 
BRANCH  15  16
ATOM     16  C   UNL     1    -101.898  70.089  29.147  1.00  0.00    -0.000 C 
BRANCH  16  17
ATOM     17  C   UNL     1    -102.262  70.405  27.686  1.00  0.00    -0.000 C 
BRANCH  17  18
ATOM     18  C   UNL     1    -102.109  71.894  27.342  1.00  0.00    -0.003 C 
ATOM     19  C   UNL     1    -101.647  72.693  28.557  1.00  0.00     0.004 C 
ENDBRANCH  17  18
ENDBRANCH  16  17
ENDBRANCH  15  16
ENDBRANCH  14  15
ENDBRANCH  13  14
ENDBRANCH  12  13
ENDBRANCH   1  12
TORSDOF 14
ENDMDL
