MODEL 1
REMARK VINA RESULT:    -5.366      0.000      0.000
REMARK INTER + INTRA:          -6.042
REMARK INTER:                  -5.837
REMARK INTRA:                  -0.205
REMARK UNBOUND:                -0.205
REMARK SMILES O=C([O-])c1ccccc1O
REMARK SMILES IDX 4 1 9 2 5 3 8 4 6 5 7 6 2 7 1 8 3 9 10 10
REMARK H PARENT 10 11
REMARK Flexibility Score: inf
ROOT
ATOM      1  C   UNL     1      17.154 -37.227  25.749  1.00  0.00     0.039 A 
ATOM      2  C   UNL     1      16.118 -36.307  25.439  1.00  0.00     0.124 A 
ATOM      3  C   UNL     1      18.101 -37.542  24.758  1.00  0.00     0.014 A 
ATOM      4  C   UNL     1      16.021 -35.783  24.144  1.00  0.00     0.047 A 
ATOM      5  C   UNL     1      18.002 -36.995  23.476  1.00  0.00     0.001 A 
ATOM      6  C   UNL     1      16.958 -36.123  23.167  1.00  0.00     0.004 A 
ENDROOT
BRANCH   1   7
ATOM      7  C   UNL     1      17.264 -37.898  27.063  1.00  0.00     0.075 C 
ATOM      8  O   UNL     1      18.275 -38.589  27.355  1.00  0.00    -0.545 OA
ATOM      9  O   UNL     1      16.275 -37.712  28.023  1.00  0.00    -0.545 OA
ENDBRANCH   1   7
BRANCH   2  10
ATOM     10  O   UNL     1      15.194 -35.864  26.388  1.00  0.00    -0.507 OA
ATOM     11  H   UNL     1      15.318 -35.977  27.385  1.00  0.00     0.293 HD
ENDBRANCH   2  10
TORSDOF 2
ENDMDL
MODEL 2
REMARK VINA RESULT:    -5.344     11.564     12.951
REMARK INTER + INTRA:          -6.017
REMARK INTER:                  -5.819
REMARK INTRA:                  -0.198
REMARK UNBOUND:                -0.205
REMARK SMILES O=C([O-])c1ccccc1O
REMARK SMILES IDX 4 1 9 2 5 3 8 4 6 5 7 6 2 7 1 8 3 9 10 10
REMARK H PARENT 10 11
REMARK Flexibility Score: inf
ROOT
ATOM      1  C   UNL     1      23.664 -33.441  35.216  1.00  0.00     0.039 A 
ATOM      2  C   UNL     1      23.434 -32.071  35.507  1.00  0.00     0.124 A 
ATOM      3  C   UNL     1      23.446 -34.396  36.225  1.00  0.00     0.014 A 
ATOM      4  C   UNL     1      23.058 -31.692  36.803  1.00  0.00     0.047 A 
ATOM      5  C   UNL     1      23.051 -34.004  37.506  1.00  0.00     0.001 A 
ATOM      6  C   UNL     1      22.867 -32.653  37.797  1.00  0.00     0.004 A 
ENDROOT
BRANCH   1   7
ATOM      7  C   UNL     1      24.156 -33.909  33.901  1.00  0.00     0.075 C 
ATOM      8  O   UNL     1      24.249 -35.138  33.644  1.00  0.00    -0.545 OA
ATOM      9  O   UNL     1      24.458 -32.987  32.904  1.00  0.00    -0.545 OA
ENDBRANCH   1   7
BRANCH   2  10
ATOM     10  O   UNL     1      23.532 -31.067  34.542  1.00  0.00    -0.507 OA
ATOM     11  H   UNL     1      22.749 -30.501  34.242  1.00  0.00     0.293 HD
ENDBRANCH   2  10
TORSDOF 2
ENDMDL
MODEL 3
REMARK VINA RESULT:    -5.233     13.574     14.840
REMARK INTER + INTRA:          -5.897
REMARK INTER:                  -5.648
REMARK INTRA:                  -0.249
REMARK UNBOUND:                -0.205
REMARK SMILES O=C([O-])c1ccccc1O
REMARK SMILES IDX 4 1 9 2 5 3 8 4 6 5 7 6 2 7 1 8 3 9 10 10
REMARK H PARENT 10 11
REMARK Flexibility Score: inf
ROOT
ATOM      1  C   UNL     1      22.680 -32.387  38.314  1.00  0.00     0.039 A 
ATOM      2  C   UNL     1      23.103 -33.718  38.567  1.00  0.00     0.124 A 
ATOM      3  C   UNL     1      22.430 -31.993  36.987  1.00  0.00     0.014 A 
ATOM      4  C   UNL     1      23.323 -34.590  37.493  1.00  0.00     0.047 A 
ATOM      5  C   UNL     1      22.635 -32.882  35.929  1.00  0.00     0.001 A 
ATOM      6  C   UNL     1      23.090 -34.175  36.181  1.00  0.00     0.004 A 
ENDROOT
BRANCH   1   7
ATOM      7  C   UNL     1      22.520 -31.379  39.387  1.00  0.00     0.075 C 
ATOM      8  O   UNL     1      23.349 -31.302  40.331  1.00  0.00    -0.545 OA
ATOM      9  O   UNL     1      21.483 -30.456  39.323  1.00  0.00    -0.545 OA
ENDBRANCH   1   7
BRANCH   2  10
ATOM     10  O   UNL     1      23.281 -34.221  39.857  1.00  0.00    -0.507 OA
ATOM     11  H   UNL     1      24.086 -34.764  40.140  1.00  0.00     0.293 HD
ENDBRANCH   2  10
TORSDOF 2
ENDMDL
MODEL 4
REMARK VINA RESULT:    -5.174      3.462      4.751
REMARK INTER + INTRA:          -5.833
REMARK INTER:                  -5.584
REMARK INTRA:                  -0.250
REMARK UNBOUND:                -0.205
REMARK SMILES O=C([O-])c1ccccc1O
REMARK SMILES IDX 4 1 9 2 5 3 8 4 6 5 7 6 2 7 1 8 3 9 10 10
REMARK H PARENT 10 11
REMARK Flexibility Score: inf
ROOT
ATOM      1  C   UNL     1      16.675 -35.884  22.917  1.00  0.00     0.039 A 
ATOM      2  C   UNL     1      17.648 -36.862  22.580  1.00  0.00     0.124 A 
ATOM      3  C   UNL     1      16.498 -35.539  24.269  1.00  0.00     0.014 A 
ATOM      4  C   UNL     1      18.364 -37.505  23.598  1.00  0.00     0.047 A 
ATOM      5  C   UNL     1      17.235 -36.176  25.270  1.00  0.00     0.001 A 
ATOM      6  C   UNL     1      18.159 -37.164  24.936  1.00  0.00     0.004 A 
ENDROOT
BRANCH   1   7
ATOM      7  C   UNL     1      15.812 -35.232  21.907  1.00  0.00     0.075 C 
ATOM      8  O   UNL     1      15.391 -35.869  20.906  1.00  0.00    -0.545 OA
ATOM      9  O   UNL     1      15.398 -33.917  22.093  1.00  0.00    -0.545 OA
ENDBRANCH   1   7
BRANCH   2  10
ATOM     10  O   UNL     1      17.957 -37.195  21.260  1.00  0.00    -0.507 OA
ATOM     11  H   UNL     1      18.572 -37.956  21.005  1.00  0.00     0.293 HD
ENDBRANCH   2  10
TORSDOF 2
ENDMDL
MODEL 5
REMARK VINA RESULT:    -5.168     11.236     12.318
REMARK INTER + INTRA:          -5.827
REMARK INTER:                  -5.575
REMARK INTRA:                  -0.252
REMARK UNBOUND:                -0.205
REMARK SMILES O=C([O-])c1ccccc1O
REMARK SMILES IDX 4 1 9 2 5 3 8 4 6 5 7 6 2 7 1 8 3 9 10 10
REMARK H PARENT 10 11
REMARK Flexibility Score: inf
ROOT
ATOM      1  C   UNL     1      23.191 -33.718  35.976  1.00  0.00     0.039 A 
ATOM      2  C   UNL     1      22.232 -33.285  35.023  1.00  0.00     0.124 A 
ATOM      3  C   UNL     1      24.431 -34.201  35.521  1.00  0.00     0.014 A 
ATOM      4  C   UNL     1      22.512 -33.404  33.656  1.00  0.00     0.047 A 
ATOM      5  C   UNL     1      24.702 -34.295  34.154  1.00  0.00     0.001 A 
ATOM      6  C   UNL     1      23.740 -33.906  33.223  1.00  0.00     0.004 A 
ENDROOT
BRANCH   1   7
ATOM      7  C   UNL     1      22.931 -33.715  37.433  1.00  0.00     0.075 C 
ATOM      8  O   UNL     1      23.326 -34.662  38.163  1.00  0.00    -0.545 OA
ATOM      9  O   UNL     1      22.302 -32.625  38.024  1.00  0.00    -0.545 OA
ENDBRANCH   1   7
BRANCH   2  10
ATOM     10  O   UNL     1      21.016 -32.704  35.387  1.00  0.00    -0.507 OA
ATOM     11  H   UNL     1      20.936 -31.779  35.789  1.00  0.00     0.293 HD
ENDBRANCH   2  10
TORSDOF 2
ENDMDL
MODEL 6
REMARK VINA RESULT:    -5.166      2.422      3.600
REMARK INTER + INTRA:          -5.825
REMARK INTER:                  -5.574
REMARK INTRA:                  -0.250
REMARK UNBOUND:                -0.205
REMARK SMILES O=C([O-])c1ccccc1O
REMARK SMILES IDX 4 1 9 2 5 3 8 4 6 5 7 6 2 7 1 8 3 9 10 10
REMARK H PARENT 10 11
REMARK Flexibility Score: inf
ROOT
ATOM      1  C   UNL     1      17.605 -36.982  24.953  1.00  0.00     0.039 A 
ATOM      2  C   UNL     1      17.621 -35.874  25.841  1.00  0.00     0.124 A 
ATOM      3  C   UNL     1      17.450 -38.275  25.483  1.00  0.00     0.014 A 
ATOM      4  C   UNL     1      17.544 -36.094  27.223  1.00  0.00     0.047 A 
ATOM      5  C   UNL     1      17.354 -38.475  26.862  1.00  0.00     0.001 A 
ATOM      6  C   UNL     1      17.410 -37.386  27.731  1.00  0.00     0.004 A 
ENDROOT
BRANCH   1   7
ATOM      7  C   UNL     1      17.780 -36.839  23.490  1.00  0.00     0.075 C 
ATOM      8  O   UNL     1      18.399 -37.710  22.824  1.00  0.00    -0.545 OA
ATOM      9  O   UNL     1      17.199 -35.767  22.823  1.00  0.00    -0.545 OA
ENDBRANCH   1   7
BRANCH   2  10
ATOM     10  O   UNL     1      17.674 -34.552  25.397  1.00  0.00    -0.507 OA
ATOM     11  H   UNL     1      18.500 -33.972  25.466  1.00  0.00     0.293 HD
ENDBRANCH   2  10
TORSDOF 2
ENDMDL
MODEL 7
REMARK VINA RESULT:    -5.095      1.996      3.614
REMARK INTER + INTRA:          -5.747
REMARK INTER:                  -5.510
REMARK INTRA:                  -0.237
REMARK UNBOUND:                -0.205
REMARK SMILES O=C([O-])c1ccccc1O
REMARK SMILES IDX 4 1 9 2 5 3 8 4 6 5 7 6 2 7 1 8 3 9 10 10
REMARK H PARENT 10 11
REMARK Flexibility Score: inf
ROOT
ATOM      1  C   UNL     1      16.768 -36.338  24.995  1.00  0.00     0.039 A 
ATOM      2  C   UNL     1      15.832 -36.576  26.035  1.00  0.00     0.124 A 
ATOM      3  C   UNL     1      18.103 -36.742  25.177  1.00  0.00     0.014 A 
ATOM      4  C   UNL     1      16.264 -37.146  27.239  1.00  0.00     0.047 A 
ATOM      5  C   UNL     1      18.514 -37.328  26.377  1.00  0.00     0.001 A 
ATOM      6  C   UNL     1      17.597 -37.521  27.410  1.00  0.00     0.004 A 
ENDROOT
BRANCH   1   7
ATOM      7  C   UNL     1      16.409 -35.652  23.734  1.00  0.00     0.075 C 
ATOM      8  O   UNL     1      15.408 -34.891  23.673  1.00  0.00    -0.545 OA
ATOM      9  O   UNL     1      17.221 -35.788  22.613  1.00  0.00    -0.545 OA
ENDBRANCH   1   7
BRANCH   2  10
ATOM     10  O   UNL     1      14.470 -36.296  25.902  1.00  0.00    -0.507 OA
ATOM     11  H   UNL     1      13.945 -35.744  26.567  1.00  0.00     0.293 HD
ENDBRANCH   2  10
TORSDOF 2
ENDMDL
MODEL 8
REMARK VINA RESULT:    -5.069     11.916     12.929
REMARK INTER + INTRA:          -5.719
REMARK INTER:                  -5.472
REMARK INTRA:                  -0.246
REMARK UNBOUND:                -0.205
REMARK SMILES O=C([O-])c1ccccc1O
REMARK SMILES IDX 4 1 9 2 5 3 8 4 6 5 7 6 2 7 1 8 3 9 10 10
REMARK H PARENT 10 11
REMARK Flexibility Score: inf
ROOT
ATOM      1  C   UNL     1      23.137 -32.745  36.045  1.00  0.00     0.039 A 
ATOM      2  C   UNL     1      23.768 -32.042  34.986  1.00  0.00     0.124 A 
ATOM      3  C   UNL     1      22.827 -34.105  35.869  1.00  0.00     0.014 A 
ATOM      4  C   UNL     1      24.013 -32.695  33.771  1.00  0.00     0.047 A 
ATOM      5  C   UNL     1      23.096 -34.747  34.657  1.00  0.00     0.001 A 
ATOM      6  C   UNL     1      23.679 -34.040  33.606  1.00  0.00     0.004 A 
ENDROOT
BRANCH   1   7
ATOM      7  C   UNL     1      22.757 -32.099  37.322  1.00  0.00     0.075 C 
ATOM      8  O   UNL     1      22.439 -30.881  37.362  1.00  0.00    -0.545 OA
ATOM      9  O   UNL     1      22.681 -32.855  38.486  1.00  0.00    -0.545 OA
ENDBRANCH   1   7
BRANCH   2  10
ATOM     10  O   UNL     1      24.197 -30.719  35.108  1.00  0.00    -0.507 OA
ATOM     11  H   UNL     1      23.569 -29.927  35.129  1.00  0.00     0.293 HD
ENDBRANCH   2  10
TORSDOF 2
ENDMDL
MODEL 9
REMARK VINA RESULT:    -5.011      1.933      2.735
REMARK INTER + INTRA:          -5.656
REMARK INTER:                  -5.446
REMARK INTRA:                  -0.210
REMARK UNBOUND:                -0.205
REMARK SMILES O=C([O-])c1ccccc1O
REMARK SMILES IDX 4 1 9 2 5 3 8 4 6 5 7 6 2 7 1 8 3 9 10 10
REMARK H PARENT 10 11
REMARK Flexibility Score: inf
ROOT
ATOM      1  C   UNL     1      17.219 -36.720  24.481  1.00  0.00     0.039 A 
ATOM      2  C   UNL     1      17.665 -36.758  23.134  1.00  0.00     0.124 A 
ATOM      3  C   UNL     1      16.042 -36.012  24.787  1.00  0.00     0.014 A 
ATOM      4  C   UNL     1      16.965 -36.045  22.152  1.00  0.00     0.047 A 
ATOM      5  C   UNL     1      15.345 -35.323  23.792  1.00  0.00     0.001 A 
ATOM      6  C   UNL     1      15.811 -35.331  22.478  1.00  0.00     0.004 A 
ENDROOT
BRANCH   1   7
ATOM      7  C   UNL     1      17.957 -37.366  25.589  1.00  0.00     0.075 C 
ATOM      8  O   UNL     1      19.159 -37.075  25.822  1.00  0.00    -0.545 OA
ATOM      9  O   UNL     1      17.303 -38.256  26.433  1.00  0.00    -0.545 OA
ENDBRANCH   1   7
BRANCH   2  10
ATOM     10  O   UNL     1      18.766 -37.514  22.726  1.00  0.00    -0.507 OA
ATOM     11  H   UNL     1      19.589 -37.656  23.295  1.00  0.00     0.293 HD
ENDBRANCH   2  10
TORSDOF 2
ENDMDL
