MODEL 1
REMARK VINA RESULT:    -4.808      0.000      0.000
REMARK INTER + INTRA:          -5.916
REMARK INTER:                  -5.652
REMARK INTRA:                  -0.264
REMARK UNBOUND:                -0.264
REMARK SMILES O=c1c(O)c(-c2ccc(O)cc2)oc2cc(O)cc(O)c12
REMARK SMILES IDX 5 1 3 2 2 3 1 4 21 5 19 6 18 7 16 8 15 9 14 10 13 11 6 12
REMARK SMILES IDX 7 13 8 14 9 15 12 16 11 17 10 18 4 20 20 22 17 24
REMARK H PARENT 10 19 4 21 20 23 17 25
REMARK Flexibility Score: inf
ROOT
ATOM      1  C   UNL     1       9.166  11.780  61.154  1.00  0.00     0.180 A 
ATOM      2  C   UNL     1      10.060  12.770  61.597  1.00  0.00     0.208 A 
ATOM      3  C   UNL     1       9.564  13.855  62.336  1.00  0.00     0.238 A 
ATOM      4  O   UNL     1      10.361  14.766  62.683  1.00  0.00    -0.285 OA
ATOM      5  C   UNL     1       8.182  13.930  62.637  1.00  0.00     0.111 A 
ATOM      6  C   UNL     1       7.576  14.963  63.413  1.00  0.00     0.134 A 
ATOM      7  C   UNL     1       6.182  15.007  63.538  1.00  0.00     0.093 A 
ATOM      8  C   UNL     1       5.378  14.019  62.971  1.00  0.00     0.123 A 
ATOM      9  C   UNL     1       5.965  12.970  62.260  1.00  0.00     0.094 A 
ATOM     10  C   UNL     1       7.349  12.920  62.088  1.00  0.00     0.146 A 
ATOM     11  O   UNL     1       7.866  11.912  61.396  1.00  0.00    -0.452 OA
ENDROOT
BRANCH   1  12
ATOM     12  C   UNL     1       9.617  10.593  60.392  1.00  0.00     0.021 A 
ATOM     13  C   UNL     1       9.383  10.530  59.008  1.00  0.00     0.016 A 
ATOM     14  C   UNL     1       9.781   9.409  58.273  1.00  0.00     0.047 A 
ATOM     15  C   UNL     1      10.404   8.333  58.912  1.00  0.00     0.115 A 
ATOM     16  C   UNL     1      10.227   9.498  61.033  1.00  0.00     0.016 A 
ATOM     17  C   UNL     1      10.623   8.379  60.295  1.00  0.00     0.047 A 
BRANCH  15  18
ATOM     18  O   UNL     1      10.796   7.223  58.167  1.00  0.00    -0.508 OA
ATOM     19  H   UNL     1      10.818   6.294  58.573  1.00  0.00     0.293 HD
ENDBRANCH  15  18
ENDBRANCH   1  12
BRANCH   2  20
ATOM     20  O   UNL     1      11.417  12.688  61.270  1.00  0.00    -0.502 OA
ATOM     21  H   UNL     1      11.759  12.111  60.512  1.00  0.00     0.293 HD
ENDBRANCH   2  20
BRANCH   6  22
ATOM     22  O   UNL     1       8.294  15.947  64.099  1.00  0.00    -0.507 OA
ATOM     23  H   UNL     1       9.186  15.800  64.549  1.00  0.00     0.293 HD
ENDBRANCH   6  22
BRANCH   8  24
ATOM     24  O   UNL     1       3.995  14.084  63.128  1.00  0.00    -0.508 OA
ATOM     25  H   UNL     1       3.544  14.901  63.523  1.00  0.00     0.293 HD
ENDBRANCH   8  24
TORSDOF 5
ENDMDL
MODEL 2
REMARK VINA RESULT:    -4.741      1.066      1.257
REMARK INTER + INTRA:          -5.836
REMARK INTER:                  -5.542
REMARK INTRA:                  -0.294
REMARK UNBOUND:                -0.264
REMARK SMILES O=c1c(O)c(-c2ccc(O)cc2)oc2cc(O)cc(O)c12
REMARK SMILES IDX 5 1 3 2 2 3 1 4 21 5 19 6 18 7 16 8 15 9 14 10 13 11 6 12
REMARK SMILES IDX 7 13 8 14 9 15 12 16 11 17 10 18 4 20 20 22 17 24
REMARK H PARENT 10 19 4 21 20 23 17 25
REMARK Flexibility Score: inf
ROOT
ATOM      1  C   UNL     1       8.364  12.237  61.659  1.00  0.00     0.180 A 
ATOM      2  C   UNL     1       9.059  13.414  61.987  1.00  0.00     0.208 A 
ATOM      3  C   UNL     1       8.350  14.492  62.541  1.00  0.00     0.238 A 
ATOM      4  O   UNL     1       8.967  15.562  62.782  1.00  0.00    -0.285 OA
ATOM      5  C   UNL     1       6.958  14.374  62.775  1.00  0.00     0.111 A 
ATOM      6  C   UNL     1       6.147  15.387  63.368  1.00  0.00     0.134 A 
ATOM      7  C   UNL     1       4.760  15.213  63.432  1.00  0.00     0.093 A 
ATOM      8  C   UNL     1       4.161  14.036  62.985  1.00  0.00     0.123 A 
ATOM      9  C   UNL     1       4.951  13.013  62.457  1.00  0.00     0.094 A 
ATOM     10  C   UNL     1       6.334  13.173  62.347  1.00  0.00     0.146 A 
ATOM     11  O   UNL     1       7.048  12.181  61.829  1.00  0.00    -0.452 OA
ENDROOT
BRANCH   1  12
ATOM     12  C   UNL     1       9.047  11.050  61.095  1.00  0.00     0.021 A 
ATOM     13  C   UNL     1       9.029  10.837  59.707  1.00  0.00     0.016 A 
ATOM     14  C   UNL     1       9.649   9.711  59.155  1.00  0.00     0.047 A 
ATOM     15  C   UNL     1      10.279   8.778  59.984  1.00  0.00     0.115 A 
ATOM     16  C   UNL     1       9.666  10.097  61.925  1.00  0.00     0.016 A 
ATOM     17  C   UNL     1      10.283   8.972  61.371  1.00  0.00     0.047 A 
BRANCH  15  18
ATOM     18  O   UNL     1      10.892   7.661  59.420  1.00  0.00    -0.508 OA
ATOM     19  H   UNL     1      10.359   6.838  59.164  1.00  0.00     0.293 HD
ENDBRANCH  15  18
ENDBRANCH   1  12
BRANCH   2  20
ATOM     20  O   UNL     1      10.429  13.518  61.728  1.00  0.00    -0.502 OA
ATOM     21  H   UNL     1      10.814  13.423  60.796  1.00  0.00     0.293 HD
ENDBRANCH   2  20
BRANCH   6  22
ATOM     22  O   UNL     1       6.654  16.562  63.931  1.00  0.00    -0.507 OA
ATOM     23  H   UNL     1       6.587  17.477  63.511  1.00  0.00     0.293 HD
ENDBRANCH   6  22
BRANCH   8  24
ATOM     24  O   UNL     1       2.778  13.889  63.078  1.00  0.00    -0.508 OA
ATOM     25  H   UNL     1       2.359  13.070  63.501  1.00  0.00     0.293 HD
ENDBRANCH   8  24
TORSDOF 5
ENDMDL
MODEL 3
REMARK VINA RESULT:    -4.724      1.981      6.762
REMARK INTER + INTRA:          -5.817
REMARK INTER:                  -5.532
REMARK INTRA:                  -0.285
REMARK UNBOUND:                -0.264
REMARK SMILES O=c1c(O)c(-c2ccc(O)cc2)oc2cc(O)cc(O)c12
REMARK SMILES IDX 5 1 3 2 2 3 1 4 21 5 19 6 18 7 16 8 15 9 14 10 13 11 6 12
REMARK SMILES IDX 7 13 8 14 9 15 12 16 11 17 10 18 4 20 20 22 17 24
REMARK H PARENT 10 19 4 21 20 23 17 25
REMARK Flexibility Score: inf
ROOT
ATOM      1  C   UNL     1       7.627  12.046  62.394  1.00  0.00     0.180 A 
ATOM      2  C   UNL     1       8.157  11.341  63.489  1.00  0.00     0.208 A 
ATOM      3  C   UNL     1       9.045  10.280  63.250  1.00  0.00     0.238 A 
ATOM      4  O   UNL     1       9.473   9.617  64.231  1.00  0.00    -0.285 OA
ATOM      5  C   UNL     1       9.404   9.947  61.921  1.00  0.00     0.111 A 
ATOM      6  C   UNL     1      10.326   8.917  61.565  1.00  0.00     0.134 A 
ATOM      7  C   UNL     1      10.507   8.589  60.216  1.00  0.00     0.093 A 
ATOM      8  C   UNL     1       9.851   9.296  59.208  1.00  0.00     0.123 A 
ATOM      9  C   UNL     1       8.993  10.345  59.544  1.00  0.00     0.094 A 
ATOM     10  C   UNL     1       8.764  10.671  60.882  1.00  0.00     0.146 A 
ATOM     11  O   UNL     1       7.932  11.668  61.158  1.00  0.00    -0.452 OA
ENDROOT
BRANCH   1  12
ATOM     12  C   UNL     1       6.706  13.193  62.567  1.00  0.00     0.021 A 
ATOM     13  C   UNL     1       7.231  14.493  62.656  1.00  0.00     0.016 A 
ATOM     14  C   UNL     1       6.381  15.588  62.842  1.00  0.00     0.047 A 
ATOM     15  C   UNL     1       5.001  15.397  62.955  1.00  0.00     0.115 A 
ATOM     16  C   UNL     1       5.318  13.005  62.702  1.00  0.00     0.016 A 
ATOM     17  C   UNL     1       4.471  14.102  62.889  1.00  0.00     0.047 A 
BRANCH  15  18
ATOM     18  O   UNL     1       4.167  16.498  63.139  1.00  0.00    -0.508 OA
ATOM     19  H   UNL     1       4.443  17.279  63.724  1.00  0.00     0.293 HD
ENDBRANCH  15  18
ENDBRANCH   1  12
BRANCH   2  20
ATOM     20  O   UNL     1       7.772  11.672  64.792  1.00  0.00    -0.502 OA
ATOM     21  H   UNL     1       8.444  11.870  65.522  1.00  0.00     0.293 HD
ENDBRANCH   2  20
BRANCH   6  22
ATOM     22  O   UNL     1      11.102   8.211  62.488  1.00  0.00    -0.507 OA
ATOM     23  H   UNL     1      10.759   7.471  63.082  1.00  0.00     0.293 HD
ENDBRANCH   6  22
BRANCH   8  24
ATOM     24  O   UNL     1      10.067   8.953  57.875  1.00  0.00    -0.508 OA
ATOM     25  H   UNL     1       9.387   9.169  57.156  1.00  0.00     0.293 HD
ENDBRANCH   8  24
TORSDOF 5
ENDMDL
MODEL 4
REMARK VINA RESULT:    -4.705     13.267     15.394
REMARK INTER + INTRA:          -5.794
REMARK INTER:                  -5.512
REMARK INTRA:                  -0.282
REMARK UNBOUND:                -0.264
REMARK SMILES O=c1c(O)c(-c2ccc(O)cc2)oc2cc(O)cc(O)c12
REMARK SMILES IDX 5 1 3 2 2 3 1 4 21 5 19 6 18 7 16 8 15 9 14 10 13 11 6 12
REMARK SMILES IDX 7 13 8 14 9 15 12 16 11 17 10 18 4 20 20 22 17 24
REMARK H PARENT 10 19 4 21 20 23 17 25
REMARK Flexibility Score: inf
ROOT
ATOM      1  C   UNL     1       3.855  14.457  75.312  1.00  0.00     0.180 A 
ATOM      2  C   UNL     1       4.073  15.835  75.133  1.00  0.00     0.208 A 
ATOM      3  C   UNL     1       2.996  16.721  75.295  1.00  0.00     0.238 A 
ATOM      4  O   UNL     1       3.185  17.947  75.081  1.00  0.00    -0.285 OA
ATOM      5  C   UNL     1       1.719  16.221  75.647  1.00  0.00     0.111 A 
ATOM      6  C   UNL     1       0.566  17.032  75.875  1.00  0.00     0.134 A 
ATOM      7  C   UNL     1      -0.676  16.422  76.091  1.00  0.00     0.093 A 
ATOM      8  C   UNL     1      -0.795  15.034  76.152  1.00  0.00     0.123 A 
ATOM      9  C   UNL     1       0.337  14.233  75.989  1.00  0.00     0.094 A 
ATOM     10  C   UNL     1       1.582  14.812  75.737  1.00  0.00     0.146 A 
ATOM     11  O   UNL     1       2.631  14.014  75.578  1.00  0.00    -0.452 OA
ENDROOT
BRANCH   1  12
ATOM     12  C   UNL     1       4.946  13.464  75.184  1.00  0.00     0.021 A 
ATOM     13  C   UNL     1       5.670  13.083  76.327  1.00  0.00     0.016 A 
ATOM     14  C   UNL     1       6.719  12.163  76.226  1.00  0.00     0.047 A 
ATOM     15  C   UNL     1       7.066  11.625  74.984  1.00  0.00     0.115 A 
ATOM     16  C   UNL     1       5.314  12.934  73.934  1.00  0.00     0.016 A 
ATOM     17  C   UNL     1       6.363  12.015  73.836  1.00  0.00     0.047 A 
BRANCH  15  18
ATOM     18  O   UNL     1       8.113  10.710  74.899  1.00  0.00    -0.508 OA
ATOM     19  H   UNL     1       7.982   9.793  74.485  1.00  0.00     0.293 HD
ENDBRANCH  15  18
ENDBRANCH   1  12
BRANCH   2  20
ATOM     20  O   UNL     1       5.337  16.304  74.764  1.00  0.00    -0.502 OA
ATOM     21  H   UNL     1       5.714  16.175  73.834  1.00  0.00     0.293 HD
ENDBRANCH   2  20
BRANCH   6  22
ATOM     22  O   UNL     1       0.592  18.428  75.927  1.00  0.00    -0.507 OA
ATOM     23  H   UNL     1       0.115  18.987  76.619  1.00  0.00     0.293 HD
ENDBRANCH   6  22
BRANCH   8  24
ATOM     24  O   UNL     1      -2.044  14.461  76.384  1.00  0.00    -0.508 OA
ATOM     25  H   UNL     1      -2.136  13.542  76.800  1.00  0.00     0.293 HD
ENDBRANCH   8  24
TORSDOF 5
ENDMDL
MODEL 5
REMARK VINA RESULT:    -4.629      9.643     11.591
REMARK INTER + INTRA:          -5.705
REMARK INTER:                  -5.514
REMARK INTRA:                  -0.191
REMARK UNBOUND:                -0.264
REMARK SMILES O=c1c(O)c(-c2ccc(O)cc2)oc2cc(O)cc(O)c12
REMARK SMILES IDX 5 1 3 2 2 3 1 4 21 5 19 6 18 7 16 8 15 9 14 10 13 11 6 12
REMARK SMILES IDX 7 13 8 14 9 15 12 16 11 17 10 18 4 20 20 22 17 24
REMARK H PARENT 10 19 4 21 20 23 17 25
REMARK Flexibility Score: inf
ROOT
ATOM      1  C   UNL     1      -1.955  13.865  60.420  1.00  0.00     0.180 A 
ATOM      2  C   UNL     1      -1.123  14.956  60.726  1.00  0.00     0.208 A 
ATOM      3  C   UNL     1      -1.645  16.256  60.638  1.00  0.00     0.238 A 
ATOM      4  O   UNL     1      -0.881  17.232  60.860  1.00  0.00    -0.285 OA
ATOM      5  C   UNL     1      -2.996  16.449  60.260  1.00  0.00     0.111 A 
ATOM      6  C   UNL     1      -3.641  17.720  60.176  1.00  0.00     0.134 A 
ATOM      7  C   UNL     1      -4.942  17.802  59.666  1.00  0.00     0.093 A 
ATOM      8  C   UNL     1      -5.645  16.655  59.299  1.00  0.00     0.123 A 
ATOM      9  C   UNL     1      -5.045  15.402  59.432  1.00  0.00     0.094 A 
ATOM     10  C   UNL     1      -3.736  15.292  59.904  1.00  0.00     0.146 A 
ATOM     11  O   UNL     1      -3.198  14.082  60.006  1.00  0.00    -0.452 OA
ENDROOT
BRANCH   1  12
ATOM     12  C   UNL     1      -1.484  12.464  60.516  1.00  0.00     0.021 A 
ATOM     13  C   UNL     1      -1.228  11.906  61.779  1.00  0.00     0.016 A 
ATOM     14  C   UNL     1      -0.762  10.593  61.892  1.00  0.00     0.047 A 
ATOM     15  C   UNL     1      -0.532   9.827  60.745  1.00  0.00     0.115 A 
ATOM     16  C   UNL     1      -1.232  11.695  59.365  1.00  0.00     0.016 A 
ATOM     17  C   UNL     1      -0.765  10.382  59.480  1.00  0.00     0.047 A 
BRANCH  15  18
ATOM     18  O   UNL     1      -0.068   8.520  60.873  1.00  0.00    -0.508 OA
ATOM     19  H   UNL     1       0.056   8.088  61.782  1.00  0.00     0.293 HD
ENDBRANCH  15  18
ENDBRANCH   1  12
BRANCH   2  20
ATOM     20  O   UNL     1       0.214  14.745  61.076  1.00  0.00    -0.502 OA
ATOM     21  H   UNL     1       0.870  15.506  61.199  1.00  0.00     0.293 HD
ENDBRANCH   2  20
BRANCH   6  22
ATOM     22  O   UNL     1      -3.062  18.918  60.604  1.00  0.00    -0.507 OA
ATOM     23  H   UNL     1      -3.248  19.824  60.199  1.00  0.00     0.293 HD
ENDBRANCH   6  22
BRANCH   8  24
ATOM     24  O   UNL     1      -6.945  16.772  58.809  1.00  0.00    -0.508 OA
ATOM     25  H   UNL     1      -7.732  16.355  59.291  1.00  0.00     0.293 HD
ENDBRANCH   8  24
TORSDOF 5
ENDMDL
MODEL 6
REMARK VINA RESULT:    -4.618      1.898      3.732
REMARK INTER + INTRA:          -5.692
REMARK INTER:                  -5.493
REMARK INTRA:                  -0.199
REMARK UNBOUND:                -0.264
REMARK SMILES O=c1c(O)c(-c2ccc(O)cc2)oc2cc(O)cc(O)c12
REMARK SMILES IDX 5 1 3 2 2 3 1 4 21 5 19 6 18 7 16 8 15 9 14 10 13 11 6 12
REMARK SMILES IDX 7 13 8 14 9 15 12 16 11 17 10 18 4 20 20 22 17 24
REMARK H PARENT 10 19 4 21 20 23 17 25
REMARK Flexibility Score: inf
ROOT
ATOM      1  C   UNL     1       8.373  13.196  61.940  1.00  0.00     0.180 A 
ATOM      2  C   UNL     1       7.029  13.595  62.046  1.00  0.00     0.208 A 
ATOM      3  C   UNL     1       6.733  14.850  62.602  1.00  0.00     0.238 A 
ATOM      4  O   UNL     1       5.527  15.179  62.745  1.00  0.00    -0.285 OA
ATOM      5  C   UNL     1       7.784  15.696  63.031  1.00  0.00     0.111 A 
ATOM      6  C   UNL     1       7.603  17.004  63.573  1.00  0.00     0.134 A 
ATOM      7  C   UNL     1       8.705  17.700  64.084  1.00  0.00     0.093 A 
ATOM      8  C   UNL     1       9.990  17.163  64.014  1.00  0.00     0.123 A 
ATOM      9  C   UNL     1      10.187  15.910  63.433  1.00  0.00     0.094 A 
ATOM     10  C   UNL     1       9.103  15.177  62.947  1.00  0.00     0.146 A 
ATOM     11  O   UNL     1       9.332  13.984  62.411  1.00  0.00    -0.452 OA
ENDROOT
BRANCH   1  12
ATOM     12  C   UNL     1       8.765  11.899  61.341  1.00  0.00     0.021 A 
ATOM     13  C   UNL     1       8.546  10.712  62.060  1.00  0.00     0.016 A 
ATOM     14  C   UNL     1       8.928   9.478  61.523  1.00  0.00     0.047 A 
ATOM     15  C   UNL     1       9.546   9.418  60.270  1.00  0.00     0.115 A 
ATOM     16  C   UNL     1       9.405  11.833  60.090  1.00  0.00     0.016 A 
ATOM     17  C   UNL     1       9.788  10.598  59.556  1.00  0.00     0.047 A 
BRANCH  15  18
ATOM     18  O   UNL     1       9.921   8.182  59.748  1.00  0.00    -0.508 OA
ATOM     19  H   UNL     1      10.644   7.620  60.184  1.00  0.00     0.293 HD
ENDBRANCH  15  18
ENDBRANCH   1  12
BRANCH   2  20
ATOM     20  O   UNL     1       6.005  12.735  61.637  1.00  0.00    -0.502 OA
ATOM     21  H   UNL     1       5.793  12.570  60.661  1.00  0.00     0.293 HD
ENDBRANCH   2  20
BRANCH   6  22
ATOM     22  O   UNL     1       6.375  17.671  63.606  1.00  0.00    -0.507 OA
ATOM     23  H   UNL     1       5.668  17.612  62.887  1.00  0.00     0.293 HD
ENDBRANCH   6  22
BRANCH   8  24
ATOM     24  O   UNL     1      11.067  17.890  64.519  1.00  0.00    -0.508 OA
ATOM     25  H   UNL     1      11.001  18.887  64.686  1.00  0.00     0.293 HD
ENDBRANCH   8  24
TORSDOF 5
ENDMDL
MODEL 7
REMARK VINA RESULT:    -4.492     12.072     15.564
REMARK INTER + INTRA:          -5.544
REMARK INTER:                  -5.259
REMARK INTRA:                  -0.285
REMARK UNBOUND:                -0.264
REMARK SMILES O=c1c(O)c(-c2ccc(O)cc2)oc2cc(O)cc(O)c12
REMARK SMILES IDX 5 1 3 2 2 3 1 4 21 5 19 6 18 7 16 8 15 9 14 10 13 11 6 12
REMARK SMILES IDX 7 13 8 14 9 15 12 16 11 17 10 18 4 20 20 22 17 24
REMARK H PARENT 10 19 4 21 20 23 17 25
REMARK Flexibility Score: inf
ROOT
ATOM      1  C   UNL     1       4.240  14.703  74.693  1.00  0.00     0.180 A 
ATOM      2  C   UNL     1       4.549  14.584  73.326  1.00  0.00     0.208 A 
ATOM      3  C   UNL     1       5.529  13.663  72.927  1.00  0.00     0.238 A 
ATOM      4  O   UNL     1       5.840  13.600  71.709  1.00  0.00    -0.285 OA
ATOM      5  C   UNL     1       6.178  12.860  73.896  1.00  0.00     0.111 A 
ATOM      6  C   UNL     1       7.159  11.866  73.600  1.00  0.00     0.134 A 
ATOM      7  C   UNL     1       7.829  11.223  74.648  1.00  0.00     0.093 A 
ATOM      8  C   UNL     1       7.509  11.489  75.978  1.00  0.00     0.123 A 
ATOM      9  C   UNL     1       6.509  12.417  76.278  1.00  0.00     0.094 A 
ATOM     10  C   UNL     1       5.849  13.101  75.255  1.00  0.00     0.146 A 
ATOM     11  O   UNL     1       4.913  13.982  75.583  1.00  0.00    -0.452 OA
ENDROOT
BRANCH   1  12
ATOM     12  C   UNL     1       3.200  15.633  75.188  1.00  0.00     0.021 A 
ATOM     13  C   UNL     1       3.583  16.863  75.748  1.00  0.00     0.016 A 
ATOM     14  C   UNL     1       2.619  17.748  76.242  1.00  0.00     0.047 A 
ATOM     15  C   UNL     1       1.264  17.407  76.197  1.00  0.00     0.115 A 
ATOM     16  C   UNL     1       1.836  15.288  75.164  1.00  0.00     0.016 A 
ATOM     17  C   UNL     1       0.874  16.174  75.660  1.00  0.00     0.047 A 
BRANCH  15  18
ATOM     18  O   UNL     1       0.314  18.299  76.692  1.00  0.00    -0.508 OA
ATOM     19  H   UNL     1      -0.421  18.671  76.101  1.00  0.00     0.293 HD
ENDBRANCH  15  18
ENDBRANCH   1  12
BRANCH   2  20
ATOM     20  O   UNL     1       3.911  15.402  72.388  1.00  0.00    -0.502 OA
ATOM     21  H   UNL     1       4.037  16.406  72.368  1.00  0.00     0.293 HD
ENDBRANCH   2  20
BRANCH   6  22
ATOM     22  O   UNL     1       7.489  11.456  72.305  1.00  0.00    -0.507 OA
ATOM     23  H   UNL     1       7.397  12.029  71.479  1.00  0.00     0.293 HD
ENDBRANCH   6  22
BRANCH   8  24
ATOM     24  O   UNL     1       8.185  10.820  76.996  1.00  0.00    -0.508 OA
ATOM     25  H   UNL     1       8.106   9.817  77.115  1.00  0.00     0.293 HD
ENDBRANCH   8  24
TORSDOF 5
ENDMDL
MODEL 8
REMARK VINA RESULT:    -4.477     14.967     17.132
REMARK INTER + INTRA:          -5.527
REMARK INTER:                  -5.227
REMARK INTRA:                  -0.300
REMARK UNBOUND:                -0.264
REMARK SMILES O=c1c(O)c(-c2ccc(O)cc2)oc2cc(O)cc(O)c12
REMARK SMILES IDX 5 1 3 2 2 3 1 4 21 5 19 6 18 7 16 8 15 9 14 10 13 11 6 12
REMARK SMILES IDX 7 13 8 14 9 15 12 16 11 17 10 18 4 20 20 22 17 24
REMARK H PARENT 10 19 4 21 20 23 17 25
REMARK Flexibility Score: inf
ROOT
ATOM      1  C   UNL     1       2.574  16.260  75.697  1.00  0.00     0.180 A 
ATOM      2  C   UNL     1       3.872  15.840  75.358  1.00  0.00     0.208 A 
ATOM      3  C   UNL     1       4.152  14.465  75.312  1.00  0.00     0.238 A 
ATOM      4  O   UNL     1       5.329  14.096  75.061  1.00  0.00    -0.285 OA
ATOM      5  C   UNL     1       3.129  13.527  75.591  1.00  0.00     0.111 A 
ATOM      6  C   UNL     1       3.291  12.110  75.535  1.00  0.00     0.134 A 
ATOM      7  C   UNL     1       2.246  11.278  75.957  1.00  0.00     0.093 A 
ATOM      8  C   UNL     1       1.025  11.810  76.369  1.00  0.00     0.123 A 
ATOM      9  C   UNL     1       0.836  13.193  76.371  1.00  0.00     0.094 A 
ATOM     10  C   UNL     1       1.871  14.049  75.990  1.00  0.00     0.146 A 
ATOM     11  O   UNL     1       1.653  15.358  76.017  1.00  0.00    -0.452 OA
ENDROOT
BRANCH   1  12
ATOM     12  C   UNL     1       2.195  17.691  75.740  1.00  0.00     0.021 A 
ATOM     13  C   UNL     1       2.261  18.386  76.959  1.00  0.00     0.016 A 
ATOM     14  C   UNL     1       1.887  19.732  77.028  1.00  0.00     0.047 A 
ATOM     15  C   UNL     1       1.429  20.395  75.885  1.00  0.00     0.115 A 
ATOM     16  C   UNL     1       1.715  18.358  74.598  1.00  0.00     0.016 A 
ATOM     17  C   UNL     1       1.340  19.703  74.670  1.00  0.00     0.047 A 
BRANCH  15  18
ATOM     18  O   UNL     1       1.060  21.735  75.969  1.00  0.00    -0.508 OA
ATOM     19  H   UNL     1       0.171  22.016  76.369  1.00  0.00     0.293 HD
ENDBRANCH  15  18
ENDBRANCH   1  12
BRANCH   2  20
ATOM     20  O   UNL     1       4.874  16.783  75.107  1.00  0.00    -0.502 OA
ATOM     21  H   UNL     1       4.694  17.648  74.613  1.00  0.00     0.293 HD
ENDBRANCH   2  20
BRANCH   6  22
ATOM     22  O   UNL     1       4.437  11.474  75.051  1.00  0.00    -0.507 OA
ATOM     23  H   UNL     1       5.179  11.106  75.629  1.00  0.00     0.293 HD
ENDBRANCH   6  22
BRANCH   8  24
ATOM     24  O   UNL     1       0.001  10.952  76.768  1.00  0.00    -0.508 OA
ATOM     25  H   UNL     1      -0.083  10.637  77.727  1.00  0.00     0.293 HD
ENDBRANCH   8  24
TORSDOF 5
ENDMDL
MODEL 9
REMARK VINA RESULT:    -4.462      2.103      2.749
REMARK INTER + INTRA:          -5.508
REMARK INTER:                  -5.251
REMARK INTRA:                  -0.257
REMARK UNBOUND:                -0.264
REMARK SMILES O=c1c(O)c(-c2ccc(O)cc2)oc2cc(O)cc(O)c12
REMARK SMILES IDX 5 1 3 2 2 3 1 4 21 5 19 6 18 7 16 8 15 9 14 10 13 11 6 12
REMARK SMILES IDX 7 13 8 14 9 15 12 16 11 17 10 18 4 20 20 22 17 24
REMARK H PARENT 10 19 4 21 20 23 17 25
REMARK Flexibility Score: inf
ROOT
ATOM      1  C   UNL     1       7.933  12.068  62.225  1.00  0.00     0.180 A 
ATOM      2  C   UNL     1       8.449  12.144  63.531  1.00  0.00     0.208 A 
ATOM      3  C   UNL     1       7.600  12.545  64.575  1.00  0.00     0.238 A 
ATOM      4  O   UNL     1       8.081  12.664  65.732  1.00  0.00    -0.285 OA
ATOM      5  C   UNL     1       6.245  12.850  64.304  1.00  0.00     0.111 A 
ATOM      6  C   UNL     1       5.286  13.229  65.291  1.00  0.00     0.134 A 
ATOM      7  C   UNL     1       4.006  13.634  64.893  1.00  0.00     0.093 A 
ATOM      8  C   UNL     1       3.630  13.611  63.550  1.00  0.00     0.123 A 
ATOM      9  C   UNL     1       4.541  13.186  62.582  1.00  0.00     0.094 A 
ATOM     10  C   UNL     1       5.836  12.811  62.945  1.00  0.00     0.146 A 
ATOM     11  O   UNL     1       6.675  12.423  61.993  1.00  0.00    -0.452 OA
ENDROOT
BRANCH   1  12
ATOM     12  C   UNL     1       8.759  11.628  61.076  1.00  0.00     0.021 A 
ATOM     13  C   UNL     1       8.686  10.292  60.645  1.00  0.00     0.016 A 
ATOM     14  C   UNL     1       9.473   9.849  59.577  1.00  0.00     0.047 A 
ATOM     15  C   UNL     1      10.351  10.729  58.938  1.00  0.00     0.115 A 
ATOM     16  C   UNL     1       9.659  12.503  60.442  1.00  0.00     0.016 A 
ATOM     17  C   UNL     1      10.445  12.057  59.375  1.00  0.00     0.047 A 
BRANCH  15  18
ATOM     18  O   UNL     1      11.128  10.274  57.875  1.00  0.00    -0.508 OA
ATOM     19  H   UNL     1      11.109   9.303  57.584  1.00  0.00     0.293 HD
ENDBRANCH  15  18
ENDBRANCH   1  12
BRANCH   2  20
ATOM     20  O   UNL     1       9.796  11.859  63.773  1.00  0.00    -0.502 OA
ATOM     21  H   UNL     1      10.181  11.810  64.708  1.00  0.00     0.293 HD
ENDBRANCH   2  20
BRANCH   6  22
ATOM     22  O   UNL     1       5.529  13.198  66.667  1.00  0.00    -0.507 OA
ATOM     23  H   UNL     1       6.167  13.811  67.153  1.00  0.00     0.293 HD
ENDBRANCH   6  22
BRANCH   8  24
ATOM     24  O   UNL     1       2.343  14.006  63.190  1.00  0.00    -0.508 OA
ATOM     25  H   UNL     1       1.602  13.331  63.048  1.00  0.00     0.293 HD
ENDBRANCH   8  24
TORSDOF 5
ENDMDL
