MODEL 1
REMARK VINA RESULT:    -3.518      0.000      0.000
REMARK INTER + INTRA:          -3.934
REMARK INTER:                  -3.724
REMARK INTRA:                  -0.210
REMARK UNBOUND:                -0.210
REMARK SMILES C=C(C)[C@H]1CC=C(C)C(=O)C1
REMARK SMILES IDX 8 1 7 2 6 3 5 4 4 5 11 6 9 7 10 8 2 9 1 10 3 11
REMARK H PARENT
REMARK Flexibility Score: inf
ROOT
ATOM      1  C   UNL     1     146.747 151.979 168.251  1.00  0.00     0.048 C 
ATOM      2  C   UNL     1     148.064 152.453 167.701  1.00  0.00    -0.012 C 
ATOM      3  C   UNL     1     148.099 153.416 166.768  1.00  0.00    -0.019 C 
ATOM      4  C   UNL     1     149.400 153.986 166.274  1.00  0.00     0.036 C 
ATOM      5  C   UNL     1     150.501 152.910 166.203  1.00  0.00     0.025 C 
ATOM      6  C   UNL     1     150.654 152.210 167.574  1.00  0.00     0.089 C 
ATOM      7  C   UNL     1     149.329 151.867 168.208  1.00  0.00     0.158 C 
ATOM      8  O   UNL     1     149.309 151.080 169.192  1.00  0.00    -0.295 OA
ENDROOT
BRANCH   5   9
ATOM      9  C   UNL     1     150.284 151.973 165.011  1.00  0.00    -0.077 C 
ATOM     10  C   UNL     1     150.638 150.682 165.133  1.00  0.00     0.008 C 
ATOM     11  C   UNL     1     149.702 152.416 163.688  1.00  0.00     0.039 C 
ENDBRANCH   5   9
TORSDOF 1
ENDMDL
MODEL 2
REMARK VINA RESULT:    -3.501      1.696      3.216
REMARK INTER + INTRA:          -3.915
REMARK INTER:                  -3.729
REMARK INTRA:                  -0.186
REMARK UNBOUND:                -0.210
REMARK SMILES C=C(C)[C@H]1CC=C(C)C(=O)C1
REMARK SMILES IDX 8 1 7 2 6 3 5 4 4 5 11 6 9 7 10 8 2 9 1 10 3 11
REMARK H PARENT
REMARK Flexibility Score: inf
ROOT
ATOM      1  C   UNL     1     150.838 152.137 168.144  1.00  0.00     0.048 C 
ATOM      2  C   UNL     1     150.014 152.512 166.944  1.00  0.00    -0.012 C 
ATOM      3  C   UNL     1     150.429 152.188 165.710  1.00  0.00    -0.019 C 
ATOM      4  C   UNL     1     149.580 152.455 164.499  1.00  0.00     0.036 C 
ATOM      5  C   UNL     1     148.784 153.767 164.640  1.00  0.00     0.025 C 
ATOM      6  C   UNL     1     147.951 153.749 165.944  1.00  0.00     0.089 C 
ATOM      7  C   UNL     1     148.726 153.226 167.128  1.00  0.00     0.158 C 
ATOM      8  O   UNL     1     148.258 153.392 168.285  1.00  0.00    -0.295 OA
ENDROOT
BRANCH   5   9
ATOM      9  C   UNL     1     149.691 154.989 164.461  1.00  0.00    -0.077 C 
ATOM     10  C   UNL     1     150.283 155.183 163.270  1.00  0.00     0.008 C 
ATOM     11  C   UNL     1     149.975 155.992 165.555  1.00  0.00     0.039 C 
ENDBRANCH   5   9
TORSDOF 1
ENDMDL
MODEL 3
REMARK VINA RESULT:    -3.479      1.906      3.930
REMARK INTER + INTRA:          -3.892
REMARK INTER:                  -3.668
REMARK INTRA:                  -0.224
REMARK UNBOUND:                -0.210
REMARK SMILES C=C(C)[C@H]1CC=C(C)C(=O)C1
REMARK SMILES IDX 8 1 7 2 6 3 5 4 4 5 11 6 9 7 10 8 2 9 1 10 3 11
REMARK H PARENT
REMARK Flexibility Score: inf
ROOT
ATOM      1  C   UNL     1     149.531 151.366 164.130  1.00  0.00     0.048 C 
ATOM      2  C   UNL     1     149.527 152.000 165.493  1.00  0.00    -0.012 C 
ATOM      3  C   UNL     1     150.310 151.513 166.467  1.00  0.00    -0.019 C 
ATOM      4  C   UNL     1     150.408 152.187 167.808  1.00  0.00     0.036 C 
ATOM      5  C   UNL     1     149.058 152.793 168.240  1.00  0.00     0.025 C 
ATOM      6  C   UNL     1     148.526 153.747 167.145  1.00  0.00     0.089 C 
ATOM      7  C   UNL     1     148.668 153.181 165.754  1.00  0.00     0.158 C 
ATOM      8  O   UNL     1     148.053 153.735 164.804  1.00  0.00    -0.295 OA
ENDROOT
BRANCH   5   9
ATOM      9  C   UNL     1     148.080 151.703 168.689  1.00  0.00    -0.077 C 
ATOM     10  C   UNL     1     148.534 150.713 169.477  1.00  0.00     0.008 C 
ATOM     11  C   UNL     1     146.623 151.665 168.289  1.00  0.00     0.039 C 
ENDBRANCH   5   9
TORSDOF 1
ENDMDL
MODEL 4
REMARK VINA RESULT:    -3.474      2.336      3.781
REMARK INTER + INTRA:          -3.887
REMARK INTER:                  -3.742
REMARK INTRA:                  -0.145
REMARK UNBOUND:                -0.210
REMARK SMILES C=C(C)[C@H]1CC=C(C)C(=O)C1
REMARK SMILES IDX 8 1 7 2 6 3 5 4 4 5 11 6 9 7 10 8 2 9 1 10 3 11
REMARK H PARENT
REMARK Flexibility Score: inf
ROOT
ATOM      1  C   UNL     1     149.637 156.078 164.747  1.00  0.00     0.048 C 
ATOM      2  C   UNL     1     149.355 154.698 165.271  1.00  0.00    -0.012 C 
ATOM      3  C   UNL     1     148.788 154.535 166.475  1.00  0.00    -0.019 C 
ATOM      4  C   UNL     1     148.398 153.174 166.983  1.00  0.00     0.036 C 
ATOM      5  C   UNL     1     149.399 152.091 166.534  1.00  0.00     0.025 C 
ATOM      6  C   UNL     1     149.559 152.116 164.996  1.00  0.00     0.089 C 
ATOM      7  C   UNL     1     149.688 153.513 164.442  1.00  0.00     0.158 C 
ATOM      8  O   UNL     1     150.072 153.665 163.252  1.00  0.00    -0.295 OA
ENDROOT
BRANCH   5   9
ATOM      9  C   UNL     1     150.706 152.180 167.329  1.00  0.00    -0.077 C 
ATOM     10  C   UNL     1     150.696 151.835 168.628  1.00  0.00     0.008 C 
ATOM     11  C   UNL     1     152.017 152.647 166.739  1.00  0.00     0.039 C 
ENDBRANCH   5   9
TORSDOF 1
ENDMDL
MODEL 5
REMARK VINA RESULT:    -3.457      2.268      3.627
REMARK INTER + INTRA:          -3.868
REMARK INTER:                  -3.699
REMARK INTRA:                  -0.169
REMARK UNBOUND:                -0.210
REMARK SMILES C=C(C)[C@H]1CC=C(C)C(=O)C1
REMARK SMILES IDX 8 1 7 2 6 3 5 4 4 5 11 6 9 7 10 8 2 9 1 10 3 11
REMARK H PARENT
REMARK Flexibility Score: inf
ROOT
ATOM      1  C   UNL     1     146.939 151.593 164.311  1.00  0.00     0.048 C 
ATOM      2  C   UNL     1     147.192 152.246 165.641  1.00  0.00    -0.012 C 
ATOM      3  C   UNL     1     148.255 153.047 165.810  1.00  0.00    -0.019 C 
ATOM      4  C   UNL     1     148.479 153.797 167.093  1.00  0.00     0.036 C 
ATOM      5  C   UNL     1     148.025 152.978 168.318  1.00  0.00     0.025 C 
ATOM      6  C   UNL     1     146.553 152.536 168.149  1.00  0.00     0.089 C 
ATOM      7  C   UNL     1     146.250 152.020 166.765  1.00  0.00     0.158 C 
ATOM      8  O   UNL     1     145.171 151.401 166.567  1.00  0.00    -0.295 OA
ENDROOT
BRANCH   5   9
ATOM      9  C   UNL     1     149.015 151.850 168.628  1.00  0.00    -0.077 C 
ATOM     10  C   UNL     1     148.586 150.794 169.341  1.00  0.00     0.008 C 
ATOM     11  C   UNL     1     150.460 151.856 168.187  1.00  0.00     0.039 C 
ENDBRANCH   5   9
TORSDOF 1
ENDMDL
MODEL 6
REMARK VINA RESULT:    -3.403      2.677      4.347
REMARK INTER + INTRA:          -3.812
REMARK INTER:                  -3.606
REMARK INTRA:                  -0.205
REMARK UNBOUND:                -0.210
REMARK SMILES C=C(C)[C@H]1CC=C(C)C(=O)C1
REMARK SMILES IDX 8 1 7 2 6 3 5 4 4 5 11 6 9 7 10 8 2 9 1 10 3 11
REMARK H PARENT
REMARK Flexibility Score: inf
ROOT
ATOM      1  C   UNL     1     149.468 156.989 164.107  1.00  0.00     0.048 C 
ATOM      2  C   UNL     1     149.283 155.532 164.427  1.00  0.00    -0.012 C 
ATOM      3  C   UNL     1     148.167 154.893 164.045  1.00  0.00    -0.019 C 
ATOM      4  C   UNL     1     147.996 153.414 164.256  1.00  0.00     0.036 C 
ATOM      5  C   UNL     1     148.646 152.949 165.574  1.00  0.00     0.025 C 
ATOM      6  C   UNL     1     150.132 153.377 165.617  1.00  0.00     0.089 C 
ATOM      7  C   UNL     1     150.349 154.794 165.149  1.00  0.00     0.158 C 
ATOM      8  O   UNL     1     151.459 155.347 165.369  1.00  0.00    -0.295 OA
ENDROOT
BRANCH   5   9
ATOM      9  C   UNL     1     147.809 153.372 166.785  1.00  0.00    -0.077 C 
ATOM     10  C   UNL     1     148.436 153.616 167.949  1.00  0.00     0.008 C 
ATOM     11  C   UNL     1     146.306 153.524 166.756  1.00  0.00     0.039 C 
ENDBRANCH   5   9
TORSDOF 1
ENDMDL
MODEL 7
REMARK VINA RESULT:    -3.377      5.475      7.029
REMARK INTER + INTRA:          -3.784
REMARK INTER:                  -3.607
REMARK INTRA:                  -0.176
REMARK UNBOUND:                -0.210
REMARK SMILES C=C(C)[C@H]1CC=C(C)C(=O)C1
REMARK SMILES IDX 8 1 7 2 6 3 5 4 4 5 11 6 9 7 10 8 2 9 1 10 3 11
REMARK H PARENT
REMARK Flexibility Score: inf
ROOT
ATOM      1  C   UNL     1     153.107 149.759 163.250  1.00  0.00     0.048 C 
ATOM      2  C   UNL     1     151.821 149.722 162.472  1.00  0.00    -0.012 C 
ATOM      3  C   UNL     1     150.649 149.915 163.095  1.00  0.00    -0.019 C 
ATOM      4  C   UNL     1     149.356 149.989 162.332  1.00  0.00     0.036 C 
ATOM      5  C   UNL     1     149.351 149.028 161.128  1.00  0.00     0.025 C 
ATOM      6  C   UNL     1     150.577 149.297 160.224  1.00  0.00     0.089 C 
ATOM      7  C   UNL     1     151.852 149.490 161.008  1.00  0.00     0.158 C 
ATOM      8  O   UNL     1     152.953 149.466 160.397  1.00  0.00    -0.295 OA
ENDROOT
BRANCH   5   9
ATOM      9  C   UNL     1     149.178 147.573 161.579  1.00  0.00    -0.077 C 
ATOM     10  C   UNL     1     149.612 146.592 160.769  1.00  0.00     0.008 C 
ATOM     11  C   UNL     1     148.533 147.170 162.884  1.00  0.00     0.039 C 
ENDBRANCH   5   9
TORSDOF 1
ENDMDL
MODEL 8
REMARK VINA RESULT:    -3.307      3.354      4.577
REMARK INTER + INTRA:          -3.710
REMARK INTER:                  -3.506
REMARK INTRA:                  -0.203
REMARK UNBOUND:                -0.210
REMARK SMILES C=C(C)[C@H]1CC=C(C)C(=O)C1
REMARK SMILES IDX 8 1 7 2 6 3 5 4 4 5 11 6 9 7 10 8 2 9 1 10 3 11
REMARK H PARENT
REMARK Flexibility Score: inf
ROOT
ATOM      1  C   UNL     1     147.849 153.525 166.418  1.00  0.00     0.048 C 
ATOM      2  C   UNL     1     148.826 154.228 165.517  1.00  0.00    -0.012 C 
ATOM      3  C   UNL     1     149.441 155.347 165.930  1.00  0.00    -0.019 C 
ATOM      4  C   UNL     1     150.499 156.015 165.097  1.00  0.00     0.036 C 
ATOM      5  C   UNL     1     150.190 155.908 163.591  1.00  0.00     0.025 C 
ATOM      6  C   UNL     1     149.982 154.428 163.192  1.00  0.00     0.089 C 
ATOM      7  C   UNL     1     149.126 153.670 164.176  1.00  0.00     0.158 C 
ATOM      8  O   UNL     1     148.674 152.541 163.849  1.00  0.00    -0.295 OA
ENDROOT
BRANCH   5   9
ATOM      9  C   UNL     1     149.058 156.859 163.188  1.00  0.00    -0.077 C 
ATOM     10  C   UNL     1     149.230 158.179 163.368  1.00  0.00     0.008 C 
ATOM     11  C   UNL     1     147.742 156.398 162.605  1.00  0.00     0.039 C 
ENDBRANCH   5   9
TORSDOF 1
ENDMDL
MODEL 9
REMARK VINA RESULT:    -3.282      5.779      7.042
REMARK INTER + INTRA:          -3.683
REMARK INTER:                  -3.463
REMARK INTRA:                  -0.220
REMARK UNBOUND:                -0.210
REMARK SMILES C=C(C)[C@H]1CC=C(C)C(=O)C1
REMARK SMILES IDX 8 1 7 2 6 3 5 4 4 5 11 6 9 7 10 8 2 9 1 10 3 11
REMARK H PARENT
REMARK Flexibility Score: inf
ROOT
ATOM      1  C   UNL     1     145.407 157.788 162.573  1.00  0.00     0.048 C 
ATOM      2  C   UNL     1     146.894 157.778 162.355  1.00  0.00    -0.012 C 
ATOM      3  C   UNL     1     147.446 156.900 161.505  1.00  0.00    -0.019 C 
ATOM      4  C   UNL     1     148.915 156.932 161.185  1.00  0.00     0.036 C 
ATOM      5  C   UNL     1     149.756 157.331 162.413  1.00  0.00     0.025 C 
ATOM      6  C   UNL     1     149.254 158.677 162.989  1.00  0.00     0.089 C 
ATOM      7  C   UNL     1     147.750 158.757 163.068  1.00  0.00     0.158 C 
ATOM      8  O   UNL     1     147.223 159.681 163.742  1.00  0.00    -0.295 OA
ENDROOT
BRANCH   5   9
ATOM      9  C   UNL     1     149.846 156.182 163.422  1.00  0.00    -0.077 C 
ATOM     10  C   UNL     1     150.051 154.935 162.963  1.00  0.00     0.008 C 
ATOM     11  C   UNL     1     149.705 156.362 164.916  1.00  0.00     0.039 C 
ENDBRANCH   5   9
TORSDOF 1
ENDMDL
