MODEL 1
REMARK VINA RESULT:    26.619      0.000      0.000
REMARK INTER + INTRA:          37.683
REMARK INTER:                  37.512
REMARK INTRA:                   0.171
REMARK UNBOUND:                 0.171
REMARK SMILES OCC1=C[C@@H](O)[C@H]2C=CO[C@@H](O[C@H]3O[C@H](CO)[C@@H](O)[C@@H](O)[C@@H]3O)[C@H]12
REMARK SMILES IDX 12 1 11 2 8 3 9 4 7 5 10 6 24 7 5 8 3 9 4 10 6 11 2 13 1 14
REMARK SMILES IDX 13 16 22 17 14 18 20 19 15 20 18 21 23 22 21 24 16 26 17 27
REMARK SMILES IDX 19 29
REMARK H PARENT 6 12 1 15 23 23 21 25 17 28 19 30
REMARK Flexibility Score: inf
ROOT
ATOM      1  O   UNL     1       7.903   3.283  19.945  1.00  0.00    -0.310 OA
ENDROOT
BRANCH   1   2
ATOM      2  C   UNL     1       8.246   4.087  18.834  1.00  0.00     0.316 C 
ATOM      3  C   UNL     1       9.624   6.534  18.042  1.00  0.00     0.018 C 
ATOM      4  C   UNL     1      10.333   5.451  18.401  1.00  0.00     0.186 C 
ATOM      5  C   UNL     1       8.149   6.352  17.880  1.00  0.00     0.061 C 
ATOM      6  O   UNL     1       9.684   4.244  18.760  1.00  0.00    -0.472 OA
ATOM      7  C   UNL     1       7.628   5.479  19.013  1.00  0.00     0.096 C 
ATOM      8  C   UNL     1       7.196   7.546  17.875  1.00  0.00     0.145 C 
ATOM      9  C   UNL     1       6.155   5.693  18.890  1.00  0.00    -0.036 C 
ATOM     10  C   UNL     1       5.922   6.882  18.320  1.00  0.00     0.007 C 
BRANCH   8  11
ATOM     11  O   UNL     1       7.574   8.516  18.817  1.00  0.00    -0.388 OA
ATOM     12  H   UNL     1       7.991   8.026  19.572  1.00  0.00     0.211 HD
ENDBRANCH   8  11
BRANCH   9  13
ATOM     13  C   UNL     1       5.087   4.857  19.540  1.00  0.00     0.187 C 
BRANCH  13  14
ATOM     14  O   UNL     1       3.834   5.454  19.357  1.00  0.00    -0.392 OA
ATOM     15  H   UNL     1       3.998   6.321  18.901  1.00  0.00     0.211 HD
ENDBRANCH  13  14
ENDBRANCH   9  13
ENDBRANCH   1   2
BRANCH   1  16
ATOM     16  C   UNL     1       8.191   1.914  19.703  1.00  0.00     0.286 C 
ATOM     17  C   UNL     1       7.771   1.528  18.266  1.00  0.00     0.202 C 
ATOM     18  O   UNL     1       7.571   1.069  20.662  1.00  0.00    -0.341 OA
ATOM     19  C   UNL     1       6.237   1.421  18.108  1.00  0.00     0.179 C 
ATOM     20  C   UNL     1       6.158   1.202  20.648  1.00  0.00     0.178 C 
ATOM     21  C   UNL     1       5.581   0.693  19.305  1.00  0.00     0.177 C 
BRANCH  17  22
ATOM     22  O   UNL     1       8.392   0.328  17.876  1.00  0.00    -0.385 OA
ATOM     23  H   UNL     1       7.698  -0.261  17.480  1.00  0.00     0.211 HD
ENDBRANCH  17  22
BRANCH  19  24
ATOM     24  O   UNL     1       5.660   2.686  17.881  1.00  0.00    -0.387 OA
ATOM     25  H   UNL     1       4.701   2.640  18.118  1.00  0.00     0.211 HD
ENDBRANCH  19  24
BRANCH  20  26
ATOM     26  C   UNL     1       5.604   0.399  21.834  1.00  0.00     0.191 C 
BRANCH  26  27
ATOM     27  O   UNL     1       6.088  -0.915  21.806  1.00  0.00    -0.394 OA
ATOM     28  H   UNL     1       5.814  -1.329  22.665  1.00  0.00     0.210 HD
ENDBRANCH  26  27
ENDBRANCH  20  26
BRANCH  21  29
ATOM     29  O   UNL     1       4.189   0.881  19.274  1.00  0.00    -0.387 OA
ATOM     30  H   UNL     1       3.806   0.100  18.795  1.00  0.00     0.211 HD
ENDBRANCH  21  29
ENDBRANCH   1  16
TORSDOF 10
ENDMDL
MODEL 2
REMARK VINA RESULT:    28.073      1.228      2.589
REMARK INTER + INTRA:          39.732
REMARK INTER:                  39.494
REMARK INTRA:                   0.239
REMARK UNBOUND:                 0.171
REMARK SMILES OCC1=C[C@@H](O)[C@H]2C=CO[C@@H](O[C@H]3O[C@H](CO)[C@@H](O)[C@@H](O)[C@@H]3O)[C@H]12
REMARK SMILES IDX 12 1 11 2 8 3 9 4 7 5 10 6 24 7 5 8 3 9 4 10 6 11 2 13 1 14
REMARK SMILES IDX 13 16 22 17 14 18 20 19 15 20 18 21 23 22 21 24 16 26 17 27
REMARK SMILES IDX 19 29
REMARK H PARENT 6 12 1 15 23 23 21 25 17 28 19 30
REMARK Flexibility Score: inf
ROOT
ATOM      1  O   UNL     1       6.323   3.471  18.895  1.00  0.00    -0.310 OA
ENDROOT
BRANCH   1   2
ATOM      2  C   UNL     1       7.261   4.277  18.210  1.00  0.00     0.316 C 
ATOM      3  C   UNL     1       9.457   6.160  18.590  1.00  0.00     0.018 C 
ATOM      4  C   UNL     1       9.652   4.850  18.809  1.00  0.00     0.186 C 
ATOM      5  C   UNL     1       8.158   6.555  17.964  1.00  0.00     0.061 C 
ATOM      6  O   UNL     1       8.607   3.915  18.602  1.00  0.00    -0.472 OA
ATOM      7  C   UNL     1       7.035   5.745  18.597  1.00  0.00     0.096 C 
ATOM      8  C   UNL     1       7.647   7.993  18.030  1.00  0.00     0.145 C 
ATOM      9  C   UNL     1       5.833   6.493  18.123  1.00  0.00    -0.036 C 
ATOM     10  C   UNL     1       6.169   7.767  17.878  1.00  0.00     0.007 C 
BRANCH   8  11
ATOM     11  O   UNL     1       7.907   8.580  19.278  1.00  0.00    -0.388 OA
ATOM     12  H   UNL     1       7.476   9.474  19.264  1.00  0.00     0.211 HD
ENDBRANCH   8  11
BRANCH   9  13
ATOM     13  C   UNL     1       4.414   6.000  18.168  1.00  0.00     0.187 C 
BRANCH  13  14
ATOM     14  O   UNL     1       4.061   5.674  19.483  1.00  0.00    -0.392 OA
ATOM     15  H   UNL     1       4.898   5.396  19.940  1.00  0.00     0.211 HD
ENDBRANCH  13  14
ENDBRANCH   9  13
ENDBRANCH   1   2
BRANCH   1  16
ATOM     16  C   UNL     1       6.076   2.258  18.198  1.00  0.00     0.286 C 
ATOM     17  C   UNL     1       5.133   1.353  19.024  1.00  0.00     0.202 C 
ATOM     18  O   UNL     1       7.283   1.582  17.876  1.00  0.00    -0.341 OA
ATOM     19  C   UNL     1       5.841   0.720  20.243  1.00  0.00     0.179 C 
ATOM     20  C   UNL     1       8.026   1.245  19.037  1.00  0.00     0.178 C 
ATOM     21  C   UNL     1       7.257   0.207  19.888  1.00  0.00     0.177 C 
BRANCH  17  22
ATOM     22  O   UNL     1       4.567   0.356  18.208  1.00  0.00    -0.385 OA
ATOM     23  H   UNL     1       3.767   0.742  17.764  1.00  0.00     0.211 HD
ENDBRANCH  17  22
BRANCH  19  24
ATOM     24  O   UNL     1       5.861   1.607  21.336  1.00  0.00    -0.387 OA
ATOM     25  H   UNL     1       4.927   1.789  21.609  1.00  0.00     0.211 HD
ENDBRANCH  19  24
BRANCH  20  26
ATOM     26  C   UNL     1       9.384   0.695  18.576  1.00  0.00     0.191 C 
BRANCH  26  27
ATOM     27  O   UNL     1      10.252   1.744  18.245  1.00  0.00    -0.394 OA
ATOM     28  H   UNL     1       9.736   2.581  18.378  1.00  0.00     0.210 HD
ENDBRANCH  26  27
ENDBRANCH  20  26
BRANCH  21  29
ATOM     29  O   UNL     1       7.970  -0.078  21.065  1.00  0.00    -0.387 OA
ATOM     30  H   UNL     1       7.612   0.525  21.769  1.00  0.00     0.211 HD
ENDBRANCH  21  29
ENDBRANCH   1  16
TORSDOF 10
ENDMDL
