MODEL 1
REMARK VINA RESULT:    -4.195      0.000      0.000
REMARK INTER + INTRA:          -6.710
REMARK INTER:                  -6.403
REMARK INTRA:                  -0.308
REMARK UNBOUND:                -0.308
REMARK SMILES CC1=CCC[C@@H](C)C(=O)C[C@H](C(C)C)C(=O)C1
REMARK SMILES IDX 8 1 9 2 6 3 7 4 5 5 4 6 3 7 2 8 1 9 10 11 11 12 15 13 16 14
REMARK SMILES IDX 17 15 12 17 13 18 14 19
REMARK H PARENT
REMARK Flexibility Score: 70.00
ROOT
ATOM      1  C   UNL     1      -3.079  -1.295  -2.026  1.00  0.00     0.136 C 
ATOM      2  O   UNL     1      -3.736  -2.171  -2.572  1.00  0.00    -0.299 OA
ENDROOT
BRANCH   1   3
ATOM      3  C   UNL     1      -1.594  -1.196  -2.289  1.00  0.00     0.053 C 
ATOM      4  C   UNL     1      -1.305  -1.027  -3.785  1.00  0.00     0.016 C 
BRANCH   3   5
ATOM      5  C   UNL     1      -0.893  -2.450  -1.711  1.00  0.00     0.015 C 
BRANCH   5   6
ATOM      6  C   UNL     1      -0.306  -2.299  -0.294  1.00  0.00     0.028 C 
BRANCH   6   7
ATOM      7  C   UNL     1      -0.113  -0.889   0.223  1.00  0.00    -0.028 C 
ATOM      8  C   UNL     1      -0.767  -0.305   1.256  1.00  0.00    -0.070 CG0
ATOM      9  C   UNL     1      -0.336   1.083   1.662  1.00  0.00     0.039 C 
ATOM     10  G   UNL     1      -1.949  -0.926   1.979  1.00  0.00     0.000 G0
ENDBRANCH   6   7
ENDBRANCH   5   6
ENDBRANCH   3   5
ENDBRANCH   1   3
BRANCH   1  11
ATOM     11  C   UNL     1      -3.752  -0.378  -1.031  1.00  0.00     0.087 C 
BRANCH  11  12
ATOM     12  C   UNL     1      -4.031  -1.091   0.329  1.00  0.00     0.066 C 
BRANCH  12  13
ATOM     13  C   UNL     1      -3.262  -0.381   1.436  1.00  0.00     0.140 C 
ATOM     14  O   UNL     1      -3.749   0.618   1.945  1.00  0.00    -0.299 OA
BRANCH  13  15
ATOM     15  C   UNL     1      -1.952  -0.915   1.980  1.00  0.00     0.106 CG0
ATOM     16  G   UNL     1      -0.771  -0.300   1.251  1.00  0.00     0.000 G0
ENDBRANCH  13  15
ENDBRANCH  12  13
BRANCH  12  17
ATOM     17  C   UNL     1      -5.560  -1.151   0.659  1.00  0.00    -0.006 C 
ATOM     18  C   UNL     1      -6.195  -2.487   0.225  1.00  0.00     0.008 C 
ATOM     19  C   UNL     1      -6.336  -0.006  -0.026  1.00  0.00     0.008 C 
ENDBRANCH  12  17
ENDBRANCH  11  12
ENDBRANCH   1  11
TORSDOF 1
ENDMDL
MODEL 2
REMARK VINA RESULT:    -4.022      1.486      3.927
REMARK INTER + INTRA:          -6.446
REMARK INTER:                  -6.149
REMARK INTRA:                  -0.297
REMARK UNBOUND:                -0.308
REMARK SMILES CC1=CCC[C@@H](C)C(=O)C[C@H](C(C)C)C(=O)C1
REMARK SMILES IDX 8 1 9 2 6 3 7 4 5 5 4 6 3 7 2 8 1 9 10 11 11 12 15 13 16 14
REMARK SMILES IDX 17 15 12 17 13 18 14 19
REMARK H PARENT
REMARK Flexibility Score: 70.00
ROOT
ATOM      1  C   UNL     1      -3.104  -1.202   1.986  1.00  0.00     0.136 C 
ATOM      2  O   UNL     1      -3.773  -0.522   2.752  1.00  0.00    -0.299 OA
ENDROOT
BRANCH   1   3
ATOM      3  C   UNL     1      -1.596  -1.138   2.048  1.00  0.00     0.053 C 
ATOM      4  C   UNL     1      -1.094  -1.225   3.494  1.00  0.00     0.016 C 
BRANCH   3   5
ATOM      5  C   UNL     1      -1.115   0.160   1.354  1.00  0.00     0.015 C 
BRANCH   5   6
ATOM      6  C   UNL     1      -0.401  -0.025   0.001  1.00  0.00     0.028 C 
BRANCH   6   7
ATOM      7  C   UNL     1      -0.176  -1.448  -0.468  1.00  0.00    -0.028 C 
ATOM      8  C   UNL     1      -0.833  -2.088  -1.465  1.00  0.00    -0.070 CG0
ATOM      9  C   UNL     1      -0.368  -3.477  -1.829  1.00  0.00     0.039 C 
ATOM     10  G   UNL     1      -2.046  -1.529  -2.185  1.00  0.00     0.000 G0
ENDBRANCH   6   7
ENDBRANCH   5   6
ENDBRANCH   3   5
ENDBRANCH   1   3
BRANCH   1  11
ATOM     11  C   UNL     1      -3.802  -2.032   0.934  1.00  0.00     0.087 C 
BRANCH  11  12
ATOM     12  C   UNL     1      -3.992  -1.248  -0.402  1.00  0.00     0.066 C 
BRANCH  12  13
ATOM     13  C   UNL     1      -3.328  -2.018  -1.536  1.00  0.00     0.140 C 
ATOM     14  O   UNL     1      -3.878  -3.020  -1.972  1.00  0.00    -0.299 OA
BRANCH  13  15
ATOM     15  C   UNL     1      -2.047  -1.543  -2.194  1.00  0.00     0.106 CG0
ATOM     16  G   UNL     1      -0.830  -2.084  -1.467  1.00  0.00     0.000 G0
ENDBRANCH  13  15
ENDBRANCH  12  13
BRANCH  12  17
ATOM     17  C   UNL     1      -5.502  -0.980  -0.716  1.00  0.00    -0.006 C 
ATOM     18  C   UNL     1      -5.987   0.360  -0.128  1.00  0.00     0.008 C 
ATOM     19  C   UNL     1      -6.407  -2.101  -0.166  1.00  0.00     0.008 C 
ENDBRANCH  12  17
ENDBRANCH  11  12
ENDBRANCH   1  11
TORSDOF 1
ENDMDL
MODEL 3
REMARK VINA RESULT:    -3.948      2.194      5.394
REMARK INTER + INTRA:          -6.333
REMARK INTER:                  -6.596
REMARK INTRA:                   0.263
REMARK UNBOUND:                -0.308
REMARK SMILES CC1=CCC[C@@H](C)C(=O)C[C@H](C(C)C)C(=O)C1
REMARK SMILES IDX 8 1 9 2 6 3 7 4 5 5 4 6 3 7 2 8 1 9 10 11 11 12 15 13 16 14
REMARK SMILES IDX 17 15 12 17 13 18 14 19
REMARK H PARENT
REMARK Flexibility Score: 70.00
ROOT
ATOM      1  C   UNL     1      -3.476  -0.194   1.538  1.00  0.00     0.136 C 
ATOM      2  O   UNL     1      -3.365  -0.832   2.576  1.00  0.00    -0.299 OA
ENDROOT
BRANCH   1   3
ATOM      3  C   UNL     1      -4.721   0.624   1.289  1.00  0.00     0.053 C 
ATOM      4  C   UNL     1      -5.270   1.212   2.595  1.00  0.00     0.016 C 
BRANCH   3   5
ATOM      5  C   UNL     1      -5.774  -0.259   0.575  1.00  0.00     0.015 C 
BRANCH   5   6
ATOM      6  C   UNL     1      -5.567  -1.782   0.695  1.00  0.00     0.028 C 
BRANCH   6   7
ATOM      7  C   UNL     1      -5.714  -2.597  -0.573  1.00  0.00    -0.028 C 
ATOM      8  C   UNL     1      -4.898  -2.574  -1.654  1.00  0.00    -0.070 CG0
ATOM      9  C   UNL     1      -5.183  -3.552  -2.766  1.00  0.00     0.039 C 
ATOM     10  G   UNL     1      -3.767  -1.580  -1.848  1.00  0.00     0.000 G0
ENDBRANCH   6   7
ENDBRANCH   5   6
ENDBRANCH   3   5
ENDBRANCH   1   3
BRANCH   1  11
ATOM     11  C   UNL     1      -2.399  -0.305   0.484  1.00  0.00     0.087 C 
BRANCH  11  12
ATOM     12  C   UNL     1      -2.033  -1.789   0.171  1.00  0.00     0.066 C 
BRANCH  12  13
ATOM     13  C   UNL     1      -2.468  -2.125  -1.250  1.00  0.00     0.140 C 
ATOM     14  O   UNL     1      -1.791  -2.904  -1.906  1.00  0.00    -0.299 OA
BRANCH  13  15
ATOM     15  C   UNL     1      -3.752  -1.587  -1.850  1.00  0.00     0.106 CG0
ATOM     16  G   UNL     1      -4.894  -2.569  -1.661  1.00  0.00     0.000 G0
ENDBRANCH  13  15
ENDBRANCH  12  13
BRANCH  12  17
ATOM     17  C   UNL     1      -0.506  -2.073   0.371  1.00  0.00    -0.006 C 
ATOM     18  C   UNL     1      -0.129  -2.189   1.861  1.00  0.00     0.008 C 
ATOM     19  C   UNL     1       0.367  -0.969  -0.261  1.00  0.00     0.008 C 
ENDBRANCH  12  17
ENDBRANCH  11  12
ENDBRANCH   1  11
TORSDOF 1
ENDMDL
MODEL 4
REMARK VINA RESULT:    -3.774      1.600      4.103
REMARK INTER + INTRA:          -6.067
REMARK INTER:                  -5.764
REMARK INTRA:                  -0.303
REMARK UNBOUND:                -0.308
REMARK SMILES CC1=CCC[C@@H](C)C(=O)C[C@H](C(C)C)C(=O)C1
REMARK SMILES IDX 8 1 9 2 6 3 7 4 5 5 4 6 3 7 2 8 1 9 10 11 11 12 15 13 16 14
REMARK SMILES IDX 17 15 12 17 13 18 14 19
REMARK H PARENT
REMARK Flexibility Score: 70.00
ROOT
ATOM      1  C   UNL     1      -4.249  -2.378  -1.576  1.00  0.00     0.136 C 
ATOM      2  O   UNL     1      -4.563  -2.612  -2.735  1.00  0.00    -0.299 OA
ENDROOT
BRANCH   1   3
ATOM      3  C   UNL     1      -5.276  -1.820  -0.618  1.00  0.00     0.053 C 
ATOM      4  C   UNL     1      -6.670  -2.392  -0.902  1.00  0.00     0.016 C 
BRANCH   3   5
ATOM      5  C   UNL     1      -5.266  -0.274  -0.709  1.00  0.00     0.015 C 
BRANCH   5   6
ATOM      6  C   UNL     1      -5.026   0.476   0.617  1.00  0.00     0.028 C 
BRANCH   6   7
ATOM      7  C   UNL     1      -4.390  -0.310   1.745  1.00  0.00    -0.028 C 
ATOM      8  C   UNL     1      -3.068  -0.408   2.023  1.00  0.00    -0.070 CG0
ATOM      9  C   UNL     1      -2.669  -1.166   3.265  1.00  0.00     0.039 C 
ATOM     10  G   UNL     1      -1.966   0.130   1.128  1.00  0.00     0.000 G0
ENDBRANCH   6   7
ENDBRANCH   5   6
ENDBRANCH   3   5
ENDBRANCH   1   3
BRANCH   1  11
ATOM     11  C   UNL     1      -2.814  -2.572  -1.144  1.00  0.00     0.087 C 
BRANCH  11  12
ATOM     12  C   UNL     1      -2.010  -1.235  -1.158  1.00  0.00     0.066 C 
BRANCH  12  13
ATOM     13  C   UNL     1      -1.431  -0.982   0.229  1.00  0.00     0.140 C 
ATOM     14  O   UNL     1      -0.474  -1.647   0.599  1.00  0.00    -0.299 OA
BRANCH  13  15
ATOM     15  C   UNL     1      -1.954   0.115   1.135  1.00  0.00     0.106 CG0
ATOM     16  G   UNL     1      -3.072  -0.398   2.023  1.00  0.00     0.000 G0
ENDBRANCH  13  15
ENDBRANCH  12  13
BRANCH  12  17
ATOM     17  C   UNL     1      -0.882  -1.237  -2.243  1.00  0.00    -0.006 C 
ATOM     18  C   UNL     1      -1.267  -0.404  -3.481  1.00  0.00     0.008 C 
ATOM     19  C   UNL     1      -0.546  -2.668  -2.712  1.00  0.00     0.008 C 
ENDBRANCH  12  17
ENDBRANCH  11  12
ENDBRANCH   1  11
TORSDOF 1
ENDMDL
MODEL 5
REMARK VINA RESULT:    -3.730      2.190      3.981
REMARK INTER + INTRA:          -6.001
REMARK INTER:                  -6.231
REMARK INTRA:                   0.231
REMARK UNBOUND:                -0.308
REMARK SMILES CC1=CCC[C@@H](C)C(=O)C[C@H](C(C)C)C(=O)C1
REMARK SMILES IDX 8 1 9 2 6 3 7 4 5 5 4 6 3 7 2 8 1 9 10 11 11 12 15 13 16 14
REMARK SMILES IDX 17 15 12 17 13 18 14 19
REMARK H PARENT
REMARK Flexibility Score: 70.00
ROOT
ATOM      1  C   UNL     1      -1.406  -0.485   1.568  1.00  0.00     0.136 C 
ATOM      2  O   UNL     1      -0.676   0.478   1.761  1.00  0.00    -0.299 OA
ENDROOT
BRANCH   1   3
ATOM      3  C   UNL     1      -1.015  -1.530   0.549  1.00  0.00     0.053 C 
ATOM      4  C   UNL     1       0.192  -2.347   1.026  1.00  0.00     0.016 C 
BRANCH   3   5
ATOM      5  C   UNL     1      -0.734  -0.837  -0.807  1.00  0.00     0.015 C 
BRANCH   5   6
ATOM      6  C   UNL     1      -1.946  -0.685  -1.748  1.00  0.00     0.028 C 
BRANCH   6   7
ATOM      7  C   UNL     1      -2.702  -1.949  -2.103  1.00  0.00    -0.028 C 
ATOM      8  C   UNL     1      -3.978  -2.253  -1.766  1.00  0.00    -0.070 CG0
ATOM      9  C   UNL     1      -4.562  -3.530  -2.320  1.00  0.00     0.039 C 
ATOM     10  G   UNL     1      -4.829  -1.434  -0.812  1.00  0.00     0.000 G0
ENDBRANCH   6   7
ENDBRANCH   5   6
ENDBRANCH   3   5
ENDBRANCH   1   3
BRANCH   1  11
ATOM     11  C   UNL     1      -2.728  -0.567   2.293  1.00  0.00     0.087 C 
BRANCH  11  12
ATOM     12  C   UNL     1      -3.933  -0.230   1.359  1.00  0.00     0.066 C 
BRANCH  12  13
ATOM     13  C   UNL     1      -4.358  -1.490   0.615  1.00  0.00     0.140 C 
ATOM     14  O   UNL     1      -4.345  -2.559   1.208  1.00  0.00    -0.299 OA
BRANCH  13  15
ATOM     15  C   UNL     1      -4.870  -1.451  -0.812  1.00  0.00     0.106 CG0
ATOM     16  G   UNL     1      -3.972  -2.255  -1.733  1.00  0.00     0.000 G0
ENDBRANCH  13  15
ENDBRANCH  12  13
BRANCH  12  17
ATOM     17  C   UNL     1      -5.135   0.387   2.149  1.00  0.00    -0.006 C 
ATOM     18  C   UNL     1      -6.409   0.479   1.285  1.00  0.00     0.008 C 
ATOM     19  C   UNL     1      -4.807   1.800   2.674  1.00  0.00     0.008 C 
ENDBRANCH  12  17
ENDBRANCH  11  12
ENDBRANCH   1  11
TORSDOF 1
ENDMDL
MODEL 6
REMARK VINA RESULT:    -3.630      1.983      4.809
REMARK INTER + INTRA:          -5.848
REMARK INTER:                  -5.980
REMARK INTRA:                   0.132
REMARK UNBOUND:                -0.308
REMARK SMILES CC1=CCC[C@@H](C)C(=O)C[C@H](C(C)C)C(=O)C1
REMARK SMILES IDX 8 1 9 2 6 3 7 4 5 5 4 6 3 7 2 8 1 9 10 11 11 12 15 13 16 14
REMARK SMILES IDX 17 15 12 17 13 18 14 19
REMARK H PARENT
REMARK Flexibility Score: 70.00
ROOT
ATOM      1  C   UNL     1      -0.790  -0.676   0.739  1.00  0.00     0.136 C 
ATOM      2  O   UNL     1       0.131  -1.482   0.741  1.00  0.00    -0.299 OA
ENDROOT
BRANCH   1   3
ATOM      3  C   UNL     1      -1.186   0.014   2.023  1.00  0.00     0.053 C 
ATOM      4  C   UNL     1      -0.204  -0.310   3.155  1.00  0.00     0.016 C 
BRANCH   3   5
ATOM      5  C   UNL     1      -2.634  -0.394   2.391  1.00  0.00     0.015 C 
BRANCH   5   6
ATOM      6  C   UNL     1      -3.691   0.724   2.304  1.00  0.00     0.028 C 
BRANCH   6   7
ATOM      7  C   UNL     1      -5.053   0.342   1.762  1.00  0.00    -0.028 C 
ATOM      8  C   UNL     1      -5.348  -0.027   0.493  1.00  0.00    -0.070 CG0
ATOM      9  C   UNL     1      -6.763  -0.467   0.203  1.00  0.00     0.039 C 
ATOM     10  G   UNL     1      -4.371   0.044  -0.666  1.00  0.00     0.000 G0
ENDBRANCH   6   7
ENDBRANCH   5   6
ENDBRANCH   3   5
ENDBRANCH   1   3
BRANCH   1  11
ATOM     11  C   UNL     1      -1.570  -0.449  -0.535  1.00  0.00     0.087 C 
BRANCH  11  12
ATOM     12  C   UNL     1      -2.393  -1.708  -0.953  1.00  0.00     0.066 C 
BRANCH  12  13
ATOM     13  C   UNL     1      -3.866  -1.332  -1.057  1.00  0.00     0.140 C 
ATOM     14  O   UNL     1      -4.670  -2.188  -1.400  1.00  0.00    -0.299 OA
BRANCH  13  15
ATOM     15  C   UNL     1      -4.378   0.043  -0.677  1.00  0.00     0.106 CG0
ATOM     16  G   UNL     1      -5.346  -0.041   0.489  1.00  0.00     0.000 G0
ENDBRANCH  13  15
ENDBRANCH  12  13
BRANCH  12  17
ATOM     17  C   UNL     1      -1.877  -2.330  -2.293  1.00  0.00    -0.006 C 
ATOM     18  C   UNL     1      -0.578  -3.136  -2.096  1.00  0.00     0.008 C 
ATOM     19  C   UNL     1      -1.612  -1.247  -3.360  1.00  0.00     0.008 C 
ENDBRANCH  12  17
ENDBRANCH  11  12
ENDBRANCH   1  11
TORSDOF 1
ENDMDL
MODEL 7
REMARK VINA RESULT:    -3.534      1.863      4.173
REMARK INTER + INTRA:          -5.701
REMARK INTER:                  -5.334
REMARK INTRA:                  -0.367
REMARK UNBOUND:                -0.308
REMARK SMILES CC1=CCC[C@@H](C)C(=O)C[C@H](C(C)C)C(=O)C1
REMARK SMILES IDX 8 1 9 2 6 3 7 4 5 5 4 6 3 7 2 8 1 9 10 11 11 12 15 13 16 14
REMARK SMILES IDX 17 15 12 17 13 18 14 19
REMARK H PARENT
REMARK Flexibility Score: 70.00
ROOT
ATOM      1  C   UNL     1      -0.217  -1.736  -0.602  1.00  0.00     0.136 C 
ATOM      2  O   UNL     1       0.864  -1.177  -0.725  1.00  0.00    -0.299 OA
ENDROOT
BRANCH   1   3
ATOM      3  C   UNL     1      -0.909  -2.306  -1.818  1.00  0.00     0.053 C 
ATOM      4  C   UNL     1       0.016  -3.253  -2.591  1.00  0.00     0.016 C 
BRANCH   3   5
ATOM      5  C   UNL     1      -1.408  -1.143  -2.710  1.00  0.00     0.015 C 
BRANCH   5   6
ATOM      6  C   UNL     1      -2.904  -0.795  -2.588  1.00  0.00     0.028 C 
BRANCH   6   7
ATOM      7  C   UNL     1      -3.773  -1.761  -1.809  1.00  0.00    -0.028 C 
ATOM      8  C   UNL     1      -4.350  -1.545  -0.603  1.00  0.00    -0.070 CG0
ATOM      9  C   UNL     1      -5.263  -2.617  -0.061  1.00  0.00     0.039 C 
ATOM     10  G   UNL     1      -4.080  -0.330   0.267  1.00  0.00     0.000 G0
ENDBRANCH   6   7
ENDBRANCH   5   6
ENDBRANCH   3   5
ENDBRANCH   1   3
BRANCH   1  11
ATOM     11  C   UNL     1      -0.882  -1.771   0.755  1.00  0.00     0.087 C 
BRANCH  11  12
ATOM     12  C   UNL     1      -1.557  -0.410   1.114  1.00  0.00     0.066 C 
BRANCH  12  13
ATOM     13  C   UNL     1      -3.046  -0.634   1.347  1.00  0.00     0.140 C 
ATOM     14  O   UNL     1      -3.420  -1.018   2.446  1.00  0.00    -0.299 OA
BRANCH  13  15
ATOM     15  C   UNL     1      -4.085  -0.324   0.288  1.00  0.00     0.106 CG0
ATOM     16  G   UNL     1      -4.338  -1.532  -0.595  1.00  0.00     0.000 G0
ENDBRANCH  13  15
ENDBRANCH  12  13
BRANCH  12  17
ATOM     17  C   UNL     1      -0.891   0.267   2.357  1.00  0.00    -0.006 C 
ATOM     18  C   UNL     1       0.163   1.317   1.951  1.00  0.00     0.008 C 
ATOM     19  C   UNL     1      -0.207  -0.769   3.273  1.00  0.00     0.008 C 
ENDBRANCH  12  17
ENDBRANCH  11  12
ENDBRANCH   1  11
TORSDOF 1
ENDMDL
MODEL 8
REMARK VINA RESULT:    -3.381      1.856      4.073
REMARK INTER + INTRA:          -5.468
REMARK INTER:                  -5.577
REMARK INTRA:                   0.109
REMARK UNBOUND:                -0.308
REMARK SMILES CC1=CCC[C@@H](C)C(=O)C[C@H](C(C)C)C(=O)C1
REMARK SMILES IDX 8 1 9 2 6 3 7 4 5 5 4 6 3 7 2 8 1 9 10 11 11 12 15 13 16 14
REMARK SMILES IDX 17 15 12 17 13 18 14 19
REMARK H PARENT
REMARK Flexibility Score: 70.00
ROOT
ATOM      1  C   UNL     1      -3.764  -0.707  -0.350  1.00  0.00     0.136 C 
ATOM      2  O   UNL     1      -4.094  -0.072  -1.342  1.00  0.00    -0.299 OA
ENDROOT
BRANCH   1   3
ATOM      3  C   UNL     1      -4.480  -0.478   0.961  1.00  0.00     0.053 C 
ATOM      4  C   UNL     1      -5.674   0.467   0.785  1.00  0.00     0.016 C 
BRANCH   3   5
ATOM      5  C   UNL     1      -3.470   0.066   2.001  1.00  0.00     0.015 C 
BRANCH   5   6
ATOM      6  C   UNL     1      -2.949  -0.955   3.031  1.00  0.00     0.028 C 
BRANCH   6   7
ATOM      7  C   UNL     1      -1.499  -0.828   3.451  1.00  0.00    -0.028 C 
ATOM      8  C   UNL     1      -0.410  -1.202   2.737  1.00  0.00    -0.070 CG0
ATOM      9  C   UNL     1       0.947  -0.884   3.314  1.00  0.00     0.039 C 
ATOM     10  G   UNL     1      -0.469  -1.984   1.437  1.00  0.00     0.000 G0
ENDBRANCH   6   7
ENDBRANCH   5   6
ENDBRANCH   3   5
ENDBRANCH   1   3
BRANCH   1  11
ATOM     11  C   UNL     1      -2.587  -1.651  -0.435  1.00  0.00     0.087 C 
BRANCH  11  12
ATOM     12  C   UNL     1      -1.275  -0.919  -0.857  1.00  0.00     0.066 C 
BRANCH  12  13
ATOM     13  C   UNL     1      -0.221  -1.113   0.226  1.00  0.00     0.140 C 
ATOM     14  O   UNL     1       0.822  -0.479   0.154  1.00  0.00    -0.299 OA
BRANCH  13  15
ATOM     15  C   UNL     1      -0.454  -2.005   1.429  1.00  0.00     0.106 CG0
ATOM     16  G   UNL     1      -0.429  -1.201   2.715  1.00  0.00     0.000 G0
ENDBRANCH  13  15
ENDBRANCH  12  13
BRANCH  12  17
ATOM     17  C   UNL     1      -0.748  -1.410  -2.247  1.00  0.00    -0.006 C 
ATOM     18  C   UNL     1      -1.704  -1.034  -3.396  1.00  0.00     0.008 C 
ATOM     19  C   UNL     1      -0.546  -2.939  -2.271  1.00  0.00     0.008 C 
ENDBRANCH  12  17
ENDBRANCH  11  12
ENDBRANCH   1  11
TORSDOF 1
ENDMDL
MODEL 9
REMARK VINA RESULT:    -3.379      2.102      4.382
REMARK INTER + INTRA:          -5.465
REMARK INTER:                  -5.176
REMARK INTRA:                  -0.289
REMARK UNBOUND:                -0.308
REMARK SMILES CC1=CCC[C@@H](C)C(=O)C[C@H](C(C)C)C(=O)C1
REMARK SMILES IDX 8 1 9 2 6 3 7 4 5 5 4 6 3 7 2 8 1 9 10 11 11 12 15 13 16 14
REMARK SMILES IDX 17 15 12 17 13 18 14 19
REMARK H PARENT
REMARK Flexibility Score: 70.00
ROOT
ATOM      1  C   UNL     1      -3.636  -1.621   0.912  1.00  0.00     0.136 C 
ATOM      2  O   UNL     1      -3.800  -2.722   1.420  1.00  0.00    -0.299 OA
ENDROOT
BRANCH   1   3
ATOM      3  C   UNL     1      -4.539  -1.171  -0.213  1.00  0.00     0.053 C 
ATOM      4  C   UNL     1      -6.009  -1.169   0.222  1.00  0.00     0.016 C 
BRANCH   3   5
ATOM      5  C   UNL     1      -4.310  -2.085  -1.442  1.00  0.00     0.015 C 
BRANCH   5   6
ATOM      6  C   UNL     1      -3.405  -1.508  -2.549  1.00  0.00     0.028 C 
BRANCH   6   7
ATOM      7  C   UNL     1      -2.022  -2.111  -2.689  1.00  0.00    -0.028 C 
ATOM      8  C   UNL     1      -0.891  -1.703  -2.065  1.00  0.00    -0.070 CG0
ATOM      9  C   UNL     1       0.358  -2.522  -2.278  1.00  0.00     0.039 C 
ATOM     10  G   UNL     1      -0.784  -0.441  -1.229  1.00  0.00     0.000 G0
ENDBRANCH   6   7
ENDBRANCH   5   6
ENDBRANCH   3   5
ENDBRANCH   1   3
BRANCH   1  11
ATOM     11  C   UNL     1      -2.477  -0.764   1.365  1.00  0.00     0.087 C 
BRANCH  11  12
ATOM     12  C   UNL     1      -1.107  -1.495   1.204  1.00  0.00     0.066 C 
BRANCH  12  13
ATOM     13  C   UNL     1      -0.261  -0.753   0.177  1.00  0.00     0.140 C 
ATOM     14  O   UNL     1       0.892  -0.462   0.462  1.00  0.00    -0.299 OA
BRANCH  13  15
ATOM     15  C   UNL     1      -0.774  -0.434  -1.213  1.00  0.00     0.106 CG0
ATOM     16  G   UNL     1      -0.885  -1.692  -2.055  1.00  0.00     0.000 G0
ENDBRANCH  13  15
ENDBRANCH  12  13
BRANCH  12  17
ATOM     17  C   UNL     1      -0.347  -1.627   2.566  1.00  0.00    -0.006 C 
ATOM     18  C   UNL     1      -0.441  -3.052   3.146  1.00  0.00     0.008 C 
ATOM     19  C   UNL     1      -0.893  -0.642   3.621  1.00  0.00     0.008 C 
ENDBRANCH  12  17
ENDBRANCH  11  12
ENDBRANCH   1  11
TORSDOF 1
ENDMDL
