MODEL 1
REMARK VINA RESULT:    -3.873      0.000      0.000
REMARK INTER + INTRA:          -4.244
REMARK INTER:                  -4.213
REMARK INTRA:                  -0.031
REMARK UNBOUND:                -0.031
REMARK SMILES O=C([O-])c1ccc(O)cc1
REMARK SMILES IDX 4 1 5 2 10 3 6 4 9 5 7 6 2 7 1 8 3 9 8 10
REMARK H PARENT 8 11
REMARK Flexibility Score: inf
ROOT
ATOM      1  C   UNL     1      56.652  39.804 123.520  1.00  0.00    -0.003 A 
ATOM      2  C   UNL     1      55.312  39.801 123.090  1.00  0.00     0.014 A 
ATOM      3  C   UNL     1      57.298  41.036 123.734  1.00  0.00     0.014 A 
ATOM      4  C   UNL     1      54.634  41.005 122.878  1.00  0.00     0.047 A 
ATOM      5  C   UNL     1      56.616  42.238 123.519  1.00  0.00     0.047 A 
ATOM      6  C   UNL     1      55.283  42.226 123.091  1.00  0.00     0.115 A 
ENDROOT
BRANCH   1   7
ATOM      7  C   UNL     1      57.376  38.534 123.747  1.00  0.00     0.071 C 
ATOM      8  O   UNL     1      57.359  37.623 122.876  1.00  0.00    -0.545 OA
ATOM      9  O   UNL     1      58.084  38.326 124.925  1.00  0.00    -0.545 OA
ENDBRANCH   1   7
BRANCH   6  10
ATOM     10  O   UNL     1      54.595  43.417 122.876  1.00  0.00    -0.508 OA
ATOM     11  H   UNL     1      53.946  43.523 122.104  1.00  0.00     0.293 HD
ENDBRANCH   6  10
TORSDOF 2
ENDMDL
MODEL 2
REMARK VINA RESULT:    -3.789     14.881     15.437
REMARK INTER + INTRA:          -4.152
REMARK INTER:                  -4.116
REMARK INTRA:                  -0.036
REMARK UNBOUND:                -0.031
REMARK SMILES O=C([O-])c1ccc(O)cc1
REMARK SMILES IDX 4 1 5 2 10 3 6 4 9 5 7 6 2 7 1 8 3 9 8 10
REMARK H PARENT 8 11
REMARK Flexibility Score: inf
ROOT
ATOM      1  C   UNL     1      48.828  36.959 135.420  1.00  0.00    -0.003 A 
ATOM      2  C   UNL     1      49.488  35.910 136.087  1.00  0.00     0.014 A 
ATOM      3  C   UNL     1      48.416  38.084 136.159  1.00  0.00     0.014 A 
ATOM      4  C   UNL     1      49.727  35.985 137.463  1.00  0.00     0.047 A 
ATOM      5  C   UNL     1      48.657  38.154 137.534  1.00  0.00     0.047 A 
ATOM      6  C   UNL     1      49.313  37.105 138.190  1.00  0.00     0.115 A 
ENDROOT
BRANCH   1   7
ATOM      7  C   UNL     1      48.572  36.887 133.966  1.00  0.00     0.071 C 
ATOM      8  O   UNL     1      48.926  35.876 133.303  1.00  0.00    -0.545 OA
ATOM      9  O   UNL     1      47.936  37.934 133.308  1.00  0.00    -0.545 OA
ENDBRANCH   1   7
BRANCH   6  10
ATOM     10  O   UNL     1      49.558  37.166 139.559  1.00  0.00    -0.508 OA
ATOM     11  H   UNL     1      50.453  36.895 139.950  1.00  0.00     0.293 HD
ENDBRANCH   6  10
TORSDOF 2
ENDMDL
MODEL 3
REMARK VINA RESULT:    -3.785     14.843     15.409
REMARK INTER + INTRA:          -4.148
REMARK INTER:                  -4.112
REMARK INTRA:                  -0.036
REMARK UNBOUND:                -0.031
REMARK SMILES O=C([O-])c1ccc(O)cc1
REMARK SMILES IDX 4 1 5 2 10 3 6 4 9 5 7 6 2 7 1 8 3 9 8 10
REMARK H PARENT 8 11
REMARK Flexibility Score: inf
ROOT
ATOM      1  C   UNL     1      48.843  36.957 135.374  1.00  0.00    -0.003 A 
ATOM      2  C   UNL     1      48.425  38.071 136.126  1.00  0.00     0.014 A 
ATOM      3  C   UNL     1      49.488  35.893 136.031  1.00  0.00     0.014 A 
ATOM      4  C   UNL     1      48.649  38.118 137.505  1.00  0.00     0.047 A 
ATOM      5  C   UNL     1      49.711  35.946 137.410  1.00  0.00     0.047 A 
ATOM      6  C   UNL     1      49.293  37.058 138.151  1.00  0.00     0.115 A 
ENDROOT
BRANCH   1   7
ATOM      7  C   UNL     1      48.609  36.900 133.914  1.00  0.00     0.071 C 
ATOM      8  O   UNL     1      48.928  35.875 133.255  1.00  0.00    -0.545 OA
ATOM      9  O   UNL     1      48.033  37.977 133.250  1.00  0.00    -0.545 OA
ENDBRANCH   1   7
BRANCH   6  10
ATOM     10  O   UNL     1      49.509  37.119 139.526  1.00  0.00    -0.508 OA
ATOM     11  H   UNL     1      48.937  36.593 140.176  1.00  0.00     0.293 HD
ENDBRANCH   6  10
TORSDOF 2
ENDMDL
MODEL 4
REMARK VINA RESULT:    -3.725      0.394      1.578
REMARK INTER + INTRA:          -4.082
REMARK INTER:                  -4.050
REMARK INTRA:                  -0.032
REMARK UNBOUND:                -0.031
REMARK SMILES O=C([O-])c1ccc(O)cc1
REMARK SMILES IDX 4 1 5 2 10 3 6 4 9 5 7 6 2 7 1 8 3 9 8 10
REMARK H PARENT 8 11
REMARK Flexibility Score: inf
ROOT
ATOM      1  C   UNL     1      56.382  39.551 123.499  1.00  0.00    -0.003 A 
ATOM      2  C   UNL     1      57.145  40.706 123.751  1.00  0.00     0.014 A 
ATOM      3  C   UNL     1      55.053  39.693 123.057  1.00  0.00     0.014 A 
ATOM      4  C   UNL     1      56.589  41.976 123.567  1.00  0.00     0.047 A 
ATOM      5  C   UNL     1      54.501  40.965 122.875  1.00  0.00     0.047 A 
ATOM      6  C   UNL     1      55.267  42.110 123.130  1.00  0.00     0.115 A 
ENDROOT
BRANCH   1   7
ATOM      7  C   UNL     1      56.964  38.205 123.691  1.00  0.00     0.071 C 
ATOM      8  O   UNL     1      56.715  37.277 122.875  1.00  0.00    -0.545 OA
ATOM      9  O   UNL     1      57.794  37.943 124.775  1.00  0.00    -0.545 OA
ENDBRANCH   1   7
BRANCH   6  10
ATOM     10  O   UNL     1      54.727  43.381 122.951  1.00  0.00    -0.508 OA
ATOM     11  H   UNL     1      54.109  43.796 123.638  1.00  0.00     0.293 HD
ENDBRANCH   6  10
TORSDOF 2
ENDMDL
MODEL 5
REMARK VINA RESULT:    -3.533      1.031      4.093
REMARK INTER + INTRA:          -3.874
REMARK INTER:                  -3.841
REMARK INTRA:                  -0.033
REMARK UNBOUND:                -0.031
REMARK SMILES O=C([O-])c1ccc(O)cc1
REMARK SMILES IDX 4 1 5 2 10 3 6 4 9 5 7 6 2 7 1 8 3 9 8 10
REMARK H PARENT 8 11
REMARK Flexibility Score: inf
ROOT
ATOM      1  C   UNL     1      55.650  41.185 123.534  1.00  0.00    -0.003 A 
ATOM      2  C   UNL     1      54.883  40.116 123.032  1.00  0.00     0.014 A 
ATOM      3  C   UNL     1      56.996  40.958 123.875  1.00  0.00     0.014 A 
ATOM      4  C   UNL     1      55.453  38.848 122.876  1.00  0.00     0.047 A 
ATOM      5  C   UNL     1      57.560  39.688 123.719  1.00  0.00     0.047 A 
ATOM      6  C   UNL     1      56.790  38.630 123.219  1.00  0.00     0.115 A 
ENDROOT
BRANCH   1   7
ATOM      7  C   UNL     1      55.054  42.528 123.701  1.00  0.00     0.071 C 
ATOM      8  O   UNL     1      54.202  42.958 122.877  1.00  0.00    -0.545 OA
ATOM      9  O   UNL     1      55.426  43.337 124.769  1.00  0.00    -0.545 OA
ENDBRANCH   1   7
BRANCH   6  10
ATOM     10  O   UNL     1      57.344  37.362 123.058  1.00  0.00    -0.508 OA
ATOM     11  H   UNL     1      58.038  37.001 123.703  1.00  0.00     0.293 HD
ENDBRANCH   6  10
TORSDOF 2
ENDMDL
MODEL 6
REMARK VINA RESULT:    -3.401      1.636      2.106
REMARK INTER + INTRA:          -3.729
REMARK INTER:                  -3.694
REMARK INTRA:                  -0.035
REMARK UNBOUND:                -0.031
REMARK SMILES O=C([O-])c1ccc(O)cc1
REMARK SMILES IDX 4 1 5 2 10 3 6 4 9 5 7 6 2 7 1 8 3 9 8 10
REMARK H PARENT 8 11
REMARK Flexibility Score: inf
ROOT
ATOM      1  C   UNL     1      56.952  39.891 123.360  1.00  0.00    -0.003 A 
ATOM      2  C   UNL     1      55.991  40.918 123.372  1.00  0.00     0.014 A 
ATOM      3  C   UNL     1      58.315  40.230 123.453  1.00  0.00     0.014 A 
ATOM      4  C   UNL     1      56.386  42.256 123.474  1.00  0.00     0.047 A 
ATOM      5  C   UNL     1      58.705  41.569 123.553  1.00  0.00     0.047 A 
ATOM      6  C   UNL     1      57.742  42.585 123.564  1.00  0.00     0.115 A 
ENDROOT
BRANCH   1   7
ATOM      7  C   UNL     1      56.542  38.474 123.254  1.00  0.00     0.071 C 
ATOM      8  O   UNL     1      57.377  37.588 122.931  1.00  0.00    -0.545 OA
ATOM      9  O   UNL     1      55.227  38.099 123.509  1.00  0.00    -0.545 OA
ENDBRANCH   1   7
BRANCH   6  10
ATOM     10  O   UNL     1      58.120  43.922 123.664  1.00  0.00    -0.508 OA
ATOM     11  H   UNL     1      58.574  44.283 124.495  1.00  0.00     0.293 HD
ENDBRANCH   6  10
TORSDOF 2
ENDMDL
MODEL 7
REMARK VINA RESULT:    -3.353      1.452      4.627
REMARK INTER + INTRA:          -3.677
REMARK INTER:                  -3.644
REMARK INTRA:                  -0.033
REMARK UNBOUND:                -0.031
REMARK SMILES O=C([O-])c1ccc(O)cc1
REMARK SMILES IDX 4 1 5 2 10 3 6 4 9 5 7 6 2 7 1 8 3 9 8 10
REMARK H PARENT 8 11
REMARK Flexibility Score: inf
ROOT
ATOM      1  C   UNL     1      54.528  40.519 123.195  1.00  0.00    -0.003 A 
ATOM      2  C   UNL     1      55.904  40.774 123.350  1.00  0.00     0.014 A 
ATOM      3  C   UNL     1      54.102  39.199 122.958  1.00  0.00     0.014 A 
ATOM      4  C   UNL     1      56.831  39.731 123.269  1.00  0.00     0.047 A 
ATOM      5  C   UNL     1      55.033  38.159 122.877  1.00  0.00     0.047 A 
ATOM      6  C   UNL     1      56.400  38.422 123.032  1.00  0.00     0.115 A 
ENDROOT
BRANCH   1   7
ATOM      7  C   UNL     1      53.542  41.617 123.280  1.00  0.00     0.071 C 
ATOM      8  O   UNL     1      53.835  42.774 122.875  1.00  0.00    -0.545 OA
ATOM      9  O   UNL     1      52.276  41.389 123.807  1.00  0.00    -0.545 OA
ENDBRANCH   1   7
BRANCH   6  10
ATOM     10  O   UNL     1      57.335  37.393 122.954  1.00  0.00    -0.508 OA
ATOM     11  H   UNL     1      57.606  36.860 123.772  1.00  0.00     0.293 HD
ENDBRANCH   6  10
TORSDOF 2
ENDMDL
MODEL 8
REMARK VINA RESULT:    -3.220     14.968     15.356
REMARK INTER + INTRA:          -3.533
REMARK INTER:                  -3.506
REMARK INTRA:                  -0.027
REMARK UNBOUND:                -0.031
REMARK SMILES O=C([O-])c1ccc(O)cc1
REMARK SMILES IDX 4 1 5 2 10 3 6 4 9 5 7 6 2 7 1 8 3 9 8 10
REMARK H PARENT 8 11
REMARK Flexibility Score: inf
ROOT
ATOM      1  C   UNL     1      49.008  37.181 136.808  1.00  0.00    -0.003 A 
ATOM      2  C   UNL     1      49.131  36.420 135.630  1.00  0.00     0.014 A 
ATOM      3  C   UNL     1      48.222  38.347 136.788  1.00  0.00     0.014 A 
ATOM      4  C   UNL     1      48.483  36.821 134.458  1.00  0.00     0.047 A 
ATOM      5  C   UNL     1      47.576  38.745 135.614  1.00  0.00     0.047 A 
ATOM      6  C   UNL     1      47.705  37.983 134.445  1.00  0.00     0.115 A 
ENDROOT
BRANCH   1   7
ATOM      7  C   UNL     1      49.691  36.762 138.052  1.00  0.00     0.071 C 
ATOM      8  O   UNL     1      49.073  36.104 138.931  1.00  0.00    -0.545 OA
ATOM      9  O   UNL     1      51.025  37.089 138.268  1.00  0.00    -0.545 OA
ENDBRANCH   1   7
BRANCH   6  10
ATOM     10  O   UNL     1      47.064  38.369 133.271  1.00  0.00    -0.508 OA
ATOM     11  H   UNL     1      46.841  39.340 133.084  1.00  0.00     0.293 HD
ENDBRANCH   6  10
TORSDOF 2
ENDMDL
MODEL 9
REMARK VINA RESULT:    -3.195      3.437      4.356
REMARK INTER + INTRA:          -3.506
REMARK INTER:                  -3.475
REMARK INTRA:                  -0.031
REMARK UNBOUND:                -0.031
REMARK SMILES O=C([O-])c1ccc(O)cc1
REMARK SMILES IDX 4 1 5 2 10 3 6 4 9 5 7 6 2 7 1 8 3 9 8 10
REMARK H PARENT 8 11
REMARK Flexibility Score: inf
ROOT
ATOM      1  C   UNL     1      57.699  38.428 125.038  1.00  0.00    -0.003 A 
ATOM      2  C   UNL     1      57.081  37.539 125.937  1.00  0.00     0.014 A 
ATOM      3  C   UNL     1      57.190  38.540 123.731  1.00  0.00     0.014 A 
ATOM      4  C   UNL     1      55.979  36.778 125.536  1.00  0.00     0.047 A 
ATOM      5  C   UNL     1      56.088  37.776 123.334  1.00  0.00     0.047 A 
ATOM      6  C   UNL     1      55.479  36.894 124.235  1.00  0.00     0.115 A 
ENDROOT
BRANCH   1   7
ATOM      7  C   UNL     1      58.866  39.236 125.456  1.00  0.00     0.071 C 
ATOM      8  O   UNL     1      58.843  39.880 126.539  1.00  0.00    -0.545 OA
ATOM      9  O   UNL     1      60.004  39.295 124.660  1.00  0.00    -0.545 OA
ENDBRANCH   1   7
BRANCH   6  10
ATOM     10  O   UNL     1      54.381  36.130 123.849  1.00  0.00    -0.508 OA
ATOM     11  H   UNL     1      54.485  35.173 123.534  1.00  0.00     0.293 HD
ENDBRANCH   6  10
TORSDOF 2
ENDMDL
