MODEL 1
REMARK VINA RESULT:    -5.185      0.000      0.000
REMARK INTER + INTRA:          -5.185
REMARK INTER:                  -5.185
REMARK INTRA:                   0.000
REMARK UNBOUND:                 0.000
REMARK SMILES CC1=CC(=O)[C@H]2C[C@@H]1C2(C)C
REMARK SMILES IDX 1 1 2 2 3 3 4 4 5 5 6 6 7 7 8 8 9 9 10 10 11 11
REMARK H PARENT
REMARK Flexibility Score: inf
ROOT
ATOM      1  C   UNL     1      22.627 -22.271  16.039  1.00  0.00     0.040 C 
ATOM      2  C   UNL     1      22.923 -21.935  17.466  1.00  0.00    -0.066 C 
ATOM      3  C   UNL     1      23.699 -20.866  17.797  1.00  0.00     0.047 C 
ATOM      4  C   UNL     1      23.949 -20.654  19.259  1.00  0.00     0.159 C 
ATOM      5  O   UNL     1      24.681 -19.724  19.688  1.00  0.00    -0.295 OA
ATOM      6  C   UNL     1      23.253 -21.644  20.192  1.00  0.00     0.067 C 
ATOM      7  C   UNL     1      21.812 -21.732  19.643  1.00  0.00     0.021 C 
ATOM      8  C   UNL     1      22.352 -22.769  18.633  1.00  0.00     0.022 C 
ATOM      9  C   UNL     1      23.487 -23.084  19.651  1.00  0.00    -0.019 C 
ATOM     10  C   UNL     1      23.078 -24.173  20.673  1.00  0.00     0.012 C 
ATOM     11  C   UNL     1      24.895 -23.443  19.093  1.00  0.00     0.012 C 
ENDROOT
TORSDOF 0
ENDMDL
MODEL 2
REMARK VINA RESULT:    -5.114      1.850      3.000
REMARK INTER + INTRA:          -5.114
REMARK INTER:                  -5.114
REMARK INTRA:                   0.000
REMARK UNBOUND:                 0.000
REMARK SMILES CC1=CC(=O)[C@H]2C[C@@H]1C2(C)C
REMARK SMILES IDX 1 1 2 2 3 3 4 4 5 5 6 6 7 7 8 8 9 9 10 10 11 11
REMARK H PARENT
REMARK Flexibility Score: inf
ROOT
ATOM      1  C   UNL     1      24.768 -19.750  18.804  1.00  0.00     0.040 C 
ATOM      2  C   UNL     1      24.205 -21.127  18.646  1.00  0.00    -0.066 C 
ATOM      3  C   UNL     1      23.550 -21.500  17.511  1.00  0.00     0.047 C 
ATOM      4  C   UNL     1      23.005 -22.895  17.488  1.00  0.00     0.159 C 
ATOM      5  O   UNL     1      22.348 -23.343  16.512  1.00  0.00    -0.295 OA
ATOM      6  C   UNL     1      23.300 -23.735  18.730  1.00  0.00     0.067 C 
ATOM      7  C   UNL     1      24.797 -23.479  19.011  1.00  0.00     0.021 C 
ATOM      8  C   UNL     1      24.351 -22.197  19.749  1.00  0.00     0.022 C 
ATOM      9  C   UNL     1      22.975 -22.884  19.992  1.00  0.00    -0.019 C 
ATOM     10  C   UNL     1      22.959 -23.732  21.288  1.00  0.00     0.012 C 
ATOM     11  C   UNL     1      21.697 -21.997  19.975  1.00  0.00     0.012 C 
ENDROOT
TORSDOF 0
ENDMDL
MODEL 3
REMARK VINA RESULT:    -5.102      1.184      2.726
REMARK INTER + INTRA:          -5.102
REMARK INTER:                  -5.102
REMARK INTRA:                   0.000
REMARK UNBOUND:                 0.000
REMARK SMILES CC1=CC(=O)[C@H]2C[C@@H]1C2(C)C
REMARK SMILES IDX 1 1 2 2 3 3 4 4 5 5 6 6 7 7 8 8 9 9 10 10 11 11
REMARK H PARENT
REMARK Flexibility Score: inf
ROOT
ATOM      1  C   UNL     1      21.150 -21.617  20.658  1.00  0.00     0.040 C 
ATOM      2  C   UNL     1      22.428 -21.859  19.918  1.00  0.00    -0.066 C 
ATOM      3  C   UNL     1      23.367 -20.881  19.785  1.00  0.00     0.047 C 
ATOM      4  C   UNL     1      24.589 -21.238  18.995  1.00  0.00     0.159 C 
ATOM      5  O   UNL     1      25.509 -20.409  18.769  1.00  0.00    -0.295 OA
ATOM      6  C   UNL     1      24.640 -22.677  18.482  1.00  0.00     0.067 C 
ATOM      7  C   UNL     1      24.213 -23.527  19.699  1.00  0.00     0.021 C 
ATOM      8  C   UNL     1      22.754 -23.229  19.285  1.00  0.00     0.022 C 
ATOM      9  C   UNL     1      23.269 -23.020  17.832  1.00  0.00    -0.019 C 
ATOM     10  C   UNL     1      23.312 -24.342  17.025  1.00  0.00     0.012 C 
ATOM     11  C   UNL     1      22.576 -21.937  16.955  1.00  0.00     0.012 C 
ENDROOT
TORSDOF 0
ENDMDL
MODEL 4
REMARK VINA RESULT:    -5.024      1.140      3.246
REMARK INTER + INTRA:          -5.024
REMARK INTER:                  -5.024
REMARK INTRA:                   0.000
REMARK UNBOUND:                 0.000
REMARK SMILES CC1=CC(=O)[C@H]2C[C@@H]1C2(C)C
REMARK SMILES IDX 1 1 2 2 3 3 4 4 5 5 6 6 7 7 8 8 9 9 10 10 11 11
REMARK H PARENT
REMARK Flexibility Score: inf
ROOT
ATOM      1  C   UNL     1      22.353 -24.588  21.252  1.00  0.00     0.040 C 
ATOM      2  C   UNL     1      22.718 -23.312  20.561  1.00  0.00    -0.066 C 
ATOM      3  C   UNL     1      22.595 -22.108  21.185  1.00  0.00     0.047 C 
ATOM      4  C   UNL     1      22.961 -20.901  20.376  1.00  0.00     0.159 C 
ATOM      5  O   UNL     1      22.853 -19.731  20.828  1.00  0.00    -0.295 OA
ATOM      6  C   UNL     1      23.474 -21.189  18.965  1.00  0.00     0.067 C 
ATOM      7  C   UNL     1      24.482 -22.344  19.159  1.00  0.00     0.021 C 
ATOM      8  C   UNL     1      23.266 -23.296  19.118  1.00  0.00     0.022 C 
ATOM      9  C   UNL     1      22.517 -22.212  18.290  1.00  0.00    -0.019 C 
ATOM     10  C   UNL     1      22.776 -22.348  16.768  1.00  0.00     0.012 C 
ATOM     11  C   UNL     1      20.985 -22.047  18.510  1.00  0.00     0.012 C 
ENDROOT
TORSDOF 0
ENDMDL
MODEL 5
REMARK VINA RESULT:    -5.017      2.046      3.623
REMARK INTER + INTRA:          -5.017
REMARK INTER:                  -5.017
REMARK INTRA:                   0.000
REMARK UNBOUND:                 0.000
REMARK SMILES CC1=CC(=O)[C@H]2C[C@@H]1C2(C)C
REMARK SMILES IDX 1 1 2 2 3 3 4 4 5 5 6 6 7 7 8 8 9 9 10 10 11 11
REMARK H PARENT
REMARK Flexibility Score: inf
ROOT
ATOM      1  C   UNL     1      22.985 -23.538  21.718  1.00  0.00     0.040 C 
ATOM      2  C   UNL     1      23.118 -23.290  20.248  1.00  0.00    -0.066 C 
ATOM      3  C   UNL     1      23.389 -24.303  19.380  1.00  0.00     0.047 C 
ATOM      4  C   UNL     1      23.531 -23.922  17.938  1.00  0.00     0.159 C 
ATOM      5  O   UNL     1      23.818 -24.762  17.045  1.00  0.00    -0.295 OA
ATOM      6  C   UNL     1      23.302 -22.443  17.627  1.00  0.00     0.067 C 
ATOM      7  C   UNL     1      22.023 -22.085  18.415  1.00  0.00     0.021 C 
ATOM      8  C   UNL     1      22.940 -21.882  19.642  1.00  0.00     0.022 C 
ATOM      9  C   UNL     1      24.105 -21.591  18.651  1.00  0.00    -0.019 C 
ATOM     10  C   UNL     1      24.179 -20.097  18.248  1.00  0.00     0.012 C 
ATOM     11  C   UNL     1      25.536 -22.062  19.042  1.00  0.00     0.012 C 
ENDROOT
TORSDOF 0
ENDMDL
MODEL 6
REMARK VINA RESULT:    -4.996      1.857      3.082
REMARK INTER + INTRA:          -4.996
REMARK INTER:                  -4.996
REMARK INTRA:                   0.000
REMARK UNBOUND:                 0.000
REMARK SMILES CC1=CC(=O)[C@H]2C[C@@H]1C2(C)C
REMARK SMILES IDX 1 1 2 2 3 3 4 4 5 5 6 6 7 7 8 8 9 9 10 10 11 11
REMARK H PARENT
REMARK Flexibility Score: inf
ROOT
ATOM      1  C   UNL     1      25.162 -24.541  19.000  1.00  0.00     0.040 C 
ATOM      2  C   UNL     1      24.057 -23.549  18.811  1.00  0.00    -0.066 C 
ATOM      3  C   UNL     1      23.357 -23.480  17.645  1.00  0.00     0.047 C 
ATOM      4  C   UNL     1      22.297 -22.423  17.569  1.00  0.00     0.159 C 
ATOM      5  O   UNL     1      21.609 -22.235  16.532  1.00  0.00    -0.295 OA
ATOM      6  C   UNL     1      22.110 -21.591  18.837  1.00  0.00     0.067 C 
ATOM      7  C   UNL     1      22.102 -22.635  19.976  1.00  0.00     0.021 C 
ATOM      8  C   UNL     1      23.645 -22.569  19.930  1.00  0.00     0.022 C 
ATOM      9  C   UNL     1      23.510 -21.135  19.341  1.00  0.00    -0.019 C 
ATOM     10  C   UNL     1      23.416 -20.050  20.443  1.00  0.00     0.012 C 
ATOM     11  C   UNL     1      24.558 -20.671  18.289  1.00  0.00     0.012 C 
ENDROOT
TORSDOF 0
ENDMDL
MODEL 7
REMARK VINA RESULT:    -4.995      1.778      2.764
REMARK INTER + INTRA:          -4.995
REMARK INTER:                  -4.995
REMARK INTRA:                   0.000
REMARK UNBOUND:                 0.000
REMARK SMILES CC1=CC(=O)[C@H]2C[C@@H]1C2(C)C
REMARK SMILES IDX 1 1 2 2 3 3 4 4 5 5 6 6 7 7 8 8 9 9 10 10 11 11
REMARK H PARENT
REMARK Flexibility Score: inf
ROOT
ATOM      1  C   UNL     1      21.655 -22.377  16.369  1.00  0.00     0.040 C 
ATOM      2  C   UNL     1      22.691 -22.387  17.449  1.00  0.00    -0.066 C 
ATOM      3  C   UNL     1      23.374 -23.522  17.766  1.00  0.00     0.047 C 
ATOM      4  C   UNL     1      24.362 -23.411  18.886  1.00  0.00     0.159 C 
ATOM      5  O   UNL     1      25.026 -24.398  19.297  1.00  0.00    -0.295 OA
ATOM      6  C   UNL     1      24.507 -22.017  19.495  1.00  0.00     0.067 C 
ATOM      7  C   UNL     1      24.594 -21.078  18.272  1.00  0.00     0.021 C 
ATOM      8  C   UNL     1      23.049 -21.114  18.244  1.00  0.00     0.022 C 
ATOM      9  C   UNL     1      23.086 -21.443  19.764  1.00  0.00    -0.019 C 
ATOM     10  C   UNL     1      23.120 -20.169  20.644  1.00  0.00     0.012 C 
ATOM     11  C   UNL     1      22.000 -22.400  20.335  1.00  0.00     0.012 C 
ENDROOT
TORSDOF 0
ENDMDL
MODEL 8
REMARK VINA RESULT:    -4.944      1.414      3.285
REMARK INTER + INTRA:          -4.944
REMARK INTER:                  -4.944
REMARK INTRA:                   0.000
REMARK UNBOUND:                 0.000
REMARK SMILES CC1=CC(=O)[C@H]2C[C@@H]1C2(C)C
REMARK SMILES IDX 1 1 2 2 3 3 4 4 5 5 6 6 7 7 8 8 9 9 10 10 11 11
REMARK H PARENT
REMARK Flexibility Score: inf
ROOT
ATOM      1  C   UNL     1      24.477 -24.622  19.066  1.00  0.00     0.040 C 
ATOM      2  C   UNL     1      24.000 -23.208  19.181  1.00  0.00    -0.066 C 
ATOM      3  C   UNL     1      23.076 -22.844  20.113  1.00  0.00     0.047 C 
ATOM      4  C   UNL     1      22.657 -21.406  20.106  1.00  0.00     0.159 C 
ATOM      5  O   UNL     1      21.783 -20.957  20.892  1.00  0.00    -0.295 OA
ATOM      6  C   UNL     1      23.364 -20.523  19.077  1.00  0.00     0.067 C 
ATOM      7  C   UNL     1      24.854 -20.909  19.209  1.00  0.00     0.021 C 
ATOM      8  C   UNL     1      24.542 -22.091  18.264  1.00  0.00     0.022 C 
ATOM      9  C   UNL     1      23.353 -21.256  17.705  1.00  0.00    -0.019 C 
ATOM     10  C   UNL     1      23.778 -20.330  16.538  1.00  0.00     0.012 C 
ATOM     11  C   UNL     1      22.060 -22.011  17.281  1.00  0.00     0.012 C 
ENDROOT
TORSDOF 0
ENDMDL
MODEL 9
REMARK VINA RESULT:    -4.942      1.654      2.657
REMARK INTER + INTRA:          -4.942
REMARK INTER:                  -4.942
REMARK INTRA:                   0.000
REMARK UNBOUND:                 0.000
REMARK SMILES CC1=CC(=O)[C@H]2C[C@@H]1C2(C)C
REMARK SMILES IDX 1 1 2 2 3 3 4 4 5 5 6 6 7 7 8 8 9 9 10 10 11 11
REMARK H PARENT
REMARK Flexibility Score: inf
ROOT
ATOM      1  C   UNL     1      25.441 -20.032  18.623  1.00  0.00     0.040 C 
ATOM      2  C   UNL     1      24.231 -20.905  18.730  1.00  0.00    -0.066 C 
ATOM      3  C   UNL     1      23.396 -20.831  19.804  1.00  0.00     0.047 C 
ATOM      4  C   UNL     1      22.237 -21.780  19.809  1.00  0.00     0.159 C 
ATOM      5  O   UNL     1      21.418 -21.834  20.763  1.00  0.00    -0.295 OA
ATOM      6  C   UNL     1      22.119 -22.677  18.578  1.00  0.00     0.067 C 
ATOM      7  C   UNL     1      22.346 -21.717  17.389  1.00  0.00     0.021 C 
ATOM      8  C   UNL     1      23.859 -21.918  17.627  1.00  0.00     0.022 C 
ATOM      9  C   UNL     1      23.517 -23.291  18.276  1.00  0.00    -0.019 C 
ATOM     10  C   UNL     1      23.447 -24.436  17.235  1.00  0.00     0.012 C 
ATOM     11  C   UNL     1      24.385 -23.774  19.474  1.00  0.00     0.012 C 
ENDROOT
TORSDOF 0
ENDMDL
