MODEL 1
REMARK VINA RESULT:    -3.294      0.000      0.000
REMARK INTER + INTRA:         -11.896
REMARK INTER:                  -7.531
REMARK INTRA:                  -4.365
REMARK UNBOUND:                -4.365
REMARK SMILES CCCCCCCCCCCCCCCCCCCCCCCC(=O)[O-]
REMARK SMILES IDX 13 1 14 2 15 3 16 4 17 5 18 6 19 7 20 8 21 9 22 10 23 11
REMARK SMILES IDX 24 12 25 13 26 14 12 15 11 16 10 17 9 18 8 19 7 20 6 21 5 22
REMARK SMILES IDX 4 23 3 24 2 25 1 26
REMARK H PARENT
REMARK Flexibility Score: inf
ROOT
ATOM      1  C   UNL     1     -96.876 149.930 240.747  1.00  0.00     0.000 C 
ENDROOT
BRANCH   1   2
ATOM      2  C   UNL     1     -97.404 148.605 241.316  1.00  0.00     0.000 C 
BRANCH   2   3
ATOM      3  C   UNL     1     -96.531 147.426 240.859  1.00  0.00     0.000 C 
BRANCH   3   4
ATOM      4  C   UNL     1     -95.125 147.863 240.418  1.00  0.00     0.000 C 
BRANCH   4   5
ATOM      5  C   UNL     1     -94.504 146.901 239.390  1.00  0.00     0.000 C 
BRANCH   5   6
ATOM      6  C   UNL     1     -93.772 147.639 238.257  1.00  0.00     0.000 C 
BRANCH   6   7
ATOM      7  C   UNL     1     -94.217 149.103 238.117  1.00  0.00     0.000 C 
BRANCH   7   8
ATOM      8  C   UNL     1     -95.114 149.286 236.884  1.00  0.00     0.000 C 
BRANCH   8   9
ATOM      9  C   UNL     1     -96.612 149.321 237.230  1.00  0.00     0.000 C 
BRANCH   9  10
ATOM     10  C   UNL     1     -97.431 148.114 236.729  1.00  0.00     0.006 C 
BRANCH  10  11
ATOM     11  C   UNL     1     -98.428 147.558 237.762  1.00  0.00     0.053 C 
BRANCH  11  12
ATOM     12  C   UNL     1     -99.810 147.410 237.201  1.00  0.00     0.041 C 
ATOM     13  O   UNL     1    -100.816 147.588 237.938  1.00  0.00    -0.550 OA
ATOM     14  O   UNL     1     -99.990 147.118 235.855  1.00  0.00    -0.550 OA
ENDBRANCH  11  12
ENDBRANCH  10  11
ENDBRANCH   9  10
ENDBRANCH   8   9
ENDBRANCH   7   8
ENDBRANCH   6   7
ENDBRANCH   5   6
ENDBRANCH   4   5
ENDBRANCH   3   4
ENDBRANCH   2   3
ENDBRANCH   1   2
BRANCH   1  15
ATOM     15  C   UNL     1     -98.002 150.892 240.326  1.00  0.00     0.000 C 
BRANCH  15  16
ATOM     16  C   UNL     1     -99.387 150.238 240.145  1.00  0.00     0.000 C 
BRANCH  16  17
ATOM     17  C   UNL     1    -100.284 150.898 239.082  1.00  0.00     0.000 C 
BRANCH  17  18
ATOM     18  C   UNL     1     -99.479 151.509 237.923  1.00  0.00    -0.000 C 
BRANCH  18  19
ATOM     19  C   UNL     1     -99.939 150.998 236.548  1.00  0.00    -0.000 C 
BRANCH  19  20
ATOM     20  C   UNL     1     -99.135 151.615 235.391  1.00  0.00    -0.000 C 
BRANCH  20  21
ATOM     21  C   UNL     1     -99.112 153.151 235.439  1.00  0.00    -0.000 C 
BRANCH  21  22
ATOM     22  C   UNL     1     -98.397 153.774 234.231  1.00  0.00    -0.000 C 
BRANCH  22  23
ATOM     23  C   UNL     1     -97.913 152.687 233.261  1.00  0.00    -0.000 C 
BRANCH  23  24
ATOM     24  C   UNL     1     -96.383 152.668 233.106  1.00  0.00    -0.000 C 
BRANCH  24  25
ATOM     25  C   UNL     1     -95.705 151.662 234.048  1.00  0.00    -0.003 C 
ATOM     26  C   UNL     1     -95.685 150.264 233.435  1.00  0.00     0.004 C 
ENDBRANCH  24  25
ENDBRANCH  23  24
ENDBRANCH  22  23
ENDBRANCH  21  22
ENDBRANCH  20  21
ENDBRANCH  19  20
ENDBRANCH  18  19
ENDBRANCH  17  18
ENDBRANCH  16  17
ENDBRANCH  15  16
ENDBRANCH   1  15
TORSDOF 22
ENDMDL
MODEL 2
REMARK VINA RESULT:    -3.241      2.210      6.076
REMARK INTER + INTRA:         -11.775
REMARK INTER:                  -7.323
REMARK INTRA:                  -4.452
REMARK UNBOUND:                -4.365
REMARK SMILES CCCCCCCCCCCCCCCCCCCCCCCC(=O)[O-]
REMARK SMILES IDX 13 1 14 2 15 3 16 4 17 5 18 6 19 7 20 8 21 9 22 10 23 11
REMARK SMILES IDX 24 12 25 13 26 14 12 15 11 16 10 17 9 18 8 19 7 20 6 21 5 22
REMARK SMILES IDX 4 23 3 24 2 25 1 26
REMARK H PARENT
REMARK Flexibility Score: inf
ROOT
ATOM      1  C   UNL     1     -97.558 149.836 236.231  1.00  0.00     0.000 C 
ENDROOT
BRANCH   1   2
ATOM      2  C   UNL     1     -97.431 149.226 234.828  1.00  0.00     0.000 C 
BRANCH   2   3
ATOM      3  C   UNL     1     -96.290 149.891 234.042  1.00  0.00     0.000 C 
BRANCH   3   4
ATOM      4  C   UNL     1     -95.725 151.132 234.751  1.00  0.00     0.000 C 
BRANCH   4   5
ATOM      5  C   UNL     1     -96.056 152.438 234.007  1.00  0.00     0.000 C 
BRANCH   5   6
ATOM      6  C   UNL     1     -96.133 152.246 232.484  1.00  0.00     0.000 C 
BRANCH   6   7
ATOM      7  C   UNL     1     -97.350 152.943 231.857  1.00  0.00     0.000 C 
BRANCH   7   8
ATOM      8  C   UNL     1     -98.620 152.100 232.046  1.00  0.00     0.000 C 
BRANCH   8   9
ATOM      9  C   UNL     1     -99.629 152.743 233.012  1.00  0.00     0.000 C 
BRANCH   9  10
ATOM     10  C   UNL     1     -99.699 152.102 234.412  1.00  0.00     0.006 C 
BRANCH  10  11
ATOM     11  C   UNL     1     -99.495 153.096 235.570  1.00  0.00     0.053 C 
BRANCH  11  12
ATOM     12  C   UNL     1    -100.791 153.534 236.182  1.00  0.00     0.041 C 
ATOM     13  O   UNL     1    -101.629 152.679 236.576  1.00  0.00    -0.550 OA
ATOM     14  O   UNL     1    -101.058 154.886 236.359  1.00  0.00    -0.550 OA
ENDBRANCH  11  12
ENDBRANCH  10  11
ENDBRANCH   9  10
ENDBRANCH   8   9
ENDBRANCH   7   8
ENDBRANCH   6   7
ENDBRANCH   5   6
ENDBRANCH   4   5
ENDBRANCH   3   4
ENDBRANCH   2   3
ENDBRANCH   1   2
BRANCH   1  15
ATOM     15  C   UNL     1     -98.568 149.089 237.120  1.00  0.00     0.000 C 
BRANCH  15  16
ATOM     16  C   UNL     1     -99.649 149.977 237.771  1.00  0.00     0.000 C 
BRANCH  16  17
ATOM     17  C   UNL     1     -99.147 150.888 238.904  1.00  0.00     0.000 C 
BRANCH  17  18
ATOM     18  C   UNL     1     -99.570 150.391 240.297  1.00  0.00    -0.000 C 
BRANCH  18  19
ATOM     19  C   UNL     1     -98.427 150.463 241.323  1.00  0.00    -0.000 C 
BRANCH  19  20
ATOM     20  C   UNL     1     -97.054 150.159 240.698  1.00  0.00    -0.000 C 
BRANCH  20  21
ATOM     21  C   UNL     1     -96.711 148.660 240.728  1.00  0.00    -0.000 C 
BRANCH  21  22
ATOM     22  C   UNL     1     -95.896 148.213 239.505  1.00  0.00    -0.000 C 
BRANCH  22  23
ATOM     23  C   UNL     1     -95.087 149.383 238.928  1.00  0.00    -0.000 C 
BRANCH  23  24
ATOM     24  C   UNL     1     -94.257 148.982 237.697  1.00  0.00    -0.000 C 
BRANCH  24  25
ATOM     25  C   UNL     1     -94.685 147.628 237.111  1.00  0.00    -0.003 C 
ATOM     26  C   UNL     1     -94.044 147.392 235.747  1.00  0.00     0.004 C 
ENDBRANCH  24  25
ENDBRANCH  23  24
ENDBRANCH  22  23
ENDBRANCH  21  22
ENDBRANCH  20  21
ENDBRANCH  19  20
ENDBRANCH  18  19
ENDBRANCH  17  18
ENDBRANCH  16  17
ENDBRANCH  15  16
ENDBRANCH   1  15
TORSDOF 22
ENDMDL
MODEL 3
REMARK VINA RESULT:    -3.229      2.457      6.464
REMARK INTER + INTRA:         -11.747
REMARK INTER:                  -7.855
REMARK INTRA:                  -3.893
REMARK UNBOUND:                -4.365
REMARK SMILES CCCCCCCCCCCCCCCCCCCCCCCC(=O)[O-]
REMARK SMILES IDX 13 1 14 2 15 3 16 4 17 5 18 6 19 7 20 8 21 9 22 10 23 11
REMARK SMILES IDX 24 12 25 13 26 14 12 15 11 16 10 17 9 18 8 19 7 20 6 21 5 22
REMARK SMILES IDX 4 23 3 24 2 25 1 26
REMARK H PARENT
REMARK Flexibility Score: inf
ROOT
ATOM      1  C   UNL     1     -95.985 148.186 236.809  1.00  0.00     0.000 C 
ENDROOT
BRANCH   1   2
ATOM      2  C   UNL     1     -97.439 148.633 236.598  1.00  0.00     0.000 C 
BRANCH   2   3
ATOM      3  C   UNL     1     -97.495 149.992 235.882  1.00  0.00     0.000 C 
BRANCH   3   4
ATOM      4  C   UNL     1     -98.187 149.913 234.511  1.00  0.00     0.000 C 
BRANCH   4   5
ATOM      5  C   UNL     1     -97.188 149.982 233.342  1.00  0.00     0.000 C 
BRANCH   5   6
ATOM      6  C   UNL     1     -95.836 150.587 233.756  1.00  0.00     0.000 C 
BRANCH   6   7
ATOM      7  C   UNL     1     -95.727 152.083 233.422  1.00  0.00     0.000 C 
BRANCH   7   8
ATOM      8  C   UNL     1     -96.641 152.448 232.242  1.00  0.00     0.000 C 
BRANCH   8   9
ATOM      9  C   UNL     1     -97.665 153.541 232.591  1.00  0.00     0.000 C 
BRANCH   9  10
ATOM     10  C   UNL     1     -97.658 154.003 234.062  1.00  0.00     0.006 C 
BRANCH  10  11
ATOM     11  C   UNL     1     -98.910 153.590 234.857  1.00  0.00     0.053 C 
BRANCH  11  12
ATOM     12  C   UNL     1     -99.851 154.736 235.078  1.00  0.00     0.041 C 
ATOM     13  O   UNL     1     -99.711 155.806 234.429  1.00  0.00    -0.550 OA
ATOM     14  O   UNL     1    -100.909 154.609 235.970  1.00  0.00    -0.550 OA
ENDBRANCH  11  12
ENDBRANCH  10  11
ENDBRANCH   9  10
ENDBRANCH   8   9
ENDBRANCH   7   8
ENDBRANCH   6   7
ENDBRANCH   5   6
ENDBRANCH   4   5
ENDBRANCH   3   4
ENDBRANCH   2   3
ENDBRANCH   1   2
BRANCH   1  15
ATOM     15  C   UNL     1     -95.052 149.348 237.198  1.00  0.00     0.000 C 
BRANCH  15  16
ATOM     16  C   UNL     1     -94.155 149.083 238.425  1.00  0.00     0.000 C 
BRANCH  16  17
ATOM     17  C   UNL     1     -94.893 149.043 239.774  1.00  0.00     0.000 C 
BRANCH  17  18
ATOM     18  C   UNL     1     -94.994 147.622 240.354  1.00  0.00    -0.000 C 
BRANCH  18  19
ATOM     19  C   UNL     1     -96.361 147.341 240.998  1.00  0.00    -0.000 C 
BRANCH  19  20
ATOM     20  C   UNL     1     -97.464 148.275 240.469  1.00  0.00    -0.000 C 
BRANCH  20  21
ATOM     21  C   UNL     1     -97.924 149.300 241.519  1.00  0.00    -0.000 C 
BRANCH  21  22
ATOM     22  C   UNL     1     -98.056 150.719 240.945  1.00  0.00    -0.000 C 
BRANCH  22  23
ATOM     23  C   UNL     1     -98.314 150.677 239.432  1.00  0.00    -0.000 C 
BRANCH  23  24
ATOM     24  C   UNL     1     -99.806 150.796 239.080  1.00  0.00    -0.000 C 
BRANCH  24  25
ATOM     25  C   UNL     1    -100.064 151.776 237.924  1.00  0.00    -0.003 C 
ATOM     26  C   UNL     1    -100.898 151.122 236.827  1.00  0.00     0.004 C 
ENDBRANCH  24  25
ENDBRANCH  23  24
ENDBRANCH  22  23
ENDBRANCH  21  22
ENDBRANCH  20  21
ENDBRANCH  19  20
ENDBRANCH  18  19
ENDBRANCH  17  18
ENDBRANCH  16  17
ENDBRANCH  15  16
ENDBRANCH   1  15
TORSDOF 22
ENDMDL
MODEL 4
REMARK VINA RESULT:    -3.202      1.759      3.975
REMARK INTER + INTRA:         -11.685
REMARK INTER:                  -7.494
REMARK INTRA:                  -4.191
REMARK UNBOUND:                -4.365
REMARK SMILES CCCCCCCCCCCCCCCCCCCCCCCC(=O)[O-]
REMARK SMILES IDX 13 1 14 2 15 3 16 4 17 5 18 6 19 7 20 8 21 9 22 10 23 11
REMARK SMILES IDX 24 12 25 13 26 14 12 15 11 16 10 17 9 18 8 19 7 20 6 21 5 22
REMARK SMILES IDX 4 23 3 24 2 25 1 26
REMARK H PARENT
REMARK Flexibility Score: inf
ROOT
ATOM      1  C   UNL     1     -94.688 147.996 235.867  1.00  0.00     0.000 C 
ENDROOT
BRANCH   1   2
ATOM      2  C   UNL     1     -93.662 147.256 236.737  1.00  0.00     0.000 C 
BRANCH   2   3
ATOM      3  C   UNL     1     -93.620 147.845 238.156  1.00  0.00     0.000 C 
BRANCH   3   4
ATOM      4  C   UNL     1     -94.474 147.049 239.156  1.00  0.00     0.000 C 
BRANCH   4   5
ATOM      5  C   UNL     1     -95.138 147.950 240.212  1.00  0.00     0.000 C 
BRANCH   5   6
ATOM      6  C   UNL     1     -94.811 149.439 240.008  1.00  0.00     0.000 C 
BRANCH   6   7
ATOM      7  C   UNL     1     -96.034 150.348 240.201  1.00  0.00     0.000 C 
BRANCH   7   8
ATOM      8  C   UNL     1     -97.190 149.578 240.856  1.00  0.00     0.000 C 
BRANCH   8   9
ATOM      9  C   UNL     1     -98.545 150.292 240.714  1.00  0.00     0.000 C 
BRANCH   9  10
ATOM     10  C   UNL     1     -98.796 150.959 239.348  1.00  0.00     0.006 C 
BRANCH  10  11
ATOM     11  C   UNL     1    -100.040 150.432 238.610  1.00  0.00     0.053 C 
BRANCH  11  12
ATOM     12  C   UNL     1    -101.309 151.050 239.114  1.00  0.00     0.041 C 
ATOM     13  O   UNL     1    -101.937 150.520 240.070  1.00  0.00    -0.550 OA
ATOM     14  O   UNL     1    -101.779 152.233 238.559  1.00  0.00    -0.550 OA
ENDBRANCH  11  12
ENDBRANCH  10  11
ENDBRANCH   9  10
ENDBRANCH   8   9
ENDBRANCH   7   8
ENDBRANCH   6   7
ENDBRANCH   5   6
ENDBRANCH   4   5
ENDBRANCH   3   4
ENDBRANCH   2   3
ENDBRANCH   1   2
BRANCH   1  15
ATOM     15  C   UNL     1     -95.054 149.385 236.423  1.00  0.00     0.000 C 
BRANCH  15  16
ATOM     16  C   UNL     1     -96.548 149.585 236.748  1.00  0.00     0.000 C 
BRANCH  16  17
ATOM     17  C   UNL     1     -97.396 148.301 236.731  1.00  0.00     0.000 C 
BRANCH  17  18
ATOM     18  C   UNL     1     -98.623 148.412 235.810  1.00  0.00    -0.000 C 
BRANCH  18  19
ATOM     19  C   UNL     1     -98.531 149.605 234.844  1.00  0.00    -0.000 C 
BRANCH  19  20
ATOM     20  C   UNL     1     -98.785 149.198 233.382  1.00  0.00    -0.000 C 
BRANCH  20  21
ATOM     21  C   UNL     1     -97.712 149.741 232.423  1.00  0.00    -0.000 C 
BRANCH  21  22
ATOM     22  C   UNL     1     -96.395 150.083 233.136  1.00  0.00    -0.000 C 
BRANCH  22  23
ATOM     23  C   UNL     1     -96.016 151.554 232.911  1.00  0.00    -0.000 C 
BRANCH  23  24
ATOM     24  C   UNL     1     -96.005 152.370 234.214  1.00  0.00    -0.000 C 
BRANCH  24  25
ATOM     25  C   UNL     1     -96.968 153.567 234.170  1.00  0.00    -0.003 C 
ATOM     26  C   UNL     1     -98.371 153.159 234.606  1.00  0.00     0.004 C 
ENDBRANCH  24  25
ENDBRANCH  23  24
ENDBRANCH  22  23
ENDBRANCH  21  22
ENDBRANCH  20  21
ENDBRANCH  19  20
ENDBRANCH  18  19
ENDBRANCH  17  18
ENDBRANCH  16  17
ENDBRANCH  15  16
ENDBRANCH   1  15
TORSDOF 22
ENDMDL
MODEL 5
REMARK VINA RESULT:    -3.169      2.652      4.405
REMARK INTER + INTRA:         -11.609
REMARK INTER:                  -8.073
REMARK INTRA:                  -3.536
REMARK UNBOUND:                -4.365
REMARK SMILES CCCCCCCCCCCCCCCCCCCCCCCC(=O)[O-]
REMARK SMILES IDX 13 1 14 2 15 3 16 4 17 5 18 6 19 7 20 8 21 9 22 10 23 11
REMARK SMILES IDX 24 12 25 13 26 14 12 15 11 16 10 17 9 18 8 19 7 20 6 21 5 22
REMARK SMILES IDX 4 23 3 24 2 25 1 26
REMARK H PARENT
REMARK Flexibility Score: inf
ROOT
ATOM      1  C   UNL     1     -96.819 149.246 235.177  1.00  0.00     0.000 C 
ENDROOT
BRANCH   1   2
ATOM      2  C   UNL     1     -95.738 149.913 236.040  1.00  0.00     0.000 C 
BRANCH   2   3
ATOM      3  C   UNL     1     -94.821 148.859 236.680  1.00  0.00     0.000 C 
BRANCH   3   4
ATOM      4  C   UNL     1     -94.675 149.041 238.199  1.00  0.00     0.000 C 
BRANCH   4   5
ATOM      5  C   UNL     1     -95.632 148.137 238.996  1.00  0.00     0.000 C 
BRANCH   5   6
ATOM      6  C   UNL     1     -96.035 148.750 240.347  1.00  0.00     0.000 C 
BRANCH   6   7
ATOM      7  C   UNL     1     -96.179 150.278 240.288  1.00  0.00     0.000 C 
BRANCH   7   8
ATOM      8  C   UNL     1     -97.608 150.707 240.651  1.00  0.00     0.000 C 
BRANCH   8   9
ATOM      9  C   UNL     1     -98.572 149.519 240.807  1.00  0.00     0.000 C 
BRANCH   9  10
ATOM     10  C   UNL     1     -99.463 149.556 242.064  1.00  0.00     0.006 C 
BRANCH  10  11
ATOM     11  C   UNL     1     -98.726 149.990 243.345  1.00  0.00     0.053 C 
BRANCH  11  12
ATOM     12  C   UNL     1     -99.435 151.096 244.066  1.00  0.00     0.041 C 
ATOM     13  O   UNL     1     -98.781 152.054 244.558  1.00  0.00    -0.550 OA
ATOM     14  O   UNL     1    -100.821 151.093 244.160  1.00  0.00    -0.550 OA
ENDBRANCH  11  12
ENDBRANCH  10  11
ENDBRANCH   9  10
ENDBRANCH   8   9
ENDBRANCH   7   8
ENDBRANCH   6   7
ENDBRANCH   5   6
ENDBRANCH   4   5
ENDBRANCH   3   4
ENDBRANCH   2   3
ENDBRANCH   1   2
BRANCH   1  15
ATOM     15  C   UNL     1     -98.094 148.907 235.971  1.00  0.00     0.000 C 
BRANCH  15  16
ATOM     16  C   UNL     1     -98.367 149.814 237.188  1.00  0.00     0.000 C 
BRANCH  16  17
ATOM     17  C   UNL     1     -99.769 150.447 237.227  1.00  0.00     0.000 C 
BRANCH  17  18
ATOM     18  C   UNL     1     -99.765 151.860 237.836  1.00  0.00    -0.000 C 
BRANCH  18  19
ATOM     19  C   UNL     1    -100.655 152.842 237.056  1.00  0.00    -0.000 C 
BRANCH  19  20
ATOM     20  C   UNL     1    -100.781 152.470 235.569  1.00  0.00    -0.000 C 
BRANCH  20  21
ATOM     21  C   UNL     1     -99.817 153.269 234.676  1.00  0.00    -0.000 C 
BRANCH  21  22
ATOM     22  C   UNL     1     -98.563 152.470 234.291  1.00  0.00    -0.000 C 
BRANCH  22  23
ATOM     23  C   UNL     1     -97.343 153.394 234.166  1.00  0.00    -0.000 C 
BRANCH  23  24
ATOM     24  C   UNL     1     -96.070 152.642 233.741  1.00  0.00    -0.000 C 
BRANCH  24  25
ATOM     25  C   UNL     1     -96.292 151.752 232.509  1.00  0.00    -0.003 C 
ATOM     26  C   UNL     1     -96.360 152.587 231.234  1.00  0.00     0.004 C 
ENDBRANCH  24  25
ENDBRANCH  23  24
ENDBRANCH  22  23
ENDBRANCH  21  22
ENDBRANCH  20  21
ENDBRANCH  19  20
ENDBRANCH  18  19
ENDBRANCH  17  18
ENDBRANCH  16  17
ENDBRANCH  15  16
ENDBRANCH   1  15
TORSDOF 22
ENDMDL
MODEL 6
REMARK VINA RESULT:    -3.166      2.882      5.676
REMARK INTER + INTRA:         -11.603
REMARK INTER:                  -8.072
REMARK INTRA:                  -3.531
REMARK UNBOUND:                -4.365
REMARK SMILES CCCCCCCCCCCCCCCCCCCCCCCC(=O)[O-]
REMARK SMILES IDX 13 1 14 2 15 3 16 4 17 5 18 6 19 7 20 8 21 9 22 10 23 11
REMARK SMILES IDX 24 12 25 13 26 14 12 15 11 16 10 17 9 18 8 19 7 20 6 21 5 22
REMARK SMILES IDX 4 23 3 24 2 25 1 26
REMARK H PARENT
REMARK Flexibility Score: inf
ROOT
ATOM      1  C   UNL     1     -95.024 149.502 237.127  1.00  0.00     0.000 C 
ENDROOT
BRANCH   1   2
ATOM      2  C   UNL     1     -94.158 148.756 238.153  1.00  0.00     0.000 C 
BRANCH   2   3
ATOM      3  C   UNL     1     -94.542 149.156 239.586  1.00  0.00     0.000 C 
BRANCH   3   4
ATOM      4  C   UNL     1     -95.497 148.151 240.249  1.00  0.00     0.000 C 
BRANCH   4   5
ATOM      5  C   UNL     1     -96.779 148.817 240.780  1.00  0.00     0.000 C 
BRANCH   5   6
ATOM      6  C   UNL     1     -96.912 150.282 240.330  1.00  0.00     0.000 C 
BRANCH   6   7
ATOM      7  C   UNL     1     -98.287 150.594 239.720  1.00  0.00     0.000 C 
BRANCH   7   8
ATOM      8  C   UNL     1     -99.361 149.649 240.281  1.00  0.00     0.000 C 
BRANCH   8   9
ATOM      9  C   UNL     1    -100.195 150.286 241.405  1.00  0.00     0.000 C 
BRANCH   9  10
ATOM     10  C   UNL     1     -99.854 149.805 242.829  1.00  0.00     0.006 C 
BRANCH  10  11
ATOM     11  C   UNL     1     -98.710 150.587 243.500  1.00  0.00     0.053 C 
BRANCH  11  12
ATOM     12  C   UNL     1     -99.207 151.560 244.526  1.00  0.00     0.041 C 
ATOM     13  O   UNL     1    -100.427 151.872 244.567  1.00  0.00    -0.550 OA
ATOM     14  O   UNL     1     -98.332 152.090 245.467  1.00  0.00    -0.550 OA
ENDBRANCH  11  12
ENDBRANCH  10  11
ENDBRANCH   9  10
ENDBRANCH   8   9
ENDBRANCH   7   8
ENDBRANCH   6   7
ENDBRANCH   5   6
ENDBRANCH   4   5
ENDBRANCH   3   4
ENDBRANCH   2   3
ENDBRANCH   1   2
BRANCH   1  15
ATOM     15  C   UNL     1     -96.197 148.653 236.604  1.00  0.00     0.000 C 
BRANCH  15  16
ATOM     16  C   UNL     1     -96.015 148.095 235.177  1.00  0.00     0.000 C 
BRANCH  16  17
ATOM     17  C   UNL     1     -94.635 148.355 234.548  1.00  0.00     0.000 C 
BRANCH  17  18
ATOM     18  C   UNL     1     -94.730 148.999 233.155  1.00  0.00    -0.000 C 
BRANCH  18  19
ATOM     19  C   UNL     1     -95.934 149.945 233.021  1.00  0.00    -0.000 C 
BRANCH  19  20
ATOM     20  C   UNL     1     -95.626 151.365 233.528  1.00  0.00    -0.000 C 
BRANCH  20  21
ATOM     21  C   UNL     1     -96.766 151.950 234.377  1.00  0.00    -0.000 C 
BRANCH  21  22
ATOM     22  C   UNL     1     -98.037 151.089 234.341  1.00  0.00    -0.000 C 
BRANCH  22  23
ATOM     23  C   UNL     1     -98.774 151.143 235.687  1.00  0.00    -0.000 C 
BRANCH  23  24
ATOM     24  C   UNL     1     -99.257 152.559 236.043  1.00  0.00    -0.000 C 
BRANCH  24  25
ATOM     25  C   UNL     1    -100.282 152.563 237.188  1.00  0.00    -0.003 C 
ATOM     26  C   UNL     1    -101.016 151.228 237.272  1.00  0.00     0.004 C 
ENDBRANCH  24  25
ENDBRANCH  23  24
ENDBRANCH  22  23
ENDBRANCH  21  22
ENDBRANCH  20  21
ENDBRANCH  19  20
ENDBRANCH  18  19
ENDBRANCH  17  18
ENDBRANCH  16  17
ENDBRANCH  15  16
ENDBRANCH   1  15
TORSDOF 22
ENDMDL
MODEL 7
REMARK VINA RESULT:    -3.159      1.610      3.641
REMARK INTER + INTRA:         -11.586
REMARK INTER:                  -7.712
REMARK INTRA:                  -3.874
REMARK UNBOUND:                -4.365
REMARK SMILES CCCCCCCCCCCCCCCCCCCCCCCC(=O)[O-]
REMARK SMILES IDX 13 1 14 2 15 3 16 4 17 5 18 6 19 7 20 8 21 9 22 10 23 11
REMARK SMILES IDX 24 12 25 13 26 14 12 15 11 16 10 17 9 18 8 19 7 20 6 21 5 22
REMARK SMILES IDX 4 23 3 24 2 25 1 26
REMARK H PARENT
REMARK Flexibility Score: inf
ROOT
ATOM      1  C   UNL     1     -98.064 149.520 236.281  1.00  0.00     0.000 C 
ENDROOT
BRANCH   1   2
ATOM      2  C   UNL     1     -97.103 148.398 235.862  1.00  0.00     0.000 C 
BRANCH   2   3
ATOM      3  C   UNL     1     -95.656 148.911 235.798  1.00  0.00     0.000 C 
BRANCH   3   4
ATOM      4  C   UNL     1     -95.258 149.722 237.042  1.00  0.00     0.000 C 
BRANCH   4   5
ATOM      5  C   UNL     1     -94.308 148.946 237.972  1.00  0.00     0.000 C 
BRANCH   5   6
ATOM      6  C   UNL     1     -94.581 149.223 239.459  1.00  0.00     0.000 C 
BRANCH   6   7
ATOM      7  C   UNL     1     -95.493 148.168 240.103  1.00  0.00     0.000 C 
BRANCH   7   8
ATOM      8  C   UNL     1     -96.753 148.820 240.693  1.00  0.00     0.000 C 
BRANCH   8   9
ATOM      9  C   UNL     1     -96.814 150.337 240.451  1.00  0.00     0.000 C 
BRANCH   9  10
ATOM     10  C   UNL     1     -98.155 150.861 239.900  1.00  0.00     0.006 C 
BRANCH  10  11
ATOM     11  C   UNL     1     -99.395 150.262 240.588  1.00  0.00     0.053 C 
BRANCH  11  12
ATOM     12  C   UNL     1    -100.585 150.210 239.678  1.00  0.00     0.041 C 
ATOM     13  O   UNL     1    -101.557 150.992 239.859  1.00  0.00    -0.550 OA
ATOM     14  O   UNL     1    -100.606 149.330 238.604  1.00  0.00    -0.550 OA
ENDBRANCH  11  12
ENDBRANCH  10  11
ENDBRANCH   9  10
ENDBRANCH   8   9
ENDBRANCH   7   8
ENDBRANCH   6   7
ENDBRANCH   5   6
ENDBRANCH   4   5
ENDBRANCH   3   4
ENDBRANCH   2   3
ENDBRANCH   1   2
BRANCH   1  15
ATOM     15  C   UNL     1     -99.134 149.822 235.215  1.00  0.00     0.000 C 
BRANCH  15  16
ATOM     16  C   UNL     1     -99.748 151.235 235.287  1.00  0.00     0.000 C 
BRANCH  16  17
ATOM     17  C   UNL     1     -99.407 152.028 236.560  1.00  0.00     0.000 C 
BRANCH  17  18
ATOM     18  C   UNL     1    -100.563 152.931 237.025  1.00  0.00    -0.000 C 
BRANCH  18  19
ATOM     19  C   UNL     1    -101.302 153.597 235.852  1.00  0.00    -0.000 C 
BRANCH  19  20
ATOM     20  C   UNL     1    -100.775 155.011 235.552  1.00  0.00    -0.000 C 
BRANCH  20  21
ATOM     21  C   UNL     1    -100.689 155.303 234.045  1.00  0.00    -0.000 C 
BRANCH  21  22
ATOM     22  C   UNL     1     -99.295 155.022 233.464  1.00  0.00    -0.000 C 
BRANCH  22  23
ATOM     23  C   UNL     1     -98.195 155.501 234.422  1.00  0.00    -0.000 C 
BRANCH  23  24
ATOM     24  C   UNL     1     -97.195 154.390 234.781  1.00  0.00    -0.000 C 
BRANCH  24  25
ATOM     25  C   UNL     1     -97.135 153.282 233.719  1.00  0.00    -0.003 C 
ATOM     26  C   UNL     1     -96.086 152.234 234.078  1.00  0.00     0.004 C 
ENDBRANCH  24  25
ENDBRANCH  23  24
ENDBRANCH  22  23
ENDBRANCH  21  22
ENDBRANCH  20  21
ENDBRANCH  19  20
ENDBRANCH  18  19
ENDBRANCH  17  18
ENDBRANCH  16  17
ENDBRANCH  15  16
ENDBRANCH   1  15
TORSDOF 22
ENDMDL
MODEL 8
REMARK VINA RESULT:    -3.130      3.281      7.689
REMARK INTER + INTRA:         -11.520
REMARK INTER:                  -7.781
REMARK INTRA:                  -3.740
REMARK UNBOUND:                -4.365
REMARK SMILES CCCCCCCCCCCCCCCCCCCCCCCC(=O)[O-]
REMARK SMILES IDX 13 1 14 2 15 3 16 4 17 5 18 6 19 7 20 8 21 9 22 10 23 11
REMARK SMILES IDX 24 12 25 13 26 14 12 15 11 16 10 17 9 18 8 19 7 20 6 21 5 22
REMARK SMILES IDX 4 23 3 24 2 25 1 26
REMARK H PARENT
REMARK Flexibility Score: inf
ROOT
ATOM      1  C   UNL     1     -95.981 151.230 234.746  1.00  0.00     0.000 C 
ENDROOT
BRANCH   1   2
ATOM      2  C   UNL     1     -95.707 152.062 233.484  1.00  0.00     0.000 C 
BRANCH   2   3
ATOM      3  C   UNL     1     -96.289 151.376 232.239  1.00  0.00     0.000 C 
BRANCH   3   4
ATOM      4  C   UNL     1     -97.080 152.342 231.342  1.00  0.00     0.000 C 
BRANCH   4   5
ATOM      5  C   UNL     1     -98.601 152.207 231.528  1.00  0.00     0.000 C 
BRANCH   5   6
ATOM      6  C   UNL     1     -98.978 151.087 232.511  1.00  0.00     0.000 C 
BRANCH   6   7
ATOM      7  C   UNL     1     -99.985 151.545 233.578  1.00  0.00     0.000 C 
BRANCH   7   8
ATOM      8  C   UNL     1     -99.844 153.050 233.851  1.00  0.00     0.000 C 
BRANCH   8   9
ATOM      9  C   UNL     1     -98.853 153.366 234.983  1.00  0.00     0.000 C 
BRANCH   9  10
ATOM     10  C   UNL     1     -98.012 154.643 234.784  1.00  0.00     0.006 C 
BRANCH  10  11
ATOM     11  C   UNL     1     -98.251 155.348 233.436  1.00  0.00     0.053 C 
BRANCH  11  12
ATOM     12  C   UNL     1     -98.576 156.802 233.601  1.00  0.00     0.041 C 
ATOM     13  O   UNL     1     -99.772 157.173 233.742  1.00  0.00    -0.550 OA
ATOM     14  O   UNL     1     -97.557 157.745 233.642  1.00  0.00    -0.550 OA
ENDBRANCH  11  12
ENDBRANCH  10  11
ENDBRANCH   9  10
ENDBRANCH   8   9
ENDBRANCH   7   8
ENDBRANCH   6   7
ENDBRANCH   5   6
ENDBRANCH   4   5
ENDBRANCH   3   4
ENDBRANCH   2   3
ENDBRANCH   1   2
BRANCH   1  15
ATOM     15  C   UNL     1     -96.000 149.715 234.471  1.00  0.00     0.000 C 
BRANCH  15  16
ATOM     16  C   UNL     1     -95.428 148.838 235.603  1.00  0.00     0.000 C 
BRANCH  16  17
ATOM     17  C   UNL     1     -95.386 149.509 236.988  1.00  0.00     0.000 C 
BRANCH  17  18
ATOM     18  C   UNL     1     -94.306 148.910 237.905  1.00  0.00    -0.000 C 
BRANCH  18  19
ATOM     19  C   UNL     1     -94.608 149.130 239.397  1.00  0.00    -0.000 C 
BRANCH  19  20
ATOM     20  C   UNL     1     -96.117 149.200 239.688  1.00  0.00    -0.000 C 
BRANCH  20  21
ATOM     21  C   UNL     1     -96.532 150.527 240.342  1.00  0.00    -0.000 C 
BRANCH  21  22
ATOM     22  C   UNL     1     -97.970 150.500 240.883  1.00  0.00    -0.000 C 
BRANCH  22  23
ATOM     23  C   UNL     1     -98.944 149.972 239.821  1.00  0.00    -0.000 C 
BRANCH  23  24
ATOM     24  C   UNL     1     -99.254 151.011 238.730  1.00  0.00    -0.000 C 
BRANCH  24  25
ATOM     25  C   UNL     1     -98.823 150.545 237.331  1.00  0.00    -0.003 C 
ATOM     26  C   UNL     1     -99.786 149.498 236.780  1.00  0.00     0.004 C 
ENDBRANCH  24  25
ENDBRANCH  23  24
ENDBRANCH  22  23
ENDBRANCH  21  22
ENDBRANCH  20  21
ENDBRANCH  19  20
ENDBRANCH  18  19
ENDBRANCH  17  18
ENDBRANCH  16  17
ENDBRANCH  15  16
ENDBRANCH   1  15
TORSDOF 22
ENDMDL
MODEL 9
REMARK VINA RESULT:    -3.087      2.786      6.970
REMARK INTER + INTRA:         -11.423
REMARK INTER:                  -6.871
REMARK INTRA:                  -4.552
REMARK UNBOUND:                -4.365
REMARK SMILES CCCCCCCCCCCCCCCCCCCCCCCC(=O)[O-]
REMARK SMILES IDX 13 1 14 2 15 3 16 4 17 5 18 6 19 7 20 8 21 9 22 10 23 11
REMARK SMILES IDX 24 12 25 13 26 14 12 15 11 16 10 17 9 18 8 19 7 20 6 21 5 22
REMARK SMILES IDX 4 23 3 24 2 25 1 26
REMARK H PARENT
REMARK Flexibility Score: inf
ROOT
ATOM      1  C   UNL     1     -99.155 148.934 237.655  1.00  0.00     0.000 C 
ENDROOT
BRANCH   1   2
ATOM      2  C   UNL     1     -98.467 150.297 237.488  1.00  0.00     0.000 C 
BRANCH   2   3
ATOM      3  C   UNL     1     -99.502 151.431 237.444  1.00  0.00     0.000 C 
BRANCH   3   4
ATOM      4  C   UNL     1    -100.724 151.088 236.578  1.00  0.00     0.000 C 
BRANCH   4   5
ATOM      5  C   UNL     1    -100.565 151.556 235.121  1.00  0.00     0.000 C 
BRANCH   5   6
ATOM      6  C   UNL     1    -100.071 150.436 234.191  1.00  0.00     0.000 C 
BRANCH   6   7
ATOM      7  C   UNL     1     -98.930 150.889 233.267  1.00  0.00     0.000 C 
BRANCH   7   8
ATOM      8  C   UNL     1     -97.563 150.582 233.895  1.00  0.00     0.000 C 
BRANCH   8   9
ATOM      9  C   UNL     1     -96.837 151.840 234.400  1.00  0.00     0.000 C 
BRANCH   9  10
ATOM     10  C   UNL     1     -97.322 153.169 233.787  1.00  0.00     0.006 C 
BRANCH  10  11
ATOM     11  C   UNL     1     -97.250 154.369 234.749  1.00  0.00     0.053 C 
BRANCH  11  12
ATOM     12  C   UNL     1     -98.343 155.365 234.504  1.00  0.00     0.041 C 
ATOM     13  O   UNL     1     -99.542 155.065 234.752  1.00  0.00    -0.550 OA
ATOM     14  O   UNL     1     -98.037 156.639 234.044  1.00  0.00    -0.550 OA
ENDBRANCH  11  12
ENDBRANCH  10  11
ENDBRANCH   9  10
ENDBRANCH   8   9
ENDBRANCH   7   8
ENDBRANCH   6   7
ENDBRANCH   5   6
ENDBRANCH   4   5
ENDBRANCH   3   4
ENDBRANCH   2   3
ENDBRANCH   1   2
BRANCH   1  15
ATOM     15  C   UNL     1     -98.162 147.757 237.640  1.00  0.00     0.000 C 
BRANCH  15  16
ATOM     16  C   UNL     1     -97.424 147.542 236.303  1.00  0.00     0.000 C 
BRANCH  16  17
ATOM     17  C   UNL     1     -95.888 147.533 236.402  1.00  0.00     0.000 C 
BRANCH  17  18
ATOM     18  C   UNL     1     -95.278 148.939 236.268  1.00  0.00    -0.000 C 
BRANCH  18  19
ATOM     19  C   UNL     1     -94.786 149.501 237.612  1.00  0.00    -0.000 C 
BRANCH  19  20
ATOM     20  C   UNL     1     -94.602 148.405 238.676  1.00  0.00    -0.000 C 
BRANCH  20  21
ATOM     21  C   UNL     1     -95.326 148.731 239.993  1.00  0.00    -0.000 C 
BRANCH  21  22
ATOM     22  C   UNL     1     -95.837 150.179 240.047  1.00  0.00    -0.000 C 
BRANCH  22  23
ATOM     23  C   UNL     1     -97.209 150.250 240.733  1.00  0.00    -0.000 C 
BRANCH  23  24
ATOM     24  C   UNL     1     -97.583 148.943 241.452  1.00  0.00    -0.000 C 
BRANCH  24  25
ATOM     25  C   UNL     1     -99.085 148.634 241.372  1.00  0.00    -0.003 C 
ATOM     26  C   UNL     1     -99.896 149.905 241.138  1.00  0.00     0.004 C 
ENDBRANCH  24  25
ENDBRANCH  23  24
ENDBRANCH  22  23
ENDBRANCH  21  22
ENDBRANCH  20  21
ENDBRANCH  19  20
ENDBRANCH  18  19
ENDBRANCH  17  18
ENDBRANCH  16  17
ENDBRANCH  15  16
ENDBRANCH   1  15
TORSDOF 22
ENDMDL
