MODEL 1
REMARK VINA RESULT:    -3.934      0.000      0.000
REMARK INTER + INTRA:          -6.447
REMARK INTER:                  -5.659
REMARK INTRA:                  -0.787
REMARK UNBOUND:                -0.787
REMARK SMILES O=C(CO)[C@H](O)[C@H](O)[C@@H](O)CO
REMARK SMILES IDX 7 1 9 2 11 3 12 4 10 6 5 8 2 9 1 10 3 11 4 12 6 14 8 16
REMARK H PARENT 12 5 10 7 4 13 6 15 8 17
REMARK Flexibility Score: inf
ROOT
ATOM      1  C   UNL     1      58.042  18.086  50.523  1.00  0.00     0.181 C 
ENDROOT
BRANCH   1   2
ATOM      2  C   UNL     1      58.221  16.549  50.438  1.00  0.00     0.171 C 
BRANCH   2   3
ATOM      3  C   UNL     1      59.679  16.143  50.709  1.00  0.00     0.190 C 
BRANCH   3   4
ATOM      4  O   UNL     1      60.386  17.219  51.263  1.00  0.00    -0.394 OA
ATOM      5  H   UNL     1      59.881  17.491  52.073  1.00  0.00     0.210 HD
ENDBRANCH   3   4
ENDBRANCH   2   3
BRANCH   2   6
ATOM      6  O   UNL     1      57.850  16.096  49.161  1.00  0.00    -0.388 OA
ATOM      7  H   UNL     1      58.525  15.423  48.885  1.00  0.00     0.211 HD
ENDBRANCH   2   6
ENDBRANCH   1   2
BRANCH   1   8
ATOM      8  C   UNL     1      56.571  18.539  50.736  1.00  0.00     0.214 C 
BRANCH   8   9
ATOM      9  C   UNL     1      56.255  18.829  52.196  1.00  0.00     0.189 C 
ATOM     10  O   UNL     1      57.073  18.550  53.061  1.00  0.00    -0.294 OA
BRANCH   9  11
ATOM     11  C   UNL     1      54.972  19.497  52.623  1.00  0.00     0.234 C 
BRANCH  11  12
ATOM     12  O   UNL     1      53.964  19.336  51.662  1.00  0.00    -0.388 OA
ATOM     13  H   UNL     1      54.409  19.419  50.780  1.00  0.00     0.211 HD
ENDBRANCH  11  12
ENDBRANCH   9  11
ENDBRANCH   8   9
BRANCH   8  14
ATOM     14  O   UNL     1      55.656  17.633  50.166  1.00  0.00    -0.382 OA
ATOM     15  H   UNL     1      54.930  18.149  49.732  1.00  0.00     0.211 HD
ENDBRANCH   8  14
ENDBRANCH   1   8
BRANCH   1  16
ATOM     16  O   UNL     1      58.554  18.679  49.357  1.00  0.00    -0.387 OA
ATOM     17  H   UNL     1      58.730  19.634  49.568  1.00  0.00     0.211 HD
ENDBRANCH   1  16
TORSDOF 10
ENDMDL
MODEL 2
REMARK VINA RESULT:    -3.793      1.967      3.264
REMARK INTER + INTRA:          -6.244
REMARK INTER:                  -5.096
REMARK INTRA:                  -1.147
REMARK UNBOUND:                -0.787
REMARK SMILES O=C(CO)[C@H](O)[C@H](O)[C@@H](O)CO
REMARK SMILES IDX 7 1 9 2 11 3 12 4 10 6 5 8 2 9 1 10 3 11 4 12 6 14 8 16
REMARK H PARENT 12 5 10 7 4 13 6 15 8 17
REMARK Flexibility Score: inf
ROOT
ATOM      1  C   UNL     1      59.100  17.664  50.028  1.00  0.00     0.181 C 
ENDROOT
BRANCH   1   2
ATOM      2  C   UNL     1      58.031  16.603  49.664  1.00  0.00     0.171 C 
BRANCH   2   3
ATOM      3  C   UNL     1      58.166  16.157  48.199  1.00  0.00     0.190 C 
BRANCH   3   4
ATOM      4  O   UNL     1      59.514  16.154  47.816  1.00  0.00    -0.394 OA
ATOM      5  H   UNL     1      59.917  15.349  48.237  1.00  0.00     0.210 HD
ENDBRANCH   3   4
ENDBRANCH   2   3
BRANCH   2   6
ATOM      6  O   UNL     1      56.745  17.133  49.864  1.00  0.00    -0.388 OA
ATOM      7  H   UNL     1      56.827  17.837  50.560  1.00  0.00     0.211 HD
ENDBRANCH   2   6
ENDBRANCH   1   2
BRANCH   1   8
ATOM      8  C   UNL     1      59.179  17.986  51.546  1.00  0.00     0.214 C 
BRANCH   8   9
ATOM      9  C   UNL     1      58.438  19.264  51.911  1.00  0.00     0.189 C 
ATOM     10  O   UNL     1      57.215  19.283  51.895  1.00  0.00    -0.294 OA
BRANCH   9  11
ATOM     11  C   UNL     1      59.160  20.517  52.339  1.00  0.00     0.234 C 
BRANCH  11  12
ATOM     12  O   UNL     1      60.074  20.942  51.365  1.00  0.00    -0.388 OA
ATOM     13  H   UNL     1      60.328  21.868  51.611  1.00  0.00     0.211 HD
ENDBRANCH  11  12
ENDBRANCH   9  11
ENDBRANCH   8   9
BRANCH   8  14
ATOM     14  O   UNL     1      60.507  17.992  52.012  1.00  0.00    -0.382 OA
ATOM     15  H   UNL     1      60.936  18.841  51.733  1.00  0.00     0.211 HD
ENDBRANCH   8  14
ENDBRANCH   1   8
BRANCH   1  16
ATOM     16  O   UNL     1      58.847  18.845  49.308  1.00  0.00    -0.387 OA
ATOM     17  H   UNL     1      58.872  18.609  48.344  1.00  0.00     0.211 HD
ENDBRANCH   1  16
TORSDOF 10
ENDMDL
MODEL 3
REMARK VINA RESULT:    -3.792      0.985      4.417
REMARK INTER + INTRA:          -6.242
REMARK INTER:                  -5.575
REMARK INTRA:                  -0.667
REMARK UNBOUND:                -0.787
REMARK SMILES O=C(CO)[C@H](O)[C@H](O)[C@@H](O)CO
REMARK SMILES IDX 7 1 9 2 11 3 12 4 10 6 5 8 2 9 1 10 3 11 4 12 6 14 8 16
REMARK H PARENT 12 5 10 7 4 13 6 15 8 17
REMARK Flexibility Score: inf
ROOT
ATOM      1  C   UNL     1      57.737  18.756  51.262  1.00  0.00     0.181 C 
ENDROOT
BRANCH   1   2
ATOM      2  C   UNL     1      56.235  18.790  50.879  1.00  0.00     0.171 C 
BRANCH   2   3
ATOM      3  C   UNL     1      55.358  19.127  52.097  1.00  0.00     0.190 C 
BRANCH   3   4
ATOM      4  O   UNL     1      54.018  19.253  51.708  1.00  0.00    -0.394 OA
ATOM      5  H   UNL     1      54.030  19.705  50.823  1.00  0.00     0.210 HD
ENDBRANCH   3   4
ENDBRANCH   2   3
BRANCH   2   6
ATOM      6  O   UNL     1      55.846  17.540  50.368  1.00  0.00    -0.388 OA
ATOM      7  H   UNL     1      54.954  17.335  50.751  1.00  0.00     0.211 HD
ENDBRANCH   2   6
ENDBRANCH   1   2
BRANCH   1   8
ATOM      8  C   UNL     1      58.690  18.543  50.055  1.00  0.00     0.214 C 
BRANCH   8   9
ATOM      9  C   UNL     1      59.423  17.210  50.118  1.00  0.00     0.189 C 
ATOM     10  O   UNL     1      60.245  17.011  51.000  1.00  0.00    -0.294 OA
BRANCH   9  11
ATOM     11  C   UNL     1      59.140  16.092  49.147  1.00  0.00     0.234 C 
BRANCH  11  12
ATOM     12  O   UNL     1      57.768  15.960  48.899  1.00  0.00    -0.388 OA
ATOM     13  H   UNL     1      57.528  16.695  48.279  1.00  0.00     0.211 HD
ENDBRANCH  11  12
ENDBRANCH   9  11
ENDBRANCH   8   9
BRANCH   8  14
ATOM     14  O   UNL     1      59.574  19.626  49.887  1.00  0.00    -0.382 OA
ATOM     15  H   UNL     1      59.926  19.606  48.961  1.00  0.00     0.211 HD
ENDBRANCH   8  14
ENDBRANCH   1   8
BRANCH   1  16
ATOM     16  O   UNL     1      57.951  17.747  52.217  1.00  0.00    -0.387 OA
ATOM     17  H   UNL     1      57.085  17.594  52.678  1.00  0.00     0.211 HD
ENDBRANCH   1  16
TORSDOF 10
ENDMDL
MODEL 4
REMARK VINA RESULT:    -3.763     20.670     21.692
REMARK INTER + INTRA:          -6.200
REMARK INTER:                  -5.344
REMARK INTRA:                  -0.857
REMARK UNBOUND:                -0.787
REMARK SMILES O=C(CO)[C@H](O)[C@H](O)[C@@H](O)CO
REMARK SMILES IDX 7 1 9 2 11 3 12 4 10 6 5 8 2 9 1 10 3 11 4 12 6 14 8 16
REMARK H PARENT 12 5 10 7 4 13 6 15 8 17
REMARK Flexibility Score: inf
ROOT
ATOM      1  C   UNL     1      71.476  30.835  59.507  1.00  0.00     0.181 C 
ENDROOT
BRANCH   1   2
ATOM      2  C   UNL     1      71.613  29.694  60.547  1.00  0.00     0.171 C 
BRANCH   2   3
ATOM      3  C   UNL     1      70.569  28.592  60.305  1.00  0.00     0.190 C 
BRANCH   3   4
ATOM      4  O   UNL     1      69.478  28.761  61.168  1.00  0.00    -0.394 OA
ATOM      5  H   UNL     1      69.829  29.240  61.964  1.00  0.00     0.210 HD
ENDBRANCH   3   4
ENDBRANCH   2   3
BRANCH   2   6
ATOM      6  O   UNL     1      71.444  30.208  61.844  1.00  0.00    -0.388 OA
ATOM      7  H   UNL     1      70.517  29.988  62.124  1.00  0.00     0.211 HD
ENDBRANCH   2   6
ENDBRANCH   1   2
BRANCH   1   8
ATOM      8  C   UNL     1      71.508  32.259  60.126  1.00  0.00     0.214 C 
BRANCH   8   9
ATOM      9  C   UNL     1      71.299  33.352  59.087  1.00  0.00     0.189 C 
ATOM     10  O   UNL     1      71.664  33.171  57.934  1.00  0.00    -0.294 OA
BRANCH   9  11
ATOM     11  C   UNL     1      70.612  34.653  59.417  1.00  0.00     0.234 C 
BRANCH  11  12
ATOM     12  O   UNL     1      70.438  34.807  60.799  1.00  0.00    -0.388 OA
ATOM     13  H   UNL     1      70.702  35.740  61.007  1.00  0.00     0.211 HD
ENDBRANCH  11  12
ENDBRANCH   9  11
ENDBRANCH   8   9
BRANCH   8  14
ATOM     14  O   UNL     1      72.670  32.472  60.892  1.00  0.00    -0.382 OA
ATOM     15  H   UNL     1      72.400  32.755  61.803  1.00  0.00     0.211 HD
ENDBRANCH   8  14
ENDBRANCH   1   8
BRANCH   1  16
ATOM     16  O   UNL     1      70.284  30.662  58.783  1.00  0.00    -0.387 OA
ATOM     17  H   UNL     1      69.769  29.943  59.235  1.00  0.00     0.211 HD
ENDBRANCH   1  16
TORSDOF 10
ENDMDL
MODEL 5
REMARK VINA RESULT:    -3.672      1.632      3.971
REMARK INTER + INTRA:          -6.070
REMARK INTER:                  -5.290
REMARK INTRA:                  -0.780
REMARK UNBOUND:                -0.787
REMARK SMILES O=C(CO)[C@H](O)[C@H](O)[C@@H](O)CO
REMARK SMILES IDX 7 1 9 2 11 3 12 4 10 6 5 8 2 9 1 10 3 11 4 12 6 14 8 16
REMARK H PARENT 12 5 10 7 4 13 6 15 8 17
REMARK Flexibility Score: inf
ROOT
ATOM      1  C   UNL     1      57.856  17.315  50.655  1.00  0.00     0.181 C 
ENDROOT
BRANCH   1   2
ATOM      2  C   UNL     1      56.682  18.320  50.770  1.00  0.00     0.171 C 
BRANCH   2   3
ATOM      3  C   UNL     1      56.527  18.833  52.211  1.00  0.00     0.190 C 
BRANCH   3   4
ATOM      4  O   UNL     1      57.321  19.971  52.408  1.00  0.00    -0.394 OA
ATOM      5  H   UNL     1      56.739  20.636  52.862  1.00  0.00     0.210 HD
ENDBRANCH   3   4
ENDBRANCH   2   3
BRANCH   2   6
ATOM      6  O   UNL     1      55.485  17.701  50.374  1.00  0.00    -0.388 OA
ATOM      7  H   UNL     1      54.876  18.420  50.061  1.00  0.00     0.211 HD
ENDBRANCH   2   6
ENDBRANCH   1   2
BRANCH   1   8
ATOM      8  C   UNL     1      59.167  17.937  50.101  1.00  0.00     0.214 C 
BRANCH   8   9
ATOM      9  C   UNL     1      60.199  18.191  51.190  1.00  0.00     0.189 C 
ATOM     10  O   UNL     1      60.478  17.301  51.981  1.00  0.00    -0.294 OA
BRANCH   9  11
ATOM     11  C   UNL     1      60.936  19.501  51.309  1.00  0.00     0.234 C 
BRANCH  11  12
ATOM     12  O   UNL     1      60.051  20.585  51.380  1.00  0.00    -0.388 OA
ATOM     13  H   UNL     1      59.733  20.620  52.319  1.00  0.00     0.211 HD
ENDBRANCH  11  12
ENDBRANCH   9  11
ENDBRANCH   8   9
BRANCH   8  14
ATOM     14  O   UNL     1      58.915  19.089  49.331  1.00  0.00    -0.382 OA
ATOM     15  H   UNL     1      59.141  18.892  48.386  1.00  0.00     0.211 HD
ENDBRANCH   8  14
ENDBRANCH   1   8
BRANCH   1  16
ATOM     16  O   UNL     1      57.467  16.235  49.845  1.00  0.00    -0.387 OA
ATOM     17  H   UNL     1      56.763  15.739  50.339  1.00  0.00     0.211 HD
ENDBRANCH   1  16
TORSDOF 10
ENDMDL
MODEL 6
REMARK VINA RESULT:    -3.667      1.294      4.683
REMARK INTER + INTRA:          -6.062
REMARK INTER:                  -5.236
REMARK INTRA:                  -0.826
REMARK UNBOUND:                -0.787
REMARK SMILES O=C(CO)[C@H](O)[C@H](O)[C@@H](O)CO
REMARK SMILES IDX 7 1 9 2 11 3 12 4 10 6 5 8 2 9 1 10 3 11 4 12 6 14 8 16
REMARK H PARENT 12 5 10 7 4 13 6 15 8 17
REMARK Flexibility Score: inf
ROOT
ATOM      1  C   UNL     1      56.342  18.470  51.561  1.00  0.00     0.181 C 
ENDROOT
BRANCH   1   2
ATOM      2  C   UNL     1      55.754  19.276  52.747  1.00  0.00     0.171 C 
BRANCH   2   3
ATOM      3  C   UNL     1      54.246  19.514  52.564  1.00  0.00     0.190 C 
BRANCH   3   4
ATOM      4  O   UNL     1      54.028  20.680  51.818  1.00  0.00    -0.394 OA
ATOM      5  H   UNL     1      54.572  21.389  52.250  1.00  0.00     0.210 HD
ENDBRANCH   3   4
ENDBRANCH   2   3
BRANCH   2   6
ATOM      6  O   UNL     1      56.404  20.517  52.849  1.00  0.00    -0.388 OA
ATOM      7  H   UNL     1      56.292  20.828  53.785  1.00  0.00     0.211 HD
ENDBRANCH   2   6
ENDBRANCH   1   2
BRANCH   1   8
ATOM      8  C   UNL     1      57.886  18.310  51.612  1.00  0.00     0.214 C 
BRANCH   8   9
ATOM      9  C   UNL     1      58.505  18.182  50.227  1.00  0.00     0.189 C 
ATOM     10  O   UNL     1      58.806  19.189  49.602  1.00  0.00    -0.294 OA
BRANCH   9  11
ATOM     11  C   UNL     1      58.806  16.843  49.602  1.00  0.00     0.234 C 
BRANCH  11  12
ATOM     12  O   UNL     1      57.803  15.906  49.886  1.00  0.00    -0.388 OA
ATOM     13  H   UNL     1      58.114  15.046  49.504  1.00  0.00     0.211 HD
ENDBRANCH  11  12
ENDBRANCH   9  11
ENDBRANCH   8   9
BRANCH   8  14
ATOM     14  O   UNL     1      58.277  17.261  52.466  1.00  0.00    -0.382 OA
ATOM     15  H   UNL     1      59.028  17.577  53.030  1.00  0.00     0.211 HD
ENDBRANCH   8  14
ENDBRANCH   1   8
BRANCH   1  16
ATOM     16  O   UNL     1      55.970  19.083  50.352  1.00  0.00    -0.387 OA
ATOM     17  H   UNL     1      54.984  19.200  50.376  1.00  0.00     0.211 HD
ENDBRANCH   1  16
TORSDOF 10
ENDMDL
MODEL 7
REMARK VINA RESULT:    -3.639      1.373      2.200
REMARK INTER + INTRA:          -6.023
REMARK INTER:                  -5.344
REMARK INTRA:                  -0.679
REMARK UNBOUND:                -0.787
REMARK SMILES O=C(CO)[C@H](O)[C@H](O)[C@@H](O)CO
REMARK SMILES IDX 7 1 9 2 11 3 12 4 10 6 5 8 2 9 1 10 3 11 4 12 6 14 8 16
REMARK H PARENT 12 5 10 7 4 13 6 15 8 17
REMARK Flexibility Score: inf
ROOT
ATOM      1  C   UNL     1      56.711  18.480  51.073  1.00  0.00     0.181 C 
ENDROOT
BRANCH   1   2
ATOM      2  C   UNL     1      57.824  17.421  50.877  1.00  0.00     0.171 C 
BRANCH   2   3
ATOM      3  C   UNL     1      59.114  18.062  50.340  1.00  0.00     0.190 C 
BRANCH   3   4
ATOM      4  O   UNL     1      58.824  18.892  49.249  1.00  0.00    -0.394 OA
ATOM      5  H   UNL     1      58.402  19.707  49.628  1.00  0.00     0.210 HD
ENDBRANCH   3   4
ENDBRANCH   2   3
BRANCH   2   6
ATOM      6  O   UNL     1      57.392  16.437  49.972  1.00  0.00    -0.388 OA
ATOM      7  H   UNL     1      57.064  15.670  50.511  1.00  0.00     0.211 HD
ENDBRANCH   2   6
ENDBRANCH   1   2
BRANCH   1   8
ATOM      8  C   UNL     1      56.646  19.069  52.509  1.00  0.00     0.214 C 
BRANCH   8   9
ATOM      9  C   UNL     1      55.258  18.957  53.124  1.00  0.00     0.189 C 
ATOM     10  O   UNL     1      54.962  17.966  53.776  1.00  0.00    -0.294 OA
BRANCH   9  11
ATOM     11  C   UNL     1      54.232  20.055  52.996  1.00  0.00     0.234 C 
BRANCH  11  12
ATOM     12  O   UNL     1      54.043  20.429  51.659  1.00  0.00    -0.388 OA
ATOM     13  H   UNL     1      53.254  21.029  51.650  1.00  0.00     0.211 HD
ENDBRANCH  11  12
ENDBRANCH   9  11
ENDBRANCH   8   9
BRANCH   8  14
ATOM     14  O   UNL     1      57.143  20.385  52.558  1.00  0.00    -0.382 OA
ATOM     15  H   UNL     1      57.574  20.593  51.690  1.00  0.00     0.211 HD
ENDBRANCH   8  14
ENDBRANCH   1   8
BRANCH   1  16
ATOM     16  O   UNL     1      55.468  17.917  50.738  1.00  0.00    -0.387 OA
ATOM     17  H   UNL     1      55.612  16.941  50.621  1.00  0.00     0.211 HD
ENDBRANCH   1  16
TORSDOF 10
ENDMDL
MODEL 8
REMARK VINA RESULT:    -3.549      1.173      2.234
REMARK INTER + INTRA:          -5.892
REMARK INTER:                  -5.023
REMARK INTRA:                  -0.869
REMARK UNBOUND:                -0.787
REMARK SMILES O=C(CO)[C@H](O)[C@H](O)[C@@H](O)CO
REMARK SMILES IDX 7 1 9 2 11 3 12 4 10 6 5 8 2 9 1 10 3 11 4 12 6 14 8 16
REMARK H PARENT 12 5 10 7 4 13 6 15 8 17
REMARK Flexibility Score: inf
ROOT
ATOM      1  C   UNL     1      59.012  18.217  50.385  1.00  0.00     0.181 C 
ENDROOT
BRANCH   1   2
ATOM      2  C   UNL     1      59.268  16.750  49.953  1.00  0.00     0.171 C 
BRANCH   2   3
ATOM      3  C   UNL     1      58.878  16.527  48.483  1.00  0.00     0.190 C 
BRANCH   3   4
ATOM      4  O   UNL     1      57.513  16.229  48.384  1.00  0.00    -0.394 OA
ATOM      5  H   UNL     1      57.459  15.281  48.095  1.00  0.00     0.210 HD
ENDBRANCH   3   4
ENDBRANCH   2   3
BRANCH   2   6
ATOM      6  O   UNL     1      58.520  15.878  50.762  1.00  0.00    -0.388 OA
ATOM      7  H   UNL     1      57.650  15.735  50.306  1.00  0.00     0.211 HD
ENDBRANCH   2   6
ENDBRANCH   1   2
BRANCH   1   8
ATOM      8  C   UNL     1      58.106  18.356  51.640  1.00  0.00     0.214 C 
BRANCH   8   9
ATOM      9  C   UNL     1      56.629  18.449  51.286  1.00  0.00     0.189 C 
ATOM     10  O   UNL     1      56.192  17.821  50.332  1.00  0.00    -0.294 OA
BRANCH   9  11
ATOM     11  C   UNL     1      55.658  19.265  52.102  1.00  0.00     0.234 C 
BRANCH  11  12
ATOM     12  O   UNL     1      54.555  19.669  51.337  1.00  0.00    -0.388 OA
ATOM     13  H   UNL     1      54.903  19.850  50.427  1.00  0.00     0.211 HD
ENDBRANCH  11  12
ENDBRANCH   9  11
ENDBRANCH   8   9
BRANCH   8  14
ATOM     14  O   UNL     1      58.521  19.414  52.470  1.00  0.00    -0.382 OA
ATOM     15  H   UNL     1      59.498  19.337  52.616  1.00  0.00     0.211 HD
ENDBRANCH   8  14
ENDBRANCH   1   8
BRANCH   1  16
ATOM     16  O   UNL     1      58.443  18.925  49.312  1.00  0.00    -0.387 OA
ATOM     17  H   UNL     1      59.117  19.589  49.011  1.00  0.00     0.211 HD
ENDBRANCH   1  16
TORSDOF 10
ENDMDL
MODEL 9
REMARK VINA RESULT:    -3.502      1.244      4.342
REMARK INTER + INTRA:          -5.825
REMARK INTER:                  -5.100
REMARK INTRA:                  -0.725
REMARK UNBOUND:                -0.787
REMARK SMILES O=C(CO)[C@H](O)[C@H](O)[C@@H](O)CO
REMARK SMILES IDX 7 1 9 2 11 3 12 4 10 6 5 8 2 9 1 10 3 11 4 12 6 14 8 16
REMARK H PARENT 12 5 10 7 4 13 6 15 8 17
REMARK Flexibility Score: inf
ROOT
ATOM      1  C   UNL     1      57.204  19.212  51.797  1.00  0.00     0.181 C 
ENDROOT
BRANCH   1   2
ATOM      2  C   UNL     1      55.961  19.459  52.691  1.00  0.00     0.171 C 
BRANCH   2   3
ATOM      3  C   UNL     1      55.714  18.274  53.638  1.00  0.00     0.190 C 
BRANCH   3   4
ATOM      4  O   UNL     1      54.339  18.031  53.761  1.00  0.00    -0.394 OA
ATOM      5  H   UNL     1      53.888  18.885  53.531  1.00  0.00     0.210 HD
ENDBRANCH   3   4
ENDBRANCH   2   3
BRANCH   2   6
ATOM      6  O   UNL     1      54.825  19.646  51.885  1.00  0.00    -0.388 OA
ATOM      7  H   UNL     1      54.356  20.451  52.228  1.00  0.00     0.211 HD
ENDBRANCH   2   6
ENDBRANCH   1   2
BRANCH   1   8
ATOM      8  C   UNL     1      57.140  17.894  50.978  1.00  0.00     0.214 C 
BRANCH   8   9
ATOM      9  C   UNL     1      58.331  17.728  50.045  1.00  0.00     0.189 C 
ATOM     10  O   UNL     1      59.167  18.617  49.965  1.00  0.00    -0.294 OA
BRANCH   9  11
ATOM     11  C   UNL     1      58.549  16.474  49.236  1.00  0.00     0.234 C 
BRANCH  11  12
ATOM     12  O   UNL     1      57.516  16.272  48.312  1.00  0.00    -0.388 OA
ATOM     13  H   UNL     1      56.747  16.807  48.637  1.00  0.00     0.211 HD
ENDBRANCH  11  12
ENDBRANCH   9  11
ENDBRANCH   8   9
BRANCH   8  14
ATOM     14  O   UNL     1      55.913  17.758  50.300  1.00  0.00    -0.382 OA
ATOM     15  H   UNL     1      56.032  17.108  49.561  1.00  0.00     0.211 HD
ENDBRANCH   8  14
ENDBRANCH   1   8
BRANCH   1  16
ATOM     16  O   UNL     1      58.360  19.214  52.597  1.00  0.00    -0.387 OA
ATOM     17  H   UNL     1      58.772  18.314  52.516  1.00  0.00     0.211 HD
ENDBRANCH   1  16
TORSDOF 10
ENDMDL
