MODEL 1
REMARK VINA RESULT:    -4.506      0.000      0.000
REMARK INTER + INTRA:          -5.223
REMARK INTER:                  -5.165
REMARK INTRA:                  -0.059
REMARK UNBOUND:                -0.059
REMARK SMILES CC(C)[C@H]([NH3+])C(=O)[O-]
REMARK SMILES IDX 4 1 5 2 6 6 7 7 8 8 2 9 1 10 3 11
REMARK H PARENT 5 3 5 4 5 5
REMARK Flexibility Score: inf
ROOT
ATOM      1  C   UNL     1     -19.923 -68.368  -0.456  1.00  0.00     0.230 C 
ENDROOT
BRANCH   1   2
ATOM      2  N   UNL     1     -21.224 -68.054   0.156  1.00  0.00    -0.350 N 
ATOM      3  H   UNL     1     -21.218 -67.089   0.552  1.00  0.00     0.345 HD
ATOM      4  H   UNL     1     -21.971 -68.089  -0.577  1.00  0.00     0.345 HD
ATOM      5  H   UNL     1     -21.469 -68.738   0.908  1.00  0.00     0.345 HD
ENDBRANCH   1   2
BRANCH   1   6
ATOM      6  C   UNL     1     -19.854 -69.825  -0.844  1.00  0.00     0.099 C 
ATOM      7  O   UNL     1     -20.394 -70.216  -1.912  1.00  0.00    -0.544 OA
ATOM      8  O   UNL     1     -19.157 -70.737  -0.059  1.00  0.00    -0.544 OA
ENDBRANCH   1   6
BRANCH   1   9
ATOM      9  C   UNL     1     -18.715 -67.975   0.446  1.00  0.00     0.047 C 
ATOM     10  C   UNL     1     -19.102 -67.090   1.642  1.00  0.00     0.014 C 
ATOM     11  C   UNL     1     -17.589 -67.312  -0.362  1.00  0.00     0.014 C 
ENDBRANCH   1   9
TORSDOF 3
ENDMDL
MODEL 2
REMARK VINA RESULT:    -4.411      2.759      3.647
REMARK INTER + INTRA:          -5.115
REMARK INTER:                  -5.050
REMARK INTRA:                  -0.065
REMARK UNBOUND:                -0.059
REMARK SMILES CC(C)[C@H]([NH3+])C(=O)[O-]
REMARK SMILES IDX 4 1 5 2 6 6 7 7 8 8 2 9 1 10 3 11
REMARK H PARENT 5 3 5 4 5 5
REMARK Flexibility Score: inf
ROOT
ATOM      1  C   UNL     1     -18.396 -68.261   0.045  1.00  0.00     0.230 C 
ENDROOT
BRANCH   1   2
ATOM      2  N   UNL     1     -17.363 -69.167   0.572  1.00  0.00    -0.350 N 
ATOM      3  H   UNL     1     -17.114 -69.890  -0.138  1.00  0.00     0.345 HD
ATOM      4  H   UNL     1     -16.496 -68.621   0.783  1.00  0.00     0.345 HD
ATOM      5  H   UNL     1     -17.678 -69.637   1.451  1.00  0.00     0.345 HD
ENDBRANCH   1   2
BRANCH   1   6
ATOM      6  C   UNL     1     -18.722 -67.182   1.049  1.00  0.00     0.099 C 
ATOM      7  O   UNL     1     -19.809 -67.222   1.682  1.00  0.00    -0.544 OA
ATOM      8  O   UNL     1     -17.812 -66.165   1.321  1.00  0.00    -0.544 OA
ENDBRANCH   1   6
BRANCH   1   9
ATOM      9  C   UNL     1     -19.688 -69.007  -0.408  1.00  0.00     0.047 C 
ATOM     10  C   UNL     1     -19.583 -70.537  -0.304  1.00  0.00     0.014 C 
ATOM     11  C   UNL     1     -20.117 -68.599  -1.825  1.00  0.00     0.014 C 
ENDBRANCH   1   9
TORSDOF 3
ENDMDL
MODEL 3
REMARK VINA RESULT:    -4.286      1.683      2.325
REMARK INTER + INTRA:          -4.971
REMARK INTER:                  -4.918
REMARK INTRA:                  -0.053
REMARK UNBOUND:                -0.059
REMARK SMILES CC(C)[C@H]([NH3+])C(=O)[O-]
REMARK SMILES IDX 4 1 5 2 6 6 7 7 8 8 2 9 1 10 3 11
REMARK H PARENT 5 3 5 4 5 5
REMARK Flexibility Score: inf
ROOT
ATOM      1  C   UNL     1     -18.726 -69.154   0.563  1.00  0.00     0.230 C 
ENDROOT
BRANCH   1   2
ATOM      2  N   UNL     1     -17.345 -69.660   0.604  1.00  0.00    -0.350 N 
ATOM      3  H   UNL     1     -17.129 -70.057   1.545  1.00  0.00     0.345 HD
ATOM      4  H   UNL     1     -17.236 -70.431  -0.096  1.00  0.00     0.345 HD
ATOM      5  H   UNL     1     -16.655 -68.908   0.376  1.00  0.00     0.345 HD
ENDBRANCH   1   2
BRANCH   1   6
ATOM      6  C   UNL     1     -19.539 -69.903  -0.464  1.00  0.00     0.099 C 
ATOM      7  O   UNL     1     -19.499 -71.161  -0.498  1.00  0.00    -0.544 OA
ATOM      8  O   UNL     1     -20.371 -69.224  -1.347  1.00  0.00    -0.544 OA
ENDBRANCH   1   6
BRANCH   1   9
ATOM      9  C   UNL     1     -18.805 -67.616   0.319  1.00  0.00     0.047 C 
ATOM     10  C   UNL     1     -17.664 -67.073  -0.557  1.00  0.00     0.014 C 
ATOM     11  C   UNL     1     -18.881 -66.831   1.637  1.00  0.00     0.014 C 
ENDBRANCH   1   9
TORSDOF 3
ENDMDL
MODEL 4
REMARK VINA RESULT:    -4.285      2.288      3.370
REMARK INTER + INTRA:          -4.970
REMARK INTER:                  -4.910
REMARK INTRA:                  -0.060
REMARK UNBOUND:                -0.059
REMARK SMILES CC(C)[C@H]([NH3+])C(=O)[O-]
REMARK SMILES IDX 4 1 5 2 6 6 7 7 8 8 2 9 1 10 3 11
REMARK H PARENT 5 3 5 4 5 5
REMARK Flexibility Score: inf
ROOT
ATOM      1  C   UNL     1     -19.949 -68.392   0.604  1.00  0.00     0.230 C 
ENDROOT
BRANCH   1   2
ATOM      2  N   UNL     1     -21.270 -67.765   0.442  1.00  0.00    -0.350 N 
ATOM      3  H   UNL     1     -21.586 -67.828  -0.551  1.00  0.00     0.345 HD
ATOM      4  H   UNL     1     -21.971 -68.275   1.029  1.00  0.00     0.345 HD
ATOM      5  H   UNL     1     -21.257 -66.763   0.740  1.00  0.00     0.345 HD
ENDBRANCH   1   2
BRANCH   1   6
ATOM      6  C   UNL     1     -18.921 -67.371   1.029  1.00  0.00     0.099 C 
ATOM      7  O   UNL     1     -19.186 -66.566   1.960  1.00  0.00    -0.544 OA
ATOM      8  O   UNL     1     -17.664 -67.339   0.437  1.00  0.00    -0.544 OA
ENDBRANCH   1   6
BRANCH   1   9
ATOM      9  C   UNL     1     -19.477 -69.157  -0.670  1.00  0.00     0.047 C 
ATOM     10  C   UNL     1     -20.192 -68.711  -1.956  1.00  0.00     0.014 C 
ATOM     11  C   UNL     1     -19.594 -70.679  -0.499  1.00  0.00     0.014 C 
ENDBRANCH   1   9
TORSDOF 3
ENDMDL
MODEL 5
REMARK VINA RESULT:    -4.179      2.040      2.219
REMARK INTER + INTRA:          -4.849
REMARK INTER:                  -4.976
REMARK INTRA:                   0.128
REMARK UNBOUND:                -0.059
REMARK SMILES CC(C)[C@H]([NH3+])C(=O)[O-]
REMARK SMILES IDX 4 1 5 2 6 6 7 7 8 8 2 9 1 10 3 11
REMARK H PARENT 5 3 5 4 5 5
REMARK Flexibility Score: inf
ROOT
ATOM      1  C   UNL     1     -18.233 -68.901   0.884  1.00  0.00     0.230 C 
ENDROOT
BRANCH   1   2
ATOM      2  N   UNL     1     -17.231 -69.960   0.688  1.00  0.00    -0.350 N 
ATOM      3  H   UNL     1     -17.639 -70.754   0.148  1.00  0.00     0.345 HD
ATOM      4  H   UNL     1     -16.428 -69.581   0.134  1.00  0.00     0.345 HD
ATOM      5  H   UNL     1     -16.863 -70.312   1.601  1.00  0.00     0.345 HD
ENDBRANCH   1   2
BRANCH   1   6
ATOM      6  C   UNL     1     -19.496 -69.213   0.119  1.00  0.00     0.099 C 
ATOM      7  O   UNL     1     -19.562 -70.255  -0.584  1.00  0.00    -0.544 OA
ATOM      8  O   UNL     1     -20.610 -68.387   0.219  1.00  0.00    -0.544 OA
ENDBRANCH   1   6
BRANCH   1   9
ATOM      9  C   UNL     1     -17.699 -67.482   0.520  1.00  0.00     0.047 C 
ATOM     10  C   UNL     1     -18.313 -66.357   1.371  1.00  0.00     0.014 C 
ATOM     11  C   UNL     1     -17.871 -67.172  -0.974  1.00  0.00     0.014 C 
ENDBRANCH   1   9
TORSDOF 3
ENDMDL
MODEL 6
REMARK VINA RESULT:    -3.684      2.099      2.993
REMARK INTER + INTRA:          -4.281
REMARK INTER:                  -4.417
REMARK INTRA:                   0.136
REMARK UNBOUND:                -0.059
REMARK SMILES CC(C)[C@H]([NH3+])C(=O)[O-]
REMARK SMILES IDX 4 1 5 2 6 6 7 7 8 8 2 9 1 10 3 11
REMARK H PARENT 5 3 5 4 5 5
REMARK Flexibility Score: inf
ROOT
ATOM      1  C   UNL     1     -19.298 -68.729   0.753  1.00  0.00     0.230 C 
ENDROOT
BRANCH   1   2
ATOM      2  N   UNL     1     -19.737 -67.380   1.143  1.00  0.00    -0.350 N 
ATOM      3  H   UNL     1     -19.766 -66.750   0.312  1.00  0.00     0.345 HD
ATOM      4  H   UNL     1     -20.707 -67.429   1.535  1.00  0.00     0.345 HD
ATOM      5  H   UNL     1     -19.109 -66.969   1.871  1.00  0.00     0.345 HD
ENDBRANCH   1   2
BRANCH   1   6
ATOM      6  C   UNL     1     -17.820 -68.743   0.450  1.00  0.00     0.099 C 
ATOM      7  O   UNL     1     -17.242 -67.681   0.098  1.00  0.00    -0.544 OA
ATOM      8  O   UNL     1     -17.074 -69.907   0.601  1.00  0.00    -0.544 OA
ENDBRANCH   1   6
BRANCH   1   9
ATOM      9  C   UNL     1     -20.115 -69.315  -0.439  1.00  0.00     0.047 C 
ATOM     10  C   UNL     1     -19.778 -70.781  -0.755  1.00  0.00     0.014 C 
ATOM     11  C   UNL     1     -19.979 -68.454  -1.704  1.00  0.00     0.014 C 
ENDBRANCH   1   9
TORSDOF 3
ENDMDL
MODEL 7
REMARK VINA RESULT:    -3.578      9.013      9.718
REMARK INTER + INTRA:          -4.159
REMARK INTER:                  -4.103
REMARK INTRA:                  -0.056
REMARK UNBOUND:                -0.059
REMARK SMILES CC(C)[C@H]([NH3+])C(=O)[O-]
REMARK SMILES IDX 4 1 5 2 6 6 7 7 8 8 2 9 1 10 3 11
REMARK H PARENT 5 3 5 4 5 5
REMARK Flexibility Score: inf
ROOT
ATOM      1  C   UNL     1     -11.383 -71.650   3.122  1.00  0.00     0.230 C 
ENDROOT
BRANCH   1   2
ATOM      2  N   UNL     1     -11.620 -70.197   3.125  1.00  0.00    -0.350 N 
ATOM      3  H   UNL     1     -12.631 -69.992   3.279  1.00  0.00     0.345 HD
ATOM      4  H   UNL     1     -11.086 -69.760   3.912  1.00  0.00     0.345 HD
ATOM      5  H   UNL     1     -11.307 -69.757   2.230  1.00  0.00     0.345 HD
ENDBRANCH   1   2
BRANCH   1   6
ATOM      6  C   UNL     1     -10.052 -71.973   2.488  1.00  0.00     0.099 C 
ATOM      7  O   UNL     1      -9.202 -72.649   3.125  1.00  0.00    -0.544 OA
ATOM      8  O   UNL     1      -9.768 -71.573   1.187  1.00  0.00    -0.544 OA
ENDBRANCH   1   6
BRANCH   1   9
ATOM      9  C   UNL     1     -12.532 -72.453   2.441  1.00  0.00     0.047 C 
ATOM     10  C   UNL     1     -13.938 -71.970   2.835  1.00  0.00     0.014 C 
ATOM     11  C   UNL     1     -12.401 -73.963   2.689  1.00  0.00     0.014 C 
ENDBRANCH   1   9
TORSDOF 3
ENDMDL
MODEL 8
REMARK VINA RESULT:    -3.383      9.880     10.750
REMARK INTER + INTRA:          -3.936
REMARK INTER:                  -3.881
REMARK INTRA:                  -0.056
REMARK UNBOUND:                -0.059
REMARK SMILES CC(C)[C@H]([NH3+])C(=O)[O-]
REMARK SMILES IDX 4 1 5 2 6 6 7 7 8 8 2 9 1 10 3 11
REMARK H PARENT 5 3 5 4 5 5
REMARK Flexibility Score: inf
ROOT
ATOM      1  C   UNL     1     -10.042 -70.460   2.881  1.00  0.00     0.230 C 
ENDROOT
BRANCH   1   2
ATOM      2  N   UNL     1     -11.306 -69.711   2.975  1.00  0.00    -0.350 N 
ATOM      3  H   UNL     1     -12.056 -70.191   2.430  1.00  0.00     0.345 HD
ATOM      4  H   UNL     1     -11.616 -69.676   3.974  1.00  0.00     0.345 HD
ATOM      5  H   UNL     1     -11.197 -68.731   2.629  1.00  0.00     0.345 HD
ENDBRANCH   1   2
BRANCH   1   6
ATOM      6  C   UNL     1      -8.955 -69.598   2.287  1.00  0.00     0.099 C 
ATOM      7  O   UNL     1      -8.225 -68.902   3.041  1.00  0.00    -0.544 OA
ATOM      8  O   UNL     1      -8.715 -69.600   0.918  1.00  0.00    -0.544 OA
ENDBRANCH   1   6
BRANCH   1   9
ATOM      9  C   UNL     1     -10.183 -71.798   2.095  1.00  0.00     0.047 C 
ATOM     10  C   UNL     1     -11.528 -72.508   2.324  1.00  0.00     0.014 C 
ATOM     11  C   UNL     1      -9.020 -72.758   2.386  1.00  0.00     0.014 C 
ENDBRANCH   1   9
TORSDOF 3
ENDMDL
MODEL 9
REMARK VINA RESULT:    -3.326      9.727     10.511
REMARK INTER + INTRA:          -3.871
REMARK INTER:                  -3.810
REMARK INTRA:                  -0.060
REMARK UNBOUND:                -0.059
REMARK SMILES CC(C)[C@H]([NH3+])C(=O)[O-]
REMARK SMILES IDX 4 1 5 2 6 6 7 7 8 8 2 9 1 10 3 11
REMARK H PARENT 5 3 5 4 5 5
REMARK Flexibility Score: inf
ROOT
ATOM      1  C   UNL     1     -10.132 -70.571   2.172  1.00  0.00     0.230 C 
ENDROOT
BRANCH   1   2
ATOM      2  N   UNL     1     -10.932 -69.536   2.846  1.00  0.00    -0.350 N 
ATOM      3  H   UNL     1     -10.327 -68.952   3.464  1.00  0.00     0.345 HD
ATOM      4  H   UNL     1     -11.355 -68.902   2.128  1.00  0.00     0.345 HD
ATOM      5  H   UNL     1     -11.705 -69.957   3.410  1.00  0.00     0.345 HD
ENDBRANCH   1   2
BRANCH   1   6
ATOM      6  C   UNL     1     -10.319 -71.911   2.842  1.00  0.00     0.099 C 
ATOM      7  O   UNL     1     -11.478 -72.314   3.125  1.00  0.00    -0.544 OA
ATOM      8  O   UNL     1      -9.228 -72.730   3.109  1.00  0.00    -0.544 OA
ENDBRANCH   1   6
BRANCH   1   9
ATOM      9  C   UNL     1      -8.620 -70.205   2.073  1.00  0.00     0.047 C 
ATOM     10  C   UNL     1      -8.246 -68.926   2.839  1.00  0.00     0.014 C 
ATOM     11  C   UNL     1      -8.149 -70.108   0.615  1.00  0.00     0.014 C 
ENDBRANCH   1   9
TORSDOF 3
ENDMDL
