MODEL 1
REMARK VINA RESULT:    -3.330      0.000      0.000
REMARK INTER + INTRA:          -3.359
REMARK INTER:                  -4.109
REMARK INTRA:                   0.750
REMARK UNBOUND:                 0.750
REMARK SMILES CC1=CC=CC(C)(C)CC1=O
REMARK SMILES IDX 1 1 2 2 3 3 10 4 11 5 9 6 4 8 5 9 6 10 7 11 8 12
REMARK H PARENT
REMARK Flexibility Score: 80.00
ROOT
ATOM      1  C   UNL     1     -11.355   6.739  24.973  1.00  0.00     0.048 C 
ATOM      2  C   UNL     1     -12.598   6.565  25.813  1.00  0.00    -0.008 C 
ATOM      3  C   UNL     1     -13.615   7.431  25.613  1.00  0.00     0.007 C 
ENDROOT
BRANCH   2   4
ATOM      4  C   UNL     1     -12.630   5.407  26.740  1.00  0.00     0.159 C 
ATOM      5  O   UNL     1     -11.747   4.512  26.627  1.00  0.00    -0.295 OA
BRANCH   4   6
ATOM      6  C   UNL     1     -13.652   5.242  27.822  1.00  0.00     0.091 CG0
ATOM      7  G   UNL     1     -15.100   5.174  27.287  1.00  0.00     0.000 G0
ENDBRANCH   4   6
ENDBRANCH   2   4
BRANCH   3   8
ATOM      8  C   UNL     1     -14.949   7.497  26.256  1.00  0.00    -0.003 C 
ATOM      9  C   UNL     1     -15.597   6.555  26.953  1.00  0.00    -0.020 C 
BRANCH   9  10
ATOM     10  C   UNL     1     -15.088   5.171  27.281  1.00  0.00    -0.010 CG0
ATOM     11  C   UNL     1     -15.977   4.580  28.399  1.00  0.00     0.016 C 
ATOM     12  C   UNL     1     -15.212   4.255  26.041  1.00  0.00     0.016 C 
ATOM     13  G   UNL     1     -13.641   5.261  27.814  1.00  0.00     0.000 G0
ENDBRANCH   9  10
ENDBRANCH   3   8
TORSDOF 0
ENDMDL
MODEL 2
REMARK VINA RESULT:    -3.189      1.904      2.992
REMARK INTER + INTRA:          -3.185
REMARK INTER:                  -3.922
REMARK INTRA:                   0.737
REMARK UNBOUND:                 0.750
REMARK SMILES CC1=CC=CC(C)(C)CC1=O
REMARK SMILES IDX 1 1 2 2 3 3 10 4 11 5 9 6 4 8 5 9 6 10 7 11 8 12
REMARK H PARENT
REMARK Flexibility Score: 80.00
ROOT
ATOM      1  C   UNL     1     -15.057   8.538  26.458  1.00  0.00     0.048 C 
ATOM      2  C   UNL     1     -14.635   7.088  26.497  1.00  0.00    -0.008 C 
ATOM      3  C   UNL     1     -13.319   6.814  26.369  1.00  0.00     0.007 C 
ENDROOT
BRANCH   2   4
ATOM      4  C   UNL     1     -15.698   6.083  26.749  1.00  0.00     0.159 C 
ATOM      5  O   UNL     1     -16.838   6.481  27.116  1.00  0.00    -0.295 OA
BRANCH   4   6
ATOM      6  C   UNL     1     -15.498   4.608  26.579  1.00  0.00     0.091 CG0
ATOM      7  G   UNL     1     -14.367   4.040  27.466  1.00  0.00     0.000 G0
ENDBRANCH   4   6
ENDBRANCH   2   4
BRANCH   3   8
ATOM      8  C   UNL     1     -12.611   5.513  26.394  1.00  0.00    -0.003 C 
ATOM      9  C   UNL     1     -13.034   4.331  26.860  1.00  0.00    -0.020 C 
BRANCH   9  10
ATOM     10  C   UNL     1     -14.386   4.036  27.464  1.00  0.00    -0.010 CG0
ATOM     11  C   UNL     1     -14.579   2.502  27.497  1.00  0.00     0.016 C 
ATOM     12  C   UNL     1     -14.439   4.553  28.920  1.00  0.00     0.016 C 
ATOM     13  G   UNL     1     -15.496   4.641  26.576  1.00  0.00     0.000 G0
ENDBRANCH   9  10
ENDBRANCH   3   8
TORSDOF 0
ENDMDL
MODEL 3
REMARK VINA RESULT:    -2.923      1.642      2.705
REMARK INTER + INTRA:          -2.856
REMARK INTER:                  -3.612
REMARK INTRA:                   0.756
REMARK UNBOUND:                 0.750
REMARK SMILES CC1=CC=CC(C)(C)CC1=O
REMARK SMILES IDX 1 1 2 2 3 3 10 4 11 5 9 6 4 8 5 9 6 10 7 11 8 12
REMARK H PARENT
REMARK Flexibility Score: 80.00
ROOT
ATOM      1  C   UNL     1     -15.938   8.325  26.134  1.00  0.00     0.048 C 
ATOM      2  C   UNL     1     -15.549   7.084  26.899  1.00  0.00    -0.008 C 
ATOM      3  C   UNL     1     -16.352   6.695  27.914  1.00  0.00     0.007 C 
ENDROOT
BRANCH   2   4
ATOM      4  C   UNL     1     -14.352   6.346  26.424  1.00  0.00     0.159 C 
ATOM      5  O   UNL     1     -13.829   6.677  25.325  1.00  0.00    -0.295 OA
BRANCH   4   6
ATOM      6  C   UNL     1     -13.714   5.226  27.189  1.00  0.00     0.091 CG0
ATOM      7  G   UNL     1     -14.674   4.046  27.456  1.00  0.00     0.000 G0
ENDBRANCH   4   6
ENDBRANCH   2   4
BRANCH   3   8
ATOM      8  C   UNL     1     -16.246   5.524  28.815  1.00  0.00    -0.003 C 
ATOM      9  C   UNL     1     -15.558   4.387  28.646  1.00  0.00    -0.020 C 
BRANCH   9  10
ATOM     10  C   UNL     1     -14.677   4.039  27.470  1.00  0.00    -0.010 CG0
ATOM     11  C   UNL     1     -13.822   2.808  27.852  1.00  0.00     0.016 C 
ATOM     12  C   UNL     1     -15.550   3.652  26.253  1.00  0.00     0.016 C 
ATOM     13  G   UNL     1     -13.721   5.214  27.168  1.00  0.00     0.000 G0
ENDBRANCH   9  10
ENDBRANCH   3   8
TORSDOF 0
ENDMDL
MODEL 4
REMARK VINA RESULT:    -2.910      7.487      9.440
REMARK INTER + INTRA:          -2.840
REMARK INTER:                  -3.603
REMARK INTRA:                   0.762
REMARK UNBOUND:                 0.750
REMARK SMILES CC1=CC=CC(C)(C)CC1=O
REMARK SMILES IDX 1 1 2 2 3 3 10 4 11 5 9 6 4 8 5 9 6 10 7 11 8 12
REMARK H PARENT
REMARK Flexibility Score: 80.00
ROOT
ATOM      1  C   UNL     1     -20.865   1.361  33.485  1.00  0.00     0.048 C 
ATOM      2  C   UNL     1     -19.732   0.566  32.881  1.00  0.00    -0.008 C 
ATOM      3  C   UNL     1     -20.053  -0.470  32.076  1.00  0.00     0.007 C 
ENDROOT
BRANCH   2   4
ATOM      4  C   UNL     1     -18.353   1.036  33.163  1.00  0.00     0.159 C 
ATOM      5  O   UNL     1     -18.192   2.165  33.703  1.00  0.00    -0.295 OA
BRANCH   4   6
ATOM      6  C   UNL     1     -17.127   0.233  32.852  1.00  0.00     0.091 CG0
ATOM      7  G   UNL     1     -16.994  -0.119  31.353  1.00  0.00     0.000 G0
ENDBRANCH   4   6
ENDBRANCH   2   4
BRANCH   3   8
ATOM      8  C   UNL     1     -19.176  -1.403  31.331  1.00  0.00    -0.003 C 
ATOM      9  C   UNL     1     -17.885  -1.266  31.000  1.00  0.00    -0.020 C 
BRANCH   9  10
ATOM     10  C   UNL     1     -16.989  -0.101  31.347  1.00  0.00    -0.010 CG0
ATOM     11  C   UNL     1     -15.525  -0.519  31.078  1.00  0.00     0.016 C 
ATOM     12  C   UNL     1     -17.315   1.106  30.436  1.00  0.00     0.016 C 
ATOM     13  G   UNL     1     -17.125   0.232  32.849  1.00  0.00     0.000 G0
ENDBRANCH   9  10
ENDBRANCH   3   8
TORSDOF 0
ENDMDL
MODEL 5
REMARK VINA RESULT:    -2.838      7.894      9.695
REMARK INTER + INTRA:          -2.751
REMARK INTER:                  -3.499
REMARK INTRA:                   0.748
REMARK UNBOUND:                 0.750
REMARK SMILES CC1=CC=CC(C)(C)CC1=O
REMARK SMILES IDX 1 1 2 2 3 3 10 4 11 5 9 6 4 8 5 9 6 10 7 11 8 12
REMARK H PARENT
REMARK Flexibility Score: 80.00
ROOT
ATOM      1  C   UNL     1     -20.104  -1.858  31.397  1.00  0.00     0.048 C 
ATOM      2  C   UNL     1     -19.278  -0.812  32.106  1.00  0.00    -0.008 C 
ATOM      3  C   UNL     1     -17.952  -1.039  32.230  1.00  0.00     0.007 C 
ENDROOT
BRANCH   2   4
ATOM      4  C   UNL     1     -19.980   0.420  32.544  1.00  0.00     0.159 C 
ATOM      5  O   UNL     1     -21.148   0.638  32.121  1.00  0.00    -0.295 OA
BRANCH   4   6
ATOM      6  C   UNL     1     -19.381   1.424  33.481  1.00  0.00     0.091 CG0
ATOM      7  G   UNL     1     -18.077   2.056  32.944  1.00  0.00     0.000 G0
ENDBRANCH   4   6
ENDBRANCH   2   4
BRANCH   3   8
ATOM      8  C   UNL     1     -16.896  -0.199  32.842  1.00  0.00    -0.003 C 
ATOM      9  C   UNL     1     -16.921   1.108  33.135  1.00  0.00    -0.020 C 
BRANCH   9  10
ATOM     10  C   UNL     1     -18.082   2.052  32.929  1.00  0.00    -0.010 CG0
ATOM     11  C   UNL     1     -17.813   3.337  33.745  1.00  0.00     0.016 C 
ATOM     12  C   UNL     1     -18.181   2.448  31.437  1.00  0.00     0.016 C 
ATOM     13  G   UNL     1     -19.380   1.406  33.462  1.00  0.00     0.000 G0
ENDBRANCH   9  10
ENDBRANCH   3   8
TORSDOF 0
ENDMDL
MODEL 6
REMARK VINA RESULT:    -2.797      7.837      9.525
REMARK INTER + INTRA:          -2.701
REMARK INTER:                  -3.461
REMARK INTRA:                   0.760
REMARK UNBOUND:                 0.750
REMARK SMILES CC1=CC=CC(C)(C)CC1=O
REMARK SMILES IDX 1 1 2 2 3 3 10 4 11 5 9 6 4 8 5 9 6 10 7 11 8 12
REMARK H PARENT
REMARK Flexibility Score: 80.00
ROOT
ATOM      1  C   UNL     1     -19.836  -3.074  20.727  1.00  0.00     0.048 C 
ATOM      2  C   UNL     1     -19.383  -2.018  21.706  1.00  0.00    -0.008 C 
ATOM      3  C   UNL     1     -19.882  -0.772  21.559  1.00  0.00     0.007 C 
ENDROOT
BRANCH   2   4
ATOM      4  C   UNL     1     -18.480  -2.454  22.800  1.00  0.00     0.159 C 
ATOM      5  O   UNL     1     -18.311  -3.689  22.994  1.00  0.00    -0.295 OA
BRANCH   4   6
ATOM      6  C   UNL     1     -17.739  -1.503  23.690  1.00  0.00     0.091 CG0
ATOM      7  G   UNL     1     -18.671  -0.561  24.485  1.00  0.00     0.000 G0
ENDBRANCH   4   6
ENDBRANCH   2   4
BRANCH   3   8
ATOM      8  C   UNL     1     -19.649   0.448  22.367  1.00  0.00    -0.003 C 
ATOM      9  C   UNL     1     -19.155   0.558  23.607  1.00  0.00    -0.020 C 
BRANCH   9  10
ATOM     10  C   UNL     1     -18.678  -0.573  24.486  1.00  0.00    -0.010 CG0
ATOM     11  C   UNL     1     -17.868   0.030  25.657  1.00  0.00     0.016 C 
ATOM     12  C   UNL     1     -19.891  -1.324  25.085  1.00  0.00     0.016 C 
ATOM     13  G   UNL     1     -17.742  -1.501  23.681  1.00  0.00     0.000 G0
ENDBRANCH   9  10
ENDBRANCH   3   8
TORSDOF 0
ENDMDL
MODEL 7
REMARK VINA RESULT:    -2.780      7.966      9.208
REMARK INTER + INTRA:          -2.680
REMARK INTER:                  -3.451
REMARK INTRA:                   0.771
REMARK UNBOUND:                 0.750
REMARK SMILES CC1=CC=CC(C)(C)CC1=O
REMARK SMILES IDX 1 1 2 2 3 3 10 4 11 5 9 6 4 8 5 9 6 10 7 11 8 12
REMARK H PARENT
REMARK Flexibility Score: 80.00
ROOT
ATOM      1  C   UNL     1     -17.248  -0.744  33.258  1.00  0.00     0.048 C 
ATOM      2  C   UNL     1     -18.145  -0.868  32.050  1.00  0.00    -0.008 C 
ATOM      3  C   UNL     1     -19.444  -1.171  32.263  1.00  0.00     0.007 C 
ENDROOT
BRANCH   2   4
ATOM      4  C   UNL     1     -17.541  -0.572  30.727  1.00  0.00     0.159 C 
ATOM      5  O   UNL     1     -16.387  -0.064  30.685  1.00  0.00    -0.295 OA
BRANCH   4   6
ATOM      6  C   UNL     1     -18.224  -0.856  29.424  1.00  0.00     0.091 CG0
ATOM      7  G   UNL     1     -19.586  -0.140  29.282  1.00  0.00     0.000 G0
ENDBRANCH   4   6
ENDBRANCH   2   4
BRANCH   3   8
ATOM      8  C   UNL     1     -20.555  -1.331  31.295  1.00  0.00    -0.003 C 
ATOM      9  C   UNL     1     -20.643  -0.896  30.031  1.00  0.00    -0.020 C 
BRANCH   9  10
ATOM     10  C   UNL     1     -19.582  -0.141  29.266  1.00  0.00    -0.010 CG0
ATOM     11  C   UNL     1     -19.969  -0.143  27.769  1.00  0.00     0.016 C 
ATOM     12  C   UNL     1     -19.532   1.329  29.743  1.00  0.00     0.016 C 
ATOM     13  G   UNL     1     -18.222  -0.861  29.412  1.00  0.00     0.000 G0
ENDBRANCH   9  10
ENDBRANCH   3   8
TORSDOF 0
ENDMDL
MODEL 8
REMARK VINA RESULT:    -2.727     10.083     11.551
REMARK INTER + INTRA:          -2.614
REMARK INTER:                  -3.373
REMARK INTRA:                   0.759
REMARK UNBOUND:                 0.750
REMARK SMILES CC1=CC=CC(C)(C)CC1=O
REMARK SMILES IDX 1 1 2 2 3 3 10 4 11 5 9 6 4 8 5 9 6 10 7 11 8 12
REMARK H PARENT
REMARK Flexibility Score: 80.00
ROOT
ATOM      1  C   UNL     1     -19.537  -5.176  22.510  1.00  0.00     0.048 C 
ATOM      2  C   UNL     1     -19.830  -3.839  21.873  1.00  0.00    -0.008 C 
ATOM      3  C   UNL     1     -20.591  -3.830  20.757  1.00  0.00     0.007 C 
ENDROOT
BRANCH   2   4
ATOM      4  C   UNL     1     -19.319  -2.632  22.570  1.00  0.00     0.159 C 
ATOM      5  O   UNL     1     -18.844  -2.756  23.732  1.00  0.00    -0.295 OA
BRANCH   4   6
ATOM      6  C   UNL     1     -19.323  -1.263  21.962  1.00  0.00     0.091 CG0
ATOM      7  G   UNL     1     -20.736  -0.773  21.574  1.00  0.00     0.000 G0
ENDBRANCH   4   6
ENDBRANCH   2   4
BRANCH   3   8
ATOM      8  C   UNL     1     -21.062  -2.690  19.935  1.00  0.00    -0.003 C 
ATOM      9  C   UNL     1     -21.143  -1.393  20.259  1.00  0.00    -0.020 C 
BRANCH   9  10
ATOM     10  C   UNL     1     -20.731  -0.768  21.570  1.00  0.00    -0.010 CG0
ATOM     11  C   UNL     1     -20.663   0.765  21.378  1.00  0.00     0.016 C 
ATOM     12  C   UNL     1     -21.795  -1.064  22.654  1.00  0.00     0.016 C 
ATOM     13  G   UNL     1     -19.323  -1.266  21.966  1.00  0.00     0.000 G0
ENDBRANCH   9  10
ENDBRANCH   3   8
TORSDOF 0
ENDMDL
MODEL 9
REMARK VINA RESULT:    -2.662      8.000      8.878
REMARK INTER + INTRA:          -2.534
REMARK INTER:                  -3.298
REMARK INTRA:                   0.764
REMARK UNBOUND:                 0.750
REMARK SMILES CC1=CC=CC(C)(C)CC1=O
REMARK SMILES IDX 1 1 2 2 3 3 10 4 11 5 9 6 4 8 5 9 6 10 7 11 8 12
REMARK H PARENT
REMARK Flexibility Score: 80.00
ROOT
ATOM      1  C   UNL     1     -15.189  -0.740  31.341  1.00  0.00     0.048 C 
ATOM      2  C   UNL     1     -16.557  -0.106  31.405  1.00  0.00    -0.008 C 
ATOM      3  C   UNL     1     -17.192   0.134  30.237  1.00  0.00     0.007 C 
ENDROOT
BRANCH   2   4
ATOM      4  C   UNL     1     -17.127   0.136  32.753  1.00  0.00     0.159 C 
ATOM      5  O   UNL     1     -16.550  -0.366  33.757  1.00  0.00    -0.295 OA
BRANCH   4   6
ATOM      6  C   UNL     1     -18.353   0.961  32.997  1.00  0.00     0.091 CG0
ATOM      7  G   UNL     1     -19.605   0.421  32.269  1.00  0.00     0.000 G0
ENDBRANCH   4   6
ENDBRANCH   2   4
BRANCH   3   8
ATOM      8  C   UNL     1     -18.533   0.712  29.984  1.00  0.00    -0.003 C 
ATOM      9  C   UNL     1     -19.571   0.835  30.821  1.00  0.00    -0.020 C 
BRANCH   9  10
ATOM     10  C   UNL     1     -19.606   0.425  32.274  1.00  0.00    -0.010 CG0
ATOM     11  C   UNL     1     -20.852   1.063  32.929  1.00  0.00     0.016 C 
ATOM     12  C   UNL     1     -19.743  -1.112  32.385  1.00  0.00     0.016 C 
ATOM     13  G   UNL     1     -18.352   0.964  32.998  1.00  0.00     0.000 G0
ENDBRANCH   9  10
ENDBRANCH   3   8
TORSDOF 0
ENDMDL
