MODEL 1
REMARK VINA RESULT:     1.123      0.000      0.000
REMARK INTER + INTRA:           2.190
REMARK INTER:                   1.747
REMARK INTRA:                   0.443
REMARK UNBOUND:                 0.443
REMARK SMILES COc1cc(CNC(=O)CCCCC=CC(C)C)ccc1O
REMARK SMILES IDX 11 1 12 2 13 3 14 4 15 5 16 6 17 7 18 8 10 9 8 10 9 11 7 12
REMARK SMILES IDX 6 14 5 15 4 16 19 17 3 18 20 19 21 20 2 21 1 22 22 23
REMARK H PARENT 7 13 22 24
REMARK Flexibility Score: inf
ROOT
ATOM      1  C   UNL     1       2.997  10.728  11.961  1.00  0.00     0.010 C 
ENDROOT
BRANCH   1   2
ATOM      2  C   UNL     1       3.239   9.668  10.875  1.00  0.00     0.005 C 
BRANCH   2   3
ATOM      3  C   UNL     1       4.672   9.116  10.901  1.00  0.00     0.027 C 
BRANCH   3   4
ATOM      4  C   UNL     1       4.669   7.612  10.927  1.00  0.00    -0.031 C 
ATOM      5  C   UNL     1       4.241   6.929  12.001  1.00  0.00    -0.028 C 
BRANCH   5   6
ATOM      6  C   UNL     1       4.223   5.419  12.015  1.00  0.00     0.005 C 
ATOM      7  C   UNL     1       5.380   4.875  12.861  1.00  0.00     0.012 C 
ATOM      8  C   UNL     1       2.882   4.905  12.553  1.00  0.00     0.012 C 
ENDBRANCH   5   6
ENDBRANCH   3   4
ENDBRANCH   2   3
ENDBRANCH   1   2
BRANCH   1   9
ATOM      9  C   UNL     1       2.149  10.196  13.124  1.00  0.00     0.100 C 
BRANCH   9  10
ATOM     10  C   UNL     1       3.018   9.871  14.300  1.00  0.00     0.220 C 
ATOM     11  O   UNL     1       3.040  10.650  15.290  1.00  0.00    -0.275 OA
ATOM     12  N   UNL     1       3.787   8.660  14.312  1.00  0.00    -0.352 N 
ATOM     13  H   UNL     1       3.709   8.001  13.505  1.00  0.00     0.163 HD
BRANCH  12  14
ATOM     14  C   UNL     1       4.661   8.295  15.425  1.00  0.00     0.151 C 
BRANCH  14  15
ATOM     15  C   UNL     1       6.096   8.257  14.970  1.00  0.00    -0.025 A 
ATOM     16  C   UNL     1       6.495   7.342  13.982  1.00  0.00     0.056 A 
ATOM     17  C   UNL     1       7.037   9.148  15.505  1.00  0.00     0.009 A 
ATOM     18  C   UNL     1       7.830   7.310  13.532  1.00  0.00     0.160 A 
ATOM     19  C   UNL     1       8.361   9.122  15.064  1.00  0.00     0.050 A 
ATOM     20  C   UNL     1       8.761   8.206  14.080  1.00  0.00     0.157 A 
BRANCH  18  21
ATOM     21  O   UNL     1       8.266   6.410  12.549  1.00  0.00    -0.493 OA
ATOM     22  C   UNL     1       7.749   6.351  11.224  1.00  0.00     0.278 C 
ENDBRANCH  18  21
BRANCH  20  23
ATOM     23  O   UNL     1      10.083   8.180  13.640  1.00  0.00    -0.504 OA
ATOM     24  H   UNL     1      10.838   7.876  14.244  1.00  0.00     0.293 HD
ENDBRANCH  20  23
ENDBRANCH  14  15
ENDBRANCH  12  14
ENDBRANCH   9  10
ENDBRANCH   1   9
TORSDOF 10
ENDMDL
MODEL 2
REMARK VINA RESULT:     1.632      2.630      7.146
REMARK INTER + INTRA:           2.982
REMARK INTER:                   3.521
REMARK INTRA:                  -0.539
REMARK UNBOUND:                 0.443
REMARK SMILES COc1cc(CNC(=O)CCCCC=CC(C)C)ccc1O
REMARK SMILES IDX 11 1 12 2 13 3 14 4 15 5 16 6 17 7 18 8 10 9 8 10 9 11 7 12
REMARK SMILES IDX 6 14 5 15 4 16 19 17 3 18 20 19 21 20 2 21 1 22 22 23
REMARK H PARENT 7 13 22 24
REMARK Flexibility Score: inf
ROOT
ATOM      1  C   UNL     1       8.610   6.714  12.561  1.00  0.00     0.010 C 
ENDROOT
BRANCH   1   2
ATOM      2  C   UNL     1       8.461   7.523  13.859  1.00  0.00     0.005 C 
BRANCH   2   3
ATOM      3  C   UNL     1       9.464   8.683  13.947  1.00  0.00     0.027 C 
BRANCH   3   4
ATOM      4  C   UNL     1      10.793   8.208  14.468  1.00  0.00    -0.031 C 
ATOM      5  C   UNL     1      11.434   8.858  15.452  1.00  0.00    -0.028 C 
BRANCH   5   6
ATOM      6  C   UNL     1      12.759   8.366  15.985  1.00  0.00     0.005 C 
ATOM      7  C   UNL     1      13.497   7.549  14.917  1.00  0.00     0.012 C 
ATOM      8  C   UNL     1      13.623   9.547  16.444  1.00  0.00     0.012 C 
ENDBRANCH   5   6
ENDBRANCH   3   4
ENDBRANCH   2   3
ENDBRANCH   1   2
BRANCH   1   9
ATOM      9  C   UNL     1       7.899   5.357  12.628  1.00  0.00     0.100 C 
BRANCH   9  10
ATOM     10  C   UNL     1       6.486   5.528  13.096  1.00  0.00     0.220 C 
ATOM     11  O   UNL     1       6.095   4.917  14.127  1.00  0.00    -0.275 OA
ATOM     12  N   UNL     1       5.600   6.413  12.397  1.00  0.00    -0.352 N 
ATOM     13  H   UNL     1       5.963   6.952  11.579  1.00  0.00     0.163 HD
BRANCH  12  14
ATOM     14  C   UNL     1       4.209   6.611  12.798  1.00  0.00     0.151 C 
BRANCH  14  15
ATOM     15  C   UNL     1       3.737   7.981  12.389  1.00  0.00    -0.025 A 
ATOM     16  C   UNL     1       2.704   8.609  13.103  1.00  0.00     0.056 A 
ATOM     17  C   UNL     1       4.340   8.650  11.315  1.00  0.00     0.009 A 
ATOM     18  C   UNL     1       2.267   9.900  12.744  1.00  0.00     0.160 A 
ATOM     19  C   UNL     1       3.911   9.929  10.954  1.00  0.00     0.050 A 
ATOM     20  C   UNL     1       2.878  10.556  11.665  1.00  0.00     0.157 A 
BRANCH  18  21
ATOM     21  O   UNL     1       1.237  10.559  13.432  1.00  0.00    -0.493 OA
ATOM     22  C   UNL     1      -0.125  10.580  13.017  1.00  0.00     0.278 C 
ENDBRANCH  18  21
BRANCH  20  23
ATOM     23  O   UNL     1       2.451  11.833  11.304  1.00  0.00    -0.504 OA
ATOM     24  H   UNL     1       2.924  12.665  11.638  1.00  0.00     0.293 HD
ENDBRANCH  20  23
ENDBRANCH  14  15
ENDBRANCH  12  14
ENDBRANCH   9  10
ENDBRANCH   1   9
TORSDOF 10
ENDMDL
MODEL 3
REMARK VINA RESULT:     1.675      2.594      6.940
REMARK INTER + INTRA:           3.049
REMARK INTER:                   3.728
REMARK INTRA:                  -0.679
REMARK UNBOUND:                 0.443
REMARK SMILES COc1cc(CNC(=O)CCCCC=CC(C)C)ccc1O
REMARK SMILES IDX 11 1 12 2 13 3 14 4 15 5 16 6 17 7 18 8 10 9 8 10 9 11 7 12
REMARK SMILES IDX 6 14 5 15 4 16 19 17 3 18 20 19 21 20 2 21 1 22 22 23
REMARK H PARENT 7 13 22 24
REMARK Flexibility Score: inf
ROOT
ATOM      1  C   UNL     1       8.616   6.606  12.792  1.00  0.00     0.010 C 
ENDROOT
BRANCH   1   2
ATOM      2  C   UNL     1       8.295   7.492  14.006  1.00  0.00     0.005 C 
BRANCH   2   3
ATOM      3  C   UNL     1       9.287   8.653  14.165  1.00  0.00     0.027 C 
BRANCH   3   4
ATOM      4  C   UNL     1      10.629   8.156  14.627  1.00  0.00    -0.031 C 
ATOM      5  C   UNL     1      11.428   8.908  15.402  1.00  0.00    -0.028 C 
BRANCH   5   6
ATOM      6  C   UNL     1      12.766   8.397  15.879  1.00  0.00     0.005 C 
ATOM      7  C   UNL     1      13.402   7.486  14.821  1.00  0.00     0.012 C 
ATOM      8  C   UNL     1      13.702   9.568  16.205  1.00  0.00     0.012 C 
ENDBRANCH   5   6
ENDBRANCH   3   4
ENDBRANCH   2   3
ENDBRANCH   1   2
BRANCH   1   9
ATOM      9  C   UNL     1       7.759   5.335  12.748  1.00  0.00     0.100 C 
BRANCH   9  10
ATOM     10  C   UNL     1       6.343   5.671  12.392  1.00  0.00     0.220 C 
ATOM     11  O   UNL     1       5.405   4.950  12.827  1.00  0.00    -0.275 OA
ATOM     12  N   UNL     1       6.058   6.828  11.594  1.00  0.00    -0.352 N 
ATOM     13  H   UNL     1       6.847   7.442  11.291  1.00  0.00     0.163 HD
BRANCH  12  14
ATOM     14  C   UNL     1       4.699   7.199  11.204  1.00  0.00     0.151 C 
BRANCH  14  15
ATOM     15  C   UNL     1       4.199   8.329  12.064  1.00  0.00    -0.025 A 
ATOM     16  C   UNL     1       3.585   9.443  11.469  1.00  0.00     0.056 A 
ATOM     17  C   UNL     1       4.317   8.269  13.460  1.00  0.00     0.009 A 
ATOM     18  C   UNL     1       3.094  10.499  12.264  1.00  0.00     0.160 A 
ATOM     19  C   UNL     1       3.833   9.312  14.251  1.00  0.00     0.050 A 
ATOM     20  C   UNL     1       3.222  10.426  13.659  1.00  0.00     0.157 A 
BRANCH  18  21
ATOM     21  O   UNL     1       2.475  11.629  11.706  1.00  0.00    -0.493 OA
ATOM     22  C   UNL     1       1.301  11.591  10.903  1.00  0.00     0.278 C 
ENDBRANCH  18  21
BRANCH  20  23
ATOM     23  O   UNL     1       2.739  11.466  14.451  1.00  0.00    -0.504 OA
ATOM     24  H   UNL     1       3.292  12.297  14.631  1.00  0.00     0.293 HD
ENDBRANCH  20  23
ENDBRANCH  14  15
ENDBRANCH  12  14
ENDBRANCH   9  10
ENDBRANCH   1   9
TORSDOF 10
ENDMDL
MODEL 4
REMARK VINA RESULT:     2.300      2.703      6.760
REMARK INTER + INTRA:           4.021
REMARK INTER:                   4.764
REMARK INTRA:                  -0.743
REMARK UNBOUND:                 0.443
REMARK SMILES COc1cc(CNC(=O)CCCCC=CC(C)C)ccc1O
REMARK SMILES IDX 11 1 12 2 13 3 14 4 15 5 16 6 17 7 18 8 10 9 8 10 9 11 7 12
REMARK SMILES IDX 6 14 5 15 4 16 19 17 3 18 20 19 21 20 2 21 1 22 22 23
REMARK H PARENT 7 13 22 24
REMARK Flexibility Score: inf
ROOT
ATOM      1  C   UNL     1       7.279   7.278  12.109  1.00  0.00     0.010 C 
ENDROOT
BRANCH   1   2
ATOM      2  C   UNL     1       8.679   7.091  12.714  1.00  0.00     0.005 C 
BRANCH   2   3
ATOM      3  C   UNL     1       9.012   8.161  13.766  1.00  0.00     0.027 C 
BRANCH   3   4
ATOM      4  C   UNL     1      10.499   8.339  13.899  1.00  0.00    -0.031 C 
ATOM      5  C   UNL     1      11.072   8.589  15.088  1.00  0.00    -0.028 C 
BRANCH   5   6
ATOM      6  C   UNL     1      12.568   8.749  15.220  1.00  0.00     0.005 C 
ATOM      7  C   UNL     1      12.952   9.026  16.679  1.00  0.00     0.012 C 
ATOM      8  C   UNL     1      13.288   7.496  14.708  1.00  0.00     0.012 C 
ENDBRANCH   5   6
ENDBRANCH   3   4
ENDBRANCH   2   3
ENDBRANCH   1   2
BRANCH   1   9
ATOM      9  C   UNL     1       6.338   6.110  12.430  1.00  0.00     0.100 C 
BRANCH   9  10
ATOM     10  C   UNL     1       5.093   6.608  13.098  1.00  0.00     0.220 C 
ATOM     11  O   UNL     1       4.017   5.965  12.965  1.00  0.00    -0.275 OA
ATOM     12  N   UNL     1       5.138   7.785  13.915  1.00  0.00    -0.352 N 
ATOM     13  H   UNL     1       6.053   8.270  14.057  1.00  0.00     0.163 HD
BRANCH  12  14
ATOM     14  C   UNL     1       3.955   8.326  14.581  1.00  0.00     0.151 C 
BRANCH  14  15
ATOM     15  C   UNL     1       3.174   9.196  13.633  1.00  0.00    -0.025 A 
ATOM     16  C   UNL     1       3.851  10.016  12.715  1.00  0.00     0.056 A 
ATOM     17  C   UNL     1       1.772   9.178  13.638  1.00  0.00     0.009 A 
ATOM     18  C   UNL     1       3.132  10.820  11.807  1.00  0.00     0.160 A 
ATOM     19  C   UNL     1       1.055   9.972  12.742  1.00  0.00     0.050 A 
ATOM     20  C   UNL     1       1.730  10.793  11.827  1.00  0.00     0.157 A 
BRANCH  18  21
ATOM     21  O   UNL     1       3.773  11.652  10.876  1.00  0.00    -0.493 OA
ATOM     22  C   UNL     1       4.386  12.896  11.195  1.00  0.00     0.278 C 
ENDBRANCH  18  21
BRANCH  20  23
ATOM     23  O   UNL     1       1.013  11.585  10.932  1.00  0.00    -0.504 OA
ATOM     24  H   UNL     1       0.925  12.587  11.063  1.00  0.00     0.293 HD
ENDBRANCH  20  23
ENDBRANCH  14  15
ENDBRANCH  12  14
ENDBRANCH   9  10
ENDBRANCH   1   9
TORSDOF 10
ENDMDL
MODEL 5
REMARK VINA RESULT:     2.505      3.848      8.035
REMARK INTER + INTRA:           4.339
REMARK INTER:                   4.430
REMARK INTRA:                  -0.091
REMARK UNBOUND:                 0.443
REMARK SMILES COc1cc(CNC(=O)CCCCC=CC(C)C)ccc1O
REMARK SMILES IDX 11 1 12 2 13 3 14 4 15 5 16 6 17 7 18 8 10 9 8 10 9 11 7 12
REMARK SMILES IDX 6 14 5 15 4 16 19 17 3 18 20 19 21 20 2 21 1 22 22 23
REMARK H PARENT 7 13 22 24
REMARK Flexibility Score: inf
ROOT
ATOM      1  C   UNL     1      10.748   8.772  15.307  1.00  0.00     0.010 C 
ENDROOT
BRANCH   1   2
ATOM      2  C   UNL     1      12.239   8.402  15.318  1.00  0.00     0.005 C 
BRANCH   2   3
ATOM      3  C   UNL     1      13.024   9.157  16.402  1.00  0.00     0.027 C 
BRANCH   3   4
ATOM      4  C   UNL     1      12.506   8.824  17.774  1.00  0.00    -0.031 C 
ATOM      5  C   UNL     1      13.044   9.366  18.878  1.00  0.00    -0.028 C 
BRANCH   5   6
ATOM      6  C   UNL     1      12.507   9.044  20.252  1.00  0.00     0.005 C 
ATOM      7  C   UNL     1      13.398   8.007  20.948  1.00  0.00     0.012 C 
ATOM      8  C   UNL     1      12.410  10.318  21.101  1.00  0.00     0.012 C 
ENDBRANCH   5   6
ENDBRANCH   3   4
ENDBRANCH   2   3
ENDBRANCH   1   2
BRANCH   1   9
ATOM      9  C   UNL     1      10.052   8.369  14.001  1.00  0.00     0.100 C 
BRANCH   9  10
ATOM     10  C   UNL     1       8.624   7.998  14.261  1.00  0.00     0.220 C 
ATOM     11  O   UNL     1       7.931   8.704  15.042  1.00  0.00    -0.275 OA
ATOM     12  N   UNL     1       8.042   6.870  13.594  1.00  0.00    -0.352 N 
ATOM     13  H   UNL     1       8.619   6.333  12.909  1.00  0.00     0.163 HD
BRANCH  12  14
ATOM     14  C   UNL     1       6.659   6.452  13.818  1.00  0.00     0.151 C 
BRANCH  14  15
ATOM     15  C   UNL     1       5.711   7.382  13.109  1.00  0.00    -0.025 A 
ATOM     16  C   UNL     1       4.911   8.267  13.850  1.00  0.00     0.056 A 
ATOM     17  C   UNL     1       5.638   7.393  11.709  1.00  0.00     0.009 A 
ATOM     18  C   UNL     1       4.035   9.158  13.198  1.00  0.00     0.160 A 
ATOM     19  C   UNL     1       4.772   8.273  11.057  1.00  0.00     0.050 A 
ATOM     20  C   UNL     1       3.971   9.155  11.797  1.00  0.00     0.157 A 
BRANCH  18  21
ATOM     21  O   UNL     1       3.219  10.055  13.904  1.00  0.00    -0.493 OA
ATOM     22  C   UNL     1       1.797  10.063  13.853  1.00  0.00     0.278 C 
ENDBRANCH  18  21
BRANCH  20  23
ATOM     23  O   UNL     1       3.107  10.033  11.144  1.00  0.00    -0.504 OA
ATOM     24  H   UNL     1       2.380  10.533  11.645  1.00  0.00     0.293 HD
ENDBRANCH  20  23
ENDBRANCH  14  15
ENDBRANCH  12  14
ENDBRANCH   9  10
ENDBRANCH   1   9
TORSDOF 10
ENDMDL
MODEL 6
REMARK VINA RESULT:     3.060      3.275      5.668
REMARK INTER + INTRA:           5.203
REMARK INTER:                   5.710
REMARK INTRA:                  -0.507
REMARK UNBOUND:                 0.443
REMARK SMILES COc1cc(CNC(=O)CCCCC=CC(C)C)ccc1O
REMARK SMILES IDX 11 1 12 2 13 3 14 4 15 5 16 6 17 7 18 8 10 9 8 10 9 11 7 12
REMARK SMILES IDX 6 14 5 15 4 16 19 17 3 18 20 19 21 20 2 21 1 22 22 23
REMARK H PARENT 7 13 22 24
REMARK Flexibility Score: inf
ROOT
ATOM      1  C   UNL     1       6.276   5.315  12.724  1.00  0.00     0.010 C 
ENDROOT
BRANCH   1   2
ATOM      2  C   UNL     1       4.911   6.014  12.622  1.00  0.00     0.005 C 
BRANCH   2   3
ATOM      3  C   UNL     1       4.885   7.096  11.532  1.00  0.00     0.027 C 
BRANCH   3   4
ATOM      4  C   UNL     1       4.239   8.356  12.038  1.00  0.00    -0.031 C 
ATOM      5  C   UNL     1       3.955   9.378  11.215  1.00  0.00    -0.028 C 
BRANCH   5   6
ATOM      6  C   UNL     1       3.288  10.634  11.725  1.00  0.00     0.005 C 
ATOM      7  C   UNL     1       3.603  10.845  13.211  1.00  0.00     0.012 C 
ATOM      8  C   UNL     1       3.740  11.850  10.906  1.00  0.00     0.012 C 
ENDBRANCH   5   6
ENDBRANCH   3   4
ENDBRANCH   2   3
ENDBRANCH   1   2
BRANCH   1   9
ATOM      9  C   UNL     1       7.442   6.249  12.380  1.00  0.00     0.100 C 
BRANCH   9  10
ATOM     10  C   UNL     1       7.832   7.063  13.576  1.00  0.00     0.220 C 
ATOM     11  O   UNL     1       7.101   7.048  14.603  1.00  0.00    -0.275 OA
ATOM     12  N   UNL     1       9.050   7.820  13.564  1.00  0.00    -0.352 N 
ATOM     13  H   UNL     1       9.668   7.773  12.723  1.00  0.00     0.163 HD
BRANCH  12  14
ATOM     14  C   UNL     1       9.475   8.643  14.695  1.00  0.00     0.151 C 
BRANCH  14  15
ATOM     15  C   UNL     1      10.958   8.501  14.915  1.00  0.00    -0.025 A 
ATOM     16  C   UNL     1      11.566   9.127  16.015  1.00  0.00     0.056 A 
ATOM     17  C   UNL     1      11.736   7.725  14.045  1.00  0.00     0.009 A 
ATOM     18  C   UNL     1      12.950   8.985  16.244  1.00  0.00     0.160 A 
ATOM     19  C   UNL     1      13.107   7.580  14.267  1.00  0.00     0.050 A 
ATOM     20  C   UNL     1      13.716   8.208  15.363  1.00  0.00     0.157 A 
BRANCH  18  21
ATOM     21  O   UNL     1      13.594   9.596  17.331  1.00  0.00    -0.493 OA
ATOM     22  C   UNL     1      13.260   9.371  18.696  1.00  0.00     0.278 C 
ENDBRANCH  18  21
BRANCH  20  23
ATOM     23  O   UNL     1      15.085   8.063  15.584  1.00  0.00    -0.504 OA
ATOM     24  H   UNL     1      15.745   8.784  15.315  1.00  0.00     0.293 HD
ENDBRANCH  20  23
ENDBRANCH  14  15
ENDBRANCH  12  14
ENDBRANCH   9  10
ENDBRANCH   1   9
TORSDOF 10
ENDMDL
MODEL 7
REMARK VINA RESULT:     3.138      4.436      8.541
REMARK INTER + INTRA:           5.325
REMARK INTER:                   5.787
REMARK INTRA:                  -0.462
REMARK UNBOUND:                 0.443
REMARK SMILES COc1cc(CNC(=O)CCCCC=CC(C)C)ccc1O
REMARK SMILES IDX 11 1 12 2 13 3 14 4 15 5 16 6 17 7 18 8 10 9 8 10 9 11 7 12
REMARK SMILES IDX 6 14 5 15 4 16 19 17 3 18 20 19 21 20 2 21 1 22 22 23
REMARK H PARENT 7 13 22 24
REMARK Flexibility Score: inf
ROOT
ATOM      1  C   UNL     1      13.266   7.651  15.609  1.00  0.00     0.010 C 
ENDROOT
BRANCH   1   2
ATOM      2  C   UNL     1      14.313   8.757  15.816  1.00  0.00     0.005 C 
BRANCH   2   3
ATOM      3  C   UNL     1      13.882   9.784  16.874  1.00  0.00     0.027 C 
BRANCH   3   4
ATOM      4  C   UNL     1      13.279   9.103  18.072  1.00  0.00    -0.031 C 
ATOM      5  C   UNL     1      13.126   9.745  19.241  1.00  0.00    -0.028 C 
BRANCH   5   6
ATOM      6  C   UNL     1      12.502   9.063  20.436  1.00  0.00     0.005 C 
ATOM      7  C   UNL     1      13.495   8.085  21.075  1.00  0.00     0.012 C 
ATOM      8  C   UNL     1      12.041  10.102  21.465  1.00  0.00     0.012 C 
ENDBRANCH   5   6
ENDBRANCH   3   4
ENDBRANCH   2   3
ENDBRANCH   1   2
BRANCH   1   9
ATOM      9  C   UNL     1      12.370   7.910  14.392  1.00  0.00     0.100 C 
BRANCH   9  10
ATOM     10  C   UNL     1      11.016   8.380  14.830  1.00  0.00     0.220 C 
ATOM     11  O   UNL     1      10.887   8.949  15.948  1.00  0.00    -0.275 OA
ATOM     12  N   UNL     1       9.884   8.219  13.964  1.00  0.00    -0.352 N 
ATOM     13  H   UNL     1      10.025   7.796  13.019  1.00  0.00     0.163 HD
BRANCH  12  14
ATOM     14  C   UNL     1       8.538   8.645  14.341  1.00  0.00     0.151 C 
BRANCH  14  15
ATOM     15  C   UNL     1       7.515   7.681  13.803  1.00  0.00    -0.025 A 
ATOM     16  C   UNL     1       6.146   7.947  13.968  1.00  0.00     0.056 A 
ATOM     17  C   UNL     1       7.916   6.529  13.111  1.00  0.00     0.009 A 
ATOM     18  C   UNL     1       5.178   7.064  13.450  1.00  0.00     0.160 A 
ATOM     19  C   UNL     1       6.961   5.651  12.596  1.00  0.00     0.050 A 
ATOM     20  C   UNL     1       5.594   5.914  12.763  1.00  0.00     0.157 A 
BRANCH  18  21
ATOM     21  O   UNL     1       3.801   7.295  13.596  1.00  0.00    -0.493 OA
ATOM     22  C   UNL     1       3.231   8.526  14.027  1.00  0.00     0.278 C 
ENDBRANCH  18  21
BRANCH  20  23
ATOM     23  O   UNL     1       4.642   5.036  12.247  1.00  0.00    -0.504 OA
ATOM     24  H   UNL     1       4.719   4.661  11.309  1.00  0.00     0.293 HD
ENDBRANCH  20  23
ENDBRANCH  14  15
ENDBRANCH  12  14
ENDBRANCH   9  10
ENDBRANCH   1   9
TORSDOF 10
ENDMDL
MODEL 8
REMARK VINA RESULT:     4.042      4.842      8.853
REMARK INTER + INTRA:           6.730
REMARK INTER:                   6.917
REMARK INTRA:                  -0.187
REMARK UNBOUND:                 0.443
REMARK SMILES COc1cc(CNC(=O)CCCCC=CC(C)C)ccc1O
REMARK SMILES IDX 11 1 12 2 13 3 14 4 15 5 16 6 17 7 18 8 10 9 8 10 9 11 7 12
REMARK SMILES IDX 6 14 5 15 4 16 19 17 3 18 20 19 21 20 2 21 1 22 22 23
REMARK H PARENT 7 13 22 24
REMARK Flexibility Score: inf
ROOT
ATOM      1  C   UNL     1      13.958   8.332  15.616  1.00  0.00     0.010 C 
ENDROOT
BRANCH   1   2
ATOM      2  C   UNL     1      14.167   9.849  15.735  1.00  0.00     0.005 C 
BRANCH   2   3
ATOM      3  C   UNL     1      14.825  10.453  14.485  1.00  0.00     0.027 C 
BRANCH   3   4
ATOM      4  C   UNL     1      14.847  11.955  14.559  1.00  0.00    -0.031 C 
ATOM      5  C   UNL     1      14.453  12.714  13.525  1.00  0.00    -0.028 C 
BRANCH   5   6
ATOM      6  C   UNL     1      14.458  14.222  13.611  1.00  0.00     0.005 C 
ATOM      7  C   UNL     1      13.735  14.832  12.404  1.00  0.00     0.012 C 
ATOM      8  C   UNL     1      13.802  14.687  14.917  1.00  0.00     0.012 C 
ENDBRANCH   5   6
ENDBRANCH   3   4
ENDBRANCH   2   3
ENDBRANCH   1   2
BRANCH   1   9
ATOM      9  C   UNL     1      12.869   7.966  14.600  1.00  0.00     0.100 C 
BRANCH   9  10
ATOM     10  C   UNL     1      11.532   8.455  15.067  1.00  0.00     0.220 C 
ATOM     11  O   UNL     1      11.435   9.022  16.188  1.00  0.00    -0.275 OA
ATOM     12  N   UNL     1      10.381   8.314  14.223  1.00  0.00    -0.352 N 
ATOM     13  H   UNL     1      10.496   7.892  13.275  1.00  0.00     0.163 HD
BRANCH  12  14
ATOM     14  C   UNL     1       9.049   8.760  14.630  1.00  0.00     0.151 C 
BRANCH  14  15
ATOM     15  C   UNL     1       7.994   7.883  14.010  1.00  0.00    -0.025 A 
ATOM     16  C   UNL     1       6.636   8.128  14.273  1.00  0.00     0.056 A 
ATOM     17  C   UNL     1       8.352   6.837  13.148  1.00  0.00     0.009 A 
ATOM     18  C   UNL     1       5.637   7.329  13.683  1.00  0.00     0.160 A 
ATOM     19  C   UNL     1       7.367   6.042  12.560  1.00  0.00     0.050 A 
ATOM     20  C   UNL     1       6.011   6.284  12.824  1.00  0.00     0.157 A 
BRANCH  18  21
ATOM     21  O   UNL     1       4.270   7.541  13.922  1.00  0.00    -0.493 OA
ATOM     22  C   UNL     1       3.740   8.662  14.620  1.00  0.00     0.278 C 
ENDBRANCH  18  21
BRANCH  20  23
ATOM     23  O   UNL     1       5.028   5.489  12.237  1.00  0.00    -0.504 OA
ATOM     24  H   UNL     1       4.521   5.794  11.414  1.00  0.00     0.293 HD
ENDBRANCH  20  23
ENDBRANCH  14  15
ENDBRANCH  12  14
ENDBRANCH   9  10
ENDBRANCH   1   9
TORSDOF 10
ENDMDL
