MODEL 1
REMARK VINA RESULT:    -6.507      0.000      0.000
REMARK INTER + INTRA:          -7.785
REMARK INTER:                  -7.648
REMARK INTRA:                  -0.137
REMARK UNBOUND:                -0.137
REMARK SMILES O=C([O-])C=Cc1ccc(O)c(O)c1
REMARK SMILES IDX 6 1 13 2 7 3 11 4 8 5 9 6 5 7 4 8 2 9 1 10 3 11 12 12 10 14
REMARK H PARENT 12 13 10 15
REMARK Flexibility Score: inf
ROOT
ATOM      1  C   UNL     1      11.660  20.651  17.196  1.00  0.00    -0.022 A 
ATOM      2  C   UNL     1      10.257  20.614  17.130  1.00  0.00     0.058 A 
ATOM      3  C   UNL     1      12.272  21.289  18.294  1.00  0.00     0.012 A 
ATOM      4  C   UNL     1       9.476  21.223  18.122  1.00  0.00     0.157 A 
ATOM      5  C   UNL     1      11.492  21.895  19.283  1.00  0.00     0.051 A 
ATOM      6  C   UNL     1      10.098  21.868  19.203  1.00  0.00     0.157 A 
ENDROOT
BRANCH   1   7
ATOM      7  C   UNL     1      12.440  19.982  16.125  1.00  0.00     0.010 C 
ATOM      8  C   UNL     1      13.502  19.197  16.356  1.00  0.00     0.025 C 
BRANCH   8   9
ATOM      9  C   UNL     1      14.260  18.559  15.267  1.00  0.00     0.064 C 
ATOM     10  O   UNL     1      14.401  17.307  15.217  1.00  0.00    -0.545 OA
ATOM     11  O   UNL     1      14.830  19.349  14.278  1.00  0.00    -0.545 OA
ENDBRANCH   8   9
ENDBRANCH   1   7
BRANCH   4  12
ATOM     12  O   UNL     1       8.084  21.187  18.038  1.00  0.00    -0.504 OA
ATOM     13  H   UNL     1       7.531  20.587  18.638  1.00  0.00     0.293 HD
ENDBRANCH   4  12
BRANCH   6  14
ATOM     14  O   UNL     1       9.349  22.484  20.205  1.00  0.00    -0.504 OA
ATOM     15  H   UNL     1       9.519  23.440  20.493  1.00  0.00     0.293 HD
ENDBRANCH   6  14
TORSDOF 4
ENDMDL
MODEL 2
REMARK VINA RESULT:    -6.192      2.089      2.477
REMARK INTER + INTRA:          -7.415
REMARK INTER:                  -7.289
REMARK INTRA:                  -0.126
REMARK UNBOUND:                -0.137
REMARK SMILES O=C([O-])C=Cc1ccc(O)c(O)c1
REMARK SMILES IDX 6 1 13 2 7 3 11 4 8 5 9 6 5 7 4 8 2 9 1 10 3 11 12 12 10 14
REMARK H PARENT 12 13 10 15
REMARK Flexibility Score: inf
ROOT
ATOM      1  C   UNL     1      12.096  20.629  18.116  1.00  0.00    -0.022 A 
ATOM      2  C   UNL     1      11.152  19.888  17.385  1.00  0.00     0.058 A 
ATOM      3  C   UNL     1      11.647  21.689  18.929  1.00  0.00     0.012 A 
ATOM      4  C   UNL     1       9.789  20.211  17.440  1.00  0.00     0.157 A 
ATOM      5  C   UNL     1      10.288  22.010  18.984  1.00  0.00     0.051 A 
ATOM      6  C   UNL     1       9.356  21.279  18.242  1.00  0.00     0.157 A 
ENDROOT
BRANCH   1   7
ATOM      7  C   UNL     1      13.526  20.238  18.030  1.00  0.00     0.010 C 
ATOM      8  C   UNL     1      14.018  19.099  18.537  1.00  0.00     0.025 C 
BRANCH   8   9
ATOM      9  C   UNL     1      15.446  18.750  18.444  1.00  0.00     0.064 C 
ATOM     10  O   UNL     1      15.959  18.391  17.350  1.00  0.00    -0.545 OA
ATOM     11  O   UNL     1      16.240  18.815  19.580  1.00  0.00    -0.545 OA
ENDBRANCH   8   9
ENDBRANCH   1   7
BRANCH   4  12
ATOM     12  O   UNL     1       8.864  19.475  16.701  1.00  0.00    -0.504 OA
ATOM     13  H   UNL     1       8.143  19.926  16.151  1.00  0.00     0.293 HD
ENDBRANCH   4  12
BRANCH   6  14
ATOM     14  O   UNL     1       8.008  21.627  18.318  1.00  0.00    -0.504 OA
ATOM     15  H   UNL     1       7.706  22.575  18.511  1.00  0.00     0.293 HD
ENDBRANCH   6  14
TORSDOF 4
ENDMDL
MODEL 3
REMARK VINA RESULT:    -6.132      1.155      1.815
REMARK INTER + INTRA:          -7.345
REMARK INTER:                  -7.207
REMARK INTRA:                  -0.138
REMARK UNBOUND:                -0.137
REMARK SMILES O=C([O-])C=Cc1ccc(O)c(O)c1
REMARK SMILES IDX 6 1 13 2 7 3 11 4 8 5 9 6 5 7 4 8 2 9 1 10 3 11 12 12 10 14
REMARK H PARENT 12 13 10 15
REMARK Flexibility Score: inf
ROOT
ATOM      1  C   UNL     1      11.845  20.516  18.078  1.00  0.00    -0.022 A 
ATOM      2  C   UNL     1      11.716  20.312  19.463  1.00  0.00     0.058 A 
ATOM      3  C   UNL     1      10.992  21.441  17.444  1.00  0.00     0.012 A 
ATOM      4  C   UNL     1      10.739  20.996  20.199  1.00  0.00     0.157 A 
ATOM      5  C   UNL     1      10.019  22.123  18.180  1.00  0.00     0.051 A 
ATOM      6  C   UNL     1       9.885  21.905  19.553  1.00  0.00     0.157 A 
ENDROOT
BRANCH   1   7
ATOM      7  C   UNL     1      12.902  19.774  17.347  1.00  0.00     0.010 C 
ATOM      8  C   UNL     1      12.952  19.671  16.011  1.00  0.00     0.025 C 
BRANCH   8   9
ATOM      9  C   UNL     1      14.010  18.916  15.320  1.00  0.00     0.064 C 
ATOM     10  O   UNL     1      14.356  17.769  15.713  1.00  0.00    -0.545 OA
ATOM     11  O   UNL     1      14.639  19.477  14.216  1.00  0.00    -0.545 OA
ENDBRANCH   8   9
ENDBRANCH   1   7
BRANCH   4  12
ATOM     12  O   UNL     1      10.615  20.777  21.571  1.00  0.00    -0.504 OA
ATOM     13  H   UNL     1       9.838  20.254  21.957  1.00  0.00     0.293 HD
ENDBRANCH   4  12
BRANCH   6  14
ATOM     14  O   UNL     1       8.903  22.600  20.258  1.00  0.00    -0.504 OA
ATOM     15  H   UNL     1       8.854  22.586  21.269  1.00  0.00     0.293 HD
ENDBRANCH   6  14
TORSDOF 4
ENDMDL
MODEL 4
REMARK VINA RESULT:    -5.436      1.419      5.763
REMARK INTER + INTRA:          -6.526
REMARK INTER:                  -6.395
REMARK INTRA:                  -0.131
REMARK UNBOUND:                -0.137
REMARK SMILES O=C([O-])C=Cc1ccc(O)c(O)c1
REMARK SMILES IDX 6 1 13 2 7 3 11 4 8 5 9 6 5 7 4 8 2 9 1 10 3 11 12 12 10 14
REMARK H PARENT 12 13 10 15
REMARK Flexibility Score: inf
ROOT
ATOM      1  C   UNL     1      12.692  20.112  17.405  1.00  0.00    -0.022 A 
ATOM      2  C   UNL     1      12.516  20.967  16.303  1.00  0.00     0.058 A 
ATOM      3  C   UNL     1      13.609  19.046  17.299  1.00  0.00     0.012 A 
ATOM      4  C   UNL     1      13.218  20.751  15.109  1.00  0.00     0.157 A 
ATOM      5  C   UNL     1      14.309  18.832  16.109  1.00  0.00     0.051 A 
ATOM      6  C   UNL     1      14.118  19.676  15.012  1.00  0.00     0.157 A 
ENDROOT
BRANCH   1   7
ATOM      7  C   UNL     1      11.932  20.391  18.649  1.00  0.00     0.010 C 
ATOM      8  C   UNL     1      10.659  20.811  18.665  1.00  0.00     0.025 C 
BRANCH   8   9
ATOM      9  C   UNL     1       9.939  21.090  19.919  1.00  0.00     0.064 C 
ATOM     10  O   UNL     1      10.521  21.022  21.034  1.00  0.00    -0.545 OA
ATOM     11  O   UNL     1       8.594  21.433  19.872  1.00  0.00    -0.545 OA
ENDBRANCH   8   9
ENDBRANCH   1   7
BRANCH   4  12
ATOM     12  O   UNL     1      13.027  21.600  14.021  1.00  0.00    -0.504 OA
ATOM     13  H   UNL     1      12.901  21.241  13.082  1.00  0.00     0.293 HD
ENDBRANCH   4  12
BRANCH   6  14
ATOM     14  O   UNL     1      14.830  19.434  13.838  1.00  0.00    -0.504 OA
ATOM     15  H   UNL     1      15.559  20.058  13.513  1.00  0.00     0.293 HD
ENDBRANCH   6  14
TORSDOF 4
ENDMDL
MODEL 5
REMARK VINA RESULT:    -5.419      8.988     12.191
REMARK INTER + INTRA:          -6.506
REMARK INTER:                  -6.379
REMARK INTRA:                  -0.127
REMARK UNBOUND:                -0.137
REMARK SMILES O=C([O-])C=Cc1ccc(O)c(O)c1
REMARK SMILES IDX 6 1 13 2 7 3 11 4 8 5 9 6 5 7 4 8 2 9 1 10 3 11 12 12 10 14
REMARK H PARENT 12 13 10 15
REMARK Flexibility Score: inf
ROOT
ATOM      1  C   UNL     1      21.188  19.926  11.963  1.00  0.00    -0.022 A 
ATOM      2  C   UNL     1      22.094  19.615  10.935  1.00  0.00     0.058 A 
ATOM      3  C   UNL     1      21.626  20.728  13.037  1.00  0.00     0.012 A 
ATOM      4  C   UNL     1      23.420  20.069  10.987  1.00  0.00     0.157 A 
ATOM      5  C   UNL     1      22.947  21.181  13.087  1.00  0.00     0.051 A 
ATOM      6  C   UNL     1      23.847  20.855  12.070  1.00  0.00     0.157 A 
ENDROOT
BRANCH   1   7
ATOM      7  C   UNL     1      19.793  19.429  11.855  1.00  0.00     0.010 C 
ATOM      8  C   UNL     1      18.957  19.766  10.863  1.00  0.00     0.025 C 
BRANCH   8   9
ATOM      9  C   UNL     1      17.575  19.262  10.794  1.00  0.00     0.064 C 
ATOM     10  O   UNL     1      17.067  18.902   9.698  1.00  0.00    -0.545 OA
ATOM     11  O   UNL     1      16.819  19.184  11.955  1.00  0.00    -0.545 OA
ENDBRANCH   8   9
ENDBRANCH   1   7
BRANCH   4  12
ATOM     12  O   UNL     1      24.312  19.744   9.966  1.00  0.00    -0.504 OA
ATOM     13  H   UNL     1      24.017  19.702   8.997  1.00  0.00     0.293 HD
ENDBRANCH   4  12
BRANCH   6  14
ATOM     14  O   UNL     1      25.159  21.321  12.151  1.00  0.00    -0.504 OA
ATOM     15  H   UNL     1      25.390  22.204  12.591  1.00  0.00     0.293 HD
ENDBRANCH   6  14
TORSDOF 4
ENDMDL
MODEL 6
REMARK VINA RESULT:    -5.171      3.424      4.901
REMARK INTER + INTRA:          -6.215
REMARK INTER:                  -6.084
REMARK INTRA:                  -0.130
REMARK UNBOUND:                -0.137
REMARK SMILES O=C([O-])C=Cc1ccc(O)c(O)c1
REMARK SMILES IDX 6 1 13 2 7 3 11 4 8 5 9 6 5 7 4 8 2 9 1 10 3 11 12 12 10 14
REMARK H PARENT 12 13 10 15
REMARK Flexibility Score: inf
ROOT
ATOM      1  C   UNL     1      14.355  19.008  17.277  1.00  0.00    -0.022 A 
ATOM      2  C   UNL     1      13.315  19.919  17.531  1.00  0.00     0.058 A 
ATOM      3  C   UNL     1      14.474  18.454  15.986  1.00  0.00     0.012 A 
ATOM      4  C   UNL     1      12.394  20.253  16.528  1.00  0.00     0.157 A 
ATOM      5  C   UNL     1      13.555  18.788  14.987  1.00  0.00     0.051 A 
ATOM      6  C   UNL     1      12.514  19.683  15.251  1.00  0.00     0.157 A 
ENDROOT
BRANCH   1   7
ATOM      7  C   UNL     1      15.309  18.697  18.371  1.00  0.00     0.010 C 
ATOM      8  C   UNL     1      16.562  19.171  18.423  1.00  0.00     0.025 C 
BRANCH   8   9
ATOM      9  C   UNL     1      17.486  18.831  19.518  1.00  0.00     0.064 C 
ATOM     10  O   UNL     1      18.343  19.660  19.930  1.00  0.00    -0.545 OA
ATOM     11  O   UNL     1      17.413  17.577  20.108  1.00  0.00    -0.545 OA
ENDBRANCH   8   9
ENDBRANCH   1   7
BRANCH   4  12
ATOM     12  O   UNL     1      11.361  21.150  16.797  1.00  0.00    -0.504 OA
ATOM     13  H   UNL     1      11.222  21.538  17.723  1.00  0.00     0.293 HD
ENDBRANCH   4  12
BRANCH   6  14
ATOM     14  O   UNL     1      11.614  19.993  14.233  1.00  0.00    -0.504 OA
ATOM     15  H   UNL     1      10.613  19.899  14.352  1.00  0.00     0.293 HD
ENDBRANCH   6  14
TORSDOF 4
ENDMDL
MODEL 7
REMARK VINA RESULT:    -5.152     10.536     11.484
REMARK INTER + INTRA:          -6.192
REMARK INTER:                  -6.055
REMARK INTRA:                  -0.137
REMARK UNBOUND:                -0.137
REMARK SMILES O=C([O-])C=Cc1ccc(O)c(O)c1
REMARK SMILES IDX 6 1 13 2 7 3 11 4 8 5 9 6 5 7 4 8 2 9 1 10 3 11 12 12 10 14
REMARK H PARENT 12 13 10 15
REMARK Flexibility Score: inf
ROOT
ATOM      1  C   UNL     1       8.288  23.679   7.722  1.00  0.00    -0.022 A 
ATOM      2  C   UNL     1       7.346  23.040   8.547  1.00  0.00     0.058 A 
ATOM      3  C   UNL     1       9.658  23.416   7.924  1.00  0.00     0.012 A 
ATOM      4  C   UNL     1       7.759  22.177   9.571  1.00  0.00     0.157 A 
ATOM      5  C   UNL     1      10.069  22.555   8.945  1.00  0.00     0.051 A 
ATOM      6  C   UNL     1       9.128  21.936   9.772  1.00  0.00     0.157 A 
ENDROOT
BRANCH   1   7
ATOM      7  C   UNL     1       7.797  24.576   6.645  1.00  0.00     0.010 C 
ATOM      8  C   UNL     1       8.498  24.864   5.539  1.00  0.00     0.025 C 
BRANCH   8   9
ATOM      9  C   UNL     1       7.983  25.768   4.497  1.00  0.00     0.064 C 
ATOM     10  O   UNL     1       8.109  27.018   4.597  1.00  0.00    -0.545 OA
ATOM     11  O   UNL     1       7.347  25.235   3.384  1.00  0.00    -0.545 OA
ENDBRANCH   8   9
ENDBRANCH   1   7
BRANCH   4  12
ATOM     12  O   UNL     1       6.815  21.558  10.389  1.00  0.00    -0.504 OA
ATOM     13  H   UNL     1       6.725  20.550  10.427  1.00  0.00     0.293 HD
ENDBRANCH   4  12
BRANCH   6  14
ATOM     14  O   UNL     1       9.571  21.083  10.782  1.00  0.00    -0.504 OA
ATOM     15  H   UNL     1       8.946  20.716  11.490  1.00  0.00     0.293 HD
ENDBRANCH   6  14
TORSDOF 4
ENDMDL
MODEL 8
REMARK VINA RESULT:    -5.127      1.100      5.956
REMARK INTER + INTRA:          -6.163
REMARK INTER:                  -6.037
REMARK INTRA:                  -0.126
REMARK UNBOUND:                -0.137
REMARK SMILES O=C([O-])C=Cc1ccc(O)c(O)c1
REMARK SMILES IDX 6 1 13 2 7 3 11 4 8 5 9 6 5 7 4 8 2 9 1 10 3 11 12 12 10 14
REMARK H PARENT 12 13 10 15
REMARK Flexibility Score: inf
ROOT
ATOM      1  C   UNL     1      12.446  20.611  16.593  1.00  0.00    -0.022 A 
ATOM      2  C   UNL     1      13.176  19.475  16.982  1.00  0.00     0.058 A 
ATOM      3  C   UNL     1      12.649  21.142  15.304  1.00  0.00     0.012 A 
ATOM      4  C   UNL     1      14.111  18.893  16.115  1.00  0.00     0.157 A 
ATOM      5  C   UNL     1      13.581  20.560  14.440  1.00  0.00     0.051 A 
ATOM      6  C   UNL     1      14.315  19.440  14.838  1.00  0.00     0.157 A 
ENDROOT
BRANCH   1   7
ATOM      7  C   UNL     1      11.461  21.182  17.546  1.00  0.00     0.010 C 
ATOM      8  C   UNL     1      10.434  20.490  18.059  1.00  0.00     0.025 C 
BRANCH   8   9
ATOM      9  C   UNL     1       9.468  21.093  18.994  1.00  0.00     0.064 C 
ATOM     10  O   UNL     1       8.271  21.295  18.654  1.00  0.00    -0.545 OA
ATOM     11  O   UNL     1       9.884  21.447  20.270  1.00  0.00    -0.545 OA
ENDBRANCH   8   9
ENDBRANCH   1   7
BRANCH   4  12
ATOM     12  O   UNL     1      14.836  17.772  16.517  1.00  0.00    -0.504 OA
ATOM     13  H   UNL     1      15.366  17.763  17.380  1.00  0.00     0.293 HD
ENDBRANCH   4  12
BRANCH   6  14
ATOM     14  O   UNL     1      15.238  18.885  13.952  1.00  0.00    -0.504 OA
ATOM     15  H   UNL     1      15.123  17.955  13.568  1.00  0.00     0.293 HD
ENDBRANCH   6  14
TORSDOF 4
ENDMDL
MODEL 9
REMARK VINA RESULT:    -5.063     15.900     17.426
REMARK INTER + INTRA:          -6.088
REMARK INTER:                  -5.964
REMARK INTRA:                  -0.124
REMARK UNBOUND:                -0.137
REMARK SMILES O=C([O-])C=Cc1ccc(O)c(O)c1
REMARK SMILES IDX 6 1 13 2 7 3 11 4 8 5 9 6 5 7 4 8 2 9 1 10 3 11 12 12 10 14
REMARK H PARENT 12 13 10 15
REMARK Flexibility Score: inf
ROOT
ATOM      1  C   UNL     1      20.703  15.876   4.058  1.00  0.00    -0.022 A 
ATOM      2  C   UNL     1      21.196  14.972   3.102  1.00  0.00     0.058 A 
ATOM      3  C   UNL     1      19.531  15.544   4.766  1.00  0.00     0.012 A 
ATOM      4  C   UNL     1      20.522  13.772   2.834  1.00  0.00     0.157 A 
ATOM      5  C   UNL     1      18.859  14.348   4.499  1.00  0.00     0.051 A 
ATOM      6  C   UNL     1      19.346  13.461   3.536  1.00  0.00     0.157 A 
ENDROOT
BRANCH   1   7
ATOM      7  C   UNL     1      21.462  17.127   4.310  1.00  0.00     0.010 C 
ATOM      8  C   UNL     1      22.403  17.249   5.257  1.00  0.00     0.025 C 
BRANCH   8   9
ATOM      9  C   UNL     1      23.128  18.510   5.487  1.00  0.00     0.064 C 
ATOM     10  O   UNL     1      24.353  18.617   5.213  1.00  0.00    -0.545 OA
ATOM     11  O   UNL     1      22.450  19.600   6.015  1.00  0.00    -0.545 OA
ENDBRANCH   8   9
ENDBRANCH   1   7
BRANCH   4  12
ATOM     12  O   UNL     1      21.016  12.889   1.875  1.00  0.00    -0.504 OA
ATOM     13  H   UNL     1      21.586  13.210   1.101  1.00  0.00     0.293 HD
ENDBRANCH   4  12
BRANCH   6  14
ATOM     14  O   UNL     1      18.651  12.277   3.293  1.00  0.00    -0.504 OA
ATOM     15  H   UNL     1      17.642  12.253   3.205  1.00  0.00     0.293 HD
ENDBRANCH   6  14
TORSDOF 4
ENDMDL
