MODEL 1
REMARK VINA RESULT:     4.170      0.000      0.000
REMARK INTER + INTRA:           4.846
REMARK INTER:                   5.023
REMARK INTRA:                  -0.177
REMARK UNBOUND:                -0.177
REMARK SMILES Oc1cc(O)c2c(c1)O[C@@H](c1ccc(O)c(O)c1)[C@@H](O)C2
REMARK SMILES IDX 21 1 19 2 10 3 9 4 7 5 8 6 2 7 3 8 4 9 6 10 20 11 11 13
REMARK SMILES IDX 18 14 12 15 16 16 13 17 14 18 17 19 15 21 5 23 1 25
REMARK H PARENT 20 12 17 20 15 22 5 24 1 26
REMARK Flexibility Score: inf
ROOT
ATOM      1  C   UNL     1     -14.139  -1.090  17.090  1.00  0.00     0.079 C 
ATOM      2  C   UNL     1     -15.448  -0.772  17.822  1.00  0.00     0.164 C 
ATOM      3  C   UNL     1     -15.784  -1.870  18.858  1.00  0.00     0.232 C 
ATOM      4  O   UNL     1     -15.845  -3.128  18.177  1.00  0.00    -0.482 OA
ATOM      5  C   UNL     1     -15.009  -3.455  17.098  1.00  0.00     0.131 A 
ATOM      6  C   UNL     1     -15.090  -4.740  16.556  1.00  0.00     0.093 A 
ATOM      7  C   UNL     1     -14.326  -5.085  15.444  1.00  0.00     0.122 A 
ATOM      8  C   UNL     1     -13.455  -4.137  14.875  1.00  0.00     0.092 A 
ATOM      9  C   UNL     1     -13.328  -2.861  15.427  1.00  0.00     0.126 A 
ATOM     10  C   UNL     1     -14.145  -2.490  16.529  1.00  0.00     0.039 A 
ENDROOT
BRANCH   2  11
ATOM     11  O   UNL     1     -15.404   0.506  18.403  1.00  0.00    -0.389 OA
ATOM     12  H   UNL     1     -14.504   0.584  18.828  1.00  0.00     0.211 HD
ENDBRANCH   2  11
BRANCH   3  13
ATOM     13  C   UNL     1     -14.881  -2.001  20.087  1.00  0.00    -0.001 A 
ATOM     14  C   UNL     1     -15.409  -1.603  21.335  1.00  0.00     0.057 A 
ATOM     15  C   UNL     1     -13.525  -2.381  20.029  1.00  0.00     0.012 A 
ATOM     16  C   UNL     1     -14.622  -1.623  22.495  1.00  0.00     0.157 A 
ATOM     17  C   UNL     1     -12.735  -2.392  21.185  1.00  0.00     0.050 A 
ATOM     18  C   UNL     1     -13.281  -2.013  22.420  1.00  0.00     0.157 A 
BRANCH  16  19
ATOM     19  O   UNL     1     -15.171  -1.257  23.726  1.00  0.00    -0.504 OA
ATOM     20  H   UNL     1     -16.164  -1.298  23.896  1.00  0.00     0.293 HD
ENDBRANCH  16  19
BRANCH  18  21
ATOM     21  O   UNL     1     -12.499  -2.018  23.573  1.00  0.00    -0.504 OA
ATOM     22  H   UNL     1     -12.760  -2.566  24.384  1.00  0.00     0.293 HD
ENDBRANCH  18  21
ENDBRANCH   3  13
BRANCH   9  23
ATOM     23  O   UNL     1     -12.373  -1.994  14.889  1.00  0.00    -0.507 OA
ATOM     24  H   UNL     1     -11.606  -2.338  14.318  1.00  0.00     0.293 HD
ENDBRANCH   9  23
BRANCH   7  25
ATOM     25  O   UNL     1     -14.440  -6.369  14.921  1.00  0.00    -0.508 OA
ATOM     26  H   UNL     1     -14.089  -7.183  15.432  1.00  0.00     0.293 HD
ENDBRANCH   7  25
TORSDOF 6
ENDMDL
