MODEL 1
REMARK VINA RESULT:    -2.523      0.000      0.000
REMARK INTER + INTRA:          -2.403
REMARK INTER:                  -2.670
REMARK INTRA:                   0.267
REMARK UNBOUND:                 0.267
REMARK SMILES C=C(C)[C@@H]1CC[C@@H](C)[C@]12CC=C(C)CC2
REMARK SMILES IDX 8 1 7 2 6 3 5 4 4 5 9 6 15 7 14 8 12 9 11 10 10 11 13 12
REMARK SMILES IDX 2 13 1 14 3 15
REMARK H PARENT
REMARK Flexibility Score: inf
ROOT
ATOM      1  C   UNL     1       3.941   5.583  11.590  1.00  0.00     0.008 C 
ATOM      2  C   UNL     1       5.281   5.880  12.293  1.00  0.00    -0.007 C 
ATOM      3  C   UNL     1       5.514   4.991  13.516  1.00  0.00     0.004 C 
ATOM      4  C   UNL     1       6.456   5.765  14.443  1.00  0.00     0.009 C 
ATOM      5  C   UNL     1       6.722   7.129  13.781  1.00  0.00     0.021 C 
ATOM      6  C   UNL     1       5.537   7.336  12.781  1.00  0.00    -0.017 C 
ATOM      7  C   UNL     1       4.293   7.923  13.580  1.00  0.00     0.012 C 
ATOM      8  C   UNL     1       3.891   9.342  13.149  1.00  0.00     0.031 C 
ATOM      9  C   UNL     1       3.753   9.392  11.648  1.00  0.00    -0.077 C 
ATOM     10  C   UNL     1       4.733   8.859  10.903  1.00  0.00    -0.027 C 
ATOM     11  C   UNL     1       5.937   8.269  11.584  1.00  0.00     0.035 C 
ATOM     12  C   UNL     1       2.523   9.955  10.991  1.00  0.00     0.039 C 
ENDROOT
BRANCH   5  13
ATOM     13  C   UNL     1       8.127   7.202  13.158  1.00  0.00    -0.077 C 
ATOM     14  C   UNL     1       8.451   6.361  12.161  1.00  0.00     0.008 C 
ATOM     15  C   UNL     1       9.192   8.156  13.645  1.00  0.00     0.039 C 
ENDBRANCH   5  13
TORSDOF 1
ENDMDL
MODEL 2
REMARK VINA RESULT:    -2.053      2.380      6.283
REMARK INTER + INTRA:          -1.906
REMARK INTER:                  -1.810
REMARK INTRA:                  -0.096
REMARK UNBOUND:                 0.267
REMARK SMILES C=C(C)[C@@H]1CC[C@@H](C)[C@]12CC=C(C)CC2
REMARK SMILES IDX 8 1 7 2 6 3 5 4 4 5 9 6 15 7 14 8 12 9 11 10 10 11 13 12
REMARK SMILES IDX 2 13 1 14 3 15
REMARK H PARENT
REMARK Flexibility Score: inf
ROOT
ATOM      1  C   UNL     1       4.774  12.370  13.059  1.00  0.00     0.008 C 
ATOM      2  C   UNL     1       3.273  12.092  12.846  1.00  0.00    -0.007 C 
ATOM      3  C   UNL     1       2.417  12.535  14.035  1.00  0.00     0.004 C 
ATOM      4  C   UNL     1       1.154  11.669  14.008  1.00  0.00     0.009 C 
ATOM      5  C   UNL     1       1.306  10.684  12.834  1.00  0.00     0.021 C 
ATOM      6  C   UNL     1       2.843  10.627  12.545  1.00  0.00    -0.017 C 
ATOM      7  C   UNL     1       3.511   9.592  13.551  1.00  0.00     0.012 C 
ATOM      8  C   UNL     1       4.118   8.359  12.863  1.00  0.00     0.031 C 
ATOM      9  C   UNL     1       5.011   8.803  11.731  1.00  0.00    -0.077 C 
ATOM     10  C   UNL     1       4.542   9.723  10.875  1.00  0.00    -0.027 C 
ATOM     11  C   UNL     1       3.144  10.246  11.053  1.00  0.00     0.035 C 
ATOM     12  C   UNL     1       6.419   8.292  11.597  1.00  0.00     0.039 C 
ENDROOT
BRANCH   5  13
ATOM     13  C   UNL     1       0.427  11.078  11.635  1.00  0.00    -0.077 C 
ATOM     14  C   UNL     1      -0.125  10.115  10.877  1.00  0.00     0.008 C 
ATOM     15  C   UNL     1       0.183  12.513  11.232  1.00  0.00     0.039 C 
ENDBRANCH   5  13
TORSDOF 1
ENDMDL
MODEL 3
REMARK VINA RESULT:    -1.970      1.170      3.282
REMARK INTER + INTRA:          -1.818
REMARK INTER:                  -1.789
REMARK INTRA:                  -0.029
REMARK UNBOUND:                 0.267
REMARK SMILES C=C(C)[C@@H]1CC[C@@H](C)[C@]12CC=C(C)CC2
REMARK SMILES IDX 8 1 7 2 6 3 5 4 4 5 9 6 15 7 14 8 12 9 11 10 10 11 13 12
REMARK SMILES IDX 2 13 1 14 3 15
REMARK H PARENT
REMARK Flexibility Score: inf
ROOT
ATOM      1  C   UNL     1       7.328   9.660  13.952  1.00  0.00     0.008 C 
ATOM      2  C   UNL     1       7.017   8.215  13.517  1.00  0.00    -0.007 C 
ATOM      3  C   UNL     1       8.236   7.501  12.928  1.00  0.00     0.004 C 
ATOM      4  C   UNL     1       7.694   6.418  11.991  1.00  0.00     0.009 C 
ATOM      5  C   UNL     1       6.159   6.542  11.994  1.00  0.00     0.021 C 
ATOM      6  C   UNL     1       5.869   7.998  12.488  1.00  0.00    -0.017 C 
ATOM      7  C   UNL     1       5.986   8.989  11.249  1.00  0.00     0.012 C 
ATOM      8  C   UNL     1       4.664   9.677  10.876  1.00  0.00     0.031 C 
ATOM      9  C   UNL     1       4.047  10.285  12.112  1.00  0.00    -0.077 C 
ATOM     10  C   UNL     1       3.970   9.532  13.219  1.00  0.00    -0.027 C 
ATOM     11  C   UNL     1       4.464   8.113  13.178  1.00  0.00     0.035 C 
ATOM     12  C   UNL     1       3.594  11.719  12.137  1.00  0.00     0.039 C 
ENDROOT
BRANCH   5  13
ATOM     13  C   UNL     1       5.492   5.425  12.815  1.00  0.00    -0.077 C 
ATOM     14  C   UNL     1       6.159   4.875  13.844  1.00  0.00     0.008 C 
ATOM     15  C   UNL     1       4.123   4.876  12.493  1.00  0.00     0.039 C 
ENDBRANCH   5  13
TORSDOF 1
ENDMDL
MODEL 4
REMARK VINA RESULT:    -1.279      1.080      4.477
REMARK INTER + INTRA:          -1.087
REMARK INTER:                  -1.031
REMARK INTRA:                  -0.056
REMARK UNBOUND:                 0.267
REMARK SMILES C=C(C)[C@@H]1CC[C@@H](C)[C@]12CC=C(C)CC2
REMARK SMILES IDX 8 1 7 2 6 3 5 4 4 5 9 6 15 7 14 8 12 9 11 10 10 11 13 12
REMARK SMILES IDX 2 13 1 14 3 15
REMARK H PARENT
REMARK Flexibility Score: inf
ROOT
ATOM      1  C   UNL     1       6.798   4.969  14.455  1.00  0.00     0.008 C 
ATOM      2  C   UNL     1       5.717   5.773  13.707  1.00  0.00    -0.007 C 
ATOM      3  C   UNL     1       4.917   4.914  12.725  1.00  0.00     0.004 C 
ATOM      4  C   UNL     1       4.390   5.864  11.646  1.00  0.00     0.009 C 
ATOM      5  C   UNL     1       4.933   7.267  11.973  1.00  0.00     0.021 C 
ATOM      6  C   UNL     1       6.173   7.019  12.894  1.00  0.00    -0.017 C 
ATOM      7  C   UNL     1       7.434   6.704  11.977  1.00  0.00     0.012 C 
ATOM      8  C   UNL     1       8.547   7.759  12.065  1.00  0.00     0.031 C 
ATOM      9  C   UNL     1       8.875   8.025  13.513  1.00  0.00    -0.077 C 
ATOM     10  C   UNL     1       7.861   8.239  14.364  1.00  0.00    -0.027 C 
ATOM     11  C   UNL     1       6.451   8.239  13.842  1.00  0.00     0.035 C 
ATOM     12  C   UNL     1      10.291   7.982  14.017  1.00  0.00     0.039 C 
ENDROOT
BRANCH   5  13
ATOM     13  C   UNL     1       3.847   8.181  12.566  1.00  0.00    -0.077 C 
ATOM     14  C   UNL     1       3.582   9.360  11.977  1.00  0.00     0.008 C 
ATOM     15  C   UNL     1       3.081   7.837  13.822  1.00  0.00     0.039 C 
ENDBRANCH   5  13
TORSDOF 1
ENDMDL
MODEL 5
REMARK VINA RESULT:    -0.626      2.993      6.524
REMARK INTER + INTRA:          -0.396
REMARK INTER:                  -0.684
REMARK INTRA:                   0.288
REMARK UNBOUND:                 0.267
REMARK SMILES C=C(C)[C@@H]1CC[C@@H](C)[C@]12CC=C(C)CC2
REMARK SMILES IDX 8 1 7 2 6 3 5 4 4 5 9 6 15 7 14 8 12 9 11 10 10 11 13 12
REMARK SMILES IDX 2 13 1 14 3 15
REMARK H PARENT
REMARK Flexibility Score: inf
ROOT
ATOM      1  C   UNL     1       0.950  10.619  13.566  1.00  0.00     0.008 C 
ATOM      2  C   UNL     1       1.547  11.846  12.848  1.00  0.00    -0.007 C 
ATOM      3  C   UNL     1       0.519  12.582  11.986  1.00  0.00     0.004 C 
ATOM      4  C   UNL     1       1.309  13.303  10.889  1.00  0.00     0.009 C 
ATOM      5  C   UNL     1       2.791  12.936  11.083  1.00  0.00     0.021 C 
ATOM      6  C   UNL     1       2.778  11.617  11.925  1.00  0.00    -0.017 C 
ATOM      7  C   UNL     1       2.564  10.387  10.939  1.00  0.00     0.012 C 
ATOM      8  C   UNL     1       3.759   9.424  10.876  1.00  0.00     0.031 C 
ATOM      9  C   UNL     1       4.174   9.043  12.275  1.00  0.00    -0.077 C 
ATOM     10  C   UNL     1       4.315  10.020  13.183  1.00  0.00    -0.027 C 
ATOM     11  C   UNL     1       4.091  11.448  12.768  1.00  0.00     0.035 C 
ATOM     12  C   UNL     1       4.355   7.605  12.675  1.00  0.00     0.039 C 
ENDROOT
BRANCH   5  13
ATOM     13  C   UNL     1       3.596  14.096  11.694  1.00  0.00    -0.077 C 
ATOM     14  C   UNL     1       4.373  14.851  10.899  1.00  0.00     0.008 C 
ATOM     15  C   UNL     1       3.593  14.409  13.172  1.00  0.00     0.039 C 
ENDBRANCH   5  13
TORSDOF 1
ENDMDL
MODEL 6
REMARK VINA RESULT:    -0.623      2.664      6.107
REMARK INTER + INTRA:          -0.393
REMARK INTER:                  -0.675
REMARK INTRA:                   0.282
REMARK UNBOUND:                 0.267
REMARK SMILES C=C(C)[C@@H]1CC[C@@H](C)[C@]12CC=C(C)CC2
REMARK SMILES IDX 8 1 7 2 6 3 5 4 4 5 9 6 15 7 14 8 12 9 11 10 10 11 13 12
REMARK SMILES IDX 2 13 1 14 3 15
REMARK H PARENT
REMARK Flexibility Score: inf
ROOT
ATOM      1  C   UNL     1       0.877   9.751  10.875  1.00  0.00     0.008 C 
ATOM      2  C   UNL     1       1.433  10.960  11.654  1.00  0.00    -0.007 C 
ATOM      3  C   UNL     1       1.286  12.274  10.884  1.00  0.00     0.004 C 
ATOM      4  C   UNL     1       2.384  13.207  11.404  1.00  0.00     0.009 C 
ATOM      5  C   UNL     1       3.204  12.411  12.435  1.00  0.00     0.021 C 
ATOM      6  C   UNL     1       2.920  10.907  12.108  1.00  0.00    -0.017 C 
ATOM      7  C   UNL     1       3.888  10.452  10.930  1.00  0.00     0.012 C 
ATOM      8  C   UNL     1       4.902   9.373  11.340  1.00  0.00     0.031 C 
ATOM      9  C   UNL     1       4.182   8.244  12.035  1.00  0.00    -0.077 C 
ATOM     10  C   UNL     1       3.302   8.550  12.999  1.00  0.00    -0.027 C 
ATOM     11  C   UNL     1       3.092   9.991  13.371  1.00  0.00     0.035 C 
ATOM     12  C   UNL     1       4.383   6.813  11.618  1.00  0.00     0.039 C 
ENDROOT
BRANCH   5  13
ATOM     13  C   UNL     1       2.887  12.840  13.878  1.00  0.00    -0.077 C 
ATOM     14  C   UNL     1       3.740  13.649  14.528  1.00  0.00     0.008 C 
ATOM     15  C   UNL     1       1.669  12.356  14.629  1.00  0.00     0.039 C 
ENDBRANCH   5  13
TORSDOF 1
ENDMDL
MODEL 7
REMARK VINA RESULT:    -0.014      1.972      5.319
REMARK INTER + INTRA:           0.252
REMARK INTER:                  -0.118
REMARK INTRA:                   0.370
REMARK UNBOUND:                 0.267
REMARK SMILES C=C(C)[C@@H]1CC[C@@H](C)[C@]12CC=C(C)CC2
REMARK SMILES IDX 8 1 7 2 6 3 5 4 4 5 9 6 15 7 14 8 12 9 11 10 10 11 13 12
REMARK SMILES IDX 2 13 1 14 3 15
REMARK H PARENT
REMARK Flexibility Score: inf
ROOT
ATOM      1  C   UNL     1       2.647   8.436  13.562  1.00  0.00     0.008 C 
ATOM      2  C   UNL     1       2.790   9.792  12.842  1.00  0.00    -0.007 C 
ATOM      3  C   UNL     1       1.574  10.131  11.977  1.00  0.00     0.004 C 
ATOM      4  C   UNL     1       2.072  11.076  10.880  1.00  0.00     0.009 C 
ATOM      5  C   UNL     1       3.590  11.238  11.076  1.00  0.00     0.021 C 
ATOM      6  C   UNL     1       4.027   9.996  11.920  1.00  0.00    -0.017 C 
ATOM      7  C   UNL     1       4.247   8.765  10.937  1.00  0.00     0.012 C 
ATOM      8  C   UNL     1       5.700   8.269  10.876  1.00  0.00     0.031 C 
ATOM      9  C   UNL     1       6.217   8.055  12.277  1.00  0.00    -0.077 C 
ATOM     10  C   UNL     1       6.015   9.023  13.183  1.00  0.00    -0.027 C 
ATOM     11  C   UNL     1       5.318  10.287  12.765  1.00  0.00     0.035 C 
ATOM     12  C   UNL     1       6.879   6.766  12.680  1.00  0.00     0.039 C 
ENDROOT
BRANCH   5  13
ATOM     13  C   UNL     1       3.949  12.605  11.685  1.00  0.00    -0.077 C 
ATOM     14  C   UNL     1       4.339  13.606  10.876  1.00  0.00     0.008 C 
ATOM     15  C   UNL     1       3.928  12.872  13.171  1.00  0.00     0.039 C 
ENDBRANCH   5  13
TORSDOF 1
ENDMDL
