MODEL 1
REMARK VINA RESULT:    -4.988      0.000      0.000
REMARK INTER + INTRA:          -8.239
REMARK INTER:                  -7.613
REMARK INTRA:                  -0.627
REMARK UNBOUND:                -0.627
REMARK SMILES O=C([O-])CCCCCCCCC(=O)[O-]
REMARK SMILES IDX 7 1 6 2 5 3 4 4 2 5 1 6 3 7 8 8 9 9 10 10 11 11 12 12 13 13
REMARK SMILES IDX 14 14
REMARK H PARENT
REMARK Flexibility Score: inf
ROOT
ATOM      1  C   UNL     1      27.179  11.935  35.242  1.00  0.00     0.000 C 
ENDROOT
BRANCH   1   2
ATOM      2  C   UNL     1      28.112  12.122  34.032  1.00  0.00     0.000 C 
BRANCH   2   3
ATOM      3  C   UNL     1      27.630  13.218  33.066  1.00  0.00     0.006 C 
BRANCH   3   4
ATOM      4  C   UNL     1      27.048  12.634  31.771  1.00  0.00     0.053 C 
BRANCH   4   5
ATOM      5  C   UNL     1      28.109  12.014  30.916  1.00  0.00     0.041 C 
ATOM      6  O   UNL     1      29.149  12.662  30.627  1.00  0.00    -0.550 OA
ATOM      7  O   UNL     1      27.934  10.733  30.407  1.00  0.00    -0.550 OA
ENDBRANCH   4   5
ENDBRANCH   3   4
ENDBRANCH   2   3
ENDBRANCH   1   2
BRANCH   1   8
ATOM      8  C   UNL     1      26.171  13.076  35.471  1.00  0.00     0.000 C 
BRANCH   8   9
ATOM      9  C   UNL     1      24.924  12.626  36.251  1.00  0.00     0.000 C 
BRANCH   9  10
ATOM     10  C   UNL     1      24.466  11.211  35.864  1.00  0.00     0.006 C 
BRANCH  10  11
ATOM     11  C   UNL     1      22.976  11.149  35.503  1.00  0.00     0.053 C 
BRANCH  11  12
ATOM     12  C   UNL     1      22.647  12.173  34.463  1.00  0.00     0.041 C 
ATOM     13  O   UNL     1      21.785  13.060  34.699  1.00  0.00    -0.550 OA
ATOM     14  O   UNL     1      23.329  12.181  33.253  1.00  0.00    -0.550 OA
ENDBRANCH  11  12
ENDBRANCH  10  11
ENDBRANCH   9  10
ENDBRANCH   8   9
ENDBRANCH   1   8
TORSDOF 9
ENDMDL
MODEL 2
REMARK VINA RESULT:    -4.988      1.146      1.680
REMARK INTER + INTRA:          -8.239
REMARK INTER:                  -7.723
REMARK INTRA:                  -0.515
REMARK UNBOUND:                -0.627
REMARK SMILES O=C([O-])CCCCCCCCC(=O)[O-]
REMARK SMILES IDX 7 1 6 2 5 3 4 4 2 5 1 6 3 7 8 8 9 9 10 10 11 11 12 12 13 13
REMARK SMILES IDX 14 14
REMARK H PARENT
REMARK Flexibility Score: inf
ROOT
ATOM      1  C   UNL     1      26.338  12.646  35.439  1.00  0.00     0.000 C 
ENDROOT
BRANCH   1   2
ATOM      2  C   UNL     1      26.884  11.331  34.851  1.00  0.00     0.000 C 
BRANCH   2   3
ATOM      3  C   UNL     1      28.143  11.535  33.990  1.00  0.00     0.006 C 
BRANCH   3   4
ATOM      4  C   UNL     1      27.972  12.676  32.977  1.00  0.00     0.053 C 
BRANCH   4   5
ATOM      5  C   UNL     1      28.189  12.207  31.572  1.00  0.00     0.041 C 
ATOM      6  O   UNL     1      28.948  12.848  30.800  1.00  0.00    -0.550 OA
ATOM      7  O   UNL     1      27.522  11.082  31.103  1.00  0.00    -0.550 OA
ENDBRANCH   4   5
ENDBRANCH   3   4
ENDBRANCH   2   3
ENDBRANCH   1   2
BRANCH   1   8
ATOM      8  C   UNL     1      24.864  12.600  35.881  1.00  0.00     0.000 C 
BRANCH   8   9
ATOM      9  C   UNL     1      24.270  11.182  35.841  1.00  0.00     0.000 C 
BRANCH   9  10
ATOM     10  C   UNL     1      22.785  11.176  35.445  1.00  0.00     0.006 C 
BRANCH  10  11
ATOM     11  C   UNL     1      22.436  12.282  34.440  1.00  0.00     0.053 C 
BRANCH  11  12
ATOM     12  C   UNL     1      21.225  13.036  34.892  1.00  0.00     0.041 C 
ATOM     13  O   UNL     1      20.520  12.593  35.837  1.00  0.00    -0.550 OA
ATOM     14  O   UNL     1      20.903  14.253  34.306  1.00  0.00    -0.550 OA
ENDBRANCH  11  12
ENDBRANCH  10  11
ENDBRANCH   9  10
ENDBRANCH   8   9
ENDBRANCH   1   8
TORSDOF 9
ENDMDL
MODEL 3
REMARK VINA RESULT:    -4.987      1.603      2.028
REMARK INTER + INTRA:          -8.237
REMARK INTER:                  -7.715
REMARK INTRA:                  -0.522
REMARK UNBOUND:                -0.627
REMARK SMILES O=C([O-])CCCCCCCCC(=O)[O-]
REMARK SMILES IDX 7 1 6 2 5 3 4 4 2 5 1 6 3 7 8 8 9 9 10 10 11 11 12 12 13 13
REMARK SMILES IDX 14 14
REMARK H PARENT
REMARK Flexibility Score: inf
ROOT
ATOM      1  C   UNL     1      26.047  11.100  34.575  1.00  0.00     0.000 C 
ENDROOT
BRANCH   1   2
ATOM      2  C   UNL     1      27.564  11.314  34.730  1.00  0.00     0.000 C 
BRANCH   2   3
ATOM      3  C   UNL     1      28.057  12.614  34.069  1.00  0.00     0.006 C 
BRANCH   3   4
ATOM      4  C   UNL     1      27.348  12.891  32.736  1.00  0.00     0.053 C 
BRANCH   4   5
ATOM      5  C   UNL     1      28.037  12.215  31.592  1.00  0.00     0.041 C 
ATOM      6  O   UNL     1      27.758  11.023  31.298  1.00  0.00    -0.550 OA
ATOM      7  O   UNL     1      29.015  12.890  30.871  1.00  0.00    -0.550 OA
ENDBRANCH   4   5
ENDBRANCH   3   4
ENDBRANCH   2   3
ENDBRANCH   1   2
BRANCH   1   8
ATOM      8  C   UNL     1      25.213  11.411  35.832  1.00  0.00     0.000 C 
BRANCH   8   9
ATOM      9  C   UNL     1      24.243  12.588  35.631  1.00  0.00     0.000 C 
BRANCH   9  10
ATOM     10  C   UNL     1      22.797  12.124  35.385  1.00  0.00     0.006 C 
BRANCH  10  11
ATOM     11  C   UNL     1      22.553  10.681  35.844  1.00  0.00     0.053 C 
BRANCH  11  12
ATOM     12  C   UNL     1      21.370  10.101  35.134  1.00  0.00     0.041 C 
ATOM     13  O   UNL     1      20.494   9.467  35.779  1.00  0.00    -0.550 OA
ATOM     14  O   UNL     1      21.207  10.305  33.770  1.00  0.00    -0.550 OA
ENDBRANCH  11  12
ENDBRANCH  10  11
ENDBRANCH   9  10
ENDBRANCH   8   9
ENDBRANCH   1   8
TORSDOF 9
ENDMDL
MODEL 4
REMARK VINA RESULT:    -4.979      0.640      5.633
REMARK INTER + INTRA:          -8.225
REMARK INTER:                  -7.704
REMARK INTRA:                  -0.521
REMARK UNBOUND:                -0.627
REMARK SMILES O=C([O-])CCCCCCCCC(=O)[O-]
REMARK SMILES IDX 7 1 6 2 5 3 4 4 2 5 1 6 3 7 8 8 9 9 10 10 11 11 12 12 13 13
REMARK SMILES IDX 14 14
REMARK H PARENT
REMARK Flexibility Score: inf
ROOT
ATOM      1  C   UNL     1      25.277  12.722  35.830  1.00  0.00     0.000 C 
ENDROOT
BRANCH   1   2
ATOM      2  C   UNL     1      24.895  11.230  35.851  1.00  0.00     0.000 C 
BRANCH   2   3
ATOM      3  C   UNL     1      23.413  10.986  35.518  1.00  0.00     0.006 C 
BRANCH   3   4
ATOM      4  C   UNL     1      22.605  12.290  35.483  1.00  0.00     0.053 C 
BRANCH   4   5
ATOM      5  C   UNL     1      22.138  12.615  34.098  1.00  0.00     0.041 C 
ATOM      6  O   UNL     1      22.766  12.177  33.098  1.00  0.00    -0.550 OA
ATOM      7  O   UNL     1      21.032  13.434  33.910  1.00  0.00    -0.550 OA
ENDBRANCH   4   5
ENDBRANCH   3   4
ENDBRANCH   2   3
ENDBRANCH   1   2
BRANCH   1   8
ATOM      8  C   UNL     1      26.634  13.038  35.174  1.00  0.00     0.000 C 
BRANCH   8   9
ATOM      9  C   UNL     1      27.505  11.788  34.966  1.00  0.00     0.000 C 
BRANCH   9  10
ATOM     10  C   UNL     1      28.374  11.879  33.701  1.00  0.00     0.006 C 
BRANCH  10  11
ATOM     11  C   UNL     1      27.648  12.555  32.532  1.00  0.00     0.053 C 
BRANCH  11  12
ATOM     12  C   UNL     1      28.218  12.096  31.227  1.00  0.00     0.041 C 
ATOM     13  O   UNL     1      29.128  12.761  30.665  1.00  0.00    -0.550 OA
ATOM     14  O   UNL     1      27.783  10.907  30.656  1.00  0.00    -0.550 OA
ENDBRANCH  11  12
ENDBRANCH  10  11
ENDBRANCH   9  10
ENDBRANCH   8   9
ENDBRANCH   1   8
TORSDOF 9
ENDMDL
MODEL 5
REMARK VINA RESULT:    -4.974      1.668      6.349
REMARK INTER + INTRA:          -8.217
REMARK INTER:                  -7.816
REMARK INTRA:                  -0.401
REMARK UNBOUND:                -0.627
REMARK SMILES O=C([O-])CCCCCCCCC(=O)[O-]
REMARK SMILES IDX 7 1 6 2 5 3 4 4 2 5 1 6 3 7 8 8 9 9 10 10 11 11 12 12 13 13
REMARK SMILES IDX 14 14
REMARK H PARENT
REMARK Flexibility Score: inf
ROOT
ATOM      1  C   UNL     1      25.101  11.470  35.755  1.00  0.00     0.000 C 
ENDROOT
BRANCH   1   2
ATOM      2  C   UNL     1      24.039  12.582  35.850  1.00  0.00     0.000 C 
BRANCH   2   3
ATOM      3  C   UNL     1      22.631  12.103  35.455  1.00  0.00     0.006 C 
BRANCH   3   4
ATOM      4  C   UNL     1      22.415  10.617  35.774  1.00  0.00     0.053 C 
BRANCH   4   5
ATOM      5  C   UNL     1      21.008  10.190  35.493  1.00  0.00     0.041 C 
ATOM      6  O   UNL     1      20.271  10.885  34.745  1.00  0.00    -0.550 OA
ATOM      7  O   UNL     1      20.497   9.042  36.086  1.00  0.00    -0.550 OA
ENDBRANCH   4   5
ENDBRANCH   3   4
ENDBRANCH   2   3
ENDBRANCH   1   2
BRANCH   1   8
ATOM      8  C   UNL     1      25.968  11.503  34.483  1.00  0.00     0.000 C 
BRANCH   8   9
ATOM      9  C   UNL     1      27.449  11.194  34.761  1.00  0.00     0.000 C 
BRANCH   9  10
ATOM     10  C   UNL     1      28.396  11.953  33.817  1.00  0.00     0.006 C 
BRANCH  10  11
ATOM     11  C   UNL     1      27.655  12.652  32.671  1.00  0.00     0.053 C 
BRANCH  11  12
ATOM     12  C   UNL     1      28.173  12.181  31.349  1.00  0.00     0.041 C 
ATOM     13  O   UNL     1      28.973  12.896  30.691  1.00  0.00    -0.550 OA
ATOM     14  O   UNL     1      27.813  10.928  30.867  1.00  0.00    -0.550 OA
ENDBRANCH  11  12
ENDBRANCH  10  11
ENDBRANCH   9  10
ENDBRANCH   8   9
ENDBRANCH   1   8
TORSDOF 9
ENDMDL
MODEL 6
REMARK VINA RESULT:    -4.918      1.221      6.001
REMARK INTER + INTRA:          -8.133
REMARK INTER:                  -7.583
REMARK INTRA:                  -0.550
REMARK UNBOUND:                -0.627
REMARK SMILES O=C([O-])CCCCCCCCC(=O)[O-]
REMARK SMILES IDX 7 1 6 2 5 3 4 4 2 5 1 6 3 7 8 8 9 9 10 10 11 11 12 12 13 13
REMARK SMILES IDX 14 14
REMARK H PARENT
REMARK Flexibility Score: inf
ROOT
ATOM      1  C   UNL     1      24.835  12.552  35.989  1.00  0.00     0.000 C 
ENDROOT
BRANCH   1   2
ATOM      2  C   UNL     1      24.207  11.151  35.873  1.00  0.00     0.000 C 
BRANCH   2   3
ATOM      3  C   UNL     1      22.820  11.167  35.209  1.00  0.00     0.006 C 
BRANCH   3   4
ATOM      4  C   UNL     1      22.495  12.531  34.582  1.00  0.00     0.053 C 
BRANCH   4   5
ATOM      5  C   UNL     1      21.153  13.034  35.015  1.00  0.00     0.041 C 
ATOM      6  O   UNL     1      20.701  14.114  34.553  1.00  0.00    -0.550 OA
ATOM      7  O   UNL     1      20.416  12.328  35.959  1.00  0.00    -0.550 OA
ENDBRANCH   4   5
ENDBRANCH   3   4
ENDBRANCH   2   3
ENDBRANCH   1   2
BRANCH   1   8
ATOM      8  C   UNL     1      26.190  12.720  35.277  1.00  0.00     0.000 C 
BRANCH   8   9
ATOM      9  C   UNL     1      26.842  11.378  34.903  1.00  0.00     0.000 C 
BRANCH   9  10
ATOM     10  C   UNL     1      28.118  11.556  34.065  1.00  0.00     0.006 C 
BRANCH  10  11
ATOM     11  C   UNL     1      28.055  12.780  33.143  1.00  0.00     0.053 C 
BRANCH  11  12
ATOM     12  C   UNL     1      27.979  12.352  31.711  1.00  0.00     0.041 C 
ATOM     13  O   UNL     1      26.984  11.701  31.298  1.00  0.00    -0.550 OA
ATOM     14  O   UNL     1      28.981  12.716  30.821  1.00  0.00    -0.550 OA
ENDBRANCH  11  12
ENDBRANCH  10  11
ENDBRANCH   9  10
ENDBRANCH   8   9
ENDBRANCH   1   8
TORSDOF 9
ENDMDL
MODEL 7
REMARK VINA RESULT:    -4.828      1.269      5.555
REMARK INTER + INTRA:          -7.995
REMARK INTER:                  -7.413
REMARK INTRA:                  -0.582
REMARK UNBOUND:                -0.627
REMARK SMILES O=C([O-])CCCCCCCCC(=O)[O-]
REMARK SMILES IDX 7 1 6 2 5 3 4 4 2 5 1 6 3 7 8 8 9 9 10 10 11 11 12 12 13 13
REMARK SMILES IDX 14 14
REMARK H PARENT
REMARK Flexibility Score: inf
ROOT
ATOM      1  C   UNL     1      25.816  11.515  34.572  1.00  0.00     0.000 C 
ENDROOT
BRANCH   1   2
ATOM      2  C   UNL     1      25.004  11.609  35.877  1.00  0.00     0.000 C 
BRANCH   2   3
ATOM      3  C   UNL     1      23.622  12.256  35.679  1.00  0.00     0.006 C 
BRANCH   3   4
ATOM      4  C   UNL     1      22.524  11.212  35.430  1.00  0.00     0.053 C 
BRANCH   4   5
ATOM      5  C   UNL     1      22.080  11.206  34.001  1.00  0.00     0.041 C 
ATOM      6  O   UNL     1      21.227  10.368  33.605  1.00  0.00    -0.550 OA
ATOM      7  O   UNL     1      22.636  12.101  33.094  1.00  0.00    -0.550 OA
ENDBRANCH   4   5
ENDBRANCH   3   4
ENDBRANCH   2   3
ENDBRANCH   1   2
BRANCH   1   8
ATOM      8  C   UNL     1      27.296  11.128  34.751  1.00  0.00     0.000 C 
BRANCH   8   9
ATOM      9  C   UNL     1      28.261  12.158  34.140  1.00  0.00     0.000 C 
BRANCH   9  10
ATOM     10  C   UNL     1      27.621  12.959  32.994  1.00  0.00     0.006 C 
BRANCH  10  11
ATOM     11  C   UNL     1      28.235  12.631  31.627  1.00  0.00     0.053 C 
BRANCH  11  12
ATOM     12  C   UNL     1      27.359  11.677  30.877  1.00  0.00     0.041 C 
ATOM     13  O   UNL     1      27.630  10.448  30.861  1.00  0.00    -0.550 OA
ATOM     14  O   UNL     1      26.215  12.138  30.238  1.00  0.00    -0.550 OA
ENDBRANCH  11  12
ENDBRANCH  10  11
ENDBRANCH   9  10
ENDBRANCH   8   9
ENDBRANCH   1   8
TORSDOF 9
ENDMDL
MODEL 8
REMARK VINA RESULT:    -4.600      1.954      6.631
REMARK INTER + INTRA:          -7.647
REMARK INTER:                  -7.151
REMARK INTRA:                  -0.496
REMARK UNBOUND:                -0.627
REMARK SMILES O=C([O-])CCCCCCCCC(=O)[O-]
REMARK SMILES IDX 7 1 6 2 5 3 4 4 2 5 1 6 3 7 8 8 9 9 10 10 11 11 12 12 13 13
REMARK SMILES IDX 14 14
REMARK H PARENT
REMARK Flexibility Score: inf
ROOT
ATOM      1  C   UNL     1      24.346  11.678  34.412  1.00  0.00     0.000 C 
ENDROOT
BRANCH   1   2
ATOM      2  C   UNL     1      22.823  11.531  34.237  1.00  0.00     0.000 C 
BRANCH   2   3
ATOM      3  C   UNL     1      22.050  11.676  35.560  1.00  0.00     0.006 C 
BRANCH   3   4
ATOM      4  C   UNL     1      21.022  12.814  35.508  1.00  0.00     0.053 C 
BRANCH   4   5
ATOM      5  C   UNL     1      19.674  12.366  35.982  1.00  0.00     0.041 C 
ATOM      6  O   UNL     1      18.841  13.207  36.412  1.00  0.00    -0.550 OA
ATOM      7  O   UNL     1      19.351  11.015  35.986  1.00  0.00    -0.550 OA
ENDBRANCH   4   5
ENDBRANCH   3   4
ENDBRANCH   2   3
ENDBRANCH   1   2
BRANCH   1   8
ATOM      8  C   UNL     1      24.795  12.248  35.770  1.00  0.00     0.000 C 
BRANCH   8   9
ATOM      9  C   UNL     1      25.866  13.343  35.635  1.00  0.00     0.000 C 
BRANCH   9  10
ATOM     10  C   UNL     1      27.193  12.803  35.078  1.00  0.00     0.006 C 
BRANCH  10  11
ATOM     11  C   UNL     1      27.631  13.518  33.793  1.00  0.00     0.053 C 
BRANCH  11  12
ATOM     12  C   UNL     1      27.832  12.530  32.688  1.00  0.00     0.041 C 
ATOM     13  O   UNL     1      28.367  12.890  31.607  1.00  0.00    -0.550 OA
ATOM     14  O   UNL     1      27.477  11.200  32.870  1.00  0.00    -0.550 OA
ENDBRANCH  11  12
ENDBRANCH  10  11
ENDBRANCH   9  10
ENDBRANCH   8   9
ENDBRANCH   1   8
TORSDOF 9
ENDMDL
MODEL 9
REMARK VINA RESULT:    -4.530      2.777      6.631
REMARK INTER + INTRA:          -7.540
REMARK INTER:                  -6.924
REMARK INTRA:                  -0.616
REMARK UNBOUND:                -0.627
REMARK SMILES O=C([O-])CCCCCCCCC(=O)[O-]
REMARK SMILES IDX 7 1 6 2 5 3 4 4 2 5 1 6 3 7 8 8 9 9 10 10 11 11 12 12 13 13
REMARK SMILES IDX 14 14
REMARK H PARENT
REMARK Flexibility Score: inf
ROOT
ATOM      1  C   UNL     1      22.692  12.250  35.496  1.00  0.00     0.000 C 
ENDROOT
BRANCH   1   2
ATOM      2  C   UNL     1      22.327  11.558  34.170  1.00  0.00     0.000 C 
BRANCH   2   3
ATOM      3  C   UNL     1      21.109  10.626  34.294  1.00  0.00     0.006 C 
BRANCH   3   4
ATOM      4  C   UNL     1      21.207   9.706  35.519  1.00  0.00     0.053 C 
BRANCH   4   5
ATOM      5  C   UNL     1      19.889   9.076  35.846  1.00  0.00     0.041 C 
ATOM      6  O   UNL     1      19.698   8.555  36.976  1.00  0.00    -0.550 OA
ATOM      7  O   UNL     1      18.882   9.030  34.889  1.00  0.00    -0.550 OA
ENDBRANCH   4   5
ENDBRANCH   3   4
ENDBRANCH   2   3
ENDBRANCH   1   2
BRANCH   1   8
ATOM      8  C   UNL     1      24.196  12.503  35.708  1.00  0.00     0.000 C 
BRANCH   8   9
ATOM      9  C   UNL     1      25.016  11.204  35.796  1.00  0.00     0.000 C 
BRANCH   9  10
ATOM     10  C   UNL     1      26.318  11.273  34.982  1.00  0.00     0.006 C 
BRANCH  10  11
ATOM     11  C   UNL     1      26.119  11.909  33.600  1.00  0.00     0.053 C 
BRANCH  11  12
ATOM     12  C   UNL     1      27.170  12.943  33.344  1.00  0.00     0.041 C 
ATOM     13  O   UNL     1      27.228  13.977  34.060  1.00  0.00    -0.550 OA
ATOM     14  O   UNL     1      28.118  12.740  32.349  1.00  0.00    -0.550 OA
ENDBRANCH  11  12
ENDBRANCH  10  11
ENDBRANCH   9  10
ENDBRANCH   8   9
ENDBRANCH   1   8
TORSDOF 9
ENDMDL
