MODEL 1
REMARK VINA RESULT:    -4.847      0.000      0.000
REMARK INTER + INTRA:          -7.526
REMARK INTER:                  -5.980
REMARK INTRA:                  -1.546
REMARK UNBOUND:                -1.546
REMARK SMILES CC(C)=CCC[C@@H](C)c1ccc(C)cc1
REMARK SMILES IDX 6 1 7 2 8 3 9 4 13 5 12 6 11 7 14 8 10 9 15 10 5 11 4 12
REMARK SMILES IDX 2 13 1 14 3 15
REMARK H PARENT
REMARK Flexibility Score: inf
ROOT
ATOM      1  C   UNL     1     160.195 175.663 151.715  1.00  0.00     0.012 C 
ENDROOT
BRANCH   1   2
ATOM      2  C   UNL     1     160.849 176.660 150.727  1.00  0.00     0.016 C 
ATOM      3  C   UNL     1     160.369 178.103 150.931  1.00  0.00     0.013 C 
BRANCH   2   4
ATOM      4  C   UNL     1     162.362 176.587 150.833  1.00  0.00    -0.045 A 
ATOM      5  C   UNL     1     166.671 176.414 151.092  1.00  0.00     0.044 C 
ATOM      6  C   UNL     1     165.173 176.471 151.031  1.00  0.00    -0.051 A 
ATOM      7  C   UNL     1     164.429 175.298 150.836  1.00  0.00     0.004 A 
ATOM      8  C   UNL     1     164.508 177.703 151.101  1.00  0.00     0.004 A 
ATOM      9  C   UNL     1     163.036 175.353 150.743  1.00  0.00     0.004 A 
ATOM     10  C   UNL     1     163.116 177.761 151.008  1.00  0.00     0.004 A 
ENDBRANCH   2   4
ENDBRANCH   1   2
BRANCH   1  11
ATOM     11  C   UNL     1     160.139 176.173 153.167  1.00  0.00     0.028 C 
BRANCH  11  12
ATOM     12  C   UNL     1     161.343 175.753 153.979  1.00  0.00    -0.028 C 
ATOM     13  C   UNL     1     162.192 176.633 154.548  1.00  0.00    -0.080 C 
ATOM     14  C   UNL     1     163.361 176.104 155.339  1.00  0.00     0.039 C 
ATOM     15  C   UNL     1     161.997 178.125 154.408  1.00  0.00     0.039 C 
ENDBRANCH  11  12
ENDBRANCH   1  11
TORSDOF 4
ENDMDL
MODEL 2
REMARK VINA RESULT:    -4.768      1.526      2.570
REMARK INTER + INTRA:          -7.429
REMARK INTER:                  -6.277
REMARK INTRA:                  -1.152
REMARK UNBOUND:                -1.546
REMARK SMILES CC(C)=CCC[C@@H](C)c1ccc(C)cc1
REMARK SMILES IDX 6 1 7 2 8 3 9 4 13 5 12 6 11 7 14 8 10 9 15 10 5 11 4 12
REMARK SMILES IDX 2 13 1 14 3 15
REMARK H PARENT
REMARK Flexibility Score: inf
ROOT
ATOM      1  C   UNL     1     160.560 176.932 152.471  1.00  0.00     0.012 C 
ENDROOT
BRANCH   1   2
ATOM      2  C   UNL     1     161.019 176.632 151.023  1.00  0.00     0.016 C 
ATOM      3  C   UNL     1     160.516 177.670 150.010  1.00  0.00     0.013 C 
BRANCH   2   4
ATOM      4  C   UNL     1     162.533 176.528 150.964  1.00  0.00    -0.045 A 
ATOM      5  C   UNL     1     166.840 176.268 150.754  1.00  0.00     0.044 C 
ATOM      6  C   UNL     1     165.346 176.354 150.856  1.00  0.00    -0.051 A 
ATOM      7  C   UNL     1     164.560 175.203 150.702  1.00  0.00     0.004 A 
ATOM      8  C   UNL     1     164.719 177.595 151.039  1.00  0.00     0.004 A 
ATOM      9  C   UNL     1     163.166 175.286 150.760  1.00  0.00     0.004 A 
ATOM     10  C   UNL     1     163.326 177.681 151.097  1.00  0.00     0.004 A 
ENDBRANCH   2   4
ENDBRANCH   1   2
BRANCH   1  11
ATOM     11  C   UNL     1     160.123 175.680 153.256  1.00  0.00     0.028 C 
BRANCH  11  12
ATOM     12  C   UNL     1     159.733 174.533 152.352  1.00  0.00    -0.028 C 
ATOM     13  C   UNL     1     160.370 173.344 152.354  1.00  0.00    -0.080 C 
ATOM     14  C   UNL     1     159.896 172.267 151.411  1.00  0.00     0.039 C 
ATOM     15  C   UNL     1     161.538 173.073 153.272  1.00  0.00     0.039 C 
ENDBRANCH  11  12
ENDBRANCH   1  11
TORSDOF 4
ENDMDL
MODEL 3
REMARK VINA RESULT:    -4.767     10.270     12.262
REMARK INTER + INTRA:          -7.428
REMARK INTER:                  -6.045
REMARK INTRA:                  -1.383
REMARK UNBOUND:                -1.546
REMARK SMILES CC(C)=CCC[C@@H](C)c1ccc(C)cc1
REMARK SMILES IDX 6 1 7 2 8 3 9 4 13 5 12 6 11 7 14 8 10 9 15 10 5 11 4 12
REMARK SMILES IDX 2 13 1 14 3 15
REMARK H PARENT
REMARK Flexibility Score: inf
ROOT
ATOM      1  C   UNL     1     172.554 177.148 151.860  1.00  0.00     0.012 C 
ENDROOT
BRANCH   1   2
ATOM      2  C   UNL     1     173.609 176.989 150.738  1.00  0.00     0.016 C 
ATOM      3  C   UNL     1     174.641 178.125 150.723  1.00  0.00     0.013 C 
BRANCH   2   4
ATOM      4  C   UNL     1     174.305 175.645 150.858  1.00  0.00    -0.045 A 
ATOM      5  C   UNL     1     176.320 171.836 151.161  1.00  0.00     0.044 C 
ATOM      6  C   UNL     1     175.616 173.158 151.085  1.00  0.00    -0.051 A 
ATOM      7  C   UNL     1     174.237 173.210 150.835  1.00  0.00     0.004 A 
ATOM      8  C   UNL     1     176.340 174.353 151.195  1.00  0.00     0.004 A 
ATOM      9  C   UNL     1     173.585 174.442 150.728  1.00  0.00     0.004 A 
ATOM     10  C   UNL     1     175.691 175.585 151.088  1.00  0.00     0.004 A 
ENDBRANCH   2   4
ENDBRANCH   1   2
BRANCH   1  11
ATOM     11  C   UNL     1     173.118 177.745 153.163  1.00  0.00     0.028 C 
BRANCH  11  12
ATOM     12  C   UNL     1     173.704 176.695 154.079  1.00  0.00    -0.028 C 
ATOM     13  C   UNL     1     174.981 176.722 154.511  1.00  0.00    -0.080 C 
ATOM     14  C   UNL     1     175.461 175.624 155.425  1.00  0.00     0.039 C 
ATOM     15  C   UNL     1     175.932 177.823 154.100  1.00  0.00     0.039 C 
ENDBRANCH  11  12
ENDBRANCH   1  11
TORSDOF 4
ENDMDL
MODEL 4
REMARK VINA RESULT:    -4.766      7.502     11.417
REMARK INTER + INTRA:          -7.426
REMARK INTER:                  -6.283
REMARK INTRA:                  -1.143
REMARK UNBOUND:                -1.546
REMARK SMILES CC(C)=CCC[C@@H](C)c1ccc(C)cc1
REMARK SMILES IDX 6 1 7 2 8 3 9 4 13 5 12 6 11 7 14 8 10 9 15 10 5 11 4 12
REMARK SMILES IDX 2 13 1 14 3 15
REMARK H PARENT
REMARK Flexibility Score: inf
ROOT
ATOM      1  C   UNL     1     174.142 177.802 152.483  1.00  0.00     0.012 C 
ENDROOT
BRANCH   1   2
ATOM      2  C   UNL     1     174.028 177.266 151.035  1.00  0.00     0.016 C 
ATOM      3  C   UNL     1     174.841 178.092 150.028  1.00  0.00     0.013 C 
BRANCH   2   4
ATOM      4  C   UNL     1     174.444 175.808 150.980  1.00  0.00    -0.045 A 
ATOM      5  C   UNL     1     175.663 171.668 150.782  1.00  0.00     0.044 C 
ATOM      6  C   UNL     1     175.237 173.103 150.880  1.00  0.00    -0.051 A 
ATOM      7  C   UNL     1     173.885 173.449 150.736  1.00  0.00     0.004 A 
ATOM      8  C   UNL     1     176.192 174.115 151.048  1.00  0.00     0.004 A 
ATOM      9  C   UNL     1     173.490 174.789 150.791  1.00  0.00     0.004 A 
ATOM     10  C   UNL     1     175.799 175.455 151.102  1.00  0.00     0.004 A 
ENDBRANCH   2   4
ENDBRANCH   1   2
BRANCH   1  11
ATOM     11  C   UNL     1     172.815 177.764 153.266  1.00  0.00     0.028 C 
BRANCH  11  12
ATOM     12  C   UNL     1     171.604 177.821 152.361  1.00  0.00    -0.028 C 
ATOM     13  C   UNL     1     170.659 176.859 152.334  1.00  0.00    -0.080 C 
ATOM     14  C   UNL     1     169.491 177.018 151.394  1.00  0.00     0.039 C 
ATOM     15  C   UNL     1     170.748 175.636 153.217  1.00  0.00     0.039 C 
ENDBRANCH  11  12
ENDBRANCH   1  11
TORSDOF 4
ENDMDL
MODEL 5
REMARK VINA RESULT:    -4.730     11.586     12.908
REMARK INTER + INTRA:          -7.382
REMARK INTER:                  -6.019
REMARK INTRA:                  -1.364
REMARK UNBOUND:                -1.546
REMARK SMILES CC(C)=CCC[C@@H](C)c1ccc(C)cc1
REMARK SMILES IDX 6 1 7 2 8 3 9 4 13 5 12 6 11 7 14 8 10 9 15 10 5 11 4 12
REMARK SMILES IDX 2 13 1 14 3 15
REMARK H PARENT
REMARK Flexibility Score: inf
ROOT
ATOM      1  C   UNL     1     175.505 177.749 152.320  1.00  0.00     0.012 C 
ENDROOT
BRANCH   1   2
ATOM      2  C   UNL     1     174.487 177.089 151.358  1.00  0.00     0.016 C 
ATOM      3  C   UNL     1     174.376 177.821 150.013  1.00  0.00     0.013 C 
BRANCH   2   4
ATOM      4  C   UNL     1     174.845 175.630 151.136  1.00  0.00    -0.045 A 
ATOM      5  C   UNL     1     175.893 171.494 150.463  1.00  0.00     0.044 C 
ATOM      6  C   UNL     1     175.528 172.925 150.726  1.00  0.00    -0.051 A 
ATOM      7  C   UNL     1     174.183 173.323 150.721  1.00  0.00     0.004 A 
ATOM      8  C   UNL     1     176.530 173.888 150.910  1.00  0.00     0.004 A 
ATOM      9  C   UNL     1     173.843 174.662 150.930  1.00  0.00     0.004 A 
ATOM     10  C   UNL     1     176.192 175.227 151.119  1.00  0.00     0.004 A 
ENDBRANCH   2   4
ENDBRANCH   1   2
BRANCH   1  11
ATOM     11  C   UNL     1     175.096 177.672 153.804  1.00  0.00     0.028 C 
BRANCH  11  12
ATOM     12  C   UNL     1     175.893 176.643 154.574  1.00  0.00    -0.028 C 
ATOM     13  C   UNL     1     175.390 175.447 154.943  1.00  0.00    -0.080 C 
ATOM     14  C   UNL     1     176.273 174.495 155.708  1.00  0.00     0.039 C 
ATOM     15  C   UNL     1     173.971 175.048 154.609  1.00  0.00     0.039 C 
ENDBRANCH  11  12
ENDBRANCH   1  11
TORSDOF 4
ENDMDL
MODEL 6
REMARK VINA RESULT:    -4.589      1.433      2.550
REMARK INTER + INTRA:          -7.208
REMARK INTER:                  -6.075
REMARK INTRA:                  -1.133
REMARK UNBOUND:                -1.546
REMARK SMILES CC(C)=CCC[C@@H](C)c1ccc(C)cc1
REMARK SMILES IDX 6 1 7 2 8 3 9 4 13 5 12 6 11 7 14 8 10 9 15 10 5 11 4 12
REMARK SMILES IDX 2 13 1 14 3 15
REMARK H PARENT
REMARK Flexibility Score: inf
ROOT
ATOM      1  C   UNL     1     160.618 176.749 150.950  1.00  0.00     0.012 C 
ENDROOT
BRANCH   1   2
ATOM      2  C   UNL     1     161.781 177.612 151.497  1.00  0.00     0.016 C 
ATOM      3  C   UNL     1     161.685 177.854 153.010  1.00  0.00     0.013 C 
BRANCH   2   4
ATOM      4  C   UNL     1     163.115 176.976 151.148  1.00  0.00    -0.045 A 
ATOM      5  C   UNL     1     166.916 175.202 150.113  1.00  0.00     0.044 C 
ATOM      6  C   UNL     1     165.601 175.812 150.501  1.00  0.00    -0.051 A 
ATOM      7  C   UNL     1     164.438 175.029 150.521  1.00  0.00     0.004 A 
ATOM      8  C   UNL     1     165.512 177.183 150.779  1.00  0.00     0.004 A 
ATOM      9  C   UNL     1     163.206 175.603 150.847  1.00  0.00     0.004 A 
ATOM     10  C   UNL     1     164.282 177.759 151.105  1.00  0.00     0.004 A 
ENDBRANCH   2   4
ENDBRANCH   1   2
BRANCH   1  11
ATOM     11  C   UNL     1     159.757 176.098 152.050  1.00  0.00     0.028 C 
BRANCH  11  12
ATOM     12  C   UNL     1     159.583 174.610 151.848  1.00  0.00    -0.028 C 
ATOM     13  C   UNL     1     160.282 173.685 152.538  1.00  0.00    -0.080 C 
ATOM     14  C   UNL     1     160.027 172.227 152.257  1.00  0.00     0.039 C 
ATOM     15  C   UNL     1     161.307 174.080 153.575  1.00  0.00     0.039 C 
ENDBRANCH  11  12
ENDBRANCH   1  11
TORSDOF 4
ENDMDL
MODEL 7
REMARK VINA RESULT:    -4.438      1.842      4.330
REMARK INTER + INTRA:          -7.022
REMARK INTER:                  -5.522
REMARK INTRA:                  -1.500
REMARK UNBOUND:                -1.546
REMARK SMILES CC(C)=CCC[C@@H](C)c1ccc(C)cc1
REMARK SMILES IDX 6 1 7 2 8 3 9 4 13 5 12 6 11 7 14 8 10 9 15 10 5 11 4 12
REMARK SMILES IDX 2 13 1 14 3 15
REMARK H PARENT
REMARK Flexibility Score: inf
ROOT
ATOM      1  C   UNL     1     162.669 176.761 151.037  1.00  0.00     0.012 C 
ENDROOT
BRANCH   1   2
ATOM      2  C   UNL     1     161.903 177.911 151.736  1.00  0.00     0.016 C 
ATOM      3  C   UNL     1     160.489 178.115 151.173  1.00  0.00     0.013 C 
BRANCH   2   4
ATOM      4  C   UNL     1     161.844 177.669 153.233  1.00  0.00    -0.045 A 
ATOM      5  C   UNL     1     161.703 176.930 157.488  1.00  0.00     0.044 C 
ATOM      6  C   UNL     1     161.756 177.216 156.015  1.00  0.00    -0.051 A 
ATOM      7  C   UNL     1     160.574 177.460 155.301  1.00  0.00     0.004 A 
ATOM      8  C   UNL     1     162.977 177.173 155.330  1.00  0.00     0.004 A 
ATOM      9  C   UNL     1     160.617 177.690 153.923  1.00  0.00     0.004 A 
ATOM     10  C   UNL     1     163.023 177.403 153.952  1.00  0.00     0.004 A 
ENDBRANCH   2   4
ENDBRANCH   1   2
BRANCH   1  11
ATOM     11  C   UNL     1     161.806 175.515 150.762  1.00  0.00     0.028 C 
BRANCH  11  12
ATOM     12  C   UNL     1     161.748 174.575 151.944  1.00  0.00    -0.028 C 
ATOM     13  C   UNL     1     160.595 174.219 152.548  1.00  0.00    -0.080 C 
ATOM     14  C   UNL     1     160.653 173.271 153.719  1.00  0.00     0.039 C 
ATOM     15  C   UNL     1     159.260 174.746 152.077  1.00  0.00     0.039 C 
ENDBRANCH  11  12
ENDBRANCH   1  11
TORSDOF 4
ENDMDL
MODEL 8
REMARK VINA RESULT:    -4.422      0.982      4.274
REMARK INTER + INTRA:          -7.002
REMARK INTER:                  -5.470
REMARK INTRA:                  -1.532
REMARK UNBOUND:                -1.546
REMARK SMILES CC(C)=CCC[C@@H](C)c1ccc(C)cc1
REMARK SMILES IDX 6 1 7 2 8 3 9 4 13 5 12 6 11 7 14 8 10 9 15 10 5 11 4 12
REMARK SMILES IDX 2 13 1 14 3 15
REMARK H PARENT
REMARK Flexibility Score: inf
ROOT
ATOM      1  C   UNL     1     160.506 177.909 151.626  1.00  0.00     0.012 C 
ENDROOT
BRANCH   1   2
ATOM      2  C   UNL     1     160.099 176.944 152.766  1.00  0.00     0.016 C 
ATOM      3  C   UNL     1     159.830 175.516 152.273  1.00  0.00     0.013 C 
BRANCH   2   4
ATOM      4  C   UNL     1     161.162 176.936 153.851  1.00  0.00    -0.045 A 
ATOM      5  C   UNL     1     164.147 176.895 156.973  1.00  0.00     0.044 C 
ATOM      6  C   UNL     1     163.131 176.902 155.869  1.00  0.00    -0.051 A 
ATOM      7  C   UNL     1     162.829 178.095 155.196  1.00  0.00     0.004 A 
ATOM      8  C   UNL     1     162.427 175.734 155.547  1.00  0.00     0.004 A 
ATOM      9  C   UNL     1     161.857 178.112 154.192  1.00  0.00     0.004 A 
ATOM     10  C   UNL     1     161.455 175.749 154.544  1.00  0.00     0.004 A 
ENDBRANCH   2   4
ENDBRANCH   1   2
BRANCH   1  11
ATOM     11  C   UNL     1     161.448 177.277 150.583  1.00  0.00     0.028 C 
BRANCH  11  12
ATOM     12  C   UNL     1     162.905 177.570 150.862  1.00  0.00    -0.028 C 
ATOM     13  C   UNL     1     163.794 176.618 151.213  1.00  0.00    -0.080 C 
ATOM     14  C   UNL     1     165.224 177.021 151.466  1.00  0.00     0.039 C 
ATOM     15  C   UNL     1     163.388 175.170 151.358  1.00  0.00     0.039 C 
ENDBRANCH  11  12
ENDBRANCH   1  11
TORSDOF 4
ENDMDL
MODEL 9
REMARK VINA RESULT:    -4.407     11.484     13.725
REMARK INTER + INTRA:          -6.983
REMARK INTER:                  -5.508
REMARK INTRA:                  -1.475
REMARK UNBOUND:                -1.546
REMARK SMILES CC(C)=CCC[C@@H](C)c1ccc(C)cc1
REMARK SMILES IDX 6 1 7 2 8 3 9 4 13 5 12 6 11 7 14 8 10 9 15 10 5 11 4 12
REMARK SMILES IDX 2 13 1 14 3 15
REMARK H PARENT
REMARK Flexibility Score: inf
ROOT
ATOM      1  C   UNL     1     175.382 172.762 154.224  1.00  0.00     0.012 C 
ENDROOT
BRANCH   1   2
ATOM      2  C   UNL     1     175.083 174.196 154.728  1.00  0.00     0.016 C 
ATOM      3  C   UNL     1     176.168 174.736 155.669  1.00  0.00     0.013 C 
BRANCH   2   4
ATOM      4  C   UNL     1     174.889 175.135 153.551  1.00  0.00    -0.045 A 
ATOM      5  C   UNL     1     174.348 177.767 150.169  1.00  0.00     0.044 C 
ATOM      6  C   UNL     1     174.514 176.868 151.358  1.00  0.00    -0.051 A 
ATOM      7  C   UNL     1     175.461 177.173 152.347  1.00  0.00     0.004 A 
ATOM      8  C   UNL     1     173.775 175.681 151.457  1.00  0.00     0.004 A 
ATOM      9  C   UNL     1     175.644 176.318 153.437  1.00  0.00     0.004 A 
ATOM     10  C   UNL     1     173.956 174.825 152.546  1.00  0.00     0.004 A 
ENDBRANCH   2   4
ENDBRANCH   1   2
BRANCH   1  11
ATOM     11  C   UNL     1     176.649 172.662 153.353  1.00  0.00     0.028 C 
BRANCH  11  12
ATOM     12  C   UNL     1     176.391 171.987 152.025  1.00  0.00    -0.028 C 
ATOM     13  C   UNL     1     176.585 172.597 150.838  1.00  0.00    -0.080 C 
ATOM     14  C   UNL     1     176.297 171.829 149.574  1.00  0.00     0.039 C 
ATOM     15  C   UNL     1     177.082 174.022 150.752  1.00  0.00     0.039 C 
ENDBRANCH  11  12
ENDBRANCH   1  11
TORSDOF 4
ENDMDL
