MODEL 1
REMARK VINA RESULT:    -3.990      0.000      0.000
REMARK INTER + INTRA:          -6.031
REMARK INTER:                  -5.623
REMARK INTRA:                  -0.408
REMARK UNBOUND:                -0.408
REMARK SMILES CCCCCCCCC(=O)[O-]
REMARK SMILES IDX 6 1 7 2 8 3 9 4 10 5 11 6 5 7 4 8 3 9 2 10 1 11
REMARK H PARENT
REMARK Flexibility Score: inf
ROOT
ATOM      1  C   UNL     1       4.244 -34.435  22.242  1.00  0.00     0.000 C 
ENDROOT
BRANCH   1   2
ATOM      2  C   UNL     1       4.378 -34.502  20.713  1.00  0.00     0.006 C 
BRANCH   2   3
ATOM      3  C   UNL     1       5.502 -35.446  20.269  1.00  0.00     0.053 C 
BRANCH   3   4
ATOM      4  C   UNL     1       5.036 -36.868  20.193  1.00  0.00     0.041 C 
ATOM      5  O   UNL     1       4.639 -37.346  19.098  1.00  0.00    -0.550 OA
ATOM      6  O   UNL     1       5.010 -37.655  21.337  1.00  0.00    -0.550 OA
ENDBRANCH   3   4
ENDBRANCH   2   3
ENDBRANCH   1   2
BRANCH   1   7
ATOM      7  C   UNL     1       5.380 -33.608  22.858  1.00  0.00     0.000 C 
BRANCH   7   8
ATOM      8  C   UNL     1       6.108 -34.401  23.954  1.00  0.00    -0.000 C 
BRANCH   8   9
ATOM      9  C   UNL     1       5.565 -35.838  24.094  1.00  0.00    -0.000 C 
BRANCH   9  10
ATOM     10  C   UNL     1       5.812 -36.457  25.480  1.00  0.00    -0.003 C 
ATOM     11  C   UNL     1       4.734 -37.458  25.889  1.00  0.00     0.004 C 
ENDBRANCH   9  10
ENDBRANCH   8   9
ENDBRANCH   7   8
ENDBRANCH   1   7
TORSDOF 7
ENDMDL
MODEL 2
REMARK VINA RESULT:    -3.930      1.696      2.097
REMARK INTER + INTRA:          -5.947
REMARK INTER:                  -5.388
REMARK INTRA:                  -0.558
REMARK UNBOUND:                -0.408
REMARK SMILES CCCCCCCCC(=O)[O-]
REMARK SMILES IDX 6 1 7 2 8 3 9 4 10 5 11 6 5 7 4 8 3 9 2 10 1 11
REMARK H PARENT
REMARK Flexibility Score: inf
ROOT
ATOM      1  C   UNL     1       3.885 -35.157  21.586  1.00  0.00     0.000 C 
ENDROOT
BRANCH   1   2
ATOM      2  C   UNL     1       5.002 -36.107  21.128  1.00  0.00     0.006 C 
BRANCH   2   3
ATOM      3  C   UNL     1       4.924 -36.416  19.628  1.00  0.00     0.053 C 
BRANCH   3   4
ATOM      4  C   UNL     1       5.125 -35.188  18.795  1.00  0.00     0.041 C 
ATOM      5  O   UNL     1       6.072 -34.399  19.049  1.00  0.00    -0.550 OA
ATOM      6  O   UNL     1       4.245 -34.896  17.760  1.00  0.00    -0.550 OA
ENDBRANCH   3   4
ENDBRANCH   2   3
ENDBRANCH   1   2
BRANCH   1   7
ATOM      7  C   UNL     1       4.438 -34.058  22.500  1.00  0.00     0.000 C 
BRANCH   7   8
ATOM      8  C   UNL     1       5.918 -34.307  22.830  1.00  0.00    -0.000 C 
BRANCH   8   9
ATOM      9  C   UNL     1       6.125 -34.742  24.296  1.00  0.00    -0.000 C 
BRANCH   9  10
ATOM     10  C   UNL     1       6.099 -36.267  24.495  1.00  0.00    -0.003 C 
ATOM     11  C   UNL     1       5.042 -36.722  25.499  1.00  0.00     0.004 C 
ENDBRANCH   9  10
ENDBRANCH   8   9
ENDBRANCH   7   8
ENDBRANCH   1   7
TORSDOF 7
ENDMDL
MODEL 3
REMARK VINA RESULT:    -3.728      1.493      2.831
REMARK INTER + INTRA:          -5.662
REMARK INTER:                  -5.121
REMARK INTRA:                  -0.541
REMARK UNBOUND:                -0.408
REMARK SMILES CCCCCCCCC(=O)[O-]
REMARK SMILES IDX 6 1 7 2 8 3 9 4 10 5 11 6 5 7 4 8 3 9 2 10 1 11
REMARK H PARENT
REMARK Flexibility Score: inf
ROOT
ATOM      1  C   UNL     1       4.600 -35.713  19.468  1.00  0.00     0.000 C 
ENDROOT
BRANCH   1   2
ATOM      2  C   UNL     1       5.112 -37.158  19.554  1.00  0.00     0.006 C 
BRANCH   2   3
ATOM      3  C   UNL     1       4.622 -37.875  20.818  1.00  0.00     0.053 C 
BRANCH   3   4
ATOM      4  C   UNL     1       5.354 -39.161  21.049  1.00  0.00     0.041 C 
ATOM      5  O   UNL     1       5.299 -39.729  22.170  1.00  0.00    -0.550 OA
ATOM      6  O   UNL     1       6.125 -39.715  20.034  1.00  0.00    -0.550 OA
ENDBRANCH   3   4
ENDBRANCH   2   3
ENDBRANCH   1   2
BRANCH   1   7
ATOM      7  C   UNL     1       5.339 -34.808  20.460  1.00  0.00     0.000 C 
BRANCH   7   8
ATOM      8  C   UNL     1       4.362 -34.170  21.460  1.00  0.00    -0.000 C 
BRANCH   8   9
ATOM      9  C   UNL     1       4.989 -33.995  22.859  1.00  0.00    -0.000 C 
BRANCH   9  10
ATOM     10  C   UNL     1       6.007 -35.091  23.218  1.00  0.00    -0.003 C 
ATOM     11  C   UNL     1       5.549 -35.977  24.374  1.00  0.00     0.004 C 
ENDBRANCH   9  10
ENDBRANCH   8   9
ENDBRANCH   7   8
ENDBRANCH   1   7
TORSDOF 7
ENDMDL
MODEL 4
REMARK VINA RESULT:    -3.726      1.779      4.143
REMARK INTER + INTRA:          -5.659
REMARK INTER:                  -5.327
REMARK INTRA:                  -0.331
REMARK UNBOUND:                -0.408
REMARK SMILES CCCCCCCCC(=O)[O-]
REMARK SMILES IDX 6 1 7 2 8 3 9 4 10 5 11 6 5 7 4 8 3 9 2 10 1 11
REMARK H PARENT
REMARK Flexibility Score: inf
ROOT
ATOM      1  C   UNL     1       4.654 -33.507  22.499  1.00  0.00     0.000 C 
ENDROOT
BRANCH   1   2
ATOM      2  C   UNL     1       6.033 -34.080  22.859  1.00  0.00     0.006 C 
BRANCH   2   3
ATOM      3  C   UNL     1       6.092 -34.587  24.306  1.00  0.00     0.053 C 
BRANCH   3   4
ATOM      4  C   UNL     1       5.750 -36.042  24.400  1.00  0.00     0.041 C 
ATOM      5  O   UNL     1       5.738 -36.758  23.365  1.00  0.00    -0.550 OA
ATOM      6  O   UNL     1       5.412 -36.600  25.627  1.00  0.00    -0.550 OA
ENDBRANCH   3   4
ENDBRANCH   2   3
ENDBRANCH   1   2
BRANCH   1   7
ATOM      7  C   UNL     1       3.942 -34.394  21.471  1.00  0.00     0.000 C 
BRANCH   7   8
ATOM      8  C   UNL     1       4.626 -34.306  20.098  1.00  0.00    -0.000 C 
BRANCH   8   9
ATOM      9  C   UNL     1       5.129 -35.680  19.608  1.00  0.00    -0.000 C 
BRANCH   9  10
ATOM     10  C   UNL     1       4.680 -36.853  20.496  1.00  0.00    -0.003 C 
ATOM     11  C   UNL     1       5.065 -38.216  19.927  1.00  0.00     0.004 C 
ENDBRANCH   9  10
ENDBRANCH   8   9
ENDBRANCH   7   8
ENDBRANCH   1   7
TORSDOF 7
ENDMDL
MODEL 5
REMARK VINA RESULT:    -3.359      1.938      4.745
REMARK INTER + INTRA:          -5.142
REMARK INTER:                  -5.004
REMARK INTRA:                  -0.138
REMARK UNBOUND:                -0.408
REMARK SMILES CCCCCCCCC(=O)[O-]
REMARK SMILES IDX 6 1 7 2 8 3 9 4 10 5 11 6 5 7 4 8 3 9 2 10 1 11
REMARK H PARENT
REMARK Flexibility Score: inf
ROOT
ATOM      1  C   UNL     1       4.750 -33.695  22.472  1.00  0.00     0.000 C 
ENDROOT
BRANCH   1   2
ATOM      2  C   UNL     1       6.083 -34.284  22.958  1.00  0.00     0.006 C 
BRANCH   2   3
ATOM      3  C   UNL     1       6.004 -34.787  24.404  1.00  0.00     0.053 C 
BRANCH   3   4
ATOM      4  C   UNL     1       5.556 -36.215  24.474  1.00  0.00     0.041 C 
ATOM      5  O   UNL     1       5.622 -36.949  23.454  1.00  0.00    -0.550 OA
ATOM      6  O   UNL     1       5.035 -36.725  25.656  1.00  0.00    -0.550 OA
ENDBRANCH   3   4
ENDBRANCH   2   3
ENDBRANCH   1   2
BRANCH   1   7
ATOM      7  C   UNL     1       4.127 -34.572  21.379  1.00  0.00     0.000 C 
BRANCH   7   8
ATOM      8  C   UNL     1       5.175 -35.507  20.757  1.00  0.00    -0.000 C 
BRANCH   8   9
ATOM      9  C   UNL     1       5.963 -34.825  19.619  1.00  0.00    -0.000 C 
BRANCH   9  10
ATOM     10  C   UNL     1       5.069 -34.275  18.495  1.00  0.00    -0.003 C 
ATOM     11  C   UNL     1       4.249 -35.357  17.799  1.00  0.00     0.004 C 
ENDBRANCH   9  10
ENDBRANCH   8   9
ENDBRANCH   7   8
ENDBRANCH   1   7
TORSDOF 7
ENDMDL
MODEL 6
REMARK VINA RESULT:    -3.062      1.526      3.714
REMARK INTER + INTRA:          -4.723
REMARK INTER:                  -4.324
REMARK INTRA:                  -0.400
REMARK UNBOUND:                -0.408
REMARK SMILES CCCCCCCCC(=O)[O-]
REMARK SMILES IDX 6 1 7 2 8 3 9 4 10 5 11 6 5 7 4 8 3 9 2 10 1 11
REMARK H PARENT
REMARK Flexibility Score: inf
ROOT
ATOM      1  C   UNL     1       5.413 -35.563  23.502  1.00  0.00     0.000 C 
ENDROOT
BRANCH   1   2
ATOM      2  C   UNL     1       5.757 -36.814  22.680  1.00  0.00     0.006 C 
BRANCH   2   3
ATOM      3  C   UNL     1       4.598 -37.253  21.777  1.00  0.00     0.053 C 
BRANCH   3   4
ATOM      4  C   UNL     1       5.057 -38.183  20.696  1.00  0.00     0.041 C 
ATOM      5  O   UNL     1       4.843 -37.902  19.487  1.00  0.00    -0.550 OA
ATOM      6  O   UNL     1       5.691 -39.375  21.023  1.00  0.00    -0.550 OA
ENDBRANCH   3   4
ENDBRANCH   2   3
ENDBRANCH   1   2
BRANCH   1   7
ATOM      7  C   UNL     1       5.631 -34.288  22.679  1.00  0.00     0.000 C 
BRANCH   7   8
ATOM      8  C   UNL     1       4.292 -33.691  22.221  1.00  0.00    -0.000 C 
BRANCH   8   9
ATOM      9  C   UNL     1       3.988 -34.005  20.741  1.00  0.00    -0.000 C 
BRANCH   9  10
ATOM     10  C   UNL     1       5.222 -34.455  19.941  1.00  0.00    -0.003 C 
ATOM     11  C   UNL     1       4.982 -34.481  18.434  1.00  0.00     0.004 C 
ENDBRANCH   9  10
ENDBRANCH   8   9
ENDBRANCH   7   8
ENDBRANCH   1   7
TORSDOF 7
ENDMDL
MODEL 7
REMARK VINA RESULT:    -2.903      2.366      4.651
REMARK INTER + INTRA:          -4.499
REMARK INTER:                  -3.974
REMARK INTRA:                  -0.525
REMARK UNBOUND:                -0.408
REMARK SMILES CCCCCCCCC(=O)[O-]
REMARK SMILES IDX 6 1 7 2 8 3 9 4 10 5 11 6 5 7 4 8 3 9 2 10 1 11
REMARK H PARENT
REMARK Flexibility Score: inf
ROOT
ATOM      1  C   UNL     1       5.351 -36.230  22.911  1.00  0.00     0.000 C 
ENDROOT
BRANCH   1   2
ATOM      2  C   UNL     1       5.885 -34.891  22.381  1.00  0.00     0.006 C 
BRANCH   2   3
ATOM      3  C   UNL     1       4.960 -33.718  22.727  1.00  0.00     0.053 C 
BRANCH   3   4
ATOM      4  C   UNL     1       3.736 -33.702  21.864  1.00  0.00     0.041 C 
ATOM      5  O   UNL     1       3.554 -32.767  21.041  1.00  0.00    -0.550 OA
ATOM      6  O   UNL     1       2.779 -34.701  21.992  1.00  0.00    -0.550 OA
ENDBRANCH   3   4
ENDBRANCH   2   3
ENDBRANCH   1   2
BRANCH   1   7
ATOM      7  C   UNL     1       5.621 -37.363  21.913  1.00  0.00     0.000 C 
BRANCH   7   8
ATOM      8  C   UNL     1       4.524 -37.425  20.839  1.00  0.00    -0.000 C 
BRANCH   8   9
ATOM      9  C   UNL     1       5.020 -36.924  19.467  1.00  0.00    -0.000 C 
BRANCH   9  10
ATOM     10  C   UNL     1       4.438 -35.559  19.063  1.00  0.00    -0.003 C 
ATOM     11  C   UNL     1       5.510 -34.534  18.701  1.00  0.00     0.004 C 
ENDBRANCH   9  10
ENDBRANCH   8   9
ENDBRANCH   7   8
ENDBRANCH   1   7
TORSDOF 7
ENDMDL
MODEL 8
REMARK VINA RESULT:    -2.861      2.015      3.340
REMARK INTER + INTRA:          -4.440
REMARK INTER:                  -3.761
REMARK INTRA:                  -0.679
REMARK UNBOUND:                -0.408
REMARK SMILES CCCCCCCCC(=O)[O-]
REMARK SMILES IDX 6 1 7 2 8 3 9 4 10 5 11 6 5 7 4 8 3 9 2 10 1 11
REMARK H PARENT
REMARK Flexibility Score: inf
ROOT
ATOM      1  C   UNL     1       4.690 -37.242  21.440  1.00  0.00     0.000 C 
ENDROOT
BRANCH   1   2
ATOM      2  C   UNL     1       4.988 -37.110  19.939  1.00  0.00     0.006 C 
BRANCH   2   3
ATOM      3  C   UNL     1       5.765 -35.830  19.611  1.00  0.00     0.053 C 
BRANCH   3   4
ATOM      4  C   UNL     1       5.055 -34.993  18.592  1.00  0.00     0.041 C 
ATOM      5  O   UNL     1       5.428 -33.811  18.371  1.00  0.00    -0.550 OA
ATOM      6  O   UNL     1       3.959 -35.507  17.910  1.00  0.00    -0.550 OA
ENDBRANCH   3   4
ENDBRANCH   2   3
ENDBRANCH   1   2
BRANCH   1   7
ATOM      7  C   UNL     1       5.717 -36.468  22.274  1.00  0.00     0.000 C 
BRANCH   7   8
ATOM      8  C   UNL     1       5.031 -35.678  23.400  1.00  0.00    -0.000 C 
BRANCH   8   9
ATOM      9  C   UNL     1       5.310 -34.163  23.305  1.00  0.00    -0.000 C 
BRANCH   9  10
ATOM     10  C   UNL     1       4.713 -33.505  22.050  1.00  0.00    -0.003 C 
ATOM     11  C   UNL     1       3.280 -33.949  21.766  1.00  0.00     0.004 C 
ENDBRANCH   9  10
ENDBRANCH   8   9
ENDBRANCH   7   8
ENDBRANCH   1   7
TORSDOF 7
ENDMDL
MODEL 9
REMARK VINA RESULT:    -2.842      2.527      4.136
REMARK INTER + INTRA:          -4.413
REMARK INTER:                  -4.064
REMARK INTRA:                  -0.349
REMARK UNBOUND:                -0.408
REMARK SMILES CCCCCCCCC(=O)[O-]
REMARK SMILES IDX 6 1 7 2 8 3 9 4 10 5 11 6 5 7 4 8 3 9 2 10 1 11
REMARK H PARENT
REMARK Flexibility Score: inf
ROOT
ATOM      1  C   UNL     1       4.358 -35.372  19.570  1.00  0.00     0.000 C 
ENDROOT
BRANCH   1   2
ATOM      2  C   UNL     1       4.599 -34.122  20.430  1.00  0.00     0.006 C 
BRANCH   2   3
ATOM      3  C   UNL     1       3.939 -34.229  21.810  1.00  0.00     0.053 C 
BRANCH   3   4
ATOM      4  C   UNL     1       4.953 -34.390  22.900  1.00  0.00     0.041 C 
ATOM      5  O   UNL     1       5.625 -33.400  23.291  1.00  0.00    -0.550 OA
ATOM      6  O   UNL     1       5.179 -35.640  23.463  1.00  0.00    -0.550 OA
ENDBRANCH   3   4
ENDBRANCH   2   3
ENDBRANCH   1   2
BRANCH   1   7
ATOM      7  C   UNL     1       5.401 -36.455  19.870  1.00  0.00     0.000 C 
BRANCH   7   8
ATOM      8  C   UNL     1       4.752 -37.678  20.536  1.00  0.00    -0.000 C 
BRANCH   8   9
ATOM      9  C   UNL     1       5.375 -39.005  20.053  1.00  0.00    -0.000 C 
BRANCH   9  10
ATOM     10  C   UNL     1       6.046 -39.814  21.176  1.00  0.00    -0.003 C 
ATOM     11  C   UNL     1       5.103 -40.125  22.335  1.00  0.00     0.004 C 
ENDBRANCH   9  10
ENDBRANCH   8   9
ENDBRANCH   7   8
ENDBRANCH   1   7
TORSDOF 7
ENDMDL
