MODEL 1
REMARK VINA RESULT:    -3.392      0.000      0.000
REMARK INTER + INTRA:          -6.184
REMARK INTER:                  -5.375
REMARK INTRA:                  -0.808
REMARK UNBOUND:                -0.808
REMARK SMILES CCCCCCCCCCCC(=O)[O-]
REMARK SMILES IDX 7 1 8 2 9 3 10 4 11 5 12 6 13 7 14 8 6 9 5 10 4 11 3 12 2 13
REMARK SMILES IDX 1 14
REMARK H PARENT
REMARK Flexibility Score: inf
ROOT
ATOM      1  C   UNL     1     -99.167 -39.990  93.284  1.00  0.00     0.000 C 
ENDROOT
BRANCH   1   2
ATOM      2  C   UNL     1     -98.754 -41.142  92.351  1.00  0.00     0.000 C 
BRANCH   2   3
ATOM      3  C   UNL     1     -97.253 -41.124  92.020  1.00  0.00     0.000 C 
BRANCH   3   4
ATOM      4  C   UNL     1     -96.977 -41.215  90.511  1.00  0.00     0.006 C 
BRANCH   4   5
ATOM      5  C   UNL     1     -97.943 -40.325  89.723  1.00  0.00     0.053 C 
BRANCH   5   6
ATOM      6  C   UNL     1     -97.307 -39.857  88.453  1.00  0.00     0.041 C 
ATOM      7  O   UNL     1     -97.263 -40.615  87.449  1.00  0.00    -0.550 OA
ATOM      8  O   UNL     1     -96.808 -38.563  88.362  1.00  0.00    -0.550 OA
ENDBRANCH   5   6
ENDBRANCH   4   5
ENDBRANCH   3   4
ENDBRANCH   2   3
ENDBRANCH   1   2
BRANCH   1   9
ATOM      9  C   UNL     1    -100.447 -39.274  92.819  1.00  0.00     0.000 C 
BRANCH   9  10
ATOM     10  C   UNL     1    -100.220 -37.997  91.983  1.00  0.00    -0.000 C 
BRANCH  10  11
ATOM     11  C   UNL     1    -101.063 -36.780  92.404  1.00  0.00    -0.000 C 
BRANCH  11  12
ATOM     12  C   UNL     1    -100.424 -35.981  93.550  1.00  0.00    -0.000 C 
BRANCH  12  13
ATOM     13  C   UNL     1    -101.163 -36.230  94.870  1.00  0.00    -0.003 C 
ATOM     14  C   UNL     1    -100.276 -36.970  95.868  1.00  0.00     0.004 C 
ENDBRANCH  12  13
ENDBRANCH  11  12
ENDBRANCH  10  11
ENDBRANCH   9  10
ENDBRANCH   1   9
TORSDOF 10
ENDMDL
MODEL 2
REMARK VINA RESULT:    -3.301     13.717     15.822
REMARK INTER + INTRA:          -6.039
REMARK INTER:                  -4.467
REMARK INTRA:                  -1.572
REMARK UNBOUND:                -0.808
REMARK SMILES CCCCCCCCCCCC(=O)[O-]
REMARK SMILES IDX 7 1 8 2 9 3 10 4 11 5 12 6 13 7 14 8 6 9 5 10 4 11 3 12 2 13
REMARK SMILES IDX 1 14
REMARK H PARENT
REMARK Flexibility Score: inf
ROOT
ATOM      1  C   UNL     1     -95.724 -26.907  80.383  1.00  0.00     0.000 C 
ENDROOT
BRANCH   1   2
ATOM      2  C   UNL     1     -96.772 -25.965  81.002  1.00  0.00     0.000 C 
BRANCH   2   3
ATOM      3  C   UNL     1     -97.241 -26.434  82.389  1.00  0.00     0.000 C 
BRANCH   3   4
ATOM      4  C   UNL     1     -96.616 -27.774  82.806  1.00  0.00     0.006 C 
BRANCH   4   5
ATOM      5  C   UNL     1     -97.307 -28.337  84.051  1.00  0.00     0.053 C 
BRANCH   5   6
ATOM      6  C   UNL     1     -96.322 -28.519  85.161  1.00  0.00     0.041 C 
ATOM      7  O   UNL     1     -95.885 -27.521  85.791  1.00  0.00    -0.550 OA
ATOM      8  O   UNL     1     -95.923 -29.797  85.534  1.00  0.00    -0.550 OA
ENDBRANCH   5   6
ENDBRANCH   4   5
ENDBRANCH   3   4
ENDBRANCH   2   3
ENDBRANCH   1   2
BRANCH   1   9
ATOM      9  C   UNL     1     -96.217 -27.581  79.091  1.00  0.00     0.000 C 
BRANCH   9  10
ATOM     10  C   UNL     1     -96.493 -29.095  79.203  1.00  0.00    -0.000 C 
BRANCH  10  11
ATOM     11  C   UNL     1     -97.963 -29.474  79.461  1.00  0.00    -0.000 C 
BRANCH  11  12
ATOM     12  C   UNL     1     -98.948 -28.389  79.001  1.00  0.00    -0.000 C 
BRANCH  12  13
ATOM     13  C   UNL     1     -99.858 -27.951  80.155  1.00  0.00    -0.003 C 
ATOM     14  C   UNL     1     -99.827 -28.965  81.296  1.00  0.00     0.004 C 
ENDBRANCH  12  13
ENDBRANCH  11  12
ENDBRANCH  10  11
ENDBRANCH   9  10
ENDBRANCH   1   9
TORSDOF 10
ENDMDL
MODEL 3
REMARK VINA RESULT:    -3.283      3.368      6.856
REMARK INTER + INTRA:          -6.011
REMARK INTER:                  -5.402
REMARK INTRA:                  -0.610
REMARK UNBOUND:                -0.808
REMARK SMILES CCCCCCCCCCCC(=O)[O-]
REMARK SMILES IDX 7 1 8 2 9 3 10 4 11 5 12 6 13 7 14 8 6 9 5 10 4 11 3 12 2 13
REMARK SMILES IDX 1 14
REMARK H PARENT
REMARK Flexibility Score: inf
ROOT
ATOM      1  C   UNL     1     -99.146 -40.861  91.384  1.00  0.00     0.000 C 
ENDROOT
BRANCH   1   2
ATOM      2  C   UNL     1     -99.487 -39.736  92.377  1.00  0.00     0.000 C 
BRANCH   2   3
ATOM      3  C   UNL     1    -100.053 -38.487  91.682  1.00  0.00     0.000 C 
BRANCH   3   4
ATOM      4  C   UNL     1    -101.095 -37.752  92.540  1.00  0.00     0.006 C 
BRANCH   4   5
ATOM      5  C   UNL     1    -100.613 -36.342  92.897  1.00  0.00     0.053 C 
BRANCH   5   6
ATOM      6  C   UNL     1    -101.771 -35.401  92.996  1.00  0.00     0.041 C 
ATOM      7  O   UNL     1    -101.773 -34.488  93.862  1.00  0.00    -0.550 OA
ATOM      8  O   UNL     1    -102.828 -35.502  92.100  1.00  0.00    -0.550 OA
ENDBRANCH   5   6
ENDBRANCH   4   5
ENDBRANCH   3   4
ENDBRANCH   2   3
ENDBRANCH   1   2
BRANCH   1   9
ATOM      9  C   UNL     1     -97.663 -41.270  91.431  1.00  0.00     0.000 C 
BRANCH   9  10
ATOM     10  C   UNL     1     -96.853 -40.954  90.157  1.00  0.00    -0.000 C 
BRANCH  10  11
ATOM     11  C   UNL     1     -97.572 -40.062  89.128  1.00  0.00    -0.000 C 
BRANCH  11  12
ATOM     12  C   UNL     1     -97.162 -40.372  87.681  1.00  0.00    -0.000 C 
BRANCH  12  13
ATOM     13  C   UNL     1     -97.048 -41.884  87.455  1.00  0.00    -0.003 C 
ATOM     14  C   UNL     1     -98.387 -42.480  87.029  1.00  0.00     0.004 C 
ENDBRANCH  12  13
ENDBRANCH  11  12
ENDBRANCH  10  11
ENDBRANCH   9  10
ENDBRANCH   1   9
TORSDOF 10
ENDMDL
MODEL 4
REMARK VINA RESULT:    -3.254      2.885      6.419
REMARK INTER + INTRA:          -5.965
REMARK INTER:                  -4.957
REMARK INTRA:                  -1.008
REMARK UNBOUND:                -0.808
REMARK SMILES CCCCCCCCCCCC(=O)[O-]
REMARK SMILES IDX 7 1 8 2 9 3 10 4 11 5 12 6 13 7 14 8 6 9 5 10 4 11 3 12 2 13
REMARK SMILES IDX 1 14
REMARK H PARENT
REMARK Flexibility Score: inf
ROOT
ATOM      1  C   UNL     1     -96.538 -41.275  91.546  1.00  0.00     0.000 C 
ENDROOT
BRANCH   1   2
ATOM      2  C   UNL     1     -97.861 -41.070  92.303  1.00  0.00     0.000 C 
BRANCH   2   3
ATOM      3  C   UNL     1     -99.053 -40.838  91.360  1.00  0.00     0.000 C 
BRANCH   3   4
ATOM      4  C   UNL     1     -99.630 -39.418  91.471  1.00  0.00     0.006 C 
BRANCH   4   5
ATOM      5  C   UNL     1     -99.979 -39.082  92.924  1.00  0.00     0.053 C 
BRANCH   5   6
ATOM      6  C   UNL     1    -100.800 -37.834  92.991  1.00  0.00     0.041 C 
ATOM      7  O   UNL     1    -100.377 -36.768  92.473  1.00  0.00    -0.550 OA
ATOM      8  O   UNL     1    -102.057 -37.860  93.584  1.00  0.00    -0.550 OA
ENDBRANCH   5   6
ENDBRANCH   4   5
ENDBRANCH   3   4
ENDBRANCH   2   3
ENDBRANCH   1   2
BRANCH   1   9
ATOM      9  C   UNL     1     -96.124 -42.755  91.458  1.00  0.00     0.000 C 
BRANCH   9  10
ATOM     10  C   UNL     1     -96.270 -43.398  90.063  1.00  0.00    -0.000 C 
BRANCH  10  11
ATOM     11  C   UNL     1     -96.049 -42.442  88.876  1.00  0.00    -0.000 C 
BRANCH  11  12
ATOM     12  C   UNL     1     -97.346 -42.127  88.116  1.00  0.00    -0.000 C 
BRANCH  12  13
ATOM     13  C   UNL     1     -97.243 -40.778  87.394  1.00  0.00    -0.003 C 
ATOM     14  C   UNL     1     -97.245 -39.619  88.388  1.00  0.00     0.004 C 
ENDBRANCH  12  13
ENDBRANCH  11  12
ENDBRANCH  10  11
ENDBRANCH   9  10
ENDBRANCH   1   9
TORSDOF 10
ENDMDL
MODEL 5
REMARK VINA RESULT:    -3.240      2.825      6.002
REMARK INTER + INTRA:          -5.942
REMARK INTER:                  -5.057
REMARK INTRA:                  -0.885
REMARK UNBOUND:                -0.808
REMARK SMILES CCCCCCCCCCCC(=O)[O-]
REMARK SMILES IDX 7 1 8 2 9 3 10 4 11 5 12 6 13 7 14 8 6 9 5 10 4 11 3 12 2 13
REMARK SMILES IDX 1 14
REMARK H PARENT
REMARK Flexibility Score: inf
ROOT
ATOM      1  C   UNL     1     -97.857 -40.712  93.558  1.00  0.00     0.000 C 
ENDROOT
BRANCH   1   2
ATOM      2  C   UNL     1     -99.261 -40.139  93.818  1.00  0.00     0.000 C 
BRANCH   2   3
ATOM      3  C   UNL     1    -100.088 -39.996  92.530  1.00  0.00     0.000 C 
BRANCH   3   4
ATOM      4  C   UNL     1     -99.978 -38.596  91.907  1.00  0.00     0.006 C 
BRANCH   4   5
ATOM      5  C   UNL     1    -100.606 -37.539  92.821  1.00  0.00     0.053 C 
BRANCH   5   6
ATOM      6  C   UNL     1    -101.694 -36.805  92.103  1.00  0.00     0.041 C 
ATOM      7  O   UNL     1    -102.005 -35.636  92.450  1.00  0.00    -0.550 OA
ATOM      8  O   UNL     1    -102.331 -37.393  91.018  1.00  0.00    -0.550 OA
ENDBRANCH   5   6
ENDBRANCH   4   5
ENDBRANCH   3   4
ENDBRANCH   2   3
ENDBRANCH   1   2
BRANCH   1   9
ATOM      9  C   UNL     1     -97.847 -41.798  92.468  1.00  0.00     0.000 C 
BRANCH   9  10
ATOM     10  C   UNL     1     -96.960 -41.492  91.243  1.00  0.00    -0.000 C 
BRANCH  10  11
ATOM     11  C   UNL     1     -97.695 -41.473  89.890  1.00  0.00    -0.000 C 
BRANCH  11  12
ATOM     12  C   UNL     1     -97.928 -40.051  89.358  1.00  0.00    -0.000 C 
BRANCH  12  13
ATOM     13  C   UNL     1     -97.173 -39.828  88.043  1.00  0.00    -0.003 C 
ATOM     14  C   UNL     1     -96.825 -41.156  87.375  1.00  0.00     0.004 C 
ENDBRANCH  12  13
ENDBRANCH  11  12
ENDBRANCH  10  11
ENDBRANCH   9  10
ENDBRANCH   1   9
TORSDOF 10
ENDMDL
MODEL 6
REMARK VINA RESULT:    -3.225      1.404      2.830
REMARK INTER + INTRA:          -5.918
REMARK INTER:                  -5.335
REMARK INTRA:                  -0.584
REMARK UNBOUND:                -0.808
REMARK SMILES CCCCCCCCCCCC(=O)[O-]
REMARK SMILES IDX 7 1 8 2 9 3 10 4 11 5 12 6 13 7 14 8 6 9 5 10 4 11 3 12 2 13
REMARK SMILES IDX 1 14
REMARK H PARENT
REMARK Flexibility Score: inf
ROOT
ATOM      1  C   UNL     1     -96.521 -41.732  91.594  1.00  0.00     0.000 C 
ENDROOT
BRANCH   1   2
ATOM      2  C   UNL     1     -96.207 -42.877  90.616  1.00  0.00     0.000 C 
BRANCH   2   3
ATOM      3  C   UNL     1     -95.838 -42.369  89.212  1.00  0.00     0.000 C 
BRANCH   3   4
ATOM      4  C   UNL     1     -97.061 -42.219  88.295  1.00  0.00     0.006 C 
BRANCH   4   5
ATOM      5  C   UNL     1     -97.007 -40.898  87.523  1.00  0.00     0.053 C 
BRANCH   5   6
ATOM      6  C   UNL     1     -97.378 -39.754  88.412  1.00  0.00     0.041 C 
ATOM      7  O   UNL     1     -98.301 -39.883  89.258  1.00  0.00    -0.550 OA
ATOM      8  O   UNL     1     -96.671 -38.560  88.342  1.00  0.00    -0.550 OA
ENDBRANCH   5   6
ENDBRANCH   4   5
ENDBRANCH   3   4
ENDBRANCH   2   3
ENDBRANCH   1   2
BRANCH   1   9
ATOM      9  C   UNL     1     -97.968 -41.774  92.117  1.00  0.00     0.000 C 
BRANCH   9  10
ATOM     10  C   UNL     1     -98.364 -40.612  93.052  1.00  0.00    -0.000 C 
BRANCH  10  11
ATOM     11  C   UNL     1     -99.441 -39.663  92.496  1.00  0.00    -0.000 C 
BRANCH  11  12
ATOM     12  C   UNL     1    -100.185 -38.894  93.598  1.00  0.00    -0.000 C 
BRANCH  12  13
ATOM     13  C   UNL     1    -101.173 -37.890  92.993  1.00  0.00    -0.003 C 
ATOM     14  C   UNL     1    -100.618 -36.469  93.048  1.00  0.00     0.004 C 
ENDBRANCH  12  13
ENDBRANCH  11  12
ENDBRANCH  10  11
ENDBRANCH   9  10
ENDBRANCH   1   9
TORSDOF 10
ENDMDL
MODEL 7
REMARK VINA RESULT:    -3.209      1.646      2.438
REMARK INTER + INTRA:          -5.893
REMARK INTER:                  -4.971
REMARK INTRA:                  -0.922
REMARK UNBOUND:                -0.808
REMARK SMILES CCCCCCCCCCCC(=O)[O-]
REMARK SMILES IDX 7 1 8 2 9 3 10 4 11 5 12 6 13 7 14 8 6 9 5 10 4 11 3 12 2 13
REMARK SMILES IDX 1 14
REMARK H PARENT
REMARK Flexibility Score: inf
ROOT
ATOM      1  C   UNL     1     -97.213 -40.920  93.848  1.00  0.00     0.000 C 
ENDROOT
BRANCH   1   2
ATOM      2  C   UNL     1     -96.139 -41.187  92.779  1.00  0.00     0.000 C 
BRANCH   2   3
ATOM      3  C   UNL     1     -96.710 -41.867  91.525  1.00  0.00     0.000 C 
BRANCH   3   4
ATOM      4  C   UNL     1     -96.504 -41.032  90.251  1.00  0.00     0.006 C 
BRANCH   4   5
ATOM      5  C   UNL     1     -97.639 -41.271  89.251  1.00  0.00     0.053 C 
BRANCH   5   6
ATOM      6  C   UNL     1     -97.122 -41.950  88.023  1.00  0.00     0.041 C 
ATOM      7  O   UNL     1     -95.914 -42.294  87.950  1.00  0.00    -0.550 OA
ATOM      8  O   UNL     1     -97.988 -42.248  86.977  1.00  0.00    -0.550 OA
ENDBRANCH   5   6
ENDBRANCH   4   5
ENDBRANCH   3   4
ENDBRANCH   2   3
ENDBRANCH   1   2
BRANCH   1   9
ATOM      9  C   UNL     1     -98.638 -41.218  93.350  1.00  0.00     0.000 C 
BRANCH   9  10
ATOM     10  C   UNL     1     -99.556 -39.986  93.207  1.00  0.00    -0.000 C 
BRANCH  10  11
ATOM     11  C   UNL     1     -99.542 -39.318  91.820  1.00  0.00    -0.000 C 
BRANCH  11  12
ATOM     12  C   UNL     1    -100.437 -38.071  91.750  1.00  0.00    -0.000 C 
BRANCH  12  13
ATOM     13  C   UNL     1    -100.811 -37.587  93.155  1.00  0.00    -0.003 C 
ATOM     14  C   UNL     1    -100.538 -36.093  93.314  1.00  0.00     0.004 C 
ENDBRANCH  12  13
ENDBRANCH  11  12
ENDBRANCH  10  11
ENDBRANCH   9  10
ENDBRANCH   1   9
TORSDOF 10
ENDMDL
MODEL 8
REMARK VINA RESULT:    -3.182     13.782     15.770
REMARK INTER + INTRA:          -5.850
REMARK INTER:                  -4.197
REMARK INTRA:                  -1.653
REMARK UNBOUND:                -0.808
REMARK SMILES CCCCCCCCCCCC(=O)[O-]
REMARK SMILES IDX 7 1 8 2 9 3 10 4 11 5 12 6 13 7 14 8 6 9 5 10 4 11 3 12 2 13
REMARK SMILES IDX 1 14
REMARK H PARENT
REMARK Flexibility Score: inf
ROOT
ATOM      1  C   UNL     1     -99.733 -27.627  81.593  1.00  0.00     0.000 C 
ENDROOT
BRANCH   1   2
ATOM      2  C   UNL     1     -99.333 -26.257  82.167  1.00  0.00     0.000 C 
BRANCH   2   3
ATOM      3  C   UNL     1     -98.318 -26.372  83.317  1.00  0.00     0.000 C 
BRANCH   3   4
ATOM      4  C   UNL     1     -98.175 -27.810  83.839  1.00  0.00     0.006 C 
BRANCH   4   5
ATOM      5  C   UNL     1     -96.732 -28.303  83.693  1.00  0.00     0.053 C 
BRANCH   5   6
ATOM      6  C   UNL     1     -96.116 -28.528  85.037  1.00  0.00     0.041 C 
ATOM      7  O   UNL     1     -95.976 -27.568  85.839  1.00  0.00    -0.550 OA
ATOM      8  O   UNL     1     -95.740 -29.809  85.424  1.00  0.00    -0.550 OA
ENDBRANCH   5   6
ENDBRANCH   4   5
ENDBRANCH   3   4
ENDBRANCH   2   3
ENDBRANCH   1   2
BRANCH   1   9
ATOM      9  C   UNL     1     -99.168 -27.871  80.182  1.00  0.00     0.000 C 
BRANCH   9  10
ATOM     10  C   UNL     1     -98.172 -29.043  80.066  1.00  0.00    -0.000 C 
BRANCH  10  11
ATOM     11  C   UNL     1     -96.693 -28.634  79.939  1.00  0.00    -0.000 C 
BRANCH  11  12
ATOM     12  C   UNL     1     -96.512 -27.144  79.614  1.00  0.00    -0.000 C 
BRANCH  12  13
ATOM     13  C   UNL     1     -95.575 -26.472  80.625  1.00  0.00    -0.003 C 
ATOM     14  C   UNL     1     -95.983 -25.023  80.876  1.00  0.00     0.004 C 
ENDBRANCH  12  13
ENDBRANCH  11  12
ENDBRANCH  10  11
ENDBRANCH   9  10
ENDBRANCH   1   9
TORSDOF 10
ENDMDL
MODEL 9
REMARK VINA RESULT:    -3.163     14.640     16.424
REMARK INTER + INTRA:          -5.820
REMARK INTER:                  -4.678
REMARK INTRA:                  -1.142
REMARK UNBOUND:                -0.808
REMARK SMILES CCCCCCCCCCCC(=O)[O-]
REMARK SMILES IDX 7 1 8 2 9 3 10 4 11 5 12 6 13 7 14 8 6 9 5 10 4 11 3 12 2 13
REMARK SMILES IDX 1 14
REMARK H PARENT
REMARK Flexibility Score: inf
ROOT
ATOM      1  C   UNL     1     -94.450 -25.453  80.040  1.00  0.00     0.000 C 
ENDROOT
BRANCH   1   2
ATOM      2  C   UNL     1     -95.369 -25.569  78.812  1.00  0.00     0.000 C 
BRANCH   2   3
ATOM      3  C   UNL     1     -95.326 -26.966  78.171  1.00  0.00     0.000 C 
BRANCH   3   4
ATOM      4  C   UNL     1     -96.654 -27.726  78.312  1.00  0.00     0.006 C 
BRANCH   4   5
ATOM      5  C   UNL     1     -96.449 -29.054  79.047  1.00  0.00     0.053 C 
BRANCH   5   6
ATOM      6  C   UNL     1     -97.610 -29.967  78.814  1.00  0.00     0.041 C 
ATOM      7  O   UNL     1     -98.344 -30.317  79.774  1.00  0.00    -0.550 OA
ATOM      8  O   UNL     1     -97.913 -30.392  77.526  1.00  0.00    -0.550 OA
ENDBRANCH   5   6
ENDBRANCH   4   5
ENDBRANCH   3   4
ENDBRANCH   2   3
ENDBRANCH   1   2
BRANCH   1   9
ATOM      9  C   UNL     1     -95.030 -26.145  81.287  1.00  0.00     0.000 C 
BRANCH   9  10
ATOM     10  C   UNL     1     -96.481 -25.757  81.640  1.00  0.00    -0.000 C 
BRANCH  10  11
ATOM     11  C   UNL     1     -97.425 -26.941  81.918  1.00  0.00    -0.000 C 
BRANCH  11  12
ATOM     12  C   UNL     1     -96.725 -28.107  82.631  1.00  0.00    -0.000 C 
BRANCH  12  13
ATOM     13  C   UNL     1     -97.229 -28.249  84.072  1.00  0.00    -0.003 C 
ATOM     14  C   UNL     1     -96.150 -28.837  84.978  1.00  0.00     0.004 C 
ENDBRANCH  12  13
ENDBRANCH  11  12
ENDBRANCH  10  11
ENDBRANCH   9  10
ENDBRANCH   1   9
TORSDOF 10
ENDMDL
