MODEL 1
REMARK VINA RESULT:    -2.774      0.000      0.000
REMARK INTER + INTRA:          -3.723
REMARK INTER:                  -3.342
REMARK INTRA:                  -0.381
REMARK UNBOUND:                -0.381
REMARK SMILES O=c1c(O)c(-c2ccc(O)cc2O)oc2cc(O)cc(O)c12
REMARK SMILES IDX 5 1 3 2 2 3 1 4 22 5 20 6 19 7 17 8 16 9 15 10 14 11 6 12
REMARK SMILES IDX 8 13 7 14 9 15 11 16 12 17 10 18 13 20 4 22 21 24 18 26
REMARK H PARENT 10 19 13 21 4 23 21 25 18 27
REMARK Flexibility Score: inf
ROOT
ATOM      1  C   UNL     1      23.497   0.916 -27.008  1.00  0.00     0.184 A 
ATOM      2  C   UNL     1      23.886   0.756 -25.669  1.00  0.00     0.208 A 
ATOM      3  C   UNL     1      23.838  -0.525 -25.096  1.00  0.00     0.238 A 
ATOM      4  O   UNL     1      24.118  -0.650 -23.875  1.00  0.00    -0.285 OA
ATOM      5  C   UNL     1      23.456  -1.637 -25.885  1.00  0.00     0.111 A 
ATOM      6  C   UNL     1      23.414  -2.986 -25.421  1.00  0.00     0.134 A 
ATOM      7  C   UNL     1      22.918  -3.990 -26.262  1.00  0.00     0.093 A 
ATOM      8  C   UNL     1      22.522  -3.705 -27.570  1.00  0.00     0.123 A 
ATOM      9  C   UNL     1      22.610  -2.401 -28.050  1.00  0.00     0.094 A 
ATOM     10  C   UNL     1      23.065  -1.370 -27.224  1.00  0.00     0.146 A 
ATOM     11  O   UNL     1      23.112  -0.138 -27.716  1.00  0.00    -0.451 OA
ENDROOT
BRANCH   1  12
ATOM     12  C   UNL     1      23.516   2.237 -27.670  1.00  0.00     0.063 A 
ATOM     13  C   UNL     1      24.804   4.118 -28.514  1.00  0.00     0.047 A 
ATOM     14  C   UNL     1      24.749   2.871 -27.887  1.00  0.00     0.020 A 
ATOM     15  C   UNL     1      23.629   4.739 -28.946  1.00  0.00     0.119 A 
ATOM     16  C   UNL     1      22.395   4.104 -28.756  1.00  0.00     0.093 A 
ATOM     17  C   UNL     1      22.332   2.849 -28.131  1.00  0.00     0.130 A 
BRANCH  15  18
ATOM     18  O   UNL     1      23.699   5.985 -29.567  1.00  0.00    -0.508 OA
ATOM     19  H   UNL     1      24.547   6.304 -30.020  1.00  0.00     0.293 HD
ENDBRANCH  15  18
BRANCH  17  20
ATOM     20  O   UNL     1      21.103   2.204 -27.991  1.00  0.00    -0.507 OA
ATOM     21  H   UNL     1      20.654   1.742 -28.772  1.00  0.00     0.293 HD
ENDBRANCH  17  20
ENDBRANCH   1  12
BRANCH   2  22
ATOM     22  O   UNL     1      24.328   1.858 -24.933  1.00  0.00    -0.502 OA
ATOM     23  H   UNL     1      24.051   2.014 -23.971  1.00  0.00     0.293 HD
ENDBRANCH   2  22
BRANCH   6  24
ATOM     24  O   UNL     1      23.868  -3.397 -24.164  1.00  0.00    -0.507 OA
ATOM     25  H   UNL     1      24.756  -3.839 -23.987  1.00  0.00     0.293 HD
ENDBRANCH   6  24
BRANCH   8  26
ATOM     26  O   UNL     1      22.046  -4.714 -28.405  1.00  0.00    -0.508 OA
ATOM     27  H   UNL     1      21.055  -4.907 -28.491  1.00  0.00     0.293 HD
ENDBRANCH   8  26
TORSDOF 6
ENDMDL
MODEL 2
REMARK VINA RESULT:    -2.682      1.468      7.290
REMARK INTER + INTRA:          -3.612
REMARK INTER:                  -3.261
REMARK INTRA:                  -0.350
REMARK UNBOUND:                -0.381
REMARK SMILES O=c1c(O)c(-c2ccc(O)cc2O)oc2cc(O)cc(O)c12
REMARK SMILES IDX 5 1 3 2 2 3 1 4 22 5 20 6 19 7 17 8 16 9 15 10 14 11 6 12
REMARK SMILES IDX 8 13 7 14 9 15 11 16 12 17 10 18 13 20 4 22 21 24 18 26
REMARK H PARENT 10 19 13 21 4 23 21 25 18 27
REMARK Flexibility Score: inf
ROOT
ATOM      1  C   UNL     1      23.474   2.025 -27.495  1.00  0.00     0.184 A 
ATOM      2  C   UNL     1      22.321   2.589 -28.062  1.00  0.00     0.208 A 
ATOM      3  C   UNL     1      22.392   3.882 -28.603  1.00  0.00     0.238 A 
ATOM      4  O   UNL     1      21.337   4.410 -29.043  1.00  0.00    -0.285 OA
ATOM      5  C   UNL     1      23.628   4.572 -28.621  1.00  0.00     0.111 A 
ATOM      6  C   UNL     1      23.826   5.869 -29.184  1.00  0.00     0.134 A 
ATOM      7  C   UNL     1      25.071   6.497 -29.049  1.00  0.00     0.093 A 
ATOM      8  C   UNL     1      26.142   5.850 -28.428  1.00  0.00     0.123 A 
ATOM      9  C   UNL     1      25.974   4.563 -27.924  1.00  0.00     0.094 A 
ATOM     10  C   UNL     1      24.734   3.925 -28.009  1.00  0.00     0.146 A 
ATOM     11  O   UNL     1      24.613   2.707 -27.496  1.00  0.00    -0.451 OA
ENDROOT
BRANCH   1  12
ATOM     12  C   UNL     1      23.466   0.672 -26.901  1.00  0.00     0.063 A 
ATOM     13  C   UNL     1      23.177  -1.724 -27.196  1.00  0.00     0.047 A 
ATOM     14  C   UNL     1      23.187  -0.430 -27.724  1.00  0.00     0.020 A 
ATOM     15  C   UNL     1      23.460  -1.933 -25.844  1.00  0.00     0.119 A 
ATOM     16  C   UNL     1      23.762  -0.842 -25.019  1.00  0.00     0.093 A 
ATOM     17  C   UNL     1      23.781   0.460 -25.542  1.00  0.00     0.130 A 
BRANCH  15  18
ATOM     18  O   UNL     1      23.442  -3.229 -25.331  1.00  0.00    -0.508 OA
ATOM     19  H   UNL     1      23.095  -4.009 -25.876  1.00  0.00     0.293 HD
ENDBRANCH  15  18
BRANCH  17  20
ATOM     20  O   UNL     1      24.132   1.533 -24.723  1.00  0.00    -0.507 OA
ATOM     21  H   UNL     1      24.291   2.459 -25.100  1.00  0.00     0.293 HD
ENDBRANCH  17  20
ENDBRANCH   1  12
BRANCH   2  22
ATOM     22  O   UNL     1      21.130   1.858 -28.096  1.00  0.00    -0.502 OA
ATOM     23  H   UNL     1      21.115   0.845 -28.104  1.00  0.00     0.293 HD
ENDBRANCH   2  22
BRANCH   6  24
ATOM     24  O   UNL     1      22.852   6.569 -29.903  1.00  0.00    -0.507 OA
ATOM     25  H   UNL     1      22.790   6.604 -30.908  1.00  0.00     0.293 HD
ENDBRANCH   6  24
BRANCH   8  26
ATOM     26  O   UNL     1      27.381   6.477 -28.314  1.00  0.00    -0.508 OA
ATOM     27  H   UNL     1      27.993   6.302 -27.527  1.00  0.00     0.293 HD
ENDBRANCH   8  26
TORSDOF 6
ENDMDL
MODEL 3
REMARK VINA RESULT:    -2.600      2.813      6.984
REMARK INTER + INTRA:          -3.514
REMARK INTER:                  -3.098
REMARK INTRA:                  -0.416
REMARK UNBOUND:                -0.381
REMARK SMILES O=c1c(O)c(-c2ccc(O)cc2O)oc2cc(O)cc(O)c12
REMARK SMILES IDX 5 1 3 2 2 3 1 4 22 5 20 6 19 7 17 8 16 9 15 10 14 11 6 12
REMARK SMILES IDX 8 13 7 14 9 15 11 16 12 17 10 18 13 20 4 22 21 24 18 26
REMARK H PARENT 10 19 13 21 4 23 21 25 18 27
REMARK Flexibility Score: inf
ROOT
ATOM      1  C   UNL     1      24.380   1.884 -27.021  1.00  0.00     0.184 A 
ATOM      2  C   UNL     1      23.148   1.448 -27.529  1.00  0.00     0.208 A 
ATOM      3  C   UNL     1      22.362   2.345 -28.271  1.00  0.00     0.238 A 
ATOM      4  O   UNL     1      21.226   1.970 -28.661  1.00  0.00    -0.285 OA
ATOM      5  C   UNL     1      22.846   3.648 -28.542  1.00  0.00     0.111 A 
ATOM      6  C   UNL     1      22.155   4.625 -29.319  1.00  0.00     0.134 A 
ATOM      7  C   UNL     1      22.683   5.918 -29.431  1.00  0.00     0.093 A 
ATOM      8  C   UNL     1      23.907   6.250 -28.847  1.00  0.00     0.123 A 
ATOM      9  C   UNL     1      24.615   5.288 -28.132  1.00  0.00     0.094 A 
ATOM     10  C   UNL     1      24.097   4.000 -27.970  1.00  0.00     0.146 A 
ATOM     11  O   UNL     1      24.795   3.121 -27.262  1.00  0.00    -0.451 OA
ENDROOT
BRANCH   1  12
ATOM     12  C   UNL     1      25.252   0.994 -26.226  1.00  0.00     0.063 A 
ATOM     13  C   UNL     1      27.110  -0.572 -26.157  1.00  0.00     0.047 A 
ATOM     14  C   UNL     1      26.265   0.274 -26.879  1.00  0.00     0.020 A 
ATOM     15  C   UNL     1      26.963  -0.699 -24.773  1.00  0.00     0.119 A 
ATOM     16  C   UNL     1      25.971   0.034 -24.109  1.00  0.00     0.093 A 
ATOM     17  C   UNL     1      25.122   0.890 -24.825  1.00  0.00     0.130 A 
BRANCH  15  18
ATOM     18  O   UNL     1      27.811  -1.549 -24.067  1.00  0.00    -0.508 OA
ATOM     19  H   UNL     1      28.775  -1.300 -23.879  1.00  0.00     0.293 HD
ENDBRANCH  15  18
BRANCH  17  20
ATOM     20  O   UNL     1      24.169   1.652 -24.147  1.00  0.00    -0.507 OA
ATOM     21  H   UNL     1      23.178   1.536 -24.317  1.00  0.00     0.293 HD
ENDBRANCH  17  20
ENDBRANCH   1  12
BRANCH   2  22
ATOM     22  O   UNL     1      22.726   0.134 -27.309  1.00  0.00    -0.502 OA
ATOM     23  H   UNL     1      23.378  -0.632 -27.184  1.00  0.00     0.293 HD
ENDBRANCH   2  22
BRANCH   6  24
ATOM     24  O   UNL     1      20.970   4.376 -30.019  1.00  0.00    -0.507 OA
ATOM     25  H   UNL     1      20.187   3.851 -29.661  1.00  0.00     0.293 HD
ENDBRANCH   6  24
BRANCH   8  26
ATOM     26  O   UNL     1      24.432   7.534 -28.979  1.00  0.00    -0.508 OA
ATOM     27  H   UNL     1      23.834   8.349 -29.023  1.00  0.00     0.293 HD
ENDBRANCH   8  26
TORSDOF 6
ENDMDL
MODEL 4
REMARK VINA RESULT:    -2.513      1.562      6.569
REMARK INTER + INTRA:          -3.409
REMARK INTER:                  -2.999
REMARK INTRA:                  -0.409
REMARK UNBOUND:                -0.381
REMARK SMILES O=c1c(O)c(-c2ccc(O)cc2O)oc2cc(O)cc(O)c12
REMARK SMILES IDX 5 1 3 2 2 3 1 4 22 5 20 6 19 7 17 8 16 9 15 10 14 11 6 12
REMARK SMILES IDX 8 13 7 14 9 15 11 16 12 17 10 18 13 20 4 22 21 24 18 26
REMARK H PARENT 10 19 13 21 4 23 21 25 18 27
REMARK Flexibility Score: inf
ROOT
ATOM      1  C   UNL     1      23.896   0.353 -26.525  1.00  0.00     0.184 A 
ATOM      2  C   UNL     1      25.215   0.826 -26.465  1.00  0.00     0.208 A 
ATOM      3  C   UNL     1      25.518   2.071 -27.039  1.00  0.00     0.238 A 
ATOM      4  O   UNL     1      26.716   2.456 -27.047  1.00  0.00    -0.285 OA
ATOM      5  C   UNL     1      24.485   2.852 -27.614  1.00  0.00     0.111 A 
ATOM      6  C   UNL     1      24.668   4.148 -28.185  1.00  0.00     0.134 A 
ATOM      7  C   UNL     1      23.592   4.780 -28.820  1.00  0.00     0.093 A 
ATOM      8  C   UNL     1      22.326   4.193 -28.850  1.00  0.00     0.123 A 
ATOM      9  C   UNL     1      22.124   2.953 -28.249  1.00  0.00     0.094 A 
ATOM     10  C   UNL     1      23.186   2.279 -27.640  1.00  0.00     0.146 A 
ATOM     11  O   UNL     1      22.953   1.090 -27.098  1.00  0.00    -0.451 OA
ENDROOT
BRANCH   1  12
ATOM     12  C   UNL     1      23.512  -0.952 -25.948  1.00  0.00     0.063 A 
ATOM     13  C   UNL     1      23.134  -2.320 -23.974  1.00  0.00     0.047 A 
ATOM     14  C   UNL     1      23.498  -1.101 -24.552  1.00  0.00     0.020 A 
ATOM     15  C   UNL     1      22.767  -3.399 -24.781  1.00  0.00     0.119 A 
ATOM     16  C   UNL     1      22.756  -3.254 -26.174  1.00  0.00     0.093 A 
ATOM     17  C   UNL     1      23.114  -2.032 -26.763  1.00  0.00     0.130 A 
BRANCH  15  18
ATOM     18  O   UNL     1      22.411  -4.610 -24.190  1.00  0.00    -0.508 OA
ATOM     19  H   UNL     1      22.922  -5.463 -24.381  1.00  0.00     0.293 HD
ENDBRANCH  15  18
BRANCH  17  20
ATOM     20  O   UNL     1      23.051  -1.884 -28.149  1.00  0.00    -0.507 OA
ATOM     21  H   UNL     1      22.207  -1.569 -28.612  1.00  0.00     0.293 HD
ENDBRANCH  17  20
ENDBRANCH   1  12
BRANCH   2  22
ATOM     22  O   UNL     1      26.202   0.069 -25.828  1.00  0.00    -0.502 OA
ATOM     23  H   UNL     1      27.180   0.122 -26.089  1.00  0.00     0.293 HD
ENDBRANCH   2  22
BRANCH   6  24
ATOM     24  O   UNL     1      25.868   4.864 -28.133  1.00  0.00    -0.507 OA
ATOM     25  H   UNL     1      26.667   4.613 -27.572  1.00  0.00     0.293 HD
ENDBRANCH   6  24
BRANCH   8  26
ATOM     26  O   UNL     1      21.258   4.839 -29.469  1.00  0.00    -0.508 OA
ATOM     27  H   UNL     1      21.095   5.831 -29.347  1.00  0.00     0.293 HD
ENDBRANCH   8  26
TORSDOF 6
ENDMDL
MODEL 5
REMARK VINA RESULT:    -2.505      1.590      6.862
REMARK INTER + INTRA:          -3.399
REMARK INTER:                  -2.982
REMARK INTRA:                  -0.417
REMARK UNBOUND:                -0.381
REMARK SMILES O=c1c(O)c(-c2ccc(O)cc2O)oc2cc(O)cc(O)c12
REMARK SMILES IDX 5 1 3 2 2 3 1 4 22 5 20 6 19 7 17 8 16 9 15 10 14 11 6 12
REMARK SMILES IDX 8 13 7 14 9 15 11 16 12 17 10 18 13 20 4 22 21 24 18 26
REMARK H PARENT 10 19 13 21 4 23 21 25 18 27
REMARK Flexibility Score: inf
ROOT
ATOM      1  C   UNL     1      23.273   0.644 -27.972  1.00  0.00     0.184 A 
ATOM      2  C   UNL     1      22.250   1.530 -28.340  1.00  0.00     0.208 A 
ATOM      3  C   UNL     1      22.509   2.910 -28.333  1.00  0.00     0.238 A 
ATOM      4  O   UNL     1      21.566   3.702 -28.593  1.00  0.00    -0.285 OA
ATOM      5  C   UNL     1      23.805   3.382 -28.012  1.00  0.00     0.111 A 
ATOM      6  C   UNL     1      24.194   4.756 -28.015  1.00  0.00     0.134 A 
ATOM      7  C   UNL     1      25.475   5.112 -27.577  1.00  0.00     0.093 A 
ATOM      8  C   UNL     1      26.403   4.140 -27.196  1.00  0.00     0.123 A 
ATOM      9  C   UNL     1      26.052   2.793 -27.241  1.00  0.00     0.094 A 
ATOM     10  C   UNL     1      24.769   2.408 -27.637  1.00  0.00     0.146 A 
ATOM     11  O   UNL     1      24.470   1.115 -27.644  1.00  0.00    -0.451 OA
ENDROOT
BRANCH   1  12
ATOM     12  C   UNL     1      23.064  -0.818 -27.951  1.00  0.00     0.063 A 
ATOM     13  C   UNL     1      22.747  -2.889 -29.186  1.00  0.00     0.047 A 
ATOM     14  C   UNL     1      22.940  -1.505 -29.169  1.00  0.00     0.020 A 
ATOM     15  C   UNL     1      22.691  -3.605 -27.987  1.00  0.00     0.119 A 
ATOM     16  C   UNL     1      22.838  -2.932 -26.767  1.00  0.00     0.093 A 
ATOM     17  C   UNL     1      23.037  -1.544 -26.741  1.00  0.00     0.130 A 
BRANCH  15  18
ATOM     18  O   UNL     1      22.495  -4.984 -28.019  1.00  0.00    -0.508 OA
ATOM     19  H   UNL     1      23.272  -5.627 -28.115  1.00  0.00     0.293 HD
ENDBRANCH  15  18
BRANCH  17  20
ATOM     20  O   UNL     1      23.231  -0.892 -25.523  1.00  0.00    -0.507 OA
ATOM     21  H   UNL     1      23.658   0.025 -25.474  1.00  0.00     0.293 HD
ENDBRANCH  17  20
ENDBRANCH   1  12
BRANCH   2  22
ATOM     22  O   UNL     1      21.000   1.035 -28.723  1.00  0.00    -0.502 OA
ATOM     23  H   UNL     1      20.799   0.743 -29.672  1.00  0.00     0.293 HD
ENDBRANCH   2  22
BRANCH   6  24
ATOM     24  O   UNL     1      23.377   5.800 -28.459  1.00  0.00    -0.507 OA
ATOM     25  H   UNL     1      23.683   6.748 -28.612  1.00  0.00     0.293 HD
ENDBRANCH   6  24
BRANCH   8  26
ATOM     26  O   UNL     1      27.682   4.504 -26.778  1.00  0.00    -0.508 OA
ATOM     27  H   UNL     1      27.831   5.031 -25.927  1.00  0.00     0.293 HD
ENDBRANCH   8  26
TORSDOF 6
ENDMDL
MODEL 6
REMARK VINA RESULT:    -2.474      1.761      2.396
REMARK INTER + INTRA:          -3.362
REMARK INTER:                  -2.953
REMARK INTRA:                  -0.409
REMARK UNBOUND:                -0.381
REMARK SMILES O=c1c(O)c(-c2ccc(O)cc2O)oc2cc(O)cc(O)c12
REMARK SMILES IDX 5 1 3 2 2 3 1 4 22 5 20 6 19 7 17 8 16 9 15 10 14 11 6 12
REMARK SMILES IDX 8 13 7 14 9 15 11 16 12 17 10 18 13 20 4 22 21 24 18 26
REMARK H PARENT 10 19 13 21 4 23 21 25 18 27
REMARK Flexibility Score: inf
ROOT
ATOM      1  C   UNL     1      23.264   1.500 -27.923  1.00  0.00     0.184 A 
ATOM      2  C   UNL     1      24.184   2.062 -27.025  1.00  0.00     0.208 A 
ATOM      3  C   UNL     1      24.730   1.253 -26.016  1.00  0.00     0.238 A 
ATOM      4  O   UNL     1      25.498   1.781 -25.170  1.00  0.00    -0.285 OA
ATOM      5  C   UNL     1      24.392  -0.121 -25.954  1.00  0.00     0.111 A 
ATOM      6  C   UNL     1      24.919  -1.045 -25.001  1.00  0.00     0.134 A 
ATOM      7  C   UNL     1      24.431  -2.357 -24.969  1.00  0.00     0.093 A 
ATOM      8  C   UNL     1      23.482  -2.796 -25.895  1.00  0.00     0.123 A 
ATOM      9  C   UNL     1      23.001  -1.917 -26.862  1.00  0.00     0.094 A 
ATOM     10  C   UNL     1      23.440  -0.592 -26.896  1.00  0.00     0.146 A 
ATOM     11  O   UNL     1      22.939   0.217 -27.822  1.00  0.00    -0.451 OA
ENDROOT
BRANCH   1  12
ATOM     12  C   UNL     1      22.645   2.298 -29.002  1.00  0.00     0.063 A 
ATOM     13  C   UNL     1      22.634   2.978 -31.336  1.00  0.00     0.047 A 
ATOM     14  C   UNL     1      23.197   2.241 -30.291  1.00  0.00     0.020 A 
ATOM     15  C   UNL     1      21.505   3.768 -31.109  1.00  0.00     0.119 A 
ATOM     16  C   UNL     1      20.932   3.813 -29.832  1.00  0.00     0.093 A 
ATOM     17  C   UNL     1      21.487   3.072 -28.778  1.00  0.00     0.130 A 
BRANCH  15  18
ATOM     18  O   UNL     1      20.956   4.501 -32.160  1.00  0.00    -0.508 OA
ATOM     19  H   UNL     1      21.514   5.154 -32.698  1.00  0.00     0.293 HD
ENDBRANCH  15  18
BRANCH  17  20
ATOM     20  O   UNL     1      20.879   3.085 -27.523  1.00  0.00    -0.507 OA
ATOM     21  H   UNL     1      21.155   3.746 -26.806  1.00  0.00     0.293 HD
ENDBRANCH  17  20
ENDBRANCH   1  12
BRANCH   2  22
ATOM     22  O   UNL     1      24.556   3.403 -27.153  1.00  0.00    -0.502 OA
ATOM     23  H   UNL     1      25.442   3.684 -27.557  1.00  0.00     0.293 HD
ENDBRANCH   2  22
BRANCH   6  24
ATOM     24  O   UNL     1      25.934  -0.737 -24.089  1.00  0.00    -0.507 OA
ATOM     25  H   UNL     1      26.398   0.155 -24.022  1.00  0.00     0.293 HD
ENDBRANCH   6  24
BRANCH   8  26
ATOM     26  O   UNL     1      23.015  -4.109 -25.865  1.00  0.00    -0.508 OA
ATOM     27  H   UNL     1      23.501  -4.833 -25.352  1.00  0.00     0.293 HD
ENDBRANCH   8  26
TORSDOF 6
ENDMDL
MODEL 7
REMARK VINA RESULT:    -2.474     18.362     19.838
REMARK INTER + INTRA:          -3.361
REMARK INTER:                  -2.928
REMARK INTRA:                  -0.433
REMARK UNBOUND:                -0.381
REMARK SMILES O=c1c(O)c(-c2ccc(O)cc2O)oc2cc(O)cc(O)c12
REMARK SMILES IDX 5 1 3 2 2 3 1 4 22 5 20 6 19 7 17 8 16 9 15 10 14 11 6 12
REMARK SMILES IDX 8 13 7 14 9 15 11 16 12 17 10 18 13 20 4 22 21 24 18 26
REMARK H PARENT 10 19 13 21 4 23 21 25 18 27
REMARK Flexibility Score: inf
ROOT
ATOM      1  C   UNL     1      33.453  -6.508 -41.429  1.00  0.00     0.184 A 
ATOM      2  C   UNL     1      33.807  -7.636 -40.674  1.00  0.00     0.208 A 
ATOM      3  C   UNL     1      35.160  -7.851 -40.366  1.00  0.00     0.238 A 
ATOM      4  O   UNL     1      35.478  -8.902 -39.752  1.00  0.00    -0.285 OA
ATOM      5  C   UNL     1      36.134  -6.905 -40.769  1.00  0.00     0.111 A 
ATOM      6  C   UNL     1      37.527  -6.998 -40.474  1.00  0.00     0.134 A 
ATOM      7  C   UNL     1      38.412  -6.057 -41.016  1.00  0.00     0.093 A 
ATOM      8  C   UNL     1      37.946  -4.991 -41.789  1.00  0.00     0.123 A 
ATOM      9  C   UNL     1      36.582  -4.861 -42.038  1.00  0.00     0.094 A 
ATOM     10  C   UNL     1      35.678  -5.805 -41.543  1.00  0.00     0.146 A 
ATOM     11  O   UNL     1      34.390  -5.654 -41.822  1.00  0.00    -0.451 OA
ENDROOT
BRANCH   1  12
ATOM     12  C   UNL     1      32.049  -6.227 -41.795  1.00  0.00     0.063 A 
ATOM     13  C   UNL     1      29.847  -5.441 -41.128  1.00  0.00     0.047 A 
ATOM     14  C   UNL     1      31.179  -5.722 -40.815  1.00  0.00     0.020 A 
ATOM     15  C   UNL     1      29.372  -5.645 -42.426  1.00  0.00     0.119 A 
ATOM     16  C   UNL     1      30.238  -6.126 -43.416  1.00  0.00     0.093 A 
ATOM     17  C   UNL     1      31.578  -6.407 -43.112  1.00  0.00     0.130 A 
BRANCH  15  18
ATOM     18  O   UNL     1      28.040  -5.363 -42.722  1.00  0.00    -0.508 OA
ATOM     19  H   UNL     1      27.336  -6.092 -42.743  1.00  0.00     0.293 HD
ENDBRANCH  15  18
BRANCH  17  20
ATOM     20  O   UNL     1      32.444  -6.838 -44.118  1.00  0.00    -0.507 OA
ATOM     21  H   UNL     1      33.246  -6.288 -44.400  1.00  0.00     0.293 HD
ENDBRANCH  17  20
ENDBRANCH   1  12
BRANCH   2  22
ATOM     22  O   UNL     1      32.819  -8.517 -40.226  1.00  0.00    -0.502 OA
ATOM     23  H   UNL     1      32.190  -8.995 -40.861  1.00  0.00     0.293 HD
ENDBRANCH   2  22
BRANCH   6  24
ATOM     24  O   UNL     1      38.089  -7.970 -39.640  1.00  0.00    -0.507 OA
ATOM     25  H   UNL     1      38.279  -8.922 -39.910  1.00  0.00     0.293 HD
ENDBRANCH   6  24
BRANCH   8  26
ATOM     26  O   UNL     1      38.832  -4.050 -42.309  1.00  0.00    -0.508 OA
ATOM     27  H   UNL     1      38.508  -3.173 -42.697  1.00  0.00     0.293 HD
ENDBRANCH   8  26
TORSDOF 6
ENDMDL
MODEL 8
REMARK VINA RESULT:    -2.441      2.385      4.185
REMARK INTER + INTRA:          -3.322
REMARK INTER:                  -2.990
REMARK INTRA:                  -0.332
REMARK UNBOUND:                -0.381
REMARK SMILES O=c1c(O)c(-c2ccc(O)cc2O)oc2cc(O)cc(O)c12
REMARK SMILES IDX 5 1 3 2 2 3 1 4 22 5 20 6 19 7 17 8 16 9 15 10 14 11 6 12
REMARK SMILES IDX 8 13 7 14 9 15 11 16 12 17 10 18 13 20 4 22 21 24 18 26
REMARK H PARENT 10 19 13 21 4 23 21 25 18 27
REMARK Flexibility Score: inf
ROOT
ATOM      1  C   UNL     1      23.603   2.129 -27.823  1.00  0.00     0.184 A 
ATOM      2  C   UNL     1      23.112   0.849 -27.522  1.00  0.00     0.208 A 
ATOM      3  C   UNL     1      23.727   0.107 -26.502  1.00  0.00     0.238 A 
ATOM      4  O   UNL     1      23.329  -1.067 -26.287  1.00  0.00    -0.285 OA
ATOM      5  C   UNL     1      24.789   0.677 -25.758  1.00  0.00     0.111 A 
ATOM      6  C   UNL     1      25.458   0.033 -24.673  1.00  0.00     0.134 A 
ATOM      7  C   UNL     1      26.566   0.652 -24.081  1.00  0.00     0.093 A 
ATOM      8  C   UNL     1      26.990   1.918 -24.491  1.00  0.00     0.123 A 
ATOM      9  C   UNL     1      26.311   2.577 -25.512  1.00  0.00     0.094 A 
ATOM     10  C   UNL     1      25.226   1.970 -26.149  1.00  0.00     0.146 A 
ATOM     11  O   UNL     1      24.621   2.626 -27.132  1.00  0.00    -0.451 OA
ENDROOT
BRANCH   1  12
ATOM     12  C   UNL     1      23.006   2.959 -28.890  1.00  0.00     0.063 A 
ATOM     13  C   UNL     1      23.157   3.875 -31.137  1.00  0.00     0.047 A 
ATOM     14  C   UNL     1      23.695   3.102 -30.105  1.00  0.00     0.020 A 
ATOM     15  C   UNL     1      21.919   4.502 -30.973  1.00  0.00     0.119 A 
ATOM     16  C   UNL     1      21.213   4.346 -29.774  1.00  0.00     0.093 A 
ATOM     17  C   UNL     1      21.743   3.567 -28.734  1.00  0.00     0.130 A 
BRANCH  15  18
ATOM     18  O   UNL     1      21.397   5.273 -32.010  1.00  0.00    -0.508 OA
ATOM     19  H   UNL     1      21.571   5.042 -32.981  1.00  0.00     0.293 HD
ENDBRANCH  15  18
BRANCH  17  20
ATOM     20  O   UNL     1      21.009   3.379 -27.563  1.00  0.00    -0.507 OA
ATOM     21  H   UNL     1      21.165   3.949 -26.741  1.00  0.00     0.293 HD
ENDBRANCH  17  20
ENDBRANCH   1  12
BRANCH   2  22
ATOM     22  O   UNL     1      22.016   0.339 -28.223  1.00  0.00    -0.502 OA
ATOM     23  H   UNL     1      21.916   0.443 -29.226  1.00  0.00     0.293 HD
ENDBRANCH   2  22
BRANCH   6  24
ATOM     24  O   UNL     1      25.063  -1.192 -24.125  1.00  0.00    -0.507 OA
ATOM     25  H   UNL     1      24.154  -1.610 -24.242  1.00  0.00     0.293 HD
ENDBRANCH   6  24
BRANCH   8  26
ATOM     26  O   UNL     1      28.083   2.532 -23.883  1.00  0.00    -0.508 OA
ATOM     27  H   UNL     1      28.914   2.775 -24.408  1.00  0.00     0.293 HD
ENDBRANCH   8  26
TORSDOF 6
ENDMDL
MODEL 9
REMARK VINA RESULT:    -2.369      3.217      5.965
REMARK INTER + INTRA:          -3.235
REMARK INTER:                  -2.817
REMARK INTRA:                  -0.418
REMARK UNBOUND:                -0.381
REMARK SMILES O=c1c(O)c(-c2ccc(O)cc2O)oc2cc(O)cc(O)c12
REMARK SMILES IDX 5 1 3 2 2 3 1 4 22 5 20 6 19 7 17 8 16 9 15 10 14 11 6 12
REMARK SMILES IDX 8 13 7 14 9 15 11 16 12 17 10 18 13 20 4 22 21 24 18 26
REMARK H PARENT 10 19 13 21 4 23 21 25 18 27
REMARK Flexibility Score: inf
ROOT
ATOM      1  C   UNL     1      25.417   3.267 -27.104  1.00  0.00     0.184 A 
ATOM      2  C   UNL     1      24.905   1.987 -26.843  1.00  0.00     0.208 A 
ATOM      3  C   UNL     1      23.627   1.655 -27.320  1.00  0.00     0.238 A 
ATOM      4  O   UNL     1      23.145   0.532 -27.020  1.00  0.00    -0.285 OA
ATOM      5  C   UNL     1      22.901   2.588 -28.100  1.00  0.00     0.111 A 
ATOM      6  C   UNL     1      21.617   2.343 -28.672  1.00  0.00     0.134 A 
ATOM      7  C   UNL     1      20.948   3.379 -29.336  1.00  0.00     0.093 A 
ATOM      8  C   UNL     1      21.543   4.631 -29.503  1.00  0.00     0.123 A 
ATOM      9  C   UNL     1      22.819   4.863 -28.995  1.00  0.00     0.094 A 
ATOM     10  C   UNL     1      23.497   3.862 -28.295  1.00  0.00     0.146 A 
ATOM     11  O   UNL     1      24.702   4.134 -27.810  1.00  0.00    -0.451 OA
ENDROOT
BRANCH   1  12
ATOM     12  C   UNL     1      26.751   3.683 -26.625  1.00  0.00     0.063 A 
ATOM     13  C   UNL     1      29.127   3.948 -27.066  1.00  0.00     0.047 A 
ATOM     14  C   UNL     1      27.852   3.559 -27.485  1.00  0.00     0.020 A 
ATOM     15  C   UNL     1      29.314   4.480 -25.788  1.00  0.00     0.119 A 
ATOM     16  C   UNL     1      28.218   4.630 -24.929  1.00  0.00     0.093 A 
ATOM     17  C   UNL     1      26.933   4.247 -25.344  1.00  0.00     0.130 A 
BRANCH  15  18
ATOM     18  O   UNL     1      30.592   4.861 -25.382  1.00  0.00    -0.508 OA
ATOM     19  H   UNL     1      31.317   5.082 -26.054  1.00  0.00     0.293 HD
ENDBRANCH  15  18
BRANCH  17  20
ATOM     20  O   UNL     1      25.841   4.448 -24.500  1.00  0.00    -0.507 OA
ATOM     21  H   UNL     1      25.876   5.111 -23.735  1.00  0.00     0.293 HD
ENDBRANCH  17  20
ENDBRANCH   1  12
BRANCH   2  22
ATOM     22  O   UNL     1      25.672   1.059 -26.133  1.00  0.00    -0.502 OA
ATOM     23  H   UNL     1      25.318   0.574 -25.317  1.00  0.00     0.293 HD
ENDBRANCH   2  22
BRANCH   6  24
ATOM     24  O   UNL     1      20.968   1.104 -28.641  1.00  0.00    -0.507 OA
ATOM     25  H   UNL     1      20.467   0.735 -27.849  1.00  0.00     0.293 HD
ENDBRANCH   6  24
BRANCH   8  26
ATOM     26  O   UNL     1      20.877   5.650 -30.180  1.00  0.00    -0.508 OA
ATOM     27  H   UNL     1      21.290   6.567 -30.298  1.00  0.00     0.293 HD
ENDBRANCH   8  26
TORSDOF 6
ENDMDL
