MODEL 1
REMARK VINA RESULT:    -8.042      0.000      0.000
REMARK INTER + INTRA:         -12.332
REMARK INTER:                 -11.097
REMARK INTRA:                  -1.235
REMARK UNBOUND:                -1.235
REMARK SMILES CC[C@@H](CC[C@@H](C)[C@@H]1CC[C@H]2[C@@H]3CC=C4C[C@@H](O)CC[C@@]4(C)[C@H]3CC[C@]21C)C(C)C
REMARK SMILES IDX 5 1 4 2 3 3 2 4 1 5 28 6 29 7 30 8 6 9 7 10 8 11 9 12 26 13
REMARK SMILES IDX 10 14 11 15 25 16 27 17 12 18 24 19 23 20 13 21 21 22 14 23
REMARK SMILES IDX 15 24 20 25 22 26 16 27 19 28 17 29 18 30
REMARK H PARENT 18 31
REMARK Flexibility Score: inf
ROOT
ATOM      1  C   UNL     1     184.956 -22.784  32.817  1.00  0.00     0.004 C 
ENDROOT
BRANCH   1   2
ATOM      2  C   UNL     1     184.189 -24.108  33.039  1.00  0.00     0.004 C 
BRANCH   2   3
ATOM      3  C   UNL     1     184.003 -24.444  34.544  1.00  0.00    -0.009 C 
BRANCH   3   4
ATOM      4  C   UNL     1     185.036 -23.631  35.380  1.00  0.00     0.000 C 
ATOM      5  C   UNL     1     184.422 -22.851  36.542  1.00  0.00     0.004 C 
ENDBRANCH   3   4
BRANCH   3   6
ATOM      6  C   UNL     1     184.037 -26.002  34.767  1.00  0.00    -0.014 C 
ATOM      7  C   UNL     1     184.202 -26.826  33.478  1.00  0.00     0.007 C 
ATOM      8  C   UNL     1     185.072 -26.421  35.821  1.00  0.00     0.007 C 
ENDBRANCH   3   6
ENDBRANCH   2   3
ENDBRANCH   1   2
BRANCH   1   9
ATOM      9  C   UNL     1     184.011 -21.583  32.524  1.00  0.00    -0.011 C 
ATOM     10  C   UNL     1     184.237 -20.495  33.599  1.00  0.00     0.008 C 
BRANCH   9  11
ATOM     11  C   UNL     1     184.189 -21.082  31.044  1.00  0.00    -0.002 C 
ATOM     12  C   UNL     1     184.796 -19.696  30.876  1.00  0.00     0.005 C 
ATOM     13  C   UNL     1     182.959 -21.115  30.071  1.00  0.00    -0.026 C 
ATOM     14  C   UNL     1     184.674 -19.434  29.388  1.00  0.00     0.005 C 
ATOM     15  C   UNL     1     183.321 -20.040  28.984  1.00  0.00    -0.001 C 
ATOM     16  C   UNL     1     182.795 -22.548  29.465  1.00  0.00     0.007 C 
ATOM     17  C   UNL     1     181.637 -20.708  30.764  1.00  0.00     0.012 C 
ATOM     18  C   UNL     1     183.300 -20.602  27.536  1.00  0.00     0.000 C 
ATOM     19  C   UNL     1     181.914 -22.629  28.195  1.00  0.00     0.005 C 
ATOM     20  C   UNL     1     181.953 -21.344  27.311  1.00  0.00     0.003 C 
ATOM     21  C   UNL     1     183.496 -19.499  26.491  1.00  0.00     0.031 C 
ATOM     22  C   UNL     1     181.512 -21.494  25.771  1.00  0.00    -0.008 C 
ATOM     23  C   UNL     1     183.525 -20.132  25.136  1.00  0.00    -0.027 C 
ATOM     24  C   UNL     1     182.641 -21.094  24.809  1.00  0.00    -0.065 C 
ATOM     25  C   UNL     1     181.063 -22.941  25.398  1.00  0.00     0.014 C 
ATOM     26  C   UNL     1     180.312 -20.533  25.529  1.00  0.00     0.016 C 
ATOM     27  C   UNL     1     182.845 -21.859  23.514  1.00  0.00     0.063 C 
ATOM     28  C   UNL     1     180.640 -23.114  23.920  1.00  0.00     0.033 C 
ATOM     29  C   UNL     1     181.503 -22.312  22.918  1.00  0.00     0.118 C 
BRANCH  29  30
ATOM     30  O   UNL     1     181.754 -23.101  21.780  1.00  0.00    -0.393 OA
ATOM     31  H   UNL     1     180.988 -23.725  21.681  1.00  0.00     0.210 HD
ENDBRANCH  29  30
ENDBRANCH   9  11
ENDBRANCH   1   9
TORSDOF 7
ENDMDL
MODEL 2
REMARK VINA RESULT:    -7.800      5.216      8.762
REMARK INTER + INTRA:         -11.999
REMARK INTER:                  -9.903
REMARK INTRA:                  -2.096
REMARK UNBOUND:                -1.235
REMARK SMILES CC[C@@H](CC[C@@H](C)[C@@H]1CC[C@H]2[C@@H]3CC=C4C[C@@H](O)CC[C@@]4(C)[C@H]3CC[C@]21C)C(C)C
REMARK SMILES IDX 5 1 4 2 3 3 2 4 1 5 28 6 29 7 30 8 6 9 7 10 8 11 9 12 26 13
REMARK SMILES IDX 10 14 11 15 25 16 27 17 12 18 24 19 23 20 13 21 21 22 14 23
REMARK SMILES IDX 15 24 20 25 22 26 16 27 19 28 17 29 18 30
REMARK H PARENT 18 31
REMARK Flexibility Score: inf
ROOT
ATOM      1  C   UNL     1     179.708 -19.592  25.145  1.00  0.00     0.004 C 
ENDROOT
BRANCH   1   2
ATOM      2  C   UNL     1     179.304 -20.873  25.909  1.00  0.00     0.004 C 
BRANCH   2   3
ATOM      3  C   UNL     1     180.533 -21.690  26.394  1.00  0.00    -0.009 C 
BRANCH   3   4
ATOM      4  C   UNL     1     180.496 -23.104  25.741  1.00  0.00     0.000 C 
ATOM      5  C   UNL     1     180.508 -23.085  24.213  1.00  0.00     0.004 C 
ENDBRANCH   3   4
BRANCH   3   6
ATOM      6  C   UNL     1     180.612 -21.680  27.967  1.00  0.00    -0.014 C 
ATOM      7  C   UNL     1     179.372 -21.093  28.663  1.00  0.00     0.007 C 
ATOM      8  C   UNL     1     180.965 -23.057  28.546  1.00  0.00     0.007 C 
ENDBRANCH   3   6
ENDBRANCH   2   3
ENDBRANCH   1   2
BRANCH   1   9
ATOM      9  C   UNL     1     181.234 -19.526  24.846  1.00  0.00    -0.011 C 
ATOM     10  C   UNL     1     181.454 -19.717  23.326  1.00  0.00     0.008 C 
BRANCH   9  11
ATOM     11  C   UNL     1     181.862 -18.210  25.434  1.00  0.00    -0.002 C 
ATOM     12  C   UNL     1     182.799 -17.446  24.510  1.00  0.00     0.005 C 
ATOM     13  C   UNL     1     182.597 -18.264  26.817  1.00  0.00    -0.026 C 
ATOM     14  C   UNL     1     183.364 -16.357  25.400  1.00  0.00     0.005 C 
ATOM     15  C   UNL     1     183.558 -17.021  26.772  1.00  0.00    -0.001 C 
ATOM     16  C   UNL     1     181.557 -18.175  27.981  1.00  0.00     0.007 C 
ATOM     17  C   UNL     1     183.442 -19.549  26.996  1.00  0.00     0.012 C 
ATOM     18  C   UNL     1     183.358 -16.049  27.967  1.00  0.00     0.000 C 
ATOM     19  C   UNL     1     182.143 -17.793  29.362  1.00  0.00     0.005 C 
ATOM     20  C   UNL     1     183.398 -16.870  29.287  1.00  0.00     0.003 C 
ATOM     21  C   UNL     1     184.413 -14.938  27.983  1.00  0.00     0.031 C 
ATOM     22  C   UNL     1     183.769 -16.019  30.601  1.00  0.00    -0.008 C 
ATOM     23  C   UNL     1     184.111 -14.017  29.122  1.00  0.00    -0.027 C 
ATOM     24  C   UNL     1     183.761 -14.507  30.328  1.00  0.00    -0.065 C 
ATOM     25  C   UNL     1     182.805 -16.288  31.799  1.00  0.00     0.014 C 
ATOM     26  C   UNL     1     185.208 -16.422  31.032  1.00  0.00     0.016 C 
ATOM     27  C   UNL     1     183.252 -13.544  31.384  1.00  0.00     0.063 C 
ATOM     28  C   UNL     1     183.136 -15.476  33.073  1.00  0.00     0.033 C 
ATOM     29  C   UNL     1     183.608 -14.030  32.798  1.00  0.00     0.118 C 
BRANCH  29  30
ATOM     30  O   UNL     1     183.026 -13.160  33.737  1.00  0.00    -0.393 OA
ATOM     31  H   UNL     1     182.041 -13.218  33.621  1.00  0.00     0.210 HD
ENDBRANCH  29  30
ENDBRANCH   9  11
ENDBRANCH   1   9
TORSDOF 7
ENDMDL
MODEL 3
REMARK VINA RESULT:    -7.786      5.770     10.687
REMARK INTER + INTRA:         -11.979
REMARK INTER:                  -9.938
REMARK INTRA:                  -2.041
REMARK UNBOUND:                -1.235
REMARK SMILES CC[C@@H](CC[C@@H](C)[C@@H]1CC[C@H]2[C@@H]3CC=C4C[C@@H](O)CC[C@@]4(C)[C@H]3CC[C@]21C)C(C)C
REMARK SMILES IDX 5 1 4 2 3 3 2 4 1 5 28 6 29 7 30 8 6 9 7 10 8 11 9 12 26 13
REMARK SMILES IDX 10 14 11 15 25 16 27 17 12 18 24 19 23 20 13 21 21 22 14 23
REMARK SMILES IDX 15 24 20 25 22 26 16 27 19 28 17 29 18 30
REMARK H PARENT 18 31
REMARK Flexibility Score: inf
ROOT
ATOM      1  C   UNL     1     183.905 -22.451  32.849  1.00  0.00     0.004 C 
ENDROOT
BRANCH   1   2
ATOM      2  C   UNL     1     184.059 -23.475  31.701  1.00  0.00     0.004 C 
BRANCH   2   3
ATOM      3  C   UNL     1     182.742 -24.247  31.411  1.00  0.00    -0.009 C 
BRANCH   3   4
ATOM      4  C   UNL     1     181.579 -23.593  32.214  1.00  0.00     0.000 C 
ATOM      5  C   UNL     1     180.547 -22.875  31.344  1.00  0.00     0.004 C 
ENDBRANCH   3   4
BRANCH   3   6
ATOM      6  C   UNL     1     182.945 -25.789  31.659  1.00  0.00    -0.014 C 
ATOM      7  C   UNL     1     184.248 -26.150  32.391  1.00  0.00     0.007 C 
ATOM      8  C   UNL     1     181.733 -26.437  32.344  1.00  0.00     0.007 C 
ENDBRANCH   3   6
ENDBRANCH   2   3
ENDBRANCH   1   2
BRANCH   1   9
ATOM      9  C   UNL     1     184.936 -22.672  33.994  1.00  0.00    -0.011 C 
ATOM     10  C   UNL     1     186.033 -21.587  33.895  1.00  0.00     0.008 C 
BRANCH   9  11
ATOM     11  C   UNL     1     184.214 -22.741  35.389  1.00  0.00    -0.002 C 
ATOM     12  C   UNL     1     184.825 -21.899  36.500  1.00  0.00     0.005 C 
ATOM     13  C   UNL     1     183.932 -24.140  36.037  1.00  0.00    -0.026 C 
ATOM     14  C   UNL     1     184.035 -22.307  37.728  1.00  0.00     0.005 C 
ATOM     15  C   UNL     1     183.796 -23.816  37.569  1.00  0.00    -0.001 C 
ATOM     16  C   UNL     1     182.625 -24.755  35.438  1.00  0.00     0.007 C 
ATOM     17  C   UNL     1     185.096 -25.140  35.834  1.00  0.00     0.012 C 
ATOM     18  C   UNL     1     182.453 -24.300  38.181  1.00  0.00     0.000 C 
ATOM     19  C   UNL     1     181.998 -25.905  36.263  1.00  0.00     0.005 C 
ATOM     20  C   UNL     1     182.243 -25.792  37.799  1.00  0.00     0.003 C 
ATOM     21  C   UNL     1     182.419 -24.116  39.702  1.00  0.00     0.031 C 
ATOM     22  C   UNL     1     181.248 -26.604  38.767  1.00  0.00    -0.008 C 
ATOM     23  C   UNL     1     181.075 -24.547  40.199  1.00  0.00    -0.027 C 
ATOM     24  C   UNL     1     180.500 -25.673  39.734  1.00  0.00    -0.065 C 
ATOM     25  C   UNL     1     180.179 -27.436  37.991  1.00  0.00     0.014 C 
ATOM     26  C   UNL     1     182.109 -27.584  39.614  1.00  0.00     0.016 C 
ATOM     27  C   UNL     1     179.053 -25.953  40.097  1.00  0.00     0.063 C 
ATOM     28  C   UNL     1     179.204 -28.222  38.900  1.00  0.00     0.033 C 
ATOM     29  C   UNL     1     178.782 -27.463  40.180  1.00  0.00     0.118 C 
BRANCH  29  30
ATOM     30  O   UNL     1     177.411 -27.667  40.415  1.00  0.00    -0.393 OA
ATOM     31  H   UNL     1     176.934 -27.468  39.567  1.00  0.00     0.210 HD
ENDBRANCH  29  30
ENDBRANCH   9  11
ENDBRANCH   1   9
TORSDOF 7
ENDMDL
MODEL 4
REMARK VINA RESULT:    -7.563      7.191     11.107
REMARK INTER + INTRA:         -11.671
REMARK INTER:                  -9.827
REMARK INTRA:                  -1.845
REMARK UNBOUND:                -1.235
REMARK SMILES CC[C@@H](CC[C@@H](C)[C@@H]1CC[C@H]2[C@@H]3CC=C4C[C@@H](O)CC[C@@]4(C)[C@H]3CC[C@]21C)C(C)C
REMARK SMILES IDX 5 1 4 2 3 3 2 4 1 5 28 6 29 7 30 8 6 9 7 10 8 11 9 12 26 13
REMARK SMILES IDX 10 14 11 15 25 16 27 17 12 18 24 19 23 20 13 21 21 22 14 23
REMARK SMILES IDX 15 24 20 25 22 26 16 27 19 28 17 29 18 30
REMARK H PARENT 18 31
REMARK Flexibility Score: inf
ROOT
ATOM      1  C   UNL     1     182.706 -22.445  37.479  1.00  0.00     0.004 C 
ENDROOT
BRANCH   1   2
ATOM      2  C   UNL     1     182.993 -23.004  36.067  1.00  0.00     0.004 C 
BRANCH   2   3
ATOM      3  C   UNL     1     184.329 -23.794  35.999  1.00  0.00    -0.009 C 
BRANCH   3   4
ATOM      4  C   UNL     1     185.518 -22.788  36.005  1.00  0.00     0.000 C 
ATOM      5  C   UNL     1     185.504 -21.798  34.840  1.00  0.00     0.004 C 
ENDBRANCH   3   4
BRANCH   3   6
ATOM      6  C   UNL     1     184.310 -24.801  34.789  1.00  0.00    -0.014 C 
ATOM      7  C   UNL     1     184.654 -26.252  35.163  1.00  0.00     0.007 C 
ATOM      8  C   UNL     1     182.999 -24.737  33.992  1.00  0.00     0.007 C 
ENDBRANCH   3   6
ENDBRANCH   2   3
ENDBRANCH   1   2
BRANCH   1   9
ATOM      9  C   UNL     1     183.072 -23.451  38.609  1.00  0.00    -0.011 C 
ATOM     10  C   UNL     1     183.708 -22.672  39.784  1.00  0.00     0.008 C 
BRANCH   9  11
ATOM     11  C   UNL     1     181.824 -24.322  39.005  1.00  0.00    -0.002 C 
ATOM     12  C   UNL     1     181.667 -24.629  40.488  1.00  0.00     0.005 C 
ATOM     13  C   UNL     1     181.579 -25.686  38.273  1.00  0.00    -0.026 C 
ATOM     14  C   UNL     1     180.508 -25.606  40.527  1.00  0.00     0.005 C 
ATOM     15  C   UNL     1     180.693 -26.495  39.287  1.00  0.00    -0.001 C 
ATOM     16  C   UNL     1     180.853 -25.439  36.909  1.00  0.00     0.007 C 
ATOM     17  C   UNL     1     182.888 -26.469  38.010  1.00  0.00     0.012 C 
ATOM     18  C   UNL     1     179.355 -26.990  38.673  1.00  0.00     0.000 C 
ATOM     19  C   UNL     1     180.177 -26.685  36.287  1.00  0.00     0.005 C 
ATOM     20  C   UNL     1     179.662 -27.719  37.335  1.00  0.00     0.003 C 
ATOM     21  C   UNL     1     178.590 -27.909  39.632  1.00  0.00     0.031 C 
ATOM     22  C   UNL     1     178.530 -28.756  36.855  1.00  0.00    -0.008 C 
ATOM     23  C   UNL     1     177.293 -28.286  38.991  1.00  0.00    -0.027 C 
ATOM     24  C   UNL     1     177.245 -28.632  37.689  1.00  0.00    -0.065 C 
ATOM     25  C   UNL     1     178.137 -28.585  35.354  1.00  0.00     0.014 C 
ATOM     26  C   UNL     1     179.094 -30.193  37.051  1.00  0.00     0.016 C 
ATOM     27  C   UNL     1     175.889 -28.792  37.028  1.00  0.00     0.063 C 
ATOM     28  C   UNL     1     177.044 -29.567  34.868  1.00  0.00     0.033 C 
ATOM     29  C   UNL     1     175.935 -29.844  35.909  1.00  0.00     0.118 C 
BRANCH  29  30
ATOM     30  O   UNL     1     174.685 -29.877  35.265  1.00  0.00    -0.393 OA
ATOM     31  H   UNL     1     174.738 -30.572  34.557  1.00  0.00     0.210 HD
ENDBRANCH  29  30
ENDBRANCH   9  11
ENDBRANCH   1   9
TORSDOF 7
ENDMDL
MODEL 5
REMARK VINA RESULT:    -7.557      2.385      4.921
REMARK INTER + INTRA:         -11.663
REMARK INTER:                  -9.950
REMARK INTRA:                  -1.712
REMARK UNBOUND:                -1.235
REMARK SMILES CC[C@@H](CC[C@@H](C)[C@@H]1CC[C@H]2[C@@H]3CC=C4C[C@@H](O)CC[C@@]4(C)[C@H]3CC[C@]21C)C(C)C
REMARK SMILES IDX 5 1 4 2 3 3 2 4 1 5 28 6 29 7 30 8 6 9 7 10 8 11 9 12 26 13
REMARK SMILES IDX 10 14 11 15 25 16 27 17 12 18 24 19 23 20 13 21 21 22 14 23
REMARK SMILES IDX 15 24 20 25 22 26 16 27 19 28 17 29 18 30
REMARK H PARENT 18 31
REMARK Flexibility Score: inf
ROOT
ATOM      1  C   UNL     1     183.104 -21.328  37.022  1.00  0.00     0.004 C 
ENDROOT
BRANCH   1   2
ATOM      2  C   UNL     1     182.319 -22.558  37.530  1.00  0.00     0.004 C 
BRANCH   2   3
ATOM      3  C   UNL     1     182.277 -22.640  39.081  1.00  0.00    -0.009 C 
BRANCH   3   4
ATOM      4  C   UNL     1     182.884 -21.336  39.677  1.00  0.00     0.000 C 
ATOM      5  C   UNL     1     184.161 -21.557  40.488  1.00  0.00     0.004 C 
ENDBRANCH   3   4
BRANCH   3   6
ATOM      6  C   UNL     1     182.942 -23.978  39.578  1.00  0.00    -0.014 C 
ATOM      7  C   UNL     1     182.211 -24.655  40.749  1.00  0.00     0.007 C 
ATOM      8  C   UNL     1     183.184 -24.973  38.434  1.00  0.00     0.007 C 
ENDBRANCH   3   6
ENDBRANCH   2   3
ENDBRANCH   1   2
BRANCH   1   9
ATOM      9  C   UNL     1     184.320 -21.716  36.132  1.00  0.00    -0.011 C 
ATOM     10  C   UNL     1     185.418 -22.335  37.028  1.00  0.00     0.008 C 
BRANCH   9  11
ATOM     11  C   UNL     1     183.866 -22.629  34.935  1.00  0.00    -0.002 C 
ATOM     12  C   UNL     1     184.412 -24.050  34.933  1.00  0.00     0.005 C 
ATOM     13  C   UNL     1     184.050 -22.113  33.466  1.00  0.00    -0.026 C 
ATOM     14  C   UNL     1     183.952 -24.604  33.600  1.00  0.00     0.005 C 
ATOM     15  C   UNL     1     184.079 -23.433  32.613  1.00  0.00    -0.001 C 
ATOM     16  C   UNL     1     182.863 -21.174  33.075  1.00  0.00     0.007 C 
ATOM     17  C   UNL     1     185.382 -21.351  33.262  1.00  0.00     0.012 C 
ATOM     18  C   UNL     1     183.014 -23.455  31.483  1.00  0.00     0.000 C 
ATOM     19  C   UNL     1     182.683 -20.936  31.556  1.00  0.00     0.005 C 
ATOM     20  C   UNL     1     183.128 -22.137  30.667  1.00  0.00     0.003 C 
ATOM     21  C   UNL     1     183.172 -24.677  30.572  1.00  0.00     0.031 C 
ATOM     22  C   UNL     1     182.533 -22.212  29.174  1.00  0.00    -0.008 C 
ATOM     23  C   UNL     1     182.075 -24.653  29.555  1.00  0.00    -0.027 C 
ATOM     24  C   UNL     1     181.736 -23.505  28.937  1.00  0.00    -0.065 C 
ATOM     25  C   UNL     1     181.601 -21.011  28.824  1.00  0.00     0.014 C 
ATOM     26  C   UNL     1     183.735 -22.202  28.187  1.00  0.00     0.016 C 
ATOM     27  C   UNL     1     180.481 -23.480  28.084  1.00  0.00     0.063 C 
ATOM     28  C   UNL     1     181.009 -21.063  27.395  1.00  0.00     0.033 C 
ATOM     29  C   UNL     1     180.616 -22.482  26.924  1.00  0.00     0.118 C 
BRANCH  29  30
ATOM     30  O   UNL     1     179.394 -22.424  26.230  1.00  0.00    -0.393 OA
ATOM     31  H   UNL     1     178.710 -22.086  26.866  1.00  0.00     0.210 HD
ENDBRANCH  29  30
ENDBRANCH   9  11
ENDBRANCH   1   9
TORSDOF 7
ENDMDL
MODEL 6
REMARK VINA RESULT:    -7.530      5.290      8.964
REMARK INTER + INTRA:         -11.626
REMARK INTER:                 -10.394
REMARK INTRA:                  -1.232
REMARK UNBOUND:                -1.235
REMARK SMILES CC[C@@H](CC[C@@H](C)[C@@H]1CC[C@H]2[C@@H]3CC=C4C[C@@H](O)CC[C@@]4(C)[C@H]3CC[C@]21C)C(C)C
REMARK SMILES IDX 5 1 4 2 3 3 2 4 1 5 28 6 29 7 30 8 6 9 7 10 8 11 9 12 26 13
REMARK SMILES IDX 10 14 11 15 25 16 27 17 12 18 24 19 23 20 13 21 21 22 14 23
REMARK SMILES IDX 15 24 20 25 22 26 16 27 19 28 17 29 18 30
REMARK H PARENT 18 31
REMARK Flexibility Score: inf
ROOT
ATOM      1  C   UNL     1     184.994 -13.342  25.762  1.00  0.00     0.004 C 
ENDROOT
BRANCH   1   2
ATOM      2  C   UNL     1     185.980 -14.475  25.396  1.00  0.00     0.004 C 
BRANCH   2   3
ATOM      3  C   UNL     1     186.876 -14.115  24.180  1.00  0.00    -0.009 C 
BRANCH   3   4
ATOM      4  C   UNL     1     186.757 -15.239  23.108  1.00  0.00     0.000 C 
ATOM      5  C   UNL     1     185.847 -16.396  23.517  1.00  0.00     0.004 C 
ENDBRANCH   3   4
BRANCH   3   6
ATOM      6  C   UNL     1     188.343 -13.793  24.654  1.00  0.00    -0.014 C 
ATOM      7  C   UNL     1     189.000 -14.905  25.489  1.00  0.00     0.007 C 
ATOM      8  C   UNL     1     189.255 -13.367  23.494  1.00  0.00     0.007 C 
ENDBRANCH   3   6
ENDBRANCH   2   3
ENDBRANCH   1   2
BRANCH   1   9
ATOM      9  C   UNL     1     184.134 -13.675  27.015  1.00  0.00    -0.011 C 
ATOM     10  C   UNL     1     183.787 -12.358  27.748  1.00  0.00     0.008 C 
BRANCH   9  11
ATOM     11  C   UNL     1     182.886 -14.547  26.620  1.00  0.00    -0.002 C 
ATOM     12  C   UNL     1     181.523 -13.929  26.898  1.00  0.00     0.005 C 
ATOM     13  C   UNL     1     182.786 -16.022  27.143  1.00  0.00    -0.026 C 
ATOM     14  C   UNL     1     180.555 -15.052  26.583  1.00  0.00     0.005 C 
ATOM     15  C   UNL     1     181.246 -16.330  27.084  1.00  0.00    -0.001 C 
ATOM     16  C   UNL     1     183.622 -16.973  26.226  1.00  0.00     0.007 C 
ATOM     17  C   UNL     1     183.275 -16.173  28.604  1.00  0.00     0.012 C 
ATOM     18  C   UNL     1     180.905 -17.589  26.243  1.00  0.00     0.000 C 
ATOM     19  C   UNL     1     183.284 -18.479  26.356  1.00  0.00     0.005 C 
ATOM     20  C   UNL     1     181.797 -18.767  26.728  1.00  0.00     0.003 C 
ATOM     21  C   UNL     1     179.420 -17.956  26.337  1.00  0.00     0.031 C 
ATOM     22  C   UNL     1     181.223 -20.232  26.396  1.00  0.00    -0.008 C 
ATOM     23  C   UNL     1     179.168 -19.136  25.453  1.00  0.00    -0.027 C 
ATOM     24  C   UNL     1     180.025 -20.176  25.435  1.00  0.00    -0.065 C 
ATOM     25  C   UNL     1     182.290 -21.181  25.765  1.00  0.00     0.014 C 
ATOM     26  C   UNL     1     180.737 -20.863  27.732  1.00  0.00     0.016 C 
ATOM     27  C   UNL     1     179.851 -21.243  24.371  1.00  0.00     0.063 C 
ATOM     28  C   UNL     1     181.761 -22.596  25.429  1.00  0.00     0.033 C 
ATOM     29  C   UNL     1     180.316 -22.617  24.878  1.00  0.00     0.118 C 
BRANCH  29  30
ATOM     30  O   UNL     1     180.230 -23.544  23.824  1.00  0.00    -0.393 OA
ATOM     31  H   UNL     1     180.028 -23.032  22.997  1.00  0.00     0.210 HD
ENDBRANCH  29  30
ENDBRANCH   9  11
ENDBRANCH   1   9
TORSDOF 7
ENDMDL
MODEL 7
REMARK VINA RESULT:    -7.462      8.921     12.431
REMARK INTER + INTRA:         -11.533
REMARK INTER:                  -9.242
REMARK INTRA:                  -2.291
REMARK UNBOUND:                -1.235
REMARK SMILES CC[C@@H](CC[C@@H](C)[C@@H]1CC[C@H]2[C@@H]3CC=C4C[C@@H](O)CC[C@@]4(C)[C@H]3CC[C@]21C)C(C)C
REMARK SMILES IDX 5 1 4 2 3 3 2 4 1 5 28 6 29 7 30 8 6 9 7 10 8 11 9 12 26 13
REMARK SMILES IDX 10 14 11 15 25 16 27 17 12 18 24 19 23 20 13 21 21 22 14 23
REMARK SMILES IDX 15 24 20 25 22 26 16 27 19 28 17 29 18 30
REMARK H PARENT 18 31
REMARK Flexibility Score: inf
ROOT
ATOM      1  C   UNL     1     175.605 -28.619  35.987  1.00  0.00     0.004 C 
ENDROOT
BRANCH   1   2
ATOM      2  C   UNL     1     176.433 -28.962  34.728  1.00  0.00     0.004 C 
BRANCH   2   3
ATOM      3  C   UNL     1     177.029 -27.700  34.045  1.00  0.00    -0.009 C 
BRANCH   3   4
ATOM      4  C   UNL     1     176.099 -27.267  32.872  1.00  0.00     0.000 C 
ATOM      5  C   UNL     1     175.216 -26.061  33.190  1.00  0.00     0.004 C 
ENDBRANCH   3   4
BRANCH   3   6
ATOM      6  C   UNL     1     178.533 -27.949  33.651  1.00  0.00    -0.014 C 
ATOM      7  C   UNL     1     179.548 -27.130  34.467  1.00  0.00     0.007 C 
ATOM      8  C   UNL     1     178.902 -29.439  33.654  1.00  0.00     0.007 C 
ENDBRANCH   3   6
ENDBRANCH   2   3
ENDBRANCH   1   2
BRANCH   1   9
ATOM      9  C   UNL     1     176.289 -29.091  37.303  1.00  0.00    -0.011 C 
ATOM     10  C   UNL     1     175.987 -30.594  37.512  1.00  0.00     0.008 C 
BRANCH   9  11
ATOM     11  C   UNL     1     177.819 -28.730  37.297  1.00  0.00    -0.002 C 
ATOM     12  C   UNL     1     178.784 -29.907  37.337  1.00  0.00     0.005 C 
ATOM     13  C   UNL     1     178.369 -27.709  38.352  1.00  0.00    -0.026 C 
ATOM     14  C   UNL     1     180.139 -29.248  37.499  1.00  0.00     0.005 C 
ATOM     15  C   UNL     1     179.898 -28.060  38.443  1.00  0.00    -0.001 C 
ATOM     16  C   UNL     1     178.119 -26.245  37.861  1.00  0.00     0.007 C 
ATOM     17  C   UNL     1     177.726 -27.886  39.749  1.00  0.00     0.012 C 
ATOM     18  C   UNL     1     180.823 -26.845  38.161  1.00  0.00     0.000 C 
ATOM     19  C   UNL     1     178.965 -25.159  38.568  1.00  0.00     0.005 C 
ATOM     20  C   UNL     1     180.364 -25.654  39.048  1.00  0.00     0.003 C 
ATOM     21  C   UNL     1     182.298 -27.178  38.414  1.00  0.00     0.031 C 
ATOM     22  C   UNL     1     181.490 -24.538  39.319  1.00  0.00    -0.008 C 
ATOM     23  C   UNL     1     183.120 -25.979  38.061  1.00  0.00    -0.027 C 
ATOM     24  C   UNL     1     182.728 -24.744  38.432  1.00  0.00    -0.065 C 
ATOM     25  C   UNL     1     180.980 -23.082  39.087  1.00  0.00     0.014 C 
ATOM     26  C   UNL     1     181.936 -24.669  40.803  1.00  0.00     0.016 C 
ATOM     27  C   UNL     1     183.469 -23.547  37.867  1.00  0.00     0.063 C 
ATOM     28  C   UNL     1     182.047 -21.989  39.333  1.00  0.00     0.033 C 
ATOM     29  C   UNL     1     183.468 -22.373  38.858  1.00  0.00     0.118 C 
BRANCH  29  30
ATOM     30  O   UNL     1     184.073 -21.260  38.246  1.00  0.00    -0.393 OA
ATOM     31  H   UNL     1     184.659 -21.606  37.522  1.00  0.00     0.210 HD
ENDBRANCH  29  30
ENDBRANCH   9  11
ENDBRANCH   1   9
TORSDOF 7
ENDMDL
MODEL 8
REMARK VINA RESULT:    -7.400      5.524      9.668
REMARK INTER + INTRA:         -11.447
REMARK INTER:                  -9.547
REMARK INTRA:                  -1.899
REMARK UNBOUND:                -1.235
REMARK SMILES CC[C@@H](CC[C@@H](C)[C@@H]1CC[C@H]2[C@@H]3CC=C4C[C@@H](O)CC[C@@]4(C)[C@H]3CC[C@]21C)C(C)C
REMARK SMILES IDX 5 1 4 2 3 3 2 4 1 5 28 6 29 7 30 8 6 9 7 10 8 11 9 12 26 13
REMARK SMILES IDX 10 14 11 15 25 16 27 17 12 18 24 19 23 20 13 21 21 22 14 23
REMARK SMILES IDX 15 24 20 25 22 26 16 27 19 28 17 29 18 30
REMARK H PARENT 18 31
REMARK Flexibility Score: inf
ROOT
ATOM      1  C   UNL     1     177.284 -27.017  38.457  1.00  0.00     0.004 C 
ENDROOT
BRANCH   1   2
ATOM      2  C   UNL     1     177.313 -28.557  38.333  1.00  0.00     0.004 C 
BRANCH   2   3
ATOM      3  C   UNL     1     177.244 -29.038  36.858  1.00  0.00    -0.009 C 
BRANCH   3   4
ATOM      4  C   UNL     1     176.188 -30.178  36.741  1.00  0.00     0.000 C 
ATOM      5  C   UNL     1     175.702 -30.717  38.086  1.00  0.00     0.004 C 
ENDBRANCH   3   4
BRANCH   3   6
ATOM      6  C   UNL     1     178.683 -29.401  36.331  1.00  0.00    -0.014 C 
ATOM      7  C   UNL     1     179.610 -30.021  37.389  1.00  0.00     0.007 C 
ATOM      8  C   UNL     1     178.643 -30.265  35.062  1.00  0.00     0.007 C 
ENDBRANCH   3   6
ENDBRANCH   2   3
ENDBRANCH   1   2
BRANCH   1   9
ATOM      9  C   UNL     1     178.434 -26.463  39.346  1.00  0.00    -0.011 C 
ATOM     10  C   UNL     1     178.326 -27.094  40.754  1.00  0.00     0.008 C 
BRANCH   9  11
ATOM     11  C   UNL     1     179.828 -26.670  38.647  1.00  0.00    -0.002 C 
ATOM     12  C   UNL     1     181.021 -26.849  39.575  1.00  0.00     0.005 C 
ATOM     13  C   UNL     1     180.300 -25.642  37.561  1.00  0.00    -0.026 C 
ATOM     14  C   UNL     1     182.207 -26.845  38.631  1.00  0.00     0.005 C 
ATOM     15  C   UNL     1     181.863 -25.800  37.559  1.00  0.00    -0.001 C 
ATOM     16  C   UNL     1     179.661 -25.993  36.178  1.00  0.00     0.007 C 
ATOM     17  C   UNL     1     179.940 -24.181  37.924  1.00  0.00     0.012 C 
ATOM     18  C   UNL     1     182.443 -26.134  36.158  1.00  0.00     0.000 C 
ATOM     19  C   UNL     1     180.348 -25.347  34.951  1.00  0.00     0.005 C 
ATOM     20  C   UNL     1     181.880 -25.111  35.131  1.00  0.00     0.003 C 
ATOM     21  C   UNL     1     183.976 -26.121  36.155  1.00  0.00     0.031 C 
ATOM     22  C   UNL     1     182.762 -24.936  33.797  1.00  0.00    -0.008 C 
ATOM     23  C   UNL     1     184.448 -26.512  34.791  1.00  0.00    -0.027 C 
ATOM     24  C   UNL     1     183.859 -26.007  33.689  1.00  0.00    -0.065 C 
ATOM     25  C   UNL     1     181.915 -24.994  32.488  1.00  0.00     0.014 C 
ATOM     26  C   UNL     1     183.454 -23.545  33.870  1.00  0.00     0.016 C 
ATOM     27  C   UNL     1     184.220 -26.594  32.337  1.00  0.00     0.063 C 
ATOM     28  C   UNL     1     182.741 -24.835  31.190  1.00  0.00     0.033 C 
ATOM     29  C   UNL     1     184.118 -25.538  31.226  1.00  0.00     0.118 C 
BRANCH  29  30
ATOM     30  O   UNL     1     184.361 -26.157  29.987  1.00  0.00    -0.393 OA
ATOM     31  H   UNL     1     184.799 -25.484  29.403  1.00  0.00     0.210 HD
ENDBRANCH  29  30
ENDBRANCH   9  11
ENDBRANCH   1   9
TORSDOF 7
ENDMDL
MODEL 9
REMARK VINA RESULT:    -7.319      3.742      9.902
REMARK INTER + INTRA:         -11.336
REMARK INTER:                 -10.120
REMARK INTRA:                  -1.216
REMARK UNBOUND:                -1.235
REMARK SMILES CC[C@@H](CC[C@@H](C)[C@@H]1CC[C@H]2[C@@H]3CC=C4C[C@@H](O)CC[C@@]4(C)[C@H]3CC[C@]21C)C(C)C
REMARK SMILES IDX 5 1 4 2 3 3 2 4 1 5 28 6 29 7 30 8 6 9 7 10 8 11 9 12 26 13
REMARK SMILES IDX 10 14 11 15 25 16 27 17 12 18 24 19 23 20 13 21 21 22 14 23
REMARK SMILES IDX 15 24 20 25 22 26 16 27 19 28 17 29 18 30
REMARK H PARENT 18 31
REMARK Flexibility Score: inf
ROOT
ATOM      1  C   UNL     1     180.831 -22.181  28.939  1.00  0.00     0.004 C 
ENDROOT
BRANCH   1   2
ATOM      2  C   UNL     1     180.843 -20.857  28.142  1.00  0.00     0.004 C 
BRANCH   2   3
ATOM      3  C   UNL     1     179.860 -20.876  26.940  1.00  0.00    -0.009 C 
BRANCH   3   4
ATOM      4  C   UNL     1     179.804 -22.316  26.349  1.00  0.00     0.000 C 
ATOM      5  C   UNL     1     179.101 -22.407  24.994  1.00  0.00     0.004 C 
ENDBRANCH   3   4
BRANCH   3   6
ATOM      6  C   UNL     1     180.230 -19.743  25.910  1.00  0.00    -0.014 C 
ATOM      7  C   UNL     1     179.618 -18.368  26.230  1.00  0.00     0.007 C 
ATOM      8  C   UNL     1     181.744 -19.629  25.682  1.00  0.00     0.007 C 
ENDBRANCH   3   6
ENDBRANCH   2   3
ENDBRANCH   1   2
BRANCH   1   9
ATOM      9  C   UNL     1     182.248 -22.805  29.091  1.00  0.00    -0.011 C 
ATOM     10  C   UNL     1     183.135 -22.323  27.918  1.00  0.00     0.008 C 
BRANCH   9  11
ATOM     11  C   UNL     1     182.839 -22.506  30.518  1.00  0.00    -0.002 C 
ATOM     12  C   UNL     1     184.024 -21.553  30.564  1.00  0.00     0.005 C 
ATOM     13  C   UNL     1     183.235 -23.705  31.448  1.00  0.00    -0.026 C 
ATOM     14  C   UNL     1     184.466 -21.607  32.013  1.00  0.00     0.005 C 
ATOM     15  C   UNL     1     184.286 -23.074  32.432  1.00  0.00    -0.001 C 
ATOM     16  C   UNL     1     181.970 -24.248  32.190  1.00  0.00     0.007 C 
ATOM     17  C   UNL     1     183.902 -24.868  30.675  1.00  0.00     0.012 C 
ATOM     18  C   UNL     1     183.906 -23.251  33.928  1.00  0.00     0.000 C 
ATOM     19  C   UNL     1     182.261 -25.124  33.432  1.00  0.00     0.005 C 
ATOM     20  C   UNL     1     183.575 -24.748  34.183  1.00  0.00     0.003 C 
ATOM     21  C   UNL     1     185.023 -22.772  34.862  1.00  0.00     0.031 C 
ATOM     22  C   UNL     1     183.712 -25.220  35.715  1.00  0.00    -0.008 C 
ATOM     23  C   UNL     1     184.553 -22.919  36.274  1.00  0.00    -0.027 C 
ATOM     24  C   UNL     1     183.899 -24.029  36.668  1.00  0.00    -0.065 C 
ATOM     25  C   UNL     1     182.483 -26.040  36.217  1.00  0.00     0.014 C 
ATOM     26  C   UNL     1     184.976 -26.121  35.819  1.00  0.00     0.016 C 
ATOM     27  C   UNL     1     183.250 -24.042  38.040  1.00  0.00     0.063 C 
ATOM     28  C   UNL     1     182.586 -26.500  37.691  1.00  0.00     0.033 C 
ATOM     29  C   UNL     1     183.233 -25.459  38.634  1.00  0.00     0.118 C 
BRANCH  29  30
ATOM     30  O   UNL     1     182.532 -25.432  39.853  1.00  0.00    -0.393 OA
ATOM     31  H   UNL     1     183.139 -25.797  40.550  1.00  0.00     0.210 HD
ENDBRANCH  29  30
ENDBRANCH   9  11
ENDBRANCH   1   9
TORSDOF 7
ENDMDL
