MODEL 1
REMARK VINA RESULT:    -3.860      0.000      0.000
REMARK INTER + INTRA:          -7.453
REMARK INTER:                  -5.891
REMARK INTRA:                  -1.562
REMARK UNBOUND:                -1.562
REMARK SMILES CCCCCCCCCC=CC(=O)[O-]
REMARK SMILES IDX 7 1 8 2 9 3 10 4 11 5 12 6 13 7 14 8 6 9 5 10 4 11 3 12 2 13
REMARK SMILES IDX 1 14
REMARK H PARENT
REMARK Flexibility Score: inf
ROOT
ATOM      1  C   UNL     1      35.671   9.225   7.413  1.00  0.00     0.000 C 
ENDROOT
BRANCH   1   2
ATOM      2  C   UNL     1      35.130  10.147   6.307  1.00  0.00     0.004 C 
BRANCH   2   3
ATOM      3  C   UNL     1      36.243  10.644   5.372  1.00  0.00     0.027 C 
BRANCH   3   4
ATOM      4  C   UNL     1      35.768  10.822   3.958  1.00  0.00    -0.025 C 
ATOM      5  C   UNL     1      34.504  10.558   3.606  1.00  0.00     0.020 C 
BRANCH   5   6
ATOM      6  C   UNL     1      34.017  10.732   2.229  1.00  0.00     0.064 C 
ATOM      7  O   UNL     1      33.707  11.871   1.786  1.00  0.00    -0.545 OA
ATOM      8  O   UNL     1      33.896   9.624   1.402  1.00  0.00    -0.545 OA
ENDBRANCH   5   6
ENDBRANCH   3   4
ENDBRANCH   2   3
ENDBRANCH   1   2
BRANCH   1   9
ATOM      9  C   UNL     1      35.288   7.752   7.197  1.00  0.00     0.000 C 
BRANCH   9  10
ATOM     10  C   UNL     1      34.219   7.571   6.110  1.00  0.00     0.000 C 
BRANCH  10  11
ATOM     11  C   UNL     1      34.662   6.525   5.075  1.00  0.00    -0.000 C 
BRANCH  11  12
ATOM     12  C   UNL     1      35.560   7.120   3.978  1.00  0.00    -0.000 C 
BRANCH  12  13
ATOM     13  C   UNL     1      36.967   6.504   3.968  1.00  0.00    -0.003 C 
ATOM     14  C   UNL     1      37.990   7.466   4.565  1.00  0.00     0.004 C 
ENDBRANCH  12  13
ENDBRANCH  11  12
ENDBRANCH  10  11
ENDBRANCH   9  10
ENDBRANCH   1   9
TORSDOF 9
ENDMDL
MODEL 2
REMARK VINA RESULT:    -3.757      9.469     11.120
REMARK INTER + INTRA:          -7.296
REMARK INTER:                  -6.992
REMARK INTRA:                  -0.304
REMARK UNBOUND:                -1.562
REMARK SMILES CCCCCCCCCC=CC(=O)[O-]
REMARK SMILES IDX 7 1 8 2 9 3 10 4 11 5 12 6 13 7 14 8 6 9 5 10 4 11 3 12 2 13
REMARK SMILES IDX 1 14
REMARK H PARENT
REMARK Flexibility Score: inf
ROOT
ATOM      1  C   UNL     1      40.231   9.041  -4.262  1.00  0.00     0.000 C 
ENDROOT
BRANCH   1   2
ATOM      2  C   UNL     1      39.115   8.476  -5.157  1.00  0.00     0.004 C 
BRANCH   2   3
ATOM      3  C   UNL     1      39.650   7.995  -6.515  1.00  0.00     0.027 C 
BRANCH   3   4
ATOM      4  C   UNL     1      38.940   6.766  -7.009  1.00  0.00    -0.025 C 
ATOM      5  C   UNL     1      39.435   6.026  -8.007  1.00  0.00     0.020 C 
BRANCH   5   6
ATOM      6  C   UNL     1      38.760   4.815  -8.500  1.00  0.00     0.064 C 
ATOM      7  O   UNL     1      38.446   3.879  -7.717  1.00  0.00    -0.545 OA
ATOM      8  O   UNL     1      38.462   4.702  -9.851  1.00  0.00    -0.545 OA
ENDBRANCH   5   6
ENDBRANCH   3   4
ENDBRANCH   2   3
ENDBRANCH   1   2
BRANCH   1   9
ATOM      9  C   UNL     1      39.985   8.771  -2.768  1.00  0.00     0.000 C 
BRANCH   9  10
ATOM     10  C   UNL     1      41.277   8.800  -1.939  1.00  0.00     0.000 C 
BRANCH  10  11
ATOM     11  C   UNL     1      41.099   9.655  -0.676  1.00  0.00    -0.000 C 
BRANCH  11  12
ATOM     12  C   UNL     1      41.510   8.913   0.606  1.00  0.00    -0.000 C 
BRANCH  12  13
ATOM     13  C   UNL     1      41.116   7.429   0.582  1.00  0.00    -0.003 C 
ATOM     14  C   UNL     1      40.659   6.960   1.961  1.00  0.00     0.004 C 
ENDBRANCH  12  13
ENDBRANCH  11  12
ENDBRANCH  10  11
ENDBRANCH   9  10
ENDBRANCH   1   9
TORSDOF 9
ENDMDL
MODEL 3
REMARK VINA RESULT:    -3.730     13.836     16.092
REMARK INTER + INTRA:          -7.255
REMARK INTER:                  -5.764
REMARK INTRA:                  -1.491
REMARK UNBOUND:                -1.562
REMARK SMILES CCCCCCCCCC=CC(=O)[O-]
REMARK SMILES IDX 7 1 8 2 9 3 10 4 11 5 12 6 13 7 14 8 6 9 5 10 4 11 3 12 2 13
REMARK SMILES IDX 1 14
REMARK H PARENT
REMARK Flexibility Score: inf
ROOT
ATOM      1  C   UNL     1      42.099   4.540 -10.007  1.00  0.00     0.000 C 
ENDROOT
BRANCH   1   2
ATOM      2  C   UNL     1      42.848   4.228  -8.700  1.00  0.00     0.004 C 
BRANCH   2   3
ATOM      3  C   UNL     1      43.587   2.883  -8.764  1.00  0.00     0.027 C 
BRANCH   3   4
ATOM      4  C   UNL     1      43.503   2.121  -7.471  1.00  0.00    -0.025 C 
ATOM      5  C   UNL     1      42.390   2.122  -6.729  1.00  0.00     0.020 C 
BRANCH   5   6
ATOM      6  C   UNL     1      42.284   1.376  -5.465  1.00  0.00     0.064 C 
ATOM      7  O   UNL     1      43.095   0.453  -5.183  1.00  0.00    -0.545 OA
ATOM      8  O   UNL     1      41.275   1.695  -4.566  1.00  0.00    -0.545 OA
ENDBRANCH   5   6
ENDBRANCH   3   4
ENDBRANCH   2   3
ENDBRANCH   1   2
BRANCH   1   9
ATOM      9  C   UNL     1      41.634   3.272 -10.740  1.00  0.00     0.000 C 
BRANCH   9  10
ATOM     10  C   UNL     1      40.128   3.015 -10.585  1.00  0.00     0.000 C 
BRANCH  10  11
ATOM     11  C   UNL     1      39.866   1.872  -9.591  1.00  0.00    -0.000 C 
BRANCH  11  12
ATOM     12  C   UNL     1      39.034   2.320  -8.378  1.00  0.00    -0.000 C 
BRANCH  12  13
ATOM     13  C   UNL     1      38.593   3.788  -8.473  1.00  0.00    -0.003 C 
ATOM     14  C   UNL     1      39.157   4.606  -7.314  1.00  0.00     0.004 C 
ENDBRANCH  12  13
ENDBRANCH  11  12
ENDBRANCH  10  11
ENDBRANCH   9  10
ENDBRANCH   1   9
TORSDOF 9
ENDMDL
MODEL 4
REMARK VINA RESULT:    -3.707      3.026      5.357
REMARK INTER + INTRA:          -7.220
REMARK INTER:                  -6.112
REMARK INTRA:                  -1.108
REMARK UNBOUND:                -1.562
REMARK SMILES CCCCCCCCCC=CC(=O)[O-]
REMARK SMILES IDX 7 1 8 2 9 3 10 4 11 5 12 6 13 7 14 8 6 9 5 10 4 11 3 12 2 13
REMARK SMILES IDX 1 14
REMARK H PARENT
REMARK Flexibility Score: inf
ROOT
ATOM      1  C   UNL     1      34.558   8.154   4.779  1.00  0.00     0.000 C 
ENDROOT
BRANCH   1   2
ATOM      2  C   UNL     1      35.433   7.677   3.607  1.00  0.00     0.004 C 
BRANCH   2   3
ATOM      3  C   UNL     1      36.381   6.540   4.019  1.00  0.00     0.027 C 
BRANCH   3   4
ATOM      4  C   UNL     1      37.828   6.906   3.838  1.00  0.00    -0.025 C 
ATOM      5  C   UNL     1      38.446   7.751   4.671  1.00  0.00     0.020 C 
BRANCH   5   6
ATOM      6  C   UNL     1      39.862   8.116   4.516  1.00  0.00     0.064 C 
ATOM      7  O   UNL     1      40.598   8.312   5.519  1.00  0.00    -0.545 OA
ATOM      8  O   UNL     1      40.398   8.245   3.242  1.00  0.00    -0.545 OA
ENDBRANCH   5   6
ENDBRANCH   3   4
ENDBRANCH   2   3
ENDBRANCH   1   2
BRANCH   1   9
ATOM      9  C   UNL     1      35.071   9.460   5.407  1.00  0.00     0.000 C 
BRANCH   9  10
ATOM     10  C   UNL     1      35.697  10.409   4.375  1.00  0.00     0.000 C 
BRANCH  10  11
ATOM     11  C   UNL     1      34.617  11.250   3.677  1.00  0.00    -0.000 C 
BRANCH  11  12
ATOM     12  C   UNL     1      34.588  11.033   2.155  1.00  0.00    -0.000 C 
BRANCH  12  13
ATOM     13  C   UNL     1      33.226  10.529   1.656  1.00  0.00    -0.003 C 
ATOM     14  C   UNL     1      32.122  10.843   2.662  1.00  0.00     0.004 C 
ENDBRANCH  12  13
ENDBRANCH  11  12
ENDBRANCH  10  11
ENDBRANCH   9  10
ENDBRANCH   1   9
TORSDOF 9
ENDMDL
MODEL 5
REMARK VINA RESULT:    -3.689     13.400     14.543
REMARK INTER + INTRA:          -7.192
REMARK INTER:                  -6.036
REMARK INTRA:                  -1.157
REMARK UNBOUND:                -1.562
REMARK SMILES CCCCCCCCCC=CC(=O)[O-]
REMARK SMILES IDX 7 1 8 2 9 3 10 4 11 5 12 6 13 7 14 8 6 9 5 10 4 11 3 12 2 13
REMARK SMILES IDX 1 14
REMARK H PARENT
REMARK Flexibility Score: inf
ROOT
ATOM      1  C   UNL     1      40.130   2.371  -8.129  1.00  0.00     0.000 C 
ENDROOT
BRANCH   1   2
ATOM      2  C   UNL     1      39.647   3.383  -7.076  1.00  0.00     0.004 C 
BRANCH   2   3
ATOM      3  C   UNL     1      38.630   4.378  -7.656  1.00  0.00     0.027 C 
BRANCH   3   4
ATOM      4  C   UNL     1      39.092   5.804  -7.538  1.00  0.00    -0.025 C 
ATOM      5  C   UNL     1      39.901   6.355  -8.451  1.00  0.00     0.020 C 
BRANCH   5   6
ATOM      6  C   UNL     1      40.358   7.750  -8.359  1.00  0.00     0.064 C 
ATOM      7  O   UNL     1      39.813   8.661  -9.038  1.00  0.00    -0.545 OA
ATOM      8  O   UNL     1      41.408   8.070  -7.508  1.00  0.00    -0.545 OA
ENDBRANCH   5   6
ENDBRANCH   3   4
ENDBRANCH   2   3
ENDBRANCH   1   2
BRANCH   1   9
ATOM      9  C   UNL     1      41.386   2.847  -8.876  1.00  0.00     0.000 C 
BRANCH   9  10
ATOM     10  C   UNL     1      42.394   3.550  -7.955  1.00  0.00     0.000 C 
BRANCH  10  11
ATOM     11  C   UNL     1      43.394   2.542  -7.367  1.00  0.00    -0.000 C 
BRANCH  11  12
ATOM     12  C   UNL     1      43.298   2.435  -5.836  1.00  0.00    -0.000 C 
BRANCH  12  13
ATOM     13  C   UNL     1      42.511   1.199  -5.378  1.00  0.00    -0.003 C 
ATOM     14  C   UNL     1      42.910  -0.035  -6.184  1.00  0.00     0.004 C 
ENDBRANCH  12  13
ENDBRANCH  11  12
ENDBRANCH  10  11
ENDBRANCH   9  10
ENDBRANCH   1   9
TORSDOF 9
ENDMDL
MODEL 6
REMARK VINA RESULT:    -3.684     13.791     16.015
REMARK INTER + INTRA:          -7.184
REMARK INTER:                  -5.835
REMARK INTRA:                  -1.349
REMARK UNBOUND:                -1.562
REMARK SMILES CCCCCCCCCC=CC(=O)[O-]
REMARK SMILES IDX 7 1 8 2 9 3 10 4 11 5 12 6 13 7 14 8 6 9 5 10 4 11 3 12 2 13
REMARK SMILES IDX 1 14
REMARK H PARENT
REMARK Flexibility Score: inf
ROOT
ATOM      1  C   UNL     1      41.169   2.754  -9.994  1.00  0.00     0.000 C 
ENDROOT
BRANCH   1   2
ATOM      2  C   UNL     1      42.518   3.494  -9.993  1.00  0.00     0.004 C 
BRANCH   2   3
ATOM      3  C   UNL     1      42.923   3.956  -8.585  1.00  0.00     0.027 C 
BRANCH   3   4
ATOM      4  C   UNL     1      42.324   3.098  -7.506  1.00  0.00    -0.025 C 
ATOM      5  C   UNL     1      43.084   2.312  -6.734  1.00  0.00     0.020 C 
BRANCH   5   6
ATOM      6  C   UNL     1      42.519   1.471  -5.667  1.00  0.00     0.064 C 
ATOM      7  O   UNL     1      41.539   1.863  -4.979  1.00  0.00    -0.545 OA
ATOM      8  O   UNL     1      43.073   0.224  -5.415  1.00  0.00    -0.545 OA
ENDBRANCH   5   6
ENDBRANCH   3   4
ENDBRANCH   2   3
ENDBRANCH   1   2
BRANCH   1   9
ATOM      9  C   UNL     1      40.144   3.395 -10.943  1.00  0.00     0.000 C 
BRANCH   9  10
ATOM     10  C   UNL     1      40.275   4.923 -11.016  1.00  0.00     0.000 C 
BRANCH  10  11
ATOM     11  C   UNL     1      39.243   5.605 -10.104  1.00  0.00    -0.000 C 
BRANCH  11  12
ATOM     12  C   UNL     1      39.860   6.127  -8.796  1.00  0.00    -0.000 C 
BRANCH  12  13
ATOM     13  C   UNL     1      39.027   5.757  -7.561  1.00  0.00    -0.003 C 
ATOM     14  C   UNL     1      38.779   4.252  -7.496  1.00  0.00     0.004 C 
ENDBRANCH  12  13
ENDBRANCH  11  12
ENDBRANCH  10  11
ENDBRANCH   9  10
ENDBRANCH   1   9
TORSDOF 9
ENDMDL
MODEL 7
REMARK VINA RESULT:    -3.661      3.836      5.841
REMARK INTER + INTRA:          -7.149
REMARK INTER:                  -6.333
REMARK INTRA:                  -0.816
REMARK UNBOUND:                -1.562
REMARK SMILES CCCCCCCCCC=CC(=O)[O-]
REMARK SMILES IDX 7 1 8 2 9 3 10 4 11 5 12 6 13 7 14 8 6 9 5 10 4 11 3 12 2 13
REMARK SMILES IDX 1 14
REMARK H PARENT
REMARK Flexibility Score: inf
ROOT
ATOM      1  C   UNL     1      36.020   9.194   4.999  1.00  0.00     0.000 C 
ENDROOT
BRANCH   1   2
ATOM      2  C   UNL     1      34.961   8.989   6.096  1.00  0.00     0.004 C 
BRANCH   2   3
ATOM      3  C   UNL     1      34.159   7.695   5.890  1.00  0.00     0.027 C 
BRANCH   3   4
ATOM      4  C   UNL     1      34.725   6.539   6.667  1.00  0.00    -0.025 C 
ATOM      5  C   UNL     1      34.804   5.313   6.139  1.00  0.00     0.020 C 
BRANCH   5   6
ATOM      6  C   UNL     1      35.362   4.170   6.879  1.00  0.00     0.064 C 
ATOM      7  O   UNL     1      35.110   2.985   6.536  1.00  0.00    -0.545 OA
ATOM      8  O   UNL     1      36.182   4.402   7.976  1.00  0.00    -0.545 OA
ENDBRANCH   5   6
ENDBRANCH   3   4
ENDBRANCH   2   3
ENDBRANCH   1   2
BRANCH   1   9
ATOM      9  C   UNL     1      36.016  10.622   4.431  1.00  0.00     0.000 C 
BRANCH   9  10
ATOM     10  C   UNL     1      34.894  11.491   5.018  1.00  0.00     0.000 C 
BRANCH  10  11
ATOM     11  C   UNL     1      33.859  11.851   3.941  1.00  0.00    -0.000 C 
BRANCH  11  12
ATOM     12  C   UNL     1      34.318  11.465   2.525  1.00  0.00    -0.000 C 
BRANCH  12  13
ATOM     13  C   UNL     1      33.305  10.568   1.799  1.00  0.00    -0.003 C 
ATOM     14  C   UNL     1      33.940   9.242   1.390  1.00  0.00     0.004 C 
ENDBRANCH  12  13
ENDBRANCH  11  12
ENDBRANCH  10  11
ENDBRANCH   9  10
ENDBRANCH   1   9
TORSDOF 9
ENDMDL
MODEL 8
REMARK VINA RESULT:    -3.654      1.087      1.939
REMARK INTER + INTRA:          -7.139
REMARK INTER:                  -5.768
REMARK INTRA:                  -1.371
REMARK UNBOUND:                -1.562
REMARK SMILES CCCCCCCCCC=CC(=O)[O-]
REMARK SMILES IDX 7 1 8 2 9 3 10 4 11 5 12 6 13 7 14 8 6 9 5 10 4 11 3 12 2 13
REMARK SMILES IDX 1 14
REMARK H PARENT
REMARK Flexibility Score: inf
ROOT
ATOM      1  C   UNL     1      34.403   8.155   5.959  1.00  0.00     0.000 C 
ENDROOT
BRANCH   1   2
ATOM      2  C   UNL     1      35.139   9.456   6.324  1.00  0.00     0.004 C 
BRANCH   2   3
ATOM      3  C   UNL     1      35.593  10.232   5.079  1.00  0.00     0.027 C 
BRANCH   3   4
ATOM      4  C   UNL     1      34.886   9.780   3.832  1.00  0.00    -0.025 C 
ATOM      5  C   UNL     1      34.274  10.650   3.020  1.00  0.00     0.020 C 
BRANCH   5   6
ATOM      6  C   UNL     1      33.584  10.229   1.791  1.00  0.00     0.064 C 
ATOM      7  O   UNL     1      33.958   9.211   1.149  1.00  0.00    -0.545 OA
ATOM      8  O   UNL     1      32.500  10.965   1.330  1.00  0.00    -0.545 OA
ENDBRANCH   5   6
ENDBRANCH   3   4
ENDBRANCH   2   3
ENDBRANCH   1   2
BRANCH   1   9
ATOM      9  C   UNL     1      34.837   6.964   6.828  1.00  0.00     0.000 C 
BRANCH   9  10
ATOM     10  C   UNL     1      36.234   7.153   7.438  1.00  0.00     0.000 C 
BRANCH  10  11
ATOM     11  C   UNL     1      37.287   6.356   6.653  1.00  0.00    -0.000 C 
BRANCH  11  12
ATOM     12  C   UNL     1      38.303   7.260   5.935  1.00  0.00    -0.000 C 
BRANCH  12  13
ATOM     13  C   UNL     1      37.933   7.514   4.466  1.00  0.00    -0.003 C 
ATOM     14  C   UNL     1      37.053   6.393   3.920  1.00  0.00     0.004 C 
ENDBRANCH  12  13
ENDBRANCH  11  12
ENDBRANCH  10  11
ENDBRANCH   9  10
ENDBRANCH   1   9
TORSDOF 9
ENDMDL
MODEL 9
REMARK VINA RESULT:    -3.650     13.873     15.573
REMARK INTER + INTRA:          -7.134
REMARK INTER:                  -5.619
REMARK INTRA:                  -1.514
REMARK UNBOUND:                -1.562
REMARK SMILES CCCCCCCCCC=CC(=O)[O-]
REMARK SMILES IDX 7 1 8 2 9 3 10 4 11 5 12 6 13 7 14 8 6 9 5 10 4 11 3 12 2 13
REMARK SMILES IDX 1 14
REMARK H PARENT
REMARK Flexibility Score: inf
ROOT
ATOM      1  C   UNL     1      41.554   5.635  -8.660  1.00  0.00     0.000 C 
ENDROOT
BRANCH   1   2
ATOM      2  C   UNL     1      42.219   4.717  -9.700  1.00  0.00     0.004 C 
BRANCH   2   3
ATOM      3  C   UNL     1      42.022   3.230  -9.368  1.00  0.00     0.027 C 
BRANCH   3   4
ATOM      4  C   UNL     1      42.650   2.847  -8.057  1.00  0.00    -0.025 C 
ATOM      5  C   UNL     1      41.911   2.419  -7.027  1.00  0.00     0.020 C 
BRANCH   5   6
ATOM      6  C   UNL     1      42.507   2.031  -5.738  1.00  0.00     0.064 C 
ATOM      7  O   UNL     1      41.858   1.352  -4.899  1.00  0.00    -0.545 OA
ATOM      8  O   UNL     1      43.806   2.421  -5.442  1.00  0.00    -0.545 OA
ENDBRANCH   5   6
ENDBRANCH   3   4
ENDBRANCH   2   3
ENDBRANCH   1   2
BRANCH   1   9
ATOM      9  C   UNL     1      40.024   5.674  -8.796  1.00  0.00     0.000 C 
BRANCH   9  10
ATOM     10  C   UNL     1      39.303   5.090  -7.572  1.00  0.00     0.000 C 
BRANCH  10  11
ATOM     11  C   UNL     1      38.393   3.921  -7.979  1.00  0.00    -0.000 C 
BRANCH  11  12
ATOM     12  C   UNL     1      38.174   3.841  -9.499  1.00  0.00    -0.000 C 
BRANCH  12  13
ATOM     13  C   UNL     1      38.570   2.476 -10.082  1.00  0.00    -0.003 C 
ATOM     14  C   UNL     1      38.816   1.456  -8.973  1.00  0.00     0.004 C 
ENDBRANCH  12  13
ENDBRANCH  11  12
ENDBRANCH  10  11
ENDBRANCH   9  10
ENDBRANCH   1   9
TORSDOF 9
ENDMDL
