MODEL 1
REMARK VINA RESULT:    -3.536      0.000      0.000
REMARK INTER + INTRA:          -4.242
REMARK INTER:                  -4.156
REMARK INTRA:                  -0.086
REMARK UNBOUND:                -0.086
REMARK SMILES O=C([O-])CCC(=O)[O-]
REMARK SMILES IDX 4 1 2 2 1 3 3 4 5 5 6 6 7 7 8 8
REMARK H PARENT
REMARK Flexibility Score: inf
ROOT
ATOM      1  C   UNL     1      19.536  14.664  42.730  1.00  0.00     0.059 C 
ENDROOT
BRANCH   1   2
ATOM      2  C   UNL     1      20.316  13.961  43.798  1.00  0.00     0.042 C 
ATOM      3  O   UNL     1      21.524  13.664  43.608  1.00  0.00    -0.550 OA
ATOM      4  O   UNL     1      19.695  13.597  44.986  1.00  0.00    -0.550 OA
ENDBRANCH   1   2
BRANCH   1   5
ATOM      5  C   UNL     1      19.757  16.180  42.775  1.00  0.00     0.059 C 
BRANCH   5   6
ATOM      6  C   UNL     1      20.988  16.580  42.022  1.00  0.00     0.042 C 
ATOM      7  O   UNL     1      21.135  16.238  40.818  1.00  0.00    -0.550 OA
ATOM      8  O   UNL     1      21.992  17.295  42.662  1.00  0.00    -0.550 OA
ENDBRANCH   5   6
ENDBRANCH   1   5
TORSDOF 3
ENDMDL
MODEL 2
REMARK VINA RESULT:    -3.520     11.461     12.135
REMARK INTER + INTRA:          -4.223
REMARK INTER:                  -4.061
REMARK INTRA:                  -0.162
REMARK UNBOUND:                -0.086
REMARK SMILES O=C([O-])CCC(=O)[O-]
REMARK SMILES IDX 4 1 2 2 1 3 3 4 5 5 6 6 7 7 8 8
REMARK H PARENT
REMARK Flexibility Score: inf
ROOT
ATOM      1  C   UNL     1      10.127  15.033  41.978  1.00  0.00     0.059 C 
ENDROOT
BRANCH   1   2
ATOM      2  C   UNL     1       9.215  13.997  41.396  1.00  0.00     0.042 C 
ATOM      3  O   UNL     1       9.028  13.944  40.153  1.00  0.00    -0.550 OA
ATOM      4  O   UNL     1       8.541  13.116  42.233  1.00  0.00    -0.550 OA
ENDBRANCH   1   2
BRANCH   1   5
ATOM      5  C   UNL     1       9.620  16.452  41.698  1.00  0.00     0.059 C 
BRANCH   5   6
ATOM      6  C   UNL     1       8.310  16.714  42.375  1.00  0.00     0.042 C 
ATOM      7  O   UNL     1       8.160  16.436  43.595  1.00  0.00    -0.550 OA
ATOM      8  O   UNL     1       7.243  17.225  41.649  1.00  0.00    -0.550 OA
ENDBRANCH   5   6
ENDBRANCH   1   5
TORSDOF 3
ENDMDL
MODEL 3
REMARK VINA RESULT:    -3.514     11.434     12.335
REMARK INTER + INTRA:          -4.216
REMARK INTER:                  -4.062
REMARK INTRA:                  -0.154
REMARK UNBOUND:                -0.086
REMARK SMILES O=C([O-])CCC(=O)[O-]
REMARK SMILES IDX 4 1 2 2 1 3 3 4 5 5 6 6 7 7 8 8
REMARK H PARENT
REMARK Flexibility Score: inf
ROOT
ATOM      1  C   UNL     1       9.580  16.483  41.667  1.00  0.00     0.059 C 
ENDROOT
BRANCH   1   2
ATOM      2  C   UNL     1       8.278  16.737  42.365  1.00  0.00     0.042 C 
ATOM      3  O   UNL     1       8.158  16.485  43.592  1.00  0.00    -0.550 OA
ATOM      4  O   UNL     1       7.187  17.212  41.649  1.00  0.00    -0.550 OA
ENDBRANCH   1   2
BRANCH   1   5
ATOM      5  C   UNL     1      10.130  15.090  41.989  1.00  0.00     0.059 C 
BRANCH   5   6
ATOM      6  C   UNL     1       9.237  14.009  41.463  1.00  0.00     0.042 C 
ATOM      7  O   UNL     1       8.711  13.181  42.253  1.00  0.00    -0.550 OA
ATOM      8  O   UNL     1       9.020  13.891  40.097  1.00  0.00    -0.550 OA
ENDBRANCH   5   6
ENDBRANCH   1   5
TORSDOF 3
ENDMDL
MODEL 4
REMARK VINA RESULT:    -3.512      0.116      3.647
REMARK INTER + INTRA:          -4.214
REMARK INTER:                  -4.104
REMARK INTRA:                  -0.110
REMARK UNBOUND:                -0.086
REMARK SMILES O=C([O-])CCC(=O)[O-]
REMARK SMILES IDX 4 1 2 2 1 3 3 4 5 5 6 6 7 7 8 8
REMARK H PARENT
REMARK Flexibility Score: inf
ROOT
ATOM      1  C   UNL     1      19.856  16.156  42.869  1.00  0.00     0.059 C 
ENDROOT
BRANCH   1   2
ATOM      2  C   UNL     1      21.051  16.567  42.064  1.00  0.00     0.042 C 
ATOM      3  O   UNL     1      21.115  16.291  40.838  1.00  0.00    -0.550 OA
ATOM      4  O   UNL     1      22.112  17.219  42.680  1.00  0.00    -0.550 OA
ENDBRANCH   1   2
BRANCH   1   5
ATOM      5  C   UNL     1      19.593  14.650  42.759  1.00  0.00     0.059 C 
BRANCH   5   6
ATOM      6  C   UNL     1      20.297  13.887  43.838  1.00  0.00     0.042 C 
ATOM      7  O   UNL     1      19.710  13.635  44.924  1.00  0.00    -0.550 OA
ATOM      8  O   UNL     1      21.616  13.489  43.660  1.00  0.00    -0.550 OA
ENDBRANCH   5   6
ENDBRANCH   1   5
TORSDOF 3
ENDMDL
MODEL 5
REMARK VINA RESULT:    -3.510      0.077      3.617
REMARK INTER + INTRA:          -4.211
REMARK INTER:                  -4.110
REMARK INTRA:                  -0.101
REMARK UNBOUND:                -0.086
REMARK SMILES O=C([O-])CCC(=O)[O-]
REMARK SMILES IDX 4 1 2 2 1 3 3 4 5 5 6 6 7 7 8 8
REMARK H PARENT
REMARK Flexibility Score: inf
ROOT
ATOM      1  C   UNL     1      19.778  16.103  42.804  1.00  0.00     0.059 C 
ENDROOT
BRANCH   1   2
ATOM      2  C   UNL     1      20.985  16.552  42.039  1.00  0.00     0.042 C 
ATOM      3  O   UNL     1      21.124  16.232  40.830  1.00  0.00    -0.550 OA
ATOM      4  O   UNL     1      21.977  17.288  42.675  1.00  0.00    -0.550 OA
ENDBRANCH   1   2
BRANCH   1   5
ATOM      5  C   UNL     1      19.607  14.581  42.747  1.00  0.00     0.059 C 
BRANCH   5   6
ATOM      6  C   UNL     1      20.360  13.899  43.848  1.00  0.00     0.042 C 
ATOM      7  O   UNL     1      21.572  13.594  43.692  1.00  0.00    -0.550 OA
ATOM      8  O   UNL     1      19.712  13.565  45.029  1.00  0.00    -0.550 OA
ENDBRANCH   5   6
ENDBRANCH   1   5
TORSDOF 3
ENDMDL
MODEL 6
REMARK VINA RESULT:    -3.365      1.357      3.892
REMARK INTER + INTRA:          -4.042
REMARK INTER:                  -3.925
REMARK INTRA:                  -0.117
REMARK UNBOUND:                -0.086
REMARK SMILES O=C([O-])CCC(=O)[O-]
REMARK SMILES IDX 4 1 2 2 1 3 3 4 5 5 6 6 7 7 8 8
REMARK H PARENT
REMARK Flexibility Score: inf
ROOT
ATOM      1  C   UNL     1      19.429  14.892  42.734  1.00  0.00     0.059 C 
ENDROOT
BRANCH   1   2
ATOM      2  C   UNL     1      20.244  15.979  42.103  1.00  0.00     0.042 C 
ATOM      3  O   UNL     1      19.942  17.187  42.288  1.00  0.00    -0.550 OA
ATOM      4  O   UNL     1      21.313  15.656  41.276  1.00  0.00    -0.550 OA
ENDBRANCH   1   2
BRANCH   1   5
ATOM      5  C   UNL     1      20.190  14.207  43.874  1.00  0.00     0.059 C 
BRANCH   5   6
ATOM      6  C   UNL     1      20.430  12.757  43.583  1.00  0.00     0.042 C 
ATOM      7  O   UNL     1      20.717  12.383  42.415  1.00  0.00    -0.550 OA
ATOM      8  O   UNL     1      20.298  11.814  44.595  1.00  0.00    -0.550 OA
ENDBRANCH   5   6
ENDBRANCH   1   5
TORSDOF 3
ENDMDL
MODEL 7
REMARK VINA RESULT:    -3.351      1.284      1.787
REMARK INTER + INTRA:          -4.024
REMARK INTER:                  -3.968
REMARK INTRA:                  -0.056
REMARK UNBOUND:                -0.086
REMARK SMILES O=C([O-])CCC(=O)[O-]
REMARK SMILES IDX 4 1 2 2 1 3 3 4 5 5 6 6 7 7 8 8
REMARK H PARENT
REMARK Flexibility Score: inf
ROOT
ATOM      1  C   UNL     1      20.310  13.607  42.721  1.00  0.00     0.059 C 
ENDROOT
BRANCH   1   2
ATOM      2  C   UNL     1      20.251  12.940  44.061  1.00  0.00     0.042 C 
ATOM      3  O   UNL     1      19.782  13.553  45.055  1.00  0.00    -0.550 OA
ATOM      4  O   UNL     1      20.754  11.654  44.219  1.00  0.00    -0.550 OA
ENDBRANCH   1   2
BRANCH   1   5
ATOM      5  C   UNL     1      19.480  14.895  42.696  1.00  0.00     0.059 C 
BRANCH   5   6
ATOM      6  C   UNL     1      20.243  16.031  42.086  1.00  0.00     0.042 C 
ATOM      7  O   UNL     1      19.892  17.221  42.306  1.00  0.00    -0.550 OA
ATOM      8  O   UNL     1      21.317  15.774  41.244  1.00  0.00    -0.550 OA
ENDBRANCH   5   6
ENDBRANCH   1   5
TORSDOF 3
ENDMDL
MODEL 8
REMARK VINA RESULT:    -3.331     11.352     12.285
REMARK INTER + INTRA:          -4.001
REMARK INTER:                  -3.880
REMARK INTRA:                  -0.121
REMARK UNBOUND:                -0.086
REMARK SMILES O=C([O-])CCC(=O)[O-]
REMARK SMILES IDX 4 1 2 2 1 3 3 4 5 5 6 6 7 7 8 8
REMARK H PARENT
REMARK Flexibility Score: inf
ROOT
ATOM      1  C   UNL     1       9.901  14.834  41.789  1.00  0.00     0.059 C 
ENDROOT
BRANCH   1   2
ATOM      2  C   UNL     1       9.041  15.914  42.368  1.00  0.00     0.042 C 
ATOM      3  O   UNL     1       8.054  15.619  43.091  1.00  0.00    -0.550 OA
ATOM      4  O   UNL     1       9.305  17.246  42.075  1.00  0.00    -0.550 OA
ENDBRANCH   1   2
BRANCH   1   5
ATOM      5  C   UNL     1       9.183  14.084  40.662  1.00  0.00     0.059 C 
BRANCH   5   6
ATOM      6  C   UNL     1       8.883  12.667  41.046  1.00  0.00     0.042 C 
ATOM      7  O   UNL     1       8.511  12.393  42.218  1.00  0.00    -0.550 OA
ATOM      8  O   UNL     1       9.055  11.646  40.121  1.00  0.00    -0.550 OA
ENDBRANCH   5   6
ENDBRANCH   1   5
TORSDOF 3
ENDMDL
MODEL 9
REMARK VINA RESULT:    -3.284     11.389     12.032
REMARK INTER + INTRA:          -3.946
REMARK INTER:                  -3.822
REMARK INTRA:                  -0.123
REMARK UNBOUND:                -0.086
REMARK SMILES O=C([O-])CCC(=O)[O-]
REMARK SMILES IDX 4 1 2 2 1 3 3 4 5 5 6 6 7 7 8 8
REMARK H PARENT
REMARK Flexibility Score: inf
ROOT
ATOM      1  C   UNL     1       8.953  14.025  40.732  1.00  0.00     0.059 C 
ENDROOT
BRANCH   1   2
ATOM      2  C   UNL     1       8.761  12.601  41.157  1.00  0.00     0.042 C 
ATOM      3  O   UNL     1       8.351  12.336  42.317  1.00  0.00    -0.550 OA
ATOM      4  O   UNL     1       9.075  11.567  40.285  1.00  0.00    -0.550 OA
ENDBRANCH   1   2
BRANCH   1   5
ATOM      5  C   UNL     1       9.805  14.805  41.738  1.00  0.00     0.059 C 
BRANCH   5   6
ATOM      6  C   UNL     1       9.020  15.898  42.396  1.00  0.00     0.042 C 
ATOM      7  O   UNL     1       8.066  15.616  43.168  1.00  0.00    -0.550 OA
ATOM      8  O   UNL     1       9.317  17.227  42.123  1.00  0.00    -0.550 OA
ENDBRANCH   5   6
ENDBRANCH   1   5
TORSDOF 3
ENDMDL
