MODEL 1
REMARK VINA RESULT:    -3.172      0.000      0.000
REMARK INTER + INTRA:          -4.186
REMARK INTER:                  -3.914
REMARK INTRA:                  -0.272
REMARK UNBOUND:                -0.272
REMARK SMILES CCCCCC(=O)[O-]
REMARK SMILES IDX 4 1 5 2 6 3 7 4 8 5 3 6 2 7 1 8
REMARK H PARENT
REMARK Flexibility Score: inf
ROOT
ATOM      1  C   UNL     1       7.041 -16.208  23.174  1.00  0.00     0.006 C 
ENDROOT
BRANCH   1   2
ATOM      2  C   UNL     1       7.966 -14.999  23.365  1.00  0.00     0.053 C 
BRANCH   2   3
ATOM      3  C   UNL     1       9.069 -15.331  24.320  1.00  0.00     0.041 C 
ATOM      4  O   UNL     1      10.271 -15.190  23.975  1.00  0.00    -0.550 OA
ATOM      5  O   UNL     1       8.769 -15.844  25.576  1.00  0.00    -0.550 OA
ENDBRANCH   2   3
ENDBRANCH   1   2
BRANCH   1   6
ATOM      6  C   UNL     1       7.765 -17.414  22.555  1.00  0.00     0.000 C 
BRANCH   6   7
ATOM      7  C   UNL     1       7.582 -18.698  23.378  1.00  0.00    -0.003 C 
ATOM      8  C   UNL     1       6.504 -18.519  24.443  1.00  0.00     0.004 C 
ENDBRANCH   6   7
ENDBRANCH   1   6
TORSDOF 4
ENDMDL
MODEL 2
REMARK VINA RESULT:    -3.071      1.637      2.422
REMARK INTER + INTRA:          -4.061
REMARK INTER:                  -3.929
REMARK INTRA:                  -0.132
REMARK UNBOUND:                -0.272
REMARK SMILES CCCCCC(=O)[O-]
REMARK SMILES IDX 4 1 5 2 6 3 7 4 8 5 3 6 2 7 1 8
REMARK H PARENT
REMARK Flexibility Score: inf
ROOT
ATOM      1  C   UNL     1       7.596 -16.599  22.668  1.00  0.00     0.006 C 
ENDROOT
BRANCH   1   2
ATOM      2  C   UNL     1       7.857 -15.237  23.326  1.00  0.00     0.053 C 
BRANCH   2   3
ATOM      3  C   UNL     1       9.014 -15.328  24.271  1.00  0.00     0.041 C 
ATOM      4  O   UNL     1      10.174 -15.034  23.884  1.00  0.00    -0.550 OA
ATOM      5  O   UNL     1       8.817 -15.788  25.568  1.00  0.00    -0.550 OA
ENDBRANCH   2   3
ENDBRANCH   1   2
BRANCH   1   6
ATOM      6  C   UNL     1       8.291 -16.739  21.305  1.00  0.00     0.000 C 
BRANCH   6   7
ATOM      7  C   UNL     1       7.296 -16.939  20.153  1.00  0.00    -0.003 C 
ATOM      8  C   UNL     1       6.623 -15.623  19.773  1.00  0.00     0.004 C 
ENDBRANCH   6   7
ENDBRANCH   1   6
TORSDOF 4
ENDMDL
MODEL 3
REMARK VINA RESULT:    -3.068      1.106      1.676
REMARK INTER + INTRA:          -4.058
REMARK INTER:                  -3.963
REMARK INTRA:                  -0.094
REMARK UNBOUND:                -0.272
REMARK SMILES CCCCCC(=O)[O-]
REMARK SMILES IDX 4 1 5 2 6 3 7 4 8 5 3 6 2 7 1 8
REMARK H PARENT
REMARK Flexibility Score: inf
ROOT
ATOM      1  C   UNL     1       7.730 -17.827  23.605  1.00  0.00     0.006 C 
ENDROOT
BRANCH   1   2
ATOM      2  C   UNL     1       7.627 -16.299  23.699  1.00  0.00     0.053 C 
BRANCH   2   3
ATOM      3  C   UNL     1       8.684 -15.759  24.610  1.00  0.00     0.041 C 
ATOM      4  O   UNL     1       9.632 -15.074  24.146  1.00  0.00    -0.550 OA
ATOM      5  O   UNL     1       8.649 -16.056  25.967  1.00  0.00    -0.550 OA
ENDBRANCH   2   3
ENDBRANCH   1   2
BRANCH   1   6
ATOM      6  C   UNL     1       6.582 -18.542  24.336  1.00  0.00     0.000 C 
BRANCH   6   7
ATOM      7  C   UNL     1       6.786 -20.063  24.409  1.00  0.00    -0.003 C 
ATOM      8  C   UNL     1       6.756 -20.688  23.017  1.00  0.00     0.004 C 
ENDBRANCH   6   7
ENDBRANCH   1   6
TORSDOF 4
ENDMDL
MODEL 4
REMARK VINA RESULT:    -3.041      5.339      6.151
REMARK INTER + INTRA:          -4.024
REMARK INTER:                  -3.977
REMARK INTRA:                  -0.048
REMARK UNBOUND:                -0.272
REMARK SMILES CCCCCC(=O)[O-]
REMARK SMILES IDX 4 1 5 2 6 3 7 4 8 5 3 6 2 7 1 8
REMARK H PARENT
REMARK Flexibility Score: inf
ROOT
ATOM      1  C   UNL     1       7.476 -20.906  22.672  1.00  0.00     0.006 C 
ENDROOT
BRANCH   1   2
ATOM      2  C   UNL     1       6.900 -21.462  21.363  1.00  0.00     0.053 C 
BRANCH   2   3
ATOM      3  C   UNL     1       7.902 -22.342  20.684  1.00  0.00     0.041 C 
ATOM      4  O   UNL     1       8.269 -22.093  19.507  1.00  0.00    -0.550 OA
ATOM      5  O   UNL     1       8.393 -23.467  21.335  1.00  0.00    -0.550 OA
ENDBRANCH   2   3
ENDBRANCH   1   2
BRANCH   1   6
ATOM      6  C   UNL     1       6.386 -20.402  23.630  1.00  0.00     0.000 C 
BRANCH   6   7
ATOM      7  C   UNL     1       6.773 -20.572  25.107  1.00  0.00    -0.003 C 
ATOM      8  C   UNL     1       7.070 -19.223  25.756  1.00  0.00     0.004 C 
ENDBRANCH   6   7
ENDBRANCH   1   6
TORSDOF 4
ENDMDL
MODEL 5
REMARK VINA RESULT:    -3.027      3.657      4.816
REMARK INTER + INTRA:          -4.008
REMARK INTER:                  -3.879
REMARK INTRA:                  -0.128
REMARK UNBOUND:                -0.272
REMARK SMILES CCCCCC(=O)[O-]
REMARK SMILES IDX 4 1 5 2 6 3 7 4 8 5 3 6 2 7 1 8
REMARK H PARENT
REMARK Flexibility Score: inf
ROOT
ATOM      1  C   UNL     1       7.746 -20.799  22.871  1.00  0.00     0.006 C 
ENDROOT
BRANCH   1   2
ATOM      2  C   UNL     1       6.727 -20.744  24.016  1.00  0.00     0.053 C 
BRANCH   2   3
ATOM      3  C   UNL     1       6.776 -19.412  24.695  1.00  0.00     0.041 C 
ATOM      4  O   UNL     1       6.654 -18.354  24.024  1.00  0.00    -0.550 OA
ATOM      5  O   UNL     1       7.005 -19.336  26.063  1.00  0.00    -0.550 OA
ENDBRANCH   2   3
ENDBRANCH   1   2
BRANCH   1   6
ATOM      6  C   UNL     1       7.093 -21.104  21.513  1.00  0.00     0.000 C 
BRANCH   6   7
ATOM      7  C   UNL     1       7.509 -22.473  20.953  1.00  0.00    -0.003 C 
ATOM      8  C   UNL     1       8.761 -22.996  21.652  1.00  0.00     0.004 C 
ENDBRANCH   6   7
ENDBRANCH   1   6
TORSDOF 4
ENDMDL
MODEL 6
REMARK VINA RESULT:    -3.014      3.164      4.094
REMARK INTER + INTRA:          -3.991
REMARK INTER:                  -3.936
REMARK INTRA:                  -0.055
REMARK UNBOUND:                -0.272
REMARK SMILES CCCCCC(=O)[O-]
REMARK SMILES IDX 4 1 5 2 6 3 7 4 8 5 3 6 2 7 1 8
REMARK H PARENT
REMARK Flexibility Score: inf
ROOT
ATOM      1  C   UNL     1       7.254 -16.068  21.076  1.00  0.00     0.006 C 
ENDROOT
BRANCH   1   2
ATOM      2  C   UNL     1       6.855 -15.328  22.359  1.00  0.00     0.053 C 
BRANCH   2   3
ATOM      3  C   UNL     1       7.632 -15.851  23.526  1.00  0.00     0.041 C 
ATOM      4  O   UNL     1       7.420 -17.014  23.959  1.00  0.00    -0.550 OA
ATOM      5  O   UNL     1       8.554 -15.035  24.169  1.00  0.00    -0.550 OA
ENDBRANCH   2   3
ENDBRANCH   1   2
BRANCH   1   6
ATOM      6  C   UNL     1       6.450 -15.605  19.852  1.00  0.00     0.000 C 
BRANCH   6   7
ATOM      7  C   UNL     1       7.348 -15.164  18.687  1.00  0.00    -0.003 C 
ATOM      8  C   UNL     1       6.634 -14.154  17.794  1.00  0.00     0.004 C 
ENDBRANCH   6   7
ENDBRANCH   1   6
TORSDOF 4
ENDMDL
MODEL 7
REMARK VINA RESULT:    -2.971      1.881      2.682
REMARK INTER + INTRA:          -3.939
REMARK INTER:                  -3.786
REMARK INTRA:                  -0.152
REMARK UNBOUND:                -0.272
REMARK SMILES CCCCCC(=O)[O-]
REMARK SMILES IDX 4 1 5 2 6 3 7 4 8 5 3 6 2 7 1 8
REMARK H PARENT
REMARK Flexibility Score: inf
ROOT
ATOM      1  C   UNL     1       8.621 -15.964  24.646  1.00  0.00     0.006 C 
ENDROOT
BRANCH   1   2
ATOM      2  C   UNL     1       9.725 -15.115  24.002  1.00  0.00     0.053 C 
BRANCH   2   3
ATOM      3  C   UNL     1      10.967 -15.928  23.815  1.00  0.00     0.041 C 
ATOM      4  O   UNL     1      11.948 -15.453  23.187  1.00  0.00    -0.550 OA
ATOM      5  O   UNL     1      11.022 -17.232  24.293  1.00  0.00    -0.550 OA
ENDBRANCH   2   3
ENDBRANCH   1   2
BRANCH   1   6
ATOM      6  C   UNL     1       7.546 -16.398  23.638  1.00  0.00     0.000 C 
BRANCH   6   7
ATOM      7  C   UNL     1       7.129 -15.261  22.692  1.00  0.00    -0.003 C 
ATOM      8  C   UNL     1       7.058 -15.747  21.247  1.00  0.00     0.004 C 
ENDBRANCH   6   7
ENDBRANCH   1   6
TORSDOF 4
ENDMDL
MODEL 8
REMARK VINA RESULT:    -2.934      5.139      6.234
REMARK INTER + INTRA:          -3.893
REMARK INTER:                  -3.770
REMARK INTRA:                  -0.123
REMARK UNBOUND:                -0.272
REMARK SMILES CCCCCC(=O)[O-]
REMARK SMILES IDX 4 1 5 2 6 3 7 4 8 5 3 6 2 7 1 8
REMARK H PARENT
REMARK Flexibility Score: inf
ROOT
ATOM      1  C   UNL     1       7.555 -21.817  21.203  1.00  0.00     0.006 C 
ENDROOT
BRANCH   1   2
ATOM      2  C   UNL     1       8.444 -22.955  21.722  1.00  0.00     0.053 C 
BRANCH   2   3
ATOM      3  C   UNL     1       9.883 -22.669  21.426  1.00  0.00     0.041 C 
ATOM      4  O   UNL     1      10.209 -22.116  20.343  1.00  0.00    -0.550 OA
ATOM      5  O   UNL     1      10.869 -23.059  22.324  1.00  0.00    -0.550 OA
ENDBRANCH   2   3
ENDBRANCH   1   2
BRANCH   1   6
ATOM      6  C   UNL     1       7.542 -20.601  22.143  1.00  0.00     0.000 C 
BRANCH   6   7
ATOM      7  C   UNL     1       6.599 -20.791  23.340  1.00  0.00    -0.003 C 
ATOM      8  C   UNL     1       7.026 -19.921  24.519  1.00  0.00     0.004 C 
ENDBRANCH   6   7
ENDBRANCH   1   6
TORSDOF 4
ENDMDL
MODEL 9
REMARK VINA RESULT:    -2.931      2.239      3.285
REMARK INTER + INTRA:          -3.888
REMARK INTER:                  -3.809
REMARK INTRA:                  -0.080
REMARK UNBOUND:                -0.272
REMARK SMILES CCCCCC(=O)[O-]
REMARK SMILES IDX 4 1 5 2 6 3 7 4 8 5 3 6 2 7 1 8
REMARK H PARENT
REMARK Flexibility Score: inf
ROOT
ATOM      1  C   UNL     1       6.461 -19.050  24.264  1.00  0.00     0.006 C 
ENDROOT
BRANCH   1   2
ATOM      2  C   UNL     1       7.143 -18.574  25.553  1.00  0.00     0.053 C 
BRANCH   2   3
ATOM      3  C   UNL     1       7.957 -17.346  25.289  1.00  0.00     0.041 C 
ATOM      4  O   UNL     1       8.221 -16.548  26.225  1.00  0.00    -0.550 OA
ATOM      5  O   UNL     1       8.381 -17.057  23.998  1.00  0.00    -0.550 OA
ENDBRANCH   2   3
ENDBRANCH   1   2
BRANCH   1   6
ATOM      6  C   UNL     1       6.759 -20.524  23.947  1.00  0.00     0.000 C 
BRANCH   6   7
ATOM      7  C   UNL     1       6.972 -20.774  22.447  1.00  0.00    -0.003 C 
ATOM      8  C   UNL     1       7.871 -21.985  22.214  1.00  0.00     0.004 C 
ENDBRANCH   6   7
ENDBRANCH   1   6
TORSDOF 4
ENDMDL
