MODEL 1
REMARK VINA RESULT:    -3.862      0.000      0.000
REMARK INTER + INTRA:          -4.488
REMARK INTER:                  -4.539
REMARK INTRA:                   0.051
REMARK UNBOUND:                 0.051
REMARK SMILES O=C([O-])CCC(=O)[O-]
REMARK SMILES IDX 4 1 2 2 1 3 3 4 5 5 6 6 7 7 8 8
REMARK H PARENT
REMARK Flexibility Score: inf
ROOT
ATOM      1  C   UNL     1      -5.301  -1.543   2.107  1.00  0.00     0.059 C 
ENDROOT
BRANCH   1   2
ATOM      2  C   UNL     1      -4.039  -0.817   2.449  1.00  0.00     0.042 C 
ATOM      3  O   UNL     1      -3.794  -0.498   3.642  1.00  0.00    -0.550 OA
ATOM      4  O   UNL     1      -3.110  -0.534   1.456  1.00  0.00    -0.550 OA
ENDBRANCH   1   2
BRANCH   1   5
ATOM      5  C   UNL     1      -5.000  -2.747   1.211  1.00  0.00     0.059 C 
BRANCH   5   6
ATOM      6  C   UNL     1      -5.079  -2.358  -0.231  1.00  0.00     0.042 C 
ATOM      7  O   UNL     1      -4.622  -3.125  -1.120  1.00  0.00    -0.550 OA
ATOM      8  O   UNL     1      -5.703  -1.173  -0.598  1.00  0.00    -0.550 OA
ENDBRANCH   5   6
ENDBRANCH   1   5
TORSDOF 3
ENDMDL
MODEL 2
REMARK VINA RESULT:    -3.857      0.049      3.687
REMARK INTER + INTRA:          -4.482
REMARK INTER:                  -4.543
REMARK INTRA:                   0.061
REMARK UNBOUND:                 0.051
REMARK SMILES O=C([O-])CCC(=O)[O-]
REMARK SMILES IDX 4 1 2 2 1 3 3 4 5 5 6 6 7 7 8 8
REMARK H PARENT
REMARK Flexibility Score: inf
ROOT
ATOM      1  C   UNL     1      -5.049  -2.742   1.201  1.00  0.00     0.059 C 
ENDROOT
BRANCH   1   2
ATOM      2  C   UNL     1      -5.113  -2.363  -0.245  1.00  0.00     0.042 C 
ATOM      3  O   UNL     1      -4.627  -3.124  -1.122  1.00  0.00    -0.550 OA
ATOM      4  O   UNL     1      -5.752  -1.191  -0.628  1.00  0.00    -0.550 OA
ENDBRANCH   1   2
BRANCH   1   5
ATOM      5  C   UNL     1      -5.321  -1.523   2.086  1.00  0.00     0.059 C 
BRANCH   5   6
ATOM      6  C   UNL     1      -4.045  -0.810   2.401  1.00  0.00     0.042 C 
ATOM      7  O   UNL     1      -3.775  -0.489   3.589  1.00  0.00    -0.550 OA
ATOM      8  O   UNL     1      -3.130  -0.544   1.391  1.00  0.00    -0.550 OA
ENDBRANCH   5   6
ENDBRANCH   1   5
TORSDOF 3
ENDMDL
MODEL 3
REMARK VINA RESULT:    -3.838      2.287      3.285
REMARK INTER + INTRA:          -4.460
REMARK INTER:                  -4.358
REMARK INTRA:                  -0.102
REMARK UNBOUND:                 0.051
REMARK SMILES O=C([O-])CCC(=O)[O-]
REMARK SMILES IDX 4 1 2 2 1 3 3 4 5 5 6 6 7 7 8 8
REMARK H PARENT
REMARK Flexibility Score: inf
ROOT
ATOM      1  C   UNL     1      -2.474  -0.179   3.627  1.00  0.00     0.059 C 
ENDROOT
BRANCH   1   2
ATOM      2  C   UNL     1      -1.222   0.320   2.980  1.00  0.00     0.042 C 
ATOM      3  O   UNL     1      -1.285   1.055   1.960  1.00  0.00    -0.550 OA
ATOM      4  O   UNL     1       0.015   0.013   3.532  1.00  0.00    -0.550 OA
ENDBRANCH   1   2
BRANCH   1   5
ATOM      5  C   UNL     1      -3.693   0.157   2.765  1.00  0.00     0.059 C 
BRANCH   5   6
ATOM      6  C   UNL     1      -4.063  -1.009   1.904  1.00  0.00     0.042 C 
ATOM      7  O   UNL     1      -3.563  -1.132   0.754  1.00  0.00    -0.550 OA
ATOM      8  O   UNL     1      -4.922  -1.986   2.390  1.00  0.00    -0.550 OA
ENDBRANCH   5   6
ENDBRANCH   1   5
TORSDOF 3
ENDMDL
MODEL 4
REMARK VINA RESULT:    -3.817      2.303      4.397
REMARK INTER + INTRA:          -4.436
REMARK INTER:                  -4.331
REMARK INTRA:                  -0.105
REMARK UNBOUND:                 0.051
REMARK SMILES O=C([O-])CCC(=O)[O-]
REMARK SMILES IDX 4 1 2 2 1 3 3 4 5 5 6 6 7 7 8 8
REMARK H PARENT
REMARK Flexibility Score: inf
ROOT
ATOM      1  C   UNL     1      -3.662   0.132   2.881  1.00  0.00     0.059 C 
ENDROOT
BRANCH   1   2
ATOM      2  C   UNL     1      -4.050  -1.002   1.986  1.00  0.00     0.042 C 
ATOM      3  O   UNL     1      -4.894  -1.853   2.372  1.00  0.00    -0.550 OA
ATOM      4  O   UNL     1      -3.515  -1.093   0.708  1.00  0.00    -0.550 OA
ENDBRANCH   1   2
BRANCH   1   5
ATOM      5  C   UNL     1      -2.409  -0.225   3.684  1.00  0.00     0.059 C 
BRANCH   5   6
ATOM      6  C   UNL     1      -1.187   0.325   3.019  1.00  0.00     0.042 C 
ATOM      7  O   UNL     1      -1.296   1.090   2.024  1.00  0.00    -0.550 OA
ATOM      8  O   UNL     1       0.072   0.032   3.527  1.00  0.00    -0.550 OA
ENDBRANCH   5   6
ENDBRANCH   1   5
TORSDOF 3
ENDMDL
MODEL 5
REMARK VINA RESULT:    -3.766      1.631      4.067
REMARK INTER + INTRA:          -4.376
REMARK INTER:                  -4.334
REMARK INTRA:                  -0.042
REMARK UNBOUND:                 0.051
REMARK SMILES O=C([O-])CCC(=O)[O-]
REMARK SMILES IDX 4 1 2 2 1 3 3 4 5 5 6 6 7 7 8 8
REMARK H PARENT
REMARK Flexibility Score: inf
ROOT
ATOM      1  C   UNL     1      -4.418  -1.259   2.264  1.00  0.00     0.059 C 
ENDROOT
BRANCH   1   2
ATOM      2  C   UNL     1      -4.833  -2.061   1.071  1.00  0.00     0.042 C 
ATOM      3  O   UNL     1      -5.489  -3.125   1.220  1.00  0.00    -0.550 OA
ATOM      4  O   UNL     1      -4.535  -1.608  -0.208  1.00  0.00    -0.550 OA
ENDBRANCH   1   2
BRANCH   1   5
ATOM      5  C   UNL     1      -3.481  -0.124   1.845  1.00  0.00     0.059 C 
BRANCH   5   6
ATOM      6  C   UNL     1      -2.456   0.127   2.905  1.00  0.00     0.042 C 
ATOM      7  O   UNL     1      -2.711  -0.142   4.109  1.00  0.00    -0.550 OA
ATOM      8  O   UNL     1      -1.202   0.612   2.558  1.00  0.00    -0.550 OA
ENDBRANCH   5   6
ENDBRANCH   1   5
TORSDOF 3
ENDMDL
MODEL 6
REMARK VINA RESULT:    -3.748      1.624      1.933
REMARK INTER + INTRA:          -4.355
REMARK INTER:                  -4.313
REMARK INTRA:                  -0.042
REMARK UNBOUND:                 0.051
REMARK SMILES O=C([O-])CCC(=O)[O-]
REMARK SMILES IDX 4 1 2 2 1 3 3 4 5 5 6 6 7 7 8 8
REMARK H PARENT
REMARK Flexibility Score: inf
ROOT
ATOM      1  C   UNL     1      -3.500  -0.125   1.856  1.00  0.00     0.059 C 
ENDROOT
BRANCH   1   2
ATOM      2  C   UNL     1      -2.484   0.136   2.921  1.00  0.00     0.042 C 
ATOM      3  O   UNL     1      -2.746  -0.123   4.125  1.00  0.00    -0.550 OA
ATOM      4  O   UNL     1      -1.228   0.623   2.580  1.00  0.00    -0.550 OA
ENDBRANCH   1   2
BRANCH   1   5
ATOM      5  C   UNL     1      -4.429  -1.268   2.271  1.00  0.00     0.059 C 
BRANCH   5   6
ATOM      6  C   UNL     1      -4.851  -2.061   1.076  1.00  0.00     0.042 C 
ATOM      7  O   UNL     1      -5.510  -3.125   1.221  1.00  0.00    -0.550 OA
ATOM      8  O   UNL     1      -4.560  -1.600  -0.201  1.00  0.00    -0.550 OA
ENDBRANCH   5   6
ENDBRANCH   1   5
TORSDOF 3
ENDMDL
