MODEL 1
REMARK VINA RESULT:    -2.363      0.000      0.000
REMARK INTER + INTRA:          -4.859
REMARK INTER:                  -4.296
REMARK INTRA:                  -0.563
REMARK UNBOUND:                -0.563
REMARK SMILES CCCCCC=CCC=CCCCCCCCC(=O)[O-]
REMARK SMILES IDX 11 1 12 2 13 3 14 4 15 5 16 6 17 7 18 8 19 9 20 10 10 11
REMARK SMILES IDX 9 12 8 13 7 14 6 15 5 16 4 17 3 18 2 19 1 20
REMARK H PARENT
REMARK Flexibility Score: inf
ROOT
ATOM      1  C   UNL     1     -53.154 122.677  -9.621  1.00  0.00     0.027 C 
ENDROOT
BRANCH   1   2
ATOM      2  C   UNL     1     -53.446 121.477  -8.704  1.00  0.00     0.004 C 
BRANCH   2   3
ATOM      3  C   UNL     1     -52.816 120.155  -9.182  1.00  0.00     0.000 C 
BRANCH   3   4
ATOM      4  C   UNL     1     -53.850 119.121  -9.679  1.00  0.00     0.000 C 
BRANCH   4   5
ATOM      5  C   UNL     1     -54.829 119.726 -10.698  1.00  0.00     0.000 C 
BRANCH   5   6
ATOM      6  C   UNL     1     -56.254 119.167 -10.561  1.00  0.00     0.006 C 
BRANCH   6   7
ATOM      7  C   UNL     1     -57.315 120.091 -11.173  1.00  0.00     0.053 C 
BRANCH   7   8
ATOM      8  C   UNL     1     -56.923 121.525 -10.999  1.00  0.00     0.041 C 
ATOM      9  O   UNL     1     -56.810 122.018  -9.849  1.00  0.00    -0.550 OA
ATOM     10  O   UNL     1     -56.714 122.329 -12.111  1.00  0.00    -0.550 OA
ENDBRANCH   7   8
ENDBRANCH   6   7
ENDBRANCH   5   6
ENDBRANCH   4   5
ENDBRANCH   3   4
ENDBRANCH   2   3
ENDBRANCH   1   2
BRANCH   1  11
ATOM     11  C   UNL     1     -53.599 122.443 -11.044  1.00  0.00    -0.031 C 
ATOM     12  C   UNL     1     -52.798 122.480 -12.125  1.00  0.00    -0.027 C 
BRANCH  12  13
ATOM     13  C   UNL     1     -51.320 122.775 -12.101  1.00  0.00     0.054 C 
BRANCH  13  14
ATOM     14  C   UNL     1     -50.538 121.501 -11.917  1.00  0.00    -0.027 C 
ATOM     15  C   UNL     1     -49.567 121.340 -11.000  1.00  0.00    -0.031 C 
BRANCH  15  16
ATOM     16  C   UNL     1     -49.139 122.433 -10.047  1.00  0.00     0.027 C 
BRANCH  16  17
ATOM     17  C   UNL     1     -48.983 123.794 -10.737  1.00  0.00     0.004 C 
BRANCH  17  18
ATOM     18  C   UNL     1     -48.876 124.998  -9.779  1.00  0.00     0.000 C 
BRANCH  18  19
ATOM     19  C   UNL     1     -49.217 124.696  -8.308  1.00  0.00    -0.003 C 
ATOM     20  C   UNL     1     -50.714 124.509  -8.069  1.00  0.00     0.004 C 
ENDBRANCH  18  19
ENDBRANCH  17  18
ENDBRANCH  16  17
ENDBRANCH  15  16
ENDBRANCH  13  14
ENDBRANCH  12  13
ENDBRANCH   1  11
TORSDOF 14
ENDMDL
MODEL 2
REMARK VINA RESULT:    -1.826      1.126      2.774
REMARK INTER + INTRA:          -3.884
REMARK INTER:                  -3.436
REMARK INTRA:                  -0.448
REMARK UNBOUND:                -0.563
REMARK SMILES CCCCCC=CCC=CCCCCCCCC(=O)[O-]
REMARK SMILES IDX 11 1 12 2 13 3 14 4 15 5 16 6 17 7 18 8 19 9 20 10 10 11
REMARK SMILES IDX 9 12 8 13 7 14 6 15 5 16 4 17 3 18 2 19 1 20
REMARK H PARENT
REMARK Flexibility Score: inf
ROOT
ATOM      1  C   UNL     1     -53.785 121.296  -8.424  1.00  0.00     0.027 C 
ENDROOT
BRANCH   1   2
ATOM      2  C   UNL     1     -52.954 120.561  -9.490  1.00  0.00     0.004 C 
BRANCH   2   3
ATOM      3  C   UNL     1     -52.821 121.326 -10.820  1.00  0.00     0.000 C 
BRANCH   3   4
ATOM      4  C   UNL     1     -53.594 120.675 -11.989  1.00  0.00     0.000 C 
BRANCH   4   5
ATOM      5  C   UNL     1     -54.590 119.611 -11.501  1.00  0.00     0.000 C 
BRANCH   5   6
ATOM      6  C   UNL     1     -56.038 119.912 -11.921  1.00  0.00     0.006 C 
BRANCH   6   7
ATOM      7  C   UNL     1     -56.947 120.234 -10.726  1.00  0.00     0.053 C 
BRANCH   7   8
ATOM      8  C   UNL     1     -56.790 121.666 -10.321  1.00  0.00     0.041 C 
ATOM      9  O   UNL     1     -57.132 122.043  -9.173  1.00  0.00    -0.550 OA
ATOM     10  O   UNL     1     -56.294 122.595 -11.227  1.00  0.00    -0.550 OA
ENDBRANCH   7   8
ENDBRANCH   6   7
ENDBRANCH   5   6
ENDBRANCH   4   5
ENDBRANCH   3   4
ENDBRANCH   2   3
ENDBRANCH   1   2
BRANCH   1  11
ATOM     11  C   UNL     1     -53.911 122.774  -8.704  1.00  0.00    -0.031 C 
ATOM     12  C   UNL     1     -52.891 123.653  -8.710  1.00  0.00    -0.027 C 
BRANCH  12  13
ATOM     13  C   UNL     1     -51.450 123.315  -8.426  1.00  0.00     0.054 C 
BRANCH  13  14
ATOM     14  C   UNL     1     -50.725 124.527  -7.902  1.00  0.00    -0.027 C 
ATOM     15  C   UNL     1     -49.579 125.001  -8.422  1.00  0.00    -0.031 C 
BRANCH  15  16
ATOM     16  C   UNL     1     -48.876 124.362  -9.598  1.00  0.00     0.027 C 
BRANCH  16  17
ATOM     17  C   UNL     1     -49.851 123.713 -10.590  1.00  0.00     0.004 C 
BRANCH  17  18
ATOM     18  C   UNL     1     -49.183 122.884 -11.705  1.00  0.00     0.000 C 
BRANCH  18  19
ATOM     19  C   UNL     1     -49.191 121.360 -11.482  1.00  0.00    -0.003 C 
ATOM     20  C   UNL     1     -49.131 120.972 -10.007  1.00  0.00     0.004 C 
ENDBRANCH  18  19
ENDBRANCH  17  18
ENDBRANCH  16  17
ENDBRANCH  15  16
ENDBRANCH  13  14
ENDBRANCH  12  13
ENDBRANCH   1  11
TORSDOF 14
ENDMDL
MODEL 3
REMARK VINA RESULT:    -1.764      2.660      6.462
REMARK INTER + INTRA:          -3.772
REMARK INTER:                  -3.441
REMARK INTRA:                  -0.330
REMARK UNBOUND:                -0.563
REMARK SMILES CCCCCC=CCC=CCCCCCCCC(=O)[O-]
REMARK SMILES IDX 11 1 12 2 13 3 14 4 15 5 16 6 17 7 18 8 19 9 20 10 10 11
REMARK SMILES IDX 9 12 8 13 7 14 6 15 5 16 4 17 3 18 2 19 1 20
REMARK H PARENT
REMARK Flexibility Score: inf
ROOT
ATOM      1  C   UNL     1     -53.606 119.496 -10.396  1.00  0.00     0.027 C 
ENDROOT
BRANCH   1   2
ATOM      2  C   UNL     1     -53.051 120.091 -11.701  1.00  0.00     0.004 C 
BRANCH   2   3
ATOM      3  C   UNL     1     -51.517 120.021 -11.820  1.00  0.00     0.000 C 
BRANCH   3   4
ATOM      4  C   UNL     1     -50.815 121.378 -11.594  1.00  0.00     0.000 C 
BRANCH   4   5
ATOM      5  C   UNL     1     -49.525 121.233 -10.770  1.00  0.00     0.000 C 
BRANCH   5   6
ATOM      6  C   UNL     1     -48.875 122.585 -10.435  1.00  0.00     0.006 C 
BRANCH   6   7
ATOM      7  C   UNL     1     -49.904 123.713 -10.276  1.00  0.00     0.053 C 
BRANCH   7   8
ATOM      8  C   UNL     1     -49.862 124.266  -8.885  1.00  0.00     0.041 C 
ATOM      9  O   UNL     1     -48.875 124.940  -8.498  1.00  0.00    -0.550 OA
ATOM     10  O   UNL     1     -50.902 124.006  -8.003  1.00  0.00    -0.550 OA
ENDBRANCH   7   8
ENDBRANCH   6   7
ENDBRANCH   5   6
ENDBRANCH   4   5
ENDBRANCH   3   4
ENDBRANCH   2   3
ENDBRANCH   1   2
BRANCH   1  11
ATOM     11  C   UNL     1     -53.051 120.173  -9.167  1.00  0.00    -0.031 C 
ATOM     12  C   UNL     1     -53.426 121.382  -8.709  1.00  0.00    -0.027 C 
BRANCH  12  13
ATOM     13  C   UNL     1     -54.457 122.274  -9.353  1.00  0.00     0.054 C 
BRANCH  13  14
ATOM     14  C   UNL     1     -53.840 123.045 -10.490  1.00  0.00    -0.027 C 
ATOM     15  C   UNL     1     -54.426 123.217 -11.689  1.00  0.00    -0.031 C 
BRANCH  15  16
ATOM     16  C   UNL     1     -55.780 122.643 -12.038  1.00  0.00     0.027 C 
BRANCH  16  17
ATOM     17  C   UNL     1     -55.770 121.111 -12.123  1.00  0.00     0.004 C 
BRANCH  17  18
ATOM     18  C   UNL     1     -57.162 120.450 -12.059  1.00  0.00     0.000 C 
BRANCH  18  19
ATOM     19  C   UNL     1     -57.836 120.476 -10.674  1.00  0.00    -0.003 C 
ATOM     20  C   UNL     1     -56.850 120.723  -9.534  1.00  0.00     0.004 C 
ENDBRANCH  18  19
ENDBRANCH  17  18
ENDBRANCH  16  17
ENDBRANCH  15  16
ENDBRANCH  13  14
ENDBRANCH  12  13
ENDBRANCH   1  11
TORSDOF 14
ENDMDL
MODEL 4
REMARK VINA RESULT:    -1.682      1.553      2.912
REMARK INTER + INTRA:          -3.622
REMARK INTER:                  -2.899
REMARK INTRA:                  -0.723
REMARK UNBOUND:                -0.563
REMARK SMILES CCCCCC=CCC=CCCCCCCCC(=O)[O-]
REMARK SMILES IDX 11 1 12 2 13 3 14 4 15 5 16 6 17 7 18 8 19 9 20 10 10 11
REMARK SMILES IDX 9 12 8 13 7 14 6 15 5 16 4 17 3 18 2 19 1 20
REMARK H PARENT
REMARK Flexibility Score: inf
ROOT
ATOM      1  C   UNL     1     -55.004 121.628  -7.656  1.00  0.00     0.027 C 
ENDROOT
BRANCH   1   2
ATOM      2  C   UNL     1     -56.505 121.461  -7.947  1.00  0.00     0.004 C 
BRANCH   2   3
ATOM      3  C   UNL     1     -56.825 121.130  -9.417  1.00  0.00     0.000 C 
BRANCH   3   4
ATOM      4  C   UNL     1     -56.692 119.629  -9.758  1.00  0.00     0.000 C 
BRANCH   4   5
ATOM      5  C   UNL     1     -57.012 119.342 -11.234  1.00  0.00     0.000 C 
BRANCH   5   6
ATOM      6  C   UNL     1     -56.888 120.588 -12.125  1.00  0.00     0.006 C 
BRANCH   6   7
ATOM      7  C   UNL     1     -55.472 121.179 -12.124  1.00  0.00     0.053 C 
BRANCH   7   8
ATOM      8  C   UNL     1     -55.528 122.672 -12.038  1.00  0.00     0.041 C 
ATOM      9  O   UNL     1     -56.635 123.266 -12.004  1.00  0.00    -0.550 OA
ATOM     10  O   UNL     1     -54.354 123.413 -12.029  1.00  0.00    -0.550 OA
ENDBRANCH   7   8
ENDBRANCH   6   7
ENDBRANCH   5   6
ENDBRANCH   4   5
ENDBRANCH   3   4
ENDBRANCH   2   3
ENDBRANCH   1   2
BRANCH   1  11
ATOM     11  C   UNL     1     -54.314 122.521  -8.658  1.00  0.00    -0.031 C 
ATOM     12  C   UNL     1     -53.237 122.180  -9.391  1.00  0.00    -0.027 C 
BRANCH  12  13
ATOM     13  C   UNL     1     -52.528 120.852  -9.327  1.00  0.00     0.054 C 
BRANCH  13  14
ATOM     14  C   UNL     1     -52.881 120.016 -10.529  1.00  0.00    -0.027 C 
ATOM     15  C   UNL     1     -52.455 120.277 -11.779  1.00  0.00    -0.031 C 
BRANCH  15  16
ATOM     16  C   UNL     1     -51.573 121.455 -12.124  1.00  0.00     0.027 C 
BRANCH  16  17
ATOM     17  C   UNL     1     -50.101 121.221 -11.756  1.00  0.00     0.004 C 
BRANCH  17  18
ATOM     18  C   UNL     1     -49.183 122.443 -11.954  1.00  0.00     0.000 C 
BRANCH  18  19
ATOM     19  C   UNL     1     -49.130 123.422 -10.766  1.00  0.00    -0.003 C 
ATOM     20  C   UNL     1     -49.202 122.722  -9.411  1.00  0.00     0.004 C 
ENDBRANCH  18  19
ENDBRANCH  17  18
ENDBRANCH  16  17
ENDBRANCH  15  16
ENDBRANCH  13  14
ENDBRANCH  12  13
ENDBRANCH   1  11
TORSDOF 14
ENDMDL
MODEL 5
REMARK VINA RESULT:    -1.389      1.382      2.576
REMARK INTER + INTRA:          -3.090
REMARK INTER:                  -2.771
REMARK INTRA:                  -0.319
REMARK UNBOUND:                -0.563
REMARK SMILES CCCCCC=CCC=CCCCCCCCC(=O)[O-]
REMARK SMILES IDX 11 1 12 2 13 3 14 4 15 5 16 6 17 7 18 8 19 9 20 10 10 11
REMARK SMILES IDX 9 12 8 13 7 14 6 15 5 16 4 17 3 18 2 19 1 20
REMARK H PARENT
REMARK Flexibility Score: inf
ROOT
ATOM      1  C   UNL     1     -53.980 121.012  -8.083  1.00  0.00     0.027 C 
ENDROOT
BRANCH   1   2
ATOM      2  C   UNL     1     -55.199 121.562  -8.843  1.00  0.00     0.004 C 
BRANCH   2   3
ATOM      3  C   UNL     1     -54.943 122.905  -9.552  1.00  0.00     0.000 C 
BRANCH   3   4
ATOM      4  C   UNL     1     -53.959 122.802 -10.739  1.00  0.00     0.000 C 
BRANCH   4   5
ATOM      5  C   UNL     1     -54.677 122.906 -12.095  1.00  0.00     0.000 C 
BRANCH   5   6
ATOM      6  C   UNL     1     -56.023 122.164 -12.116  1.00  0.00     0.006 C 
BRANCH   6   7
ATOM      7  C   UNL     1     -55.858 120.638 -12.090  1.00  0.00     0.053 C 
BRANCH   7   8
ATOM      8  C   UNL     1     -56.900 120.014 -11.216  1.00  0.00     0.041 C 
ATOM      9  O   UNL     1     -57.972 120.622 -10.972  1.00  0.00    -0.550 OA
ATOM     10  O   UNL     1     -56.673 118.771 -10.640  1.00  0.00    -0.550 OA
ENDBRANCH   7   8
ENDBRANCH   6   7
ENDBRANCH   5   6
ENDBRANCH   4   5
ENDBRANCH   3   4
ENDBRANCH   2   3
ENDBRANCH   1   2
BRANCH   1  11
ATOM     11  C   UNL     1     -53.359 119.819  -8.768  1.00  0.00    -0.031 C 
ATOM     12  C   UNL     1     -52.308 119.865  -9.607  1.00  0.00    -0.027 C 
BRANCH  12  13
ATOM     13  C   UNL     1     -51.578 121.118 -10.019  1.00  0.00     0.054 C 
BRANCH  13  14
ATOM     14  C   UNL     1     -51.397 121.148 -11.513  1.00  0.00    -0.027 C 
ATOM     15  C   UNL     1     -50.203 121.250 -12.125  1.00  0.00    -0.031 C 
BRANCH  15  16
ATOM     16  C   UNL     1     -48.895 121.357 -11.375  1.00  0.00     0.027 C 
BRANCH  16  17
ATOM     17  C   UNL     1     -48.878 122.522 -10.376  1.00  0.00     0.004 C 
BRANCH  17  18
ATOM     18  C   UNL     1     -49.115 123.913 -11.000  1.00  0.00     0.000 C 
BRANCH  18  19
ATOM     19  C   UNL     1     -49.260 125.067  -9.991  1.00  0.00    -0.003 C 
ATOM     20  C   UNL     1     -49.188 124.602  -8.538  1.00  0.00     0.004 C 
ENDBRANCH  18  19
ENDBRANCH  17  18
ENDBRANCH  16  17
ENDBRANCH  15  16
ENDBRANCH  13  14
ENDBRANCH  12  13
ENDBRANCH   1  11
TORSDOF 14
ENDMDL
MODEL 6
REMARK VINA RESULT:    -1.327      1.775      3.557
REMARK INTER + INTRA:          -2.976
REMARK INTER:                  -1.770
REMARK INTRA:                  -1.206
REMARK UNBOUND:                -0.563
REMARK SMILES CCCCCC=CCC=CCCCCCCCC(=O)[O-]
REMARK SMILES IDX 11 1 12 2 13 3 14 4 15 5 16 6 17 7 18 8 19 9 20 10 10 11
REMARK SMILES IDX 9 12 8 13 7 14 6 15 5 16 4 17 3 18 2 19 1 20
REMARK H PARENT
REMARK Flexibility Score: inf
ROOT
ATOM      1  C   UNL     1     -53.873 123.091 -10.957  1.00  0.00     0.027 C 
ENDROOT
BRANCH   1   2
ATOM      2  C   UNL     1     -55.172 123.156 -11.778  1.00  0.00     0.004 C 
BRANCH   2   3
ATOM      3  C   UNL     1     -55.765 121.778 -12.125  1.00  0.00     0.000 C 
BRANCH   3   4
ATOM      4  C   UNL     1     -57.218 121.588 -11.636  1.00  0.00     0.000 C 
BRANCH   4   5
ATOM      5  C   UNL     1     -57.451 120.188 -11.044  1.00  0.00     0.000 C 
BRANCH   5   6
ATOM      6  C   UNL     1     -56.190 119.310 -11.076  1.00  0.00     0.006 C 
BRANCH   6   7
ATOM      7  C   UNL     1     -55.329 119.463  -9.814  1.00  0.00     0.053 C 
BRANCH   7   8
ATOM      8  C   UNL     1     -53.875 119.433 -10.167  1.00  0.00     0.041 C 
ATOM      9  O   UNL     1     -53.507 119.547 -11.362  1.00  0.00    -0.550 OA
ATOM     10  O   UNL     1     -52.922 119.244  -9.174  1.00  0.00    -0.550 OA
ENDBRANCH   7   8
ENDBRANCH   6   7
ENDBRANCH   5   6
ENDBRANCH   4   5
ENDBRANCH   3   4
ENDBRANCH   2   3
ENDBRANCH   1   2
BRANCH   1  11
ATOM     11  C   UNL     1     -54.111 122.675  -9.526  1.00  0.00    -0.031 C 
ATOM     12  C   UNL     1     -53.149 122.453  -8.611  1.00  0.00    -0.027 C 
BRANCH  12  13
ATOM     13  C   UNL     1     -51.668 122.570  -8.862  1.00  0.00     0.054 C 
BRANCH  13  14
ATOM     14  C   UNL     1     -51.157 123.892  -8.353  1.00  0.00    -0.027 C 
ATOM     15  C   UNL     1     -49.942 124.393  -8.645  1.00  0.00    -0.031 C 
BRANCH  15  16
ATOM     16  C   UNL     1     -48.939 123.674  -9.518  1.00  0.00     0.027 C 
BRANCH  16  17
ATOM     17  C   UNL     1     -48.876 124.244 -10.941  1.00  0.00     0.004 C 
BRANCH  17  18
ATOM     18  C   UNL     1     -49.596 123.398 -12.010  1.00  0.00     0.000 C 
BRANCH  18  19
ATOM     19  C   UNL     1     -49.216 121.906 -12.031  1.00  0.00    -0.003 C 
ATOM     20  C   UNL     1     -50.225 121.022 -11.302  1.00  0.00     0.004 C 
ENDBRANCH  18  19
ENDBRANCH  17  18
ENDBRANCH  16  17
ENDBRANCH  15  16
ENDBRANCH  13  14
ENDBRANCH  12  13
ENDBRANCH   1  11
TORSDOF 14
ENDMDL
MODEL 7
REMARK VINA RESULT:    -0.603      1.889      3.492
REMARK INTER + INTRA:          -1.660
REMARK INTER:                  -1.491
REMARK INTRA:                  -0.169
REMARK UNBOUND:                -0.563
REMARK SMILES CCCCCC=CCC=CCCCCCCCC(=O)[O-]
REMARK SMILES IDX 11 1 12 2 13 3 14 4 15 5 16 6 17 7 18 8 19 9 20 10 10 11
REMARK SMILES IDX 9 12 8 13 7 14 6 15 5 16 4 17 3 18 2 19 1 20
REMARK H PARENT
REMARK Flexibility Score: inf
ROOT
ATOM      1  C   UNL     1     -55.487 121.769  -8.092  1.00  0.00     0.027 C 
ENDROOT
BRANCH   1   2
ATOM      2  C   UNL     1     -56.217 121.667  -9.442  1.00  0.00     0.004 C 
BRANCH   2   3
ATOM      3  C   UNL     1     -57.192 120.479  -9.540  1.00  0.00     0.000 C 
BRANCH   3   4
ATOM      4  C   UNL     1     -57.822 120.308 -10.940  1.00  0.00     0.000 C 
BRANCH   4   5
ATOM      5  C   UNL     1     -56.805 120.554 -12.066  1.00  0.00     0.000 C 
BRANCH   5   6
ATOM      6  C   UNL     1     -55.652 119.537 -12.061  1.00  0.00     0.006 C 
BRANCH   6   7
ATOM      7  C   UNL     1     -54.272 120.205 -12.124  1.00  0.00     0.053 C 
BRANCH   7   8
ATOM      8  C   UNL     1     -53.408 119.727 -10.999  1.00  0.00     0.041 C 
ATOM      9  O   UNL     1     -52.163 119.885 -11.042  1.00  0.00    -0.550 OA
ATOM     10  O   UNL     1     -53.977 119.073  -9.915  1.00  0.00    -0.550 OA
ENDBRANCH   7   8
ENDBRANCH   6   7
ENDBRANCH   5   6
ENDBRANCH   4   5
ENDBRANCH   3   4
ENDBRANCH   2   3
ENDBRANCH   1   2
BRANCH   1  11
ATOM     11  C   UNL     1     -53.999 121.549  -8.219  1.00  0.00    -0.031 C 
ATOM     12  C   UNL     1     -53.151 122.342  -8.902  1.00  0.00    -0.027 C 
BRANCH  12  13
ATOM     13  C   UNL     1     -53.546 123.578  -9.668  1.00  0.00     0.054 C 
BRANCH  13  14
ATOM     14  C   UNL     1     -53.992 123.208 -11.058  1.00  0.00    -0.027 C 
ATOM     15  C   UNL     1     -53.171 123.149 -12.122  1.00  0.00    -0.031 C 
BRANCH  15  16
ATOM     16  C   UNL     1     -51.693 123.458 -12.045  1.00  0.00     0.027 C 
BRANCH  16  17
ATOM     17  C   UNL     1     -50.832 122.199 -11.878  1.00  0.00     0.004 C 
BRANCH  17  18
ATOM     18  C   UNL     1     -49.387 122.461 -11.408  1.00  0.00     0.000 C 
BRANCH  18  19
ATOM     19  C   UNL     1     -49.178 122.424  -9.882  1.00  0.00    -0.003 C 
ATOM     20  C   UNL     1     -49.420 123.776  -9.214  1.00  0.00     0.004 C 
ENDBRANCH  18  19
ENDBRANCH  17  18
ENDBRANCH  16  17
ENDBRANCH  15  16
ENDBRANCH  13  14
ENDBRANCH  12  13
ENDBRANCH   1  11
TORSDOF 14
ENDMDL
