MODEL 1
REMARK VINA RESULT:    -4.223      0.000      0.000
REMARK INTER + INTRA:          -4.656
REMARK INTER:                  -4.470
REMARK INTRA:                  -0.186
REMARK UNBOUND:                -0.186
REMARK SMILES C=C1CC=C(C(C)C)CC1
REMARK SMILES IDX 5 1 4 2 3 3 2 4 1 5 10 6 9 7 6 8 7 9 8 10
REMARK H PARENT
REMARK Flexibility Score: inf
ROOT
ATOM      1  C   UNL     1     144.133 142.321 133.982  1.00  0.00    -0.071 C 
ATOM      2  C   UNL     1     143.825 142.721 132.729  1.00  0.00    -0.023 C 
ATOM      3  C   UNL     1     143.087 144.011 132.482  1.00  0.00     0.057 C 
ATOM      4  C   UNL     1     142.072 144.274 133.574  1.00  0.00    -0.073 C 
ATOM      5  C   UNL     1     140.986 145.019 133.320  1.00  0.00     0.008 C 
ATOM      6  C   UNL     1     142.298 143.726 134.969  1.00  0.00     0.035 C 
ATOM      7  C   UNL     1     143.733 143.206 135.144  1.00  0.00     0.035 C 
ENDROOT
BRANCH   1   8
ATOM      8  C   UNL     1     144.844 141.002 134.241  1.00  0.00     0.008 C 
ATOM      9  C   UNL     1     144.492 139.959 133.173  1.00  0.00     0.012 C 
ATOM     10  C   UNL     1     144.540 140.476 135.649  1.00  0.00     0.012 C 
ENDBRANCH   1   8
TORSDOF 1
ENDMDL
MODEL 2
REMARK VINA RESULT:    -4.218      3.152      4.897
REMARK INTER + INTRA:          -4.651
REMARK INTER:                  -4.464
REMARK INTRA:                  -0.186
REMARK UNBOUND:                -0.186
REMARK SMILES C=C1CC=C(C(C)C)CC1
REMARK SMILES IDX 5 1 4 2 3 3 2 4 1 5 10 6 9 7 6 8 7 9 8 10
REMARK H PARENT
REMARK Flexibility Score: inf
ROOT
ATOM      1  C   UNL     1     142.313 138.051 133.882  1.00  0.00    -0.071 C 
ATOM      2  C   UNL     1     142.720 138.372 132.635  1.00  0.00    -0.023 C 
ATOM      3  C   UNL     1     144.024 139.091 132.401  1.00  0.00     0.057 C 
ATOM      4  C   UNL     1     144.303 140.083 133.510  1.00  0.00    -0.073 C 
ATOM      5  C   UNL     1     145.067 141.159 133.273  1.00  0.00     0.008 C 
ATOM      6  C   UNL     1     143.749 139.845 134.900  1.00  0.00     0.035 C 
ATOM      7  C   UNL     1     143.203 138.417 135.051  1.00  0.00     0.035 C 
ENDROOT
BRANCH   1   8
ATOM      8  C   UNL     1     140.980 137.360 134.128  1.00  0.00     0.008 C 
ATOM      9  C   UNL     1     139.964 137.701 133.031  1.00  0.00     0.012 C 
ATOM     10  C   UNL     1     140.429 137.699 135.518  1.00  0.00     0.012 C 
ENDBRANCH   1   8
TORSDOF 1
ENDMDL
MODEL 3
REMARK VINA RESULT:    -4.204      3.073      4.755
REMARK INTER + INTRA:          -4.636
REMARK INTER:                  -4.454
REMARK INTRA:                  -0.182
REMARK UNBOUND:                -0.186
REMARK SMILES C=C1CC=C(C(C)C)CC1
REMARK SMILES IDX 5 1 4 2 3 3 2 4 1 5 10 6 9 7 6 8 7 9 8 10
REMARK H PARENT
REMARK Flexibility Score: inf
ROOT
ATOM      1  C   UNL     1     140.020 144.122 134.283  1.00  0.00    -0.071 C 
ATOM      2  C   UNL     1     139.705 143.879 132.992  1.00  0.00    -0.023 C 
ATOM      3  C   UNL     1     138.393 143.240 132.616  1.00  0.00     0.057 C 
ATOM      4  C   UNL     1     137.973 142.214 133.648  1.00  0.00    -0.073 C 
ATOM      5  C   UNL     1     137.181 141.191 133.297  1.00  0.00     0.008 C 
ATOM      6  C   UNL     1     138.418 142.362 135.089  1.00  0.00     0.035 C 
ATOM      7  C   UNL     1     139.017 143.751 135.355  1.00  0.00     0.035 C 
ENDROOT
BRANCH   1   8
ATOM      8  C   UNL     1     141.358 144.732 134.672  1.00  0.00     0.008 C 
ATOM      9  C   UNL     1     142.525 143.968 134.034  1.00  0.00     0.012 C 
ATOM     10  C   UNL     1     141.511 144.805 136.196  1.00  0.00     0.012 C 
ENDBRANCH   1   8
TORSDOF 1
ENDMDL
MODEL 4
REMARK VINA RESULT:    -4.193      5.296      6.866
REMARK INTER + INTRA:          -4.624
REMARK INTER:                  -4.440
REMARK INTRA:                  -0.185
REMARK UNBOUND:                -0.186
REMARK SMILES C=C1CC=C(C(C)C)CC1
REMARK SMILES IDX 5 1 4 2 3 3 2 4 1 5 10 6 9 7 6 8 7 9 8 10
REMARK H PARENT
REMARK Flexibility Score: inf
ROOT
ATOM      1  C   UNL     1     138.045 140.025 134.139  1.00  0.00    -0.071 C 
ATOM      2  C   UNL     1     138.354 139.659 132.876  1.00  0.00    -0.023 C 
ATOM      3  C   UNL     1     139.008 138.334 132.585  1.00  0.00     0.057 C 
ATOM      4  C   UNL     1     139.978 137.954 133.684  1.00  0.00    -0.073 C 
ATOM      5  C   UNL     1     141.016 137.149 133.418  1.00  0.00     0.008 C 
ATOM      6  C   UNL     1     139.758 138.455 135.097  1.00  0.00     0.035 C 
ATOM      7  C   UNL     1     138.358 139.065 135.267  1.00  0.00     0.035 C 
ENDROOT
BRANCH   1   8
ATOM      8  C   UNL     1     137.419 141.378 134.443  1.00  0.00     0.008 C 
ATOM      9  C   UNL     1     138.018 142.480 133.561  1.00  0.00     0.012 C 
ATOM     10  C   UNL     1     137.550 141.726 135.930  1.00  0.00     0.012 C 
ENDBRANCH   1   8
TORSDOF 1
ENDMDL
MODEL 5
REMARK VINA RESULT:    -4.129      4.187      5.690
REMARK INTER + INTRA:          -4.556
REMARK INTER:                  -4.373
REMARK INTRA:                  -0.183
REMARK UNBOUND:                -0.186
REMARK SMILES C=C1CC=C(C(C)C)CC1
REMARK SMILES IDX 5 1 4 2 3 3 2 4 1 5 10 6 9 7 6 8 7 9 8 10
REMARK H PARENT
REMARK Flexibility Score: inf
ROOT
ATOM      1  C   UNL     1     142.201 137.876 133.620  1.00  0.00    -0.071 C 
ATOM      2  C   UNL     1     142.382 138.340 134.875  1.00  0.00    -0.023 C 
ATOM      3  C   UNL     1     141.294 138.233 135.911  1.00  0.00     0.057 C 
ATOM      4  C   UNL     1     139.927 138.414 135.284  1.00  0.00    -0.073 C 
ATOM      5  C   UNL     1     138.905 138.875 136.019  1.00  0.00     0.008 C 
ATOM      6  C   UNL     1     139.702 138.041 133.833  1.00  0.00     0.035 C 
ATOM      7  C   UNL     1     140.878 137.227 133.272  1.00  0.00     0.035 C 
ENDROOT
BRANCH   1   8
ATOM      8  C   UNL     1     143.282 138.016 132.558  1.00  0.00     0.008 C 
ATOM      9  C   UNL     1     143.829 139.447 132.505  1.00  0.00     0.012 C 
ATOM     10  C   UNL     1     142.769 137.568 131.184  1.00  0.00     0.012 C 
ENDBRANCH   1   8
TORSDOF 1
ENDMDL
MODEL 6
REMARK VINA RESULT:    -4.125      5.742      7.163
REMARK INTER + INTRA:          -4.553
REMARK INTER:                  -4.401
REMARK INTRA:                  -0.151
REMARK UNBOUND:                -0.186
REMARK SMILES C=C1CC=C(C(C)C)CC1
REMARK SMILES IDX 5 1 4 2 3 3 2 4 1 5 10 6 9 7 6 8 7 9 8 10
REMARK H PARENT
REMARK Flexibility Score: inf
ROOT
ATOM      1  C   UNL     1     138.849 138.743 132.836  1.00  0.00    -0.071 C 
ATOM      2  C   UNL     1     138.417 139.107 134.063  1.00  0.00    -0.023 C 
ATOM      3  C   UNL     1     139.320 139.018 135.266  1.00  0.00     0.057 C 
ATOM      4  C   UNL     1     140.235 137.815 135.170  1.00  0.00    -0.073 C 
ATOM      5  C   UNL     1     140.715 137.244 136.284  1.00  0.00     0.008 C 
ATOM      6  C   UNL     1     140.639 137.275 133.813  1.00  0.00     0.035 C 
ATOM      7  C   UNL     1     140.273 138.253 132.686  1.00  0.00     0.035 C 
ENDROOT
BRANCH   1   8
ATOM      8  C   UNL     1     137.931 138.795 131.624  1.00  0.00     0.008 C 
ATOM      9  C   UNL     1     138.308 137.725 130.593  1.00  0.00     0.012 C 
ATOM     10  C   UNL     1     137.924 140.193 130.994  1.00  0.00     0.012 C 
ENDBRANCH   1   8
TORSDOF 1
ENDMDL
MODEL 7
REMARK VINA RESULT:    -4.122      1.235      4.288
REMARK INTER + INTRA:          -4.549
REMARK INTER:                  -4.368
REMARK INTRA:                  -0.181
REMARK UNBOUND:                -0.186
REMARK SMILES C=C1CC=C(C(C)C)CC1
REMARK SMILES IDX 5 1 4 2 3 3 2 4 1 5 10 6 9 7 6 8 7 9 8 10
REMARK H PARENT
REMARK Flexibility Score: inf
ROOT
ATOM      1  C   UNL     1     144.329 142.204 133.736  1.00  0.00    -0.071 C 
ATOM      2  C   UNL     1     143.933 142.390 135.014  1.00  0.00    -0.023 C 
ATOM      3  C   UNL     1     144.073 141.296 136.041  1.00  0.00     0.057 C 
ATOM      4  C   UNL     1     143.835 139.935 135.421  1.00  0.00    -0.073 C 
ATOM      5  C   UNL     1     143.393 138.919 136.176  1.00  0.00     0.008 C 
ATOM      6  C   UNL     1     144.130 139.709 133.952  1.00  0.00     0.035 C 
ATOM      7  C   UNL     1     144.936 140.871 133.353  1.00  0.00     0.035 C 
ENDROOT
BRANCH   1   8
ATOM      8  C   UNL     1     144.156 143.291 132.686  1.00  0.00     0.008 C 
ATOM      9  C   UNL     1     142.690 143.728 132.572  1.00  0.00     0.012 C 
ATOM     10  C   UNL     1     144.706 142.841 131.327  1.00  0.00     0.012 C 
ENDBRANCH   1   8
TORSDOF 1
ENDMDL
MODEL 8
REMARK VINA RESULT:    -4.111      5.348      6.244
REMARK INTER + INTRA:          -4.538
REMARK INTER:                  -4.359
REMARK INTRA:                  -0.179
REMARK UNBOUND:                -0.186
REMARK SMILES C=C1CC=C(C(C)C)CC1
REMARK SMILES IDX 5 1 4 2 3 3 2 4 1 5 10 6 9 7 6 8 7 9 8 10
REMARK H PARENT
REMARK Flexibility Score: inf
ROOT
ATOM      1  C   UNL     1     137.921 139.969 133.703  1.00  0.00    -0.071 C 
ATOM      2  C   UNL     1     138.319 139.819 134.985  1.00  0.00    -0.023 C 
ATOM      3  C   UNL     1     138.150 140.931 135.988  1.00  0.00     0.057 C 
ATOM      4  C   UNL     1     138.356 142.284 135.341  1.00  0.00    -0.073 C 
ATOM      5  C   UNL     1     138.771 143.325 136.076  1.00  0.00     0.008 C 
ATOM      6  C   UNL     1     138.060 142.473 133.867  1.00  0.00     0.035 C 
ATOM      7  C   UNL     1     137.284 141.279 133.291  1.00  0.00     0.035 C 
ENDROOT
BRANCH   1   8
ATOM      8  C   UNL     1     138.124 138.866 132.675  1.00  0.00     0.008 C 
ATOM      9  C   UNL     1     139.613 138.634 132.392  1.00  0.00     0.012 C 
ATOM     10  C   UNL     1     137.355 139.164 131.383  1.00  0.00     0.012 C 
ENDBRANCH   1   8
TORSDOF 1
ENDMDL
MODEL 9
REMARK VINA RESULT:    -4.110      3.213      4.776
REMARK INTER + INTRA:          -4.537
REMARK INTER:                  -4.386
REMARK INTRA:                  -0.151
REMARK UNBOUND:                -0.186
REMARK SMILES C=C1CC=C(C(C)C)CC1
REMARK SMILES IDX 5 1 4 2 3 3 2 4 1 5 10 6 9 7 6 8 7 9 8 10
REMARK H PARENT
REMARK Flexibility Score: inf
ROOT
ATOM      1  C   UNL     1     143.428 138.818 132.821  1.00  0.00    -0.071 C 
ATOM      2  C   UNL     1     143.064 138.368 134.041  1.00  0.00    -0.023 C 
ATOM      3  C   UNL     1     143.131 139.262 135.253  1.00  0.00     0.057 C 
ATOM      4  C   UNL     1     144.319 140.198 135.173  1.00  0.00    -0.073 C 
ATOM      5  C   UNL     1     144.875 140.678 136.295  1.00  0.00     0.008 C 
ATOM      6  C   UNL     1     144.860 140.623 133.823  1.00  0.00     0.035 C 
ATOM      7  C   UNL     1     143.896 140.251 132.687  1.00  0.00     0.035 C 
ENDROOT
BRANCH   1   8
ATOM      8  C   UNL     1     143.400 137.910 131.601  1.00  0.00     0.008 C 
ATOM      9  C   UNL     1     144.460 138.323 130.573  1.00  0.00     0.012 C 
ATOM     10  C   UNL     1     142.002 137.873 130.970  1.00  0.00     0.012 C 
ENDBRANCH   1   8
TORSDOF 1
ENDMDL
