MODEL 1
REMARK VINA RESULT:    -2.812      0.000      0.000
REMARK INTER + INTRA:          -3.567
REMARK INTER:                  -3.470
REMARK INTRA:                  -0.097
REMARK UNBOUND:                -0.097
REMARK SMILES CCCCCC(=O)[O-]
REMARK SMILES IDX 4 1 5 2 6 3 7 4 8 5 3 6 2 7 1 8
REMARK H PARENT
REMARK Flexibility Score: inf
ROOT
ATOM      1  C   UNL     1     -96.375 -45.453 -12.016  1.00  0.00     0.006 C 
ENDROOT
BRANCH   1   2
ATOM      2  C   UNL     1     -95.313 -46.407 -11.462  1.00  0.00     0.053 C 
BRANCH   2   3
ATOM      3  C   UNL     1     -94.104 -46.411 -12.342  1.00  0.00     0.041 C 
ATOM      4  O   UNL     1     -93.973 -45.543 -13.244  1.00  0.00    -0.550 OA
ATOM      5  O   UNL     1     -93.143 -47.405 -12.198  1.00  0.00    -0.550 OA
ENDBRANCH   2   3
ENDBRANCH   1   2
BRANCH   1   6
ATOM      6  C   UNL     1     -97.768 -46.093 -11.971  1.00  0.00     0.000 C 
BRANCH   6   7
ATOM      7  C   UNL     1     -98.856 -45.068 -12.308  1.00  0.00    -0.003 C 
ATOM      8  C   UNL     1     -98.408 -43.652 -11.955  1.00  0.00     0.004 C 
ENDBRANCH   6   7
ENDBRANCH   1   6
TORSDOF 4
ENDMDL
MODEL 2
REMARK VINA RESULT:    -2.789      0.364      1.199
REMARK INTER + INTRA:          -3.538
REMARK INTER:                  -3.448
REMARK INTRA:                  -0.090
REMARK UNBOUND:                -0.097
REMARK SMILES CCCCCC(=O)[O-]
REMARK SMILES IDX 4 1 5 2 6 3 7 4 8 5 3 6 2 7 1 8
REMARK H PARENT
REMARK Flexibility Score: inf
ROOT
ATOM      1  C   UNL     1     -96.431 -45.652 -12.036  1.00  0.00     0.006 C 
ENDROOT
BRANCH   1   2
ATOM      2  C   UNL     1     -95.563 -46.907 -11.902  1.00  0.00     0.053 C 
BRANCH   2   3
ATOM      3  C   UNL     1     -94.168 -46.630 -12.365  1.00  0.00     0.041 C 
ATOM      4  O   UNL     1     -93.212 -47.340 -11.958  1.00  0.00    -0.550 OA
ATOM      5  O   UNL     1     -93.916 -45.555 -13.209  1.00  0.00    -0.550 OA
ENDBRANCH   2   3
ENDBRANCH   1   2
BRANCH   1   6
ATOM      6  C   UNL     1     -97.917 -46.019 -12.128  1.00  0.00     0.000 C 
BRANCH   6   7
ATOM      7  C   UNL     1     -98.791 -44.761 -12.187  1.00  0.00    -0.003 C 
ATOM      8  C   UNL     1     -97.962 -43.501 -11.956  1.00  0.00     0.004 C 
ENDBRANCH   6   7
ENDBRANCH   1   6
TORSDOF 4
ENDMDL
MODEL 3
REMARK VINA RESULT:    -2.727      1.023      1.676
REMARK INTER + INTRA:          -3.461
REMARK INTER:                  -3.361
REMARK INTRA:                  -0.101
REMARK UNBOUND:                -0.097
REMARK SMILES CCCCCC(=O)[O-]
REMARK SMILES IDX 4 1 5 2 6 3 7 4 8 5 3 6 2 7 1 8
REMARK H PARENT
REMARK Flexibility Score: inf
ROOT
ATOM      1  C   UNL     1     -97.607 -46.181 -11.894  1.00  0.00     0.006 C 
ENDROOT
BRANCH   1   2
ATOM      2  C   UNL     1     -96.267 -45.458 -12.048  1.00  0.00     0.053 C 
BRANCH   2   3
ATOM      3  C   UNL     1     -95.142 -46.443 -12.090  1.00  0.00     0.041 C 
ATOM      4  O   UNL     1     -95.271 -47.576 -11.556  1.00  0.00    -0.550 OA
ATOM      5  O   UNL     1     -93.933 -46.092 -12.676  1.00  0.00    -0.550 OA
ENDBRANCH   2   3
ENDBRANCH   1   2
BRANCH   1   6
ATOM      6  C   UNL     1     -98.774 -45.270 -12.295  1.00  0.00     0.000 C 
BRANCH   6   7
ATOM      7  C   UNL     1     -98.446 -43.800 -12.014  1.00  0.00    -0.003 C 
ATOM      8  C   UNL     1     -99.630 -42.897 -12.347  1.00  0.00     0.004 C 
ENDBRANCH   6   7
ENDBRANCH   1   6
TORSDOF 4
ENDMDL
MODEL 4
REMARK VINA RESULT:    -2.595      1.319      1.739
REMARK INTER + INTRA:          -3.299
REMARK INTER:                  -3.194
REMARK INTRA:                  -0.105
REMARK UNBOUND:                -0.097
REMARK SMILES CCCCCC(=O)[O-]
REMARK SMILES IDX 4 1 5 2 6 3 7 4 8 5 3 6 2 7 1 8
REMARK H PARENT
REMARK Flexibility Score: inf
ROOT
ATOM      1  C   UNL     1     -96.878 -44.770 -11.819  1.00  0.00     0.006 C 
ENDROOT
BRANCH   1   2
ATOM      2  C   UNL     1     -96.374 -46.209 -11.959  1.00  0.00     0.053 C 
BRANCH   2   3
ATOM      3  C   UNL     1     -94.904 -46.276 -11.696  1.00  0.00     0.041 C 
ATOM      4  O   UNL     1     -94.093 -46.394 -12.653  1.00  0.00    -0.550 OA
ATOM      5  O   UNL     1     -94.429 -46.259 -10.391  1.00  0.00    -0.550 OA
ENDBRANCH   2   3
ENDBRANCH   1   2
BRANCH   1   6
ATOM      6  C   UNL     1     -98.380 -44.682 -12.114  1.00  0.00     0.000 C 
BRANCH   6   7
ATOM      7  C   UNL     1     -98.983 -46.075 -12.325  1.00  0.00    -0.003 C 
ATOM      8  C   UNL     1    -100.460 -45.987 -12.697  1.00  0.00     0.004 C 
ENDBRANCH   6   7
ENDBRANCH   1   6
TORSDOF 4
ENDMDL
MODEL 5
REMARK VINA RESULT:    -2.524      3.548      4.422
REMARK INTER + INTRA:          -3.211
REMARK INTER:                  -3.015
REMARK INTRA:                  -0.196
REMARK UNBOUND:                -0.097
REMARK SMILES CCCCCC(=O)[O-]
REMARK SMILES IDX 4 1 5 2 6 3 7 4 8 5 3 6 2 7 1 8
REMARK H PARENT
REMARK Flexibility Score: inf
ROOT
ATOM      1  C   UNL     1     -97.215 -43.624 -11.279  1.00  0.00     0.006 C 
ENDROOT
BRANCH   1   2
ATOM      2  C   UNL     1     -97.159 -42.875  -9.944  1.00  0.00     0.053 C 
BRANCH   2   3
ATOM      3  C   UNL     1     -97.428 -43.810  -8.808  1.00  0.00     0.041 C 
ATOM      4  O   UNL     1     -96.567 -44.666  -8.474  1.00  0.00    -0.550 OA
ATOM      5  O   UNL     1     -98.650 -43.769  -8.148  1.00  0.00    -0.550 OA
ENDBRANCH   2   3
ENDBRANCH   1   2
BRANCH   1   6
ATOM      6  C   UNL     1     -98.580 -43.445 -11.954  1.00  0.00     0.000 C 
BRANCH   6   7
ATOM      7  C   UNL     1     -99.180 -44.798 -12.349  1.00  0.00    -0.003 C 
ATOM      8  C   UNL     1     -98.229 -45.943 -12.013  1.00  0.00     0.004 C 
ENDBRANCH   6   7
ENDBRANCH   1   6
TORSDOF 4
ENDMDL
MODEL 6
REMARK VINA RESULT:    -2.503      4.286      5.117
REMARK INTER + INTRA:          -3.185
REMARK INTER:                  -3.096
REMARK INTRA:                  -0.089
REMARK UNBOUND:                -0.097
REMARK SMILES CCCCCC(=O)[O-]
REMARK SMILES IDX 4 1 5 2 6 3 7 4 8 5 3 6 2 7 1 8
REMARK H PARENT
REMARK Flexibility Score: inf
ROOT
ATOM      1  C   UNL     1     -98.981 -46.743 -12.431  1.00  0.00     0.006 C 
ENDROOT
BRANCH   1   2
ATOM      2  C   UNL     1     -99.041 -48.120 -13.098  1.00  0.00     0.053 C 
BRANCH   2   3
ATOM      3  C   UNL     1    -100.431 -48.417 -13.563  1.00  0.00     0.041 C 
ATOM      4  O   UNL     1    -100.846 -49.605 -13.607  1.00  0.00    -0.550 OA
ATOM      5  O   UNL     1    -101.255 -47.385 -13.996  1.00  0.00    -0.550 OA
ENDBRANCH   2   3
ENDBRANCH   1   2
BRANCH   1   6
ATOM      6  C   UNL     1     -97.536 -46.357 -12.094  1.00  0.00     0.000 C 
BRANCH   6   7
ATOM      7  C   UNL     1     -97.407 -44.846 -11.876  1.00  0.00    -0.003 C 
ATOM      8  C   UNL     1     -98.738 -44.138 -12.115  1.00  0.00     0.004 C 
ENDBRANCH   6   7
ENDBRANCH   1   6
TORSDOF 4
ENDMDL
MODEL 7
REMARK VINA RESULT:    -2.464     10.890     11.508
REMARK INTER + INTRA:          -3.137
REMARK INTER:                  -3.077
REMARK INTRA:                  -0.061
REMARK UNBOUND:                -0.097
REMARK SMILES CCCCCC(=O)[O-]
REMARK SMILES IDX 4 1 5 2 6 3 7 4 8 5 3 6 2 7 1 8
REMARK H PARENT
REMARK Flexibility Score: inf
ROOT
ATOM      1  C   UNL     1     -95.606 -53.385 -19.484  1.00  0.00     0.006 C 
ENDROOT
BRANCH   1   2
ATOM      2  C   UNL     1     -96.114 -54.142 -20.714  1.00  0.00     0.053 C 
BRANCH   2   3
ATOM      3  C   UNL     1     -95.938 -53.315 -21.947  1.00  0.00     0.041 C 
ATOM      4  O   UNL     1     -96.673 -53.509 -22.951  1.00  0.00    -0.550 OA
ATOM      5  O   UNL     1     -94.929 -52.362 -22.007  1.00  0.00    -0.550 OA
ENDBRANCH   2   3
ENDBRANCH   1   2
BRANCH   1   6
ATOM      6  C   UNL     1     -96.608 -53.479 -18.326  1.00  0.00     0.000 C 
BRANCH   6   7
ATOM      7  C   UNL     1     -96.397 -54.765 -17.520  1.00  0.00    -0.003 C 
ATOM      8  C   UNL     1     -96.717 -54.549 -16.043  1.00  0.00     0.004 C 
ENDBRANCH   6   7
ENDBRANCH   1   6
TORSDOF 4
ENDMDL
MODEL 8
REMARK VINA RESULT:    -2.428      2.198      2.354
REMARK INTER + INTRA:          -3.093
REMARK INTER:                  -2.915
REMARK INTRA:                  -0.178
REMARK UNBOUND:                -0.097
REMARK SMILES CCCCCC(=O)[O-]
REMARK SMILES IDX 4 1 5 2 6 3 7 4 8 5 3 6 2 7 1 8
REMARK H PARENT
REMARK Flexibility Score: inf
ROOT
ATOM      1  C   UNL     1     -96.811 -45.601 -12.029  1.00  0.00     0.006 C 
ENDROOT
BRANCH   1   2
ATOM      2  C   UNL     1     -95.896 -46.401 -11.098  1.00  0.00     0.053 C 
BRANCH   2   3
ATOM      3  C   UNL     1     -95.581 -45.611  -9.868  1.00  0.00     0.041 C 
ATOM      4  O   UNL     1     -96.383 -44.731  -9.457  1.00  0.00    -0.550 OA
ATOM      5  O   UNL     1     -94.379 -45.811  -9.202  1.00  0.00    -0.550 OA
ENDBRANCH   2   3
ENDBRANCH   1   2
BRANCH   1   6
ATOM      6  C   UNL     1     -98.133 -46.340 -12.270  1.00  0.00     0.000 C 
BRANCH   6   7
ATOM      7  C   UNL     1     -99.306 -45.357 -12.355  1.00  0.00    -0.003 C 
ATOM      8  C   UNL     1     -98.834 -43.918 -12.157  1.00  0.00     0.004 C 
ENDBRANCH   6   7
ENDBRANCH   1   6
TORSDOF 4
ENDMDL
MODEL 9
REMARK VINA RESULT:    -1.621      2.241      2.721
REMARK INTER + INTRA:          -2.097
REMARK INTER:                  -1.838
REMARK INTRA:                  -0.258
REMARK UNBOUND:                -0.097
REMARK SMILES CCCCCC(=O)[O-]
REMARK SMILES IDX 4 1 5 2 6 3 7 4 8 5 3 6 2 7 1 8
REMARK H PARENT
REMARK Flexibility Score: inf
ROOT
ATOM      1  C   UNL     1     -97.553 -45.161 -11.832  1.00  0.00     0.006 C 
ENDROOT
BRANCH   1   2
ATOM      2  C   UNL     1     -96.195 -45.848 -11.999  1.00  0.00     0.053 C 
BRANCH   2   3
ATOM      3  C   UNL     1     -95.622 -46.206 -10.664  1.00  0.00     0.041 C 
ATOM      4  O   UNL     1     -94.375 -46.248 -10.500  1.00  0.00    -0.550 OA
ATOM      5  O   UNL     1     -96.466 -46.542  -9.613  1.00  0.00    -0.550 OA
ENDBRANCH   2   3
ENDBRANCH   1   2
BRANCH   1   6
ATOM      6  C   UNL     1     -97.389 -43.642 -11.703  1.00  0.00     0.000 C 
BRANCH   6   7
ATOM      7  C   UNL     1     -97.920 -43.144 -10.354  1.00  0.00    -0.003 C 
ATOM      8  C   UNL     1     -96.779 -42.875  -9.377  1.00  0.00     0.004 C 
ENDBRANCH   6   7
ENDBRANCH   1   6
TORSDOF 4
ENDMDL
