MODEL 1
REMARK VINA RESULT:    -7.449      0.000      0.000
REMARK INTER + INTRA:          -9.327
REMARK INTER:                 -10.061
REMARK INTRA:                   0.734
REMARK UNBOUND:                 0.734
REMARK SMILES O=c1c(-c2ccc(O)cc2)coc2c([C@H]3O[C@@H](CO)[C@@H](O)[C@@H](O)[C@@H]3O)c(O)ccc12
REMARK SMILES IDX 3 1 11 2 12 3 13 4 30 5 2 6 1 7 29 8 28 9 26 10 14 11 4 12
REMARK SMILES IDX 5 13 6 14 7 15 10 16 9 17 8 18 15 20 24 21 16 22 22 23 17 24
REMARK SMILES IDX 20 25 25 26 23 28 18 30 19 31 21 33 27 35
REMARK H PARENT 8 19 25 27 23 29 19 32 21 34 27 36
REMARK Flexibility Score: inf
ROOT
ATOM      1  C   UNL     1      22.769  49.641  39.892  1.00  0.00     0.065 A 
ATOM      2  C   UNL     1      22.577  50.231  38.630  1.00  0.00     0.208 A 
ATOM      3  O   UNL     1      22.958  49.503  37.536  1.00  0.00    -0.463 OA
ATOM      4  C   UNL     1      23.494  48.226  37.595  1.00  0.00     0.147 A 
ATOM      5  C   UNL     1      23.743  47.654  38.856  1.00  0.00     0.066 A 
ATOM      6  C   UNL     1      23.365  48.367  40.005  1.00  0.00     0.200 A 
ATOM      7  O   UNL     1      23.523  47.845  41.143  1.00  0.00    -0.288 OA
ATOM      8  C   UNL     1      24.325  46.380  38.932  1.00  0.00     0.020 A 
ATOM      9  C   UNL     1      24.653  45.684  37.771  1.00  0.00     0.047 A 
ATOM     10  C   UNL     1      24.369  46.226  36.513  1.00  0.00     0.125 A 
ATOM     11  C   UNL     1      23.771  47.502  36.408  1.00  0.00     0.069 A 
ENDROOT
BRANCH   1  12
ATOM     12  C   UNL     1      22.255  50.364  41.087  1.00  0.00    -0.011 A 
ATOM     13  C   UNL     1      22.745  51.636  41.430  1.00  0.00     0.013 A 
ATOM     14  C   UNL     1      22.324  52.263  42.606  1.00  0.00     0.047 A 
ATOM     15  C   UNL     1      21.410  51.635  43.456  1.00  0.00     0.115 A 
ATOM     16  C   UNL     1      21.297  49.759  41.923  1.00  0.00     0.013 A 
ATOM     17  C   UNL     1      20.892  50.382  43.106  1.00  0.00     0.047 A 
BRANCH  15  18
ATOM     18  O   UNL     1      21.033  52.245  44.652  1.00  0.00    -0.508 OA
ATOM     19  H   UNL     1      20.093  52.606  44.785  1.00  0.00     0.293 HD
ENDBRANCH  15  18
ENDBRANCH   1  12
BRANCH  11  20
ATOM     20  C   UNL     1      23.439  48.048  35.022  1.00  0.00     0.188 C 
ATOM     21  C   UNL     1      24.143  47.199  33.909  1.00  0.00     0.179 C 
ATOM     22  O   UNL     1      23.732  49.442  34.949  1.00  0.00    -0.362 OA
ATOM     23  C   UNL     1      25.353  47.943  33.320  1.00  0.00     0.177 C 
ATOM     24  C   UNL     1      23.714  49.896  33.612  1.00  0.00     0.176 C 
ATOM     25  C   UNL     1      24.978  49.385  32.875  1.00  0.00     0.177 C 
BRANCH  21  26
ATOM     26  O   UNL     1      23.222  46.928  32.875  1.00  0.00    -0.387 OA
ATOM     27  H   UNL     1      23.737  46.850  32.032  1.00  0.00     0.211 HD
ENDBRANCH  21  26
BRANCH  23  28
ATOM     28  O   UNL     1      26.382  47.966  34.279  1.00  0.00    -0.387 OA
ATOM     29  H   UNL     1      25.972  48.240  35.143  1.00  0.00     0.211 HD
ENDBRANCH  23  28
BRANCH  24  30
ATOM     30  C   UNL     1      23.587  51.428  33.602  1.00  0.00     0.191 C 
BRANCH  30  31
ATOM     31  O   UNL     1      24.191  51.972  34.741  1.00  0.00    -0.394 OA
ATOM     32  H   UNL     1      24.640  51.218  35.205  1.00  0.00     0.210 HD
ENDBRANCH  30  31
ENDBRANCH  24  30
BRANCH  25  33
ATOM     33  O   UNL     1      26.066  50.256  33.087  1.00  0.00    -0.388 OA
ATOM     34  H   UNL     1      26.779  49.978  32.455  1.00  0.00     0.211 HD
ENDBRANCH  25  33
ENDBRANCH  11  20
BRANCH  10  35
ATOM     35  O   UNL     1      24.671  45.492  35.364  1.00  0.00    -0.507 OA
ATOM     36  H   UNL     1      24.659  44.479  35.359  1.00  0.00     0.293 HD
ENDBRANCH  10  35
TORSDOF 9
ENDMDL
MODEL 2
REMARK VINA RESULT:    -5.977      1.576      3.899
REMARK INTER + INTRA:          -7.340
REMARK INTER:                  -8.058
REMARK INTRA:                   0.718
REMARK UNBOUND:                 0.734
REMARK SMILES O=c1c(-c2ccc(O)cc2)coc2c([C@H]3O[C@@H](CO)[C@@H](O)[C@@H](O)[C@@H]3O)c(O)ccc12
REMARK SMILES IDX 3 1 11 2 12 3 13 4 30 5 2 6 1 7 29 8 28 9 26 10 14 11 4 12
REMARK SMILES IDX 5 13 6 14 7 15 10 16 9 17 8 18 15 20 24 21 16 22 22 23 17 24
REMARK SMILES IDX 20 25 25 26 23 28 18 30 19 31 21 33 27 35
REMARK H PARENT 8 19 25 27 23 29 19 32 21 34 27 36
REMARK Flexibility Score: inf
ROOT
ATOM      1  C   UNL     1      22.316  50.754  39.003  1.00  0.00     0.065 A 
ATOM      2  C   UNL     1      22.953  49.539  38.699  1.00  0.00     0.208 A 
ATOM      3  O   UNL     1      23.412  49.377  37.421  1.00  0.00    -0.463 OA
ATOM      4  C   UNL     1      23.310  50.337  36.425  1.00  0.00     0.147 A 
ATOM      5  C   UNL     1      22.622  51.531  36.706  1.00  0.00     0.066 A 
ATOM      6  C   UNL     1      22.135  51.738  38.007  1.00  0.00     0.200 A 
ATOM      7  O   UNL     1      21.571  52.829  38.296  1.00  0.00    -0.288 OA
ATOM      8  C   UNL     1      22.472  52.494  35.697  1.00  0.00     0.020 A 
ATOM      9  C   UNL     1      23.000  52.273  34.428  1.00  0.00     0.047 A 
ATOM     10  C   UNL     1      23.724  51.107  34.152  1.00  0.00     0.125 A 
ATOM     11  C   UNL     1      23.901  50.127  35.155  1.00  0.00     0.069 A 
ENDROOT
BRANCH   1  12
ATOM     12  C   UNL     1      21.914  50.999  40.415  1.00  0.00    -0.011 A 
ATOM     13  C   UNL     1      22.312  52.166  41.089  1.00  0.00     0.013 A 
ATOM     14  C   UNL     1      22.008  52.340  42.442  1.00  0.00     0.047 A 
ATOM     15  C   UNL     1      21.304  51.358  43.143  1.00  0.00     0.115 A 
ATOM     16  C   UNL     1      21.162  50.036  41.115  1.00  0.00     0.013 A 
ATOM     17  C   UNL     1      20.876  50.206  42.471  1.00  0.00     0.047 A 
BRANCH  15  18
ATOM     18  O   UNL     1      21.049  51.517  44.504  1.00  0.00    -0.508 OA
ATOM     19  H   UNL     1      20.884  50.715  45.105  1.00  0.00     0.293 HD
ENDBRANCH  15  18
ENDBRANCH   1  12
BRANCH  11  20
ATOM     20  C   UNL     1      24.727  48.886  34.832  1.00  0.00     0.188 C 
ATOM     21  C   UNL     1      24.737  48.611  33.289  1.00  0.00     0.179 C 
ATOM     22  O   UNL     1      24.285  47.774  35.609  1.00  0.00    -0.362 OA
ATOM     23  C   UNL     1      23.818  47.432  32.926  1.00  0.00     0.177 C 
ATOM     24  C   UNL     1      24.828  46.565  35.121  1.00  0.00     0.176 C 
ATOM     25  C   UNL     1      24.123  46.179  33.796  1.00  0.00     0.177 C 
BRANCH  21  26
ATOM     26  O   UNL     1      26.052  48.314  32.875  1.00  0.00    -0.387 OA
ATOM     27  H   UNL     1      26.387  47.582  33.453  1.00  0.00     0.211 HD
ENDBRANCH  21  26
BRANCH  23  28
ATOM     28  O   UNL     1      22.479  47.836  33.083  1.00  0.00    -0.387 OA
ATOM     29  H   UNL     1      22.036  47.165  33.669  1.00  0.00     0.211 HD
ENDBRANCH  23  28
BRANCH  24  30
ATOM     30  C   UNL     1      24.707  45.483  36.207  1.00  0.00     0.191 C 
BRANCH  30  31
ATOM     31  O   UNL     1      23.565  45.704  36.984  1.00  0.00    -0.394 OA
ATOM     32  H   UNL     1      23.805  45.445  37.911  1.00  0.00     0.210 HD
ENDBRANCH  30  31
ENDBRANCH  24  30
BRANCH  25  33
ATOM     33  O   UNL     1      22.935  45.465  34.051  1.00  0.00    -0.388 OA
ATOM     34  H   UNL     1      23.204  44.602  34.459  1.00  0.00     0.211 HD
ENDBRANCH  25  33
ENDBRANCH  11  20
BRANCH  10  35
ATOM     35  O   UNL     1      24.277  50.926  32.883  1.00  0.00    -0.507 OA
ATOM     36  H   UNL     1      25.091  51.446  32.576  1.00  0.00     0.293 HD
ENDBRANCH  10  35
TORSDOF 9
ENDMDL
MODEL 3
REMARK VINA RESULT:    -5.937      1.781      3.765
REMARK INTER + INTRA:          -7.285
REMARK INTER:                  -7.670
REMARK INTRA:                   0.385
REMARK UNBOUND:                 0.734
REMARK SMILES O=c1c(-c2ccc(O)cc2)coc2c([C@H]3O[C@@H](CO)[C@@H](O)[C@@H](O)[C@@H]3O)c(O)ccc12
REMARK SMILES IDX 3 1 11 2 12 3 13 4 30 5 2 6 1 7 29 8 28 9 26 10 14 11 4 12
REMARK SMILES IDX 5 13 6 14 7 15 10 16 9 17 8 18 15 20 24 21 16 22 22 23 17 24
REMARK SMILES IDX 20 25 25 26 23 28 18 30 19 31 21 33 27 35
REMARK H PARENT 8 19 25 27 23 29 19 32 21 34 27 36
REMARK Flexibility Score: inf
ROOT
ATOM      1  C   UNL     1      22.145  50.956  38.933  1.00  0.00     0.065 A 
ATOM      2  C   UNL     1      21.900  49.705  38.340  1.00  0.00     0.208 A 
ATOM      3  O   UNL     1      22.284  49.544  37.038  1.00  0.00    -0.463 OA
ATOM      4  C   UNL     1      22.915  50.520  36.282  1.00  0.00     0.147 A 
ATOM      5  C   UNL     1      23.110  51.793  36.850  1.00  0.00     0.066 A 
ATOM      6  C   UNL     1      22.731  52.000  38.186  1.00  0.00     0.200 A 
ATOM      7  O   UNL     1      22.955  53.115  38.732  1.00  0.00    -0.288 OA
ATOM      8  C   UNL     1      23.708  52.804  36.083  1.00  0.00     0.020 A 
ATOM      9  C   UNL     1      24.107  52.554  34.773  1.00  0.00     0.047 A 
ATOM     10  C   UNL     1      23.957  51.279  34.215  1.00  0.00     0.125 A 
ATOM     11  C   UNL     1      23.370  50.239  34.971  1.00  0.00     0.069 A 
ENDROOT
BRANCH   1  12
ATOM     12  C   UNL     1      21.843  51.115  40.381  1.00  0.00    -0.011 A 
ATOM     13  C   UNL     1      21.106  52.218  40.849  1.00  0.00     0.013 A 
ATOM     14  C   UNL     1      20.910  52.407  42.220  1.00  0.00     0.047 A 
ATOM     15  C   UNL     1      21.442  51.503  43.144  1.00  0.00     0.115 A 
ATOM     16  C   UNL     1      22.334  50.183  41.315  1.00  0.00     0.013 A 
ATOM     17  C   UNL     1      22.150  50.385  42.685  1.00  0.00     0.047 A 
BRANCH  15  18
ATOM     18  O   UNL     1      21.285  51.726  44.511  1.00  0.00    -0.508 OA
ATOM     19  H   UNL     1      20.386  51.995  44.900  1.00  0.00     0.293 HD
ENDBRANCH  15  18
ENDBRANCH   1  12
BRANCH  11  20
ATOM     20  C   UNL     1      23.256  48.851  34.346  1.00  0.00     0.188 C 
ATOM     21  C   UNL     1      22.457  47.884  35.286  1.00  0.00     0.179 C 
ATOM     22  O   UNL     1      24.542  48.359  33.979  1.00  0.00    -0.362 OA
ATOM     23  C   UNL     1      23.396  46.894  35.996  1.00  0.00     0.177 C 
ATOM     24  C   UNL     1      24.493  46.980  33.678  1.00  0.00     0.176 C 
ATOM     25  C   UNL     1      24.333  46.169  34.989  1.00  0.00     0.177 C 
BRANCH  21  26
ATOM     26  O   UNL     1      21.518  47.159  34.523  1.00  0.00    -0.387 OA
ATOM     27  H   UNL     1      21.392  46.280  34.963  1.00  0.00     0.211 HD
ENDBRANCH  21  26
BRANCH  23  28
ATOM     28  O   UNL     1      24.144  47.592  36.962  1.00  0.00    -0.387 OA
ATOM     29  H   UNL     1      25.099  47.539  36.689  1.00  0.00     0.211 HD
ENDBRANCH  23  28
BRANCH  24  30
ATOM     30  C   UNL     1      25.748  46.593  32.878  1.00  0.00     0.191 C 
BRANCH  30  31
ATOM     31  O   UNL     1      26.781  47.502  33.129  1.00  0.00    -0.394 OA
ATOM     32  H   UNL     1      27.566  47.182  32.613  1.00  0.00     0.210 HD
ENDBRANCH  30  31
ENDBRANCH  24  30
BRANCH  25  33
ATOM     33  O   UNL     1      25.588  45.927  35.583  1.00  0.00    -0.388 OA
ATOM     34  H   UNL     1      25.600  46.431  36.437  1.00  0.00     0.211 HD
ENDBRANCH  25  33
ENDBRANCH  11  20
BRANCH  10  35
ATOM     35  O   UNL     1      24.401  51.042  32.913  1.00  0.00    -0.507 OA
ATOM     36  H   UNL     1      25.359  50.778  32.715  1.00  0.00     0.293 HD
ENDBRANCH  10  35
TORSDOF 9
ENDMDL
