MODEL 1
REMARK VINA RESULT:    -3.800      0.000      0.000
REMARK INTER + INTRA:          -3.911
REMARK INTER:                  -3.911
REMARK INTRA:                   0.000
REMARK UNBOUND:                 0.000
REMARK SMILES Oc1ccc2[nH]ccc2c1
REMARK SMILES IDX 3 1 4 2 5 3 9 4 8 5 7 6 6 7 10 8 2 9 1 11
REMARK H PARENT 6 10 1 12
REMARK Flexibility Score: inf
ROOT
ATOM      1  C   UNL     1      26.937  39.463  19.803  1.00  0.00     0.048 A 
ATOM      2  C   UNL     1      28.121  40.214  19.686  1.00  0.00     0.030 A 
ATOM      3  C   UNL     1      28.113  41.521  20.170  1.00  0.00     0.046 A 
ATOM      4  C   UNL     1      26.996  42.069  20.744  1.00  0.00     0.003 A 
ATOM      5  C   UNL     1      27.313  43.358  21.115  1.00  0.00     0.028 A 
ATOM      6  C   UNL     1      28.641  43.528  20.735  1.00  0.00     0.083 A 
ATOM      7  N   UNL     1      29.125  42.403  20.158  1.00  0.00    -0.361 N 
ATOM      8  C   UNL     1      25.809  41.352  20.876  1.00  0.00     0.056 A 
ATOM      9  C   UNL     1      25.783  40.025  20.396  1.00  0.00     0.116 A 
ATOM     10  H   UNL     1      30.088  42.256  19.783  1.00  0.00     0.166 HD
ENDROOT
BRANCH   9  11
ATOM     11  O   UNL     1      24.624  39.260  20.500  1.00  0.00    -0.508 OA
ATOM     12  H   UNL     1      23.825  39.427  19.900  1.00  0.00     0.293 HD
ENDBRANCH   9  11
TORSDOF 1
ENDMDL
MODEL 2
REMARK VINA RESULT:    -3.758      2.336      3.521
REMARK INTER + INTRA:          -3.868
REMARK INTER:                  -3.868
REMARK INTRA:                   0.000
REMARK UNBOUND:                 0.000
REMARK SMILES Oc1ccc2[nH]ccc2c1
REMARK SMILES IDX 3 1 4 2 5 3 9 4 8 5 7 6 6 7 10 8 2 9 1 11
REMARK H PARENT 6 10 1 12
REMARK Flexibility Score: inf
ROOT
ATOM      1  C   UNL     1      27.146  43.673  20.055  1.00  0.00     0.048 A 
ATOM      2  C   UNL     1      27.249  42.767  18.984  1.00  0.00     0.030 A 
ATOM      3  C   UNL     1      27.176  41.406  19.273  1.00  0.00     0.046 A 
ATOM      4  C   UNL     1      27.009  40.950  20.554  1.00  0.00     0.003 A 
ATOM      5  C   UNL     1      26.975  39.573  20.501  1.00  0.00     0.028 A 
ATOM      6  C   UNL     1      27.128  39.259  19.154  1.00  0.00     0.083 A 
ATOM      7  N   UNL     1      27.250  40.381  18.408  1.00  0.00    -0.361 N 
ATOM      8  C   UNL     1      26.904  41.820  21.637  1.00  0.00     0.056 A 
ATOM      9  C   UNL     1      26.974  43.206  21.379  1.00  0.00     0.116 A 
ATOM     10  H   UNL     1      27.376  40.435  17.373  1.00  0.00     0.166 HD
ENDROOT
BRANCH   9  11
ATOM     11  O   UNL     1      26.875  44.123  22.422  1.00  0.00    -0.508 OA
ATOM     12  H   UNL     1      25.982  44.348  22.844  1.00  0.00     0.293 HD
ENDBRANCH   9  11
TORSDOF 1
ENDMDL
MODEL 3
REMARK VINA RESULT:    -3.749      2.590      4.069
REMARK INTER + INTRA:          -3.859
REMARK INTER:                  -3.859
REMARK INTRA:                   0.000
REMARK UNBOUND:                 0.000
REMARK SMILES Oc1ccc2[nH]ccc2c1
REMARK SMILES IDX 3 1 4 2 5 3 9 4 8 5 7 6 6 7 10 8 2 9 1 11
REMARK H PARENT 6 10 1 12
REMARK Flexibility Score: inf
ROOT
ATOM      1  C   UNL     1      26.944  42.835  21.137  1.00  0.00     0.048 A 
ATOM      2  C   UNL     1      25.914  41.880  21.217  1.00  0.00     0.030 A 
ATOM      3  C   UNL     1      26.094  40.671  20.548  1.00  0.00     0.046 A 
ATOM      4  C   UNL     1      27.233  40.406  19.833  1.00  0.00     0.003 A 
ATOM      5  C   UNL     1      27.101  39.142  19.301  1.00  0.00     0.028 A 
ATOM      6  C   UNL     1      25.857  38.695  19.733  1.00  0.00     0.083 A 
ATOM      7  N   UNL     1      25.246  39.632  20.494  1.00  0.00    -0.361 N 
ATOM      8  C   UNL     1      28.271  41.330  19.734  1.00  0.00     0.056 A 
ATOM      9  C   UNL     1      28.121  42.565  20.401  1.00  0.00     0.116 A 
ATOM     10  H   UNL     1      24.307  39.558  20.945  1.00  0.00     0.166 HD
ENDROOT
BRANCH   9  11
ATOM     11  O   UNL     1      29.125  43.528  20.338  1.00  0.00    -0.508 OA
ATOM     12  H   UNL     1      30.009  43.340  19.879  1.00  0.00     0.293 HD
ENDBRANCH   9  11
TORSDOF 1
ENDMDL
MODEL 4
REMARK VINA RESULT:    -3.739      1.941      2.492
REMARK INTER + INTRA:          -3.849
REMARK INTER:                  -3.849
REMARK INTRA:                   0.000
REMARK UNBOUND:                 0.000
REMARK SMILES Oc1ccc2[nH]ccc2c1
REMARK SMILES IDX 3 1 4 2 5 3 9 4 8 5 7 6 6 7 10 8 2 9 1 11
REMARK H PARENT 6 10 1 12
REMARK Flexibility Score: inf
ROOT
ATOM      1  C   UNL     1      26.220  39.294  19.332  1.00  0.00     0.048 A 
ATOM      2  C   UNL     1      25.740  39.950  20.480  1.00  0.00     0.030 A 
ATOM      3  C   UNL     1      26.397  41.110  20.890  1.00  0.00     0.046 A 
ATOM      4  C   UNL     1      27.474  41.606  20.205  1.00  0.00     0.003 A 
ATOM      5  C   UNL     1      27.887  42.748  20.857  1.00  0.00     0.028 A 
ATOM      6  C   UNL     1      27.015  42.887  21.932  1.00  0.00     0.083 A 
ATOM      7  N   UNL     1      26.106  41.884  21.947  1.00  0.00    -0.361 N 
ATOM      8  C   UNL     1      27.974  40.981  19.064  1.00  0.00     0.056 A 
ATOM      9  C   UNL     1      27.332  39.804  18.623  1.00  0.00     0.116 A 
ATOM     10  H   UNL     1      25.339  41.744  22.641  1.00  0.00     0.166 HD
ENDROOT
BRANCH   9  11
ATOM     11  O   UNL     1      27.786  39.136  17.489  1.00  0.00    -0.508 OA
ATOM     12  H   UNL     1      28.642  39.411  17.021  1.00  0.00     0.293 HD
ENDBRANCH   9  11
TORSDOF 1
ENDMDL
MODEL 5
REMARK VINA RESULT:    -3.603      2.086      2.769
REMARK INTER + INTRA:          -3.709
REMARK INTER:                  -3.709
REMARK INTRA:                   0.000
REMARK UNBOUND:                 0.000
REMARK SMILES Oc1ccc2[nH]ccc2c1
REMARK SMILES IDX 3 1 4 2 5 3 9 4 8 5 7 6 6 7 10 8 2 9 1 11
REMARK H PARENT 6 10 1 12
REMARK Flexibility Score: inf
ROOT
ATOM      1  C   UNL     1      26.876  42.628  19.004  1.00  0.00     0.048 A 
ATOM      2  C   UNL     1      26.828  43.650  19.969  1.00  0.00     0.030 A 
ATOM      3  C   UNL     1      27.120  43.312  21.290  1.00  0.00     0.046 A 
ATOM      4  C   UNL     1      27.445  42.031  21.650  1.00  0.00     0.003 A 
ATOM      5  C   UNL     1      27.675  42.030  23.008  1.00  0.00     0.028 A 
ATOM      6  C   UNL     1      27.471  43.346  23.411  1.00  0.00     0.083 A 
ATOM      7  N   UNL     1      27.133  44.125  22.358  1.00  0.00    -0.361 N 
ATOM      8  C   UNL     1      27.501  40.996  20.718  1.00  0.00     0.056 A 
ATOM      9  C   UNL     1      27.211  41.304  19.372  1.00  0.00     0.116 A 
ATOM     10  H   UNL     1      26.924  45.148  22.377  1.00  0.00     0.166 HD
ENDROOT
BRANCH   9  11
ATOM     11  O   UNL     1      27.251  40.312  18.396  1.00  0.00    -0.508 OA
ATOM     12  H   UNL     1      27.461  40.530  17.429  1.00  0.00     0.293 HD
ENDBRANCH   9  11
TORSDOF 1
ENDMDL
MODEL 6
REMARK VINA RESULT:    -3.570     13.759     15.103
REMARK INTER + INTRA:          -3.675
REMARK INTER:                  -3.675
REMARK INTRA:                   0.000
REMARK UNBOUND:                 0.000
REMARK SMILES Oc1ccc2[nH]ccc2c1
REMARK SMILES IDX 3 1 4 2 5 3 9 4 8 5 7 6 6 7 10 8 2 9 1 11
REMARK H PARENT 6 10 1 12
REMARK Flexibility Score: inf
ROOT
ATOM      1  C   UNL     1      28.775  29.906  27.529  1.00  0.00     0.048 A 
ATOM      2  C   UNL     1      28.402  28.771  28.272  1.00  0.00     0.030 A 
ATOM      3  C   UNL     1      28.010  27.633  27.568  1.00  0.00     0.046 A 
ATOM      4  C   UNL     1      27.986  27.607  26.199  1.00  0.00     0.003 A 
ATOM      5  C   UNL     1      27.560  26.352  25.818  1.00  0.00     0.028 A 
ATOM      6  C   UNL     1      27.343  25.666  27.009  1.00  0.00     0.083 A 
ATOM      7  N   UNL     1      27.620  26.453  28.075  1.00  0.00    -0.361 N 
ATOM      8  C   UNL     1      28.349  28.713  25.434  1.00  0.00     0.056 A 
ATOM      9  C   UNL     1      28.751  29.882  26.115  1.00  0.00     0.116 A 
ATOM     10  H   UNL     1      27.543  26.192  29.083  1.00  0.00     0.166 HD
ENDROOT
BRANCH   9  11
ATOM     11  O   UNL     1      29.125  31.020  25.405  1.00  0.00    -0.508 OA
ATOM     12  H   UNL     1      29.978  31.045  24.859  1.00  0.00     0.293 HD
ENDBRANCH   9  11
TORSDOF 1
ENDMDL
MODEL 7
REMARK VINA RESULT:    -3.506     13.377     14.598
REMARK INTER + INTRA:          -3.609
REMARK INTER:                  -3.609
REMARK INTRA:                   0.000
REMARK UNBOUND:                 0.000
REMARK SMILES Oc1ccc2[nH]ccc2c1
REMARK SMILES IDX 3 1 4 2 5 3 9 4 8 5 7 6 6 7 10 8 2 9 1 11
REMARK H PARENT 6 10 1 12
REMARK Flexibility Score: inf
ROOT
ATOM      1  C   UNL     1      27.998  29.459  24.970  1.00  0.00     0.048 A 
ATOM      2  C   UNL     1      27.624  28.170  25.391  1.00  0.00     0.030 A 
ATOM      3  C   UNL     1      28.015  27.763  26.666  1.00  0.00     0.046 A 
ATOM      4  C   UNL     1      28.739  28.582  27.492  1.00  0.00     0.003 A 
ATOM      5  C   UNL     1      28.960  27.893  28.664  1.00  0.00     0.028 A 
ATOM      6  C   UNL     1      28.343  26.660  28.483  1.00  0.00     0.083 A 
ATOM      7  N   UNL     1      27.766  26.586  27.260  1.00  0.00    -0.361 N 
ATOM      8  C   UNL     1      29.125  29.864  27.105  1.00  0.00     0.056 A 
ATOM      9  C   UNL     1      28.745  30.307  25.820  1.00  0.00     0.116 A 
ATOM     10  H   UNL     1      27.238  25.777  26.865  1.00  0.00     0.166 HD
ENDROOT
BRANCH   9  11
ATOM     11  O   UNL     1      29.102  31.578  25.378  1.00  0.00    -0.508 OA
ATOM     12  H   UNL     1      29.538  32.250  25.998  1.00  0.00     0.293 HD
ENDBRANCH   9  11
TORSDOF 1
ENDMDL
MODEL 8
REMARK VINA RESULT:    -3.411      2.475      3.695
REMARK INTER + INTRA:          -3.511
REMARK INTER:                  -3.511
REMARK INTRA:                   0.000
REMARK UNBOUND:                 0.000
REMARK SMILES Oc1ccc2[nH]ccc2c1
REMARK SMILES IDX 3 1 4 2 5 3 9 4 8 5 7 6 6 7 10 8 2 9 1 11
REMARK H PARENT 6 10 1 12
REMARK Flexibility Score: inf
ROOT
ATOM      1  C   UNL     1      26.822  41.865  21.724  1.00  0.00     0.048 A 
ATOM      2  C   UNL     1      26.317  41.339  20.522  1.00  0.00     0.030 A 
ATOM      3  C   UNL     1      27.159  40.531  19.759  1.00  0.00     0.046 A 
ATOM      4  C   UNL     1      28.439  40.249  20.157  1.00  0.00     0.003 A 
ATOM      5  C   UNL     1      28.999  39.434  19.197  1.00  0.00     0.028 A 
ATOM      6  C   UNL     1      28.002  39.261  18.243  1.00  0.00     0.083 A 
ATOM      7  N   UNL     1      26.880  39.932  18.591  1.00  0.00    -0.361 N 
ATOM      8  C   UNL     1      28.971  40.754  21.342  1.00  0.00     0.056 A 
ATOM      9  C   UNL     1      28.144  41.576  22.138  1.00  0.00     0.116 A 
ATOM     10  H   UNL     1      25.984  39.974  18.057  1.00  0.00     0.166 HD
ENDROOT
BRANCH   9  11
ATOM     11  O   UNL     1      28.619  42.110  23.332  1.00  0.00    -0.508 OA
ATOM     12  H   UNL     1      28.006  42.261  24.124  1.00  0.00     0.293 HD
ENDBRANCH   9  11
TORSDOF 1
ENDMDL
MODEL 9
REMARK VINA RESULT:    -3.341     16.204     17.364
REMARK INTER + INTRA:          -3.439
REMARK INTER:                  -3.439
REMARK INTRA:                   0.000
REMARK UNBOUND:                 0.000
REMARK SMILES Oc1ccc2[nH]ccc2c1
REMARK SMILES IDX 3 1 4 2 5 3 9 4 8 5 7 6 6 7 10 8 2 9 1 11
REMARK H PARENT 6 10 1 12
REMARK Flexibility Score: inf
ROOT
ATOM      1  C   UNL     1      26.175  25.673  29.872  1.00  0.00     0.048 A 
ATOM      2  C   UNL     1      25.890  26.599  28.852  1.00  0.00     0.030 A 
ATOM      3  C   UNL     1      26.870  26.825  27.886  1.00  0.00     0.046 A 
ATOM      4  C   UNL     1      28.075  26.174  27.918  1.00  0.00     0.003 A 
ATOM      5  C   UNL     1      28.810  26.614  26.838  1.00  0.00     0.028 A 
ATOM      6  C   UNL     1      27.990  27.533  26.192  1.00  0.00     0.083 A 
ATOM      7  N   UNL     1      26.806  27.658  26.836  1.00  0.00    -0.361 N 
ATOM      8  C   UNL     1      28.389  25.252  28.914  1.00  0.00     0.056 A 
ATOM      9  C   UNL     1      27.418  24.999  29.907  1.00  0.00     0.116 A 
ATOM     10  H   UNL     1      26.009  28.278  26.568  1.00  0.00     0.166 HD
ENDROOT
BRANCH   9  11
ATOM     11  O   UNL     1      27.674  24.088  30.929  1.00  0.00    -0.508 OA
ATOM     12  H   UNL     1      27.062  23.299  31.098  1.00  0.00     0.293 HD
ENDBRANCH   9  11
TORSDOF 1
ENDMDL
