MODEL 1
REMARK VINA RESULT:    -4.590      0.000      0.000
REMARK INTER + INTRA:          -4.590
REMARK INTER:                  -4.590
REMARK INTRA:                   0.000
REMARK UNBOUND:                 0.000
REMARK SMILES CC(C)=C1CC[C@@H](C)CC1=O
REMARK SMILES IDX 8 1 7 2 6 3 5 4 4 5 2 6 1 7 3 8 10 9 11 10 9 11
REMARK H PARENT
REMARK Flexibility Score: inf
ROOT
ATOM      1  C   UNL     1     -16.376 -39.298 213.357  1.00  0.00     0.008 C 
ATOM      2  C   UNL     1     -16.687 -39.119 211.867  1.00  0.00    -0.006 C 
ATOM      3  C   UNL     1     -16.795 -37.627 211.512  1.00  0.00     0.008 C 
ATOM      4  C   UNL     1     -17.006 -37.426 210.006  1.00  0.00     0.039 C 
ATOM      5  C   UNL     1     -18.173 -38.241 209.466  1.00  0.00    -0.006 C 
ATOM      6  C   UNL     1     -18.930 -37.791 208.422  1.00  0.00    -0.070 C 
ATOM      7  C   UNL     1     -20.125 -38.564 207.914  1.00  0.00     0.039 C 
ATOM      8  C   UNL     1     -18.628 -36.472 207.746  1.00  0.00     0.039 C 
ATOM      9  C   UNL     1     -18.361 -39.596 210.066  1.00  0.00     0.159 C 
ATOM     10  O   UNL     1     -18.820 -40.553 209.388  1.00  0.00    -0.295 OA
ATOM     11  C   UNL     1     -17.993 -39.841 211.500  1.00  0.00     0.084 C 
ENDROOT
TORSDOF 0
ENDMDL
MODEL 2
REMARK VINA RESULT:    -4.500      1.742      4.638
REMARK INTER + INTRA:          -4.500
REMARK INTER:                  -4.500
REMARK INTRA:                   0.000
REMARK UNBOUND:                 0.000
REMARK SMILES CC(C)=C1CC[C@@H](C)CC1=O
REMARK SMILES IDX 8 1 7 2 6 3 5 4 4 5 2 6 1 7 3 8 10 9 11 10 9 11
REMARK H PARENT
REMARK Flexibility Score: inf
ROOT
ATOM      1  C   UNL     1     -18.721 -37.097 207.574  1.00  0.00     0.008 C 
ATOM      2  C   UNL     1     -17.900 -38.013 208.488  1.00  0.00    -0.006 C 
ATOM      3  C   UNL     1     -18.708 -39.266 208.864  1.00  0.00     0.008 C 
ATOM      4  C   UNL     1     -17.867 -40.244 209.696  1.00  0.00     0.039 C 
ATOM      5  C   UNL     1     -17.224 -39.578 210.905  1.00  0.00    -0.006 C 
ATOM      6  C   UNL     1     -17.004 -40.269 212.062  1.00  0.00    -0.070 C 
ATOM      7  C   UNL     1     -16.418 -39.605 213.286  1.00  0.00     0.039 C 
ATOM      8  C   UNL     1     -17.373 -41.730 212.184  1.00  0.00     0.039 C 
ATOM      9  C   UNL     1     -16.750 -38.175 210.707  1.00  0.00     0.159 C 
ATOM     10  O   UNL     1     -15.741 -37.733 211.319  1.00  0.00    -0.295 OA
ATOM     11  C   UNL     1     -17.474 -37.264 209.759  1.00  0.00     0.084 C 
ENDROOT
TORSDOF 0
ENDMDL
MODEL 3
REMARK VINA RESULT:    -4.465      0.995      4.059
REMARK INTER + INTRA:          -4.465
REMARK INTER:                  -4.465
REMARK INTRA:                   0.000
REMARK UNBOUND:                 0.000
REMARK SMILES CC(C)=C1CC[C@@H](C)CC1=O
REMARK SMILES IDX 8 1 7 2 6 3 5 4 4 5 2 6 1 7 3 8 10 9 11 10 9 11
REMARK H PARENT
REMARK Flexibility Score: inf
ROOT
ATOM      1  C   UNL     1     -18.613 -37.155 207.364  1.00  0.00     0.008 C 
ATOM      2  C   UNL     1     -18.649 -37.776 208.765  1.00  0.00    -0.006 C 
ATOM      3  C   UNL     1     -17.438 -37.316 209.593  1.00  0.00     0.008 C 
ATOM      4  C   UNL     1     -17.510 -37.847 211.030  1.00  0.00     0.039 C 
ATOM      5  C   UNL     1     -17.718 -39.354 211.086  1.00  0.00    -0.006 C 
ATOM      6  C   UNL     1     -17.201 -40.104 212.103  1.00  0.00    -0.070 C 
ATOM      7  C   UNL     1     -17.352 -41.607 212.140  1.00  0.00     0.039 C 
ATOM      8  C   UNL     1     -16.415 -39.466 213.226  1.00  0.00     0.039 C 
ATOM      9  C   UNL     1     -18.610 -39.933 210.037  1.00  0.00     0.159 C 
ATOM     10  O   UNL     1     -19.327 -40.941 210.273  1.00  0.00    -0.295 OA
ATOM     11  C   UNL     1     -18.669 -39.309 208.673  1.00  0.00     0.084 C 
ENDROOT
TORSDOF 0
ENDMDL
MODEL 4
REMARK VINA RESULT:    -4.410      1.787      1.944
REMARK INTER + INTRA:          -4.410
REMARK INTER:                  -4.410
REMARK INTRA:                   0.000
REMARK UNBOUND:                 0.000
REMARK SMILES CC(C)=C1CC[C@@H](C)CC1=O
REMARK SMILES IDX 8 1 7 2 6 3 5 4 4 5 2 6 1 7 3 8 10 9 11 10 9 11
REMARK H PARENT
REMARK Flexibility Score: inf
ROOT
ATOM      1  C   UNL     1     -16.376 -40.077 213.239  1.00  0.00     0.008 C 
ATOM      2  C   UNL     1     -16.351 -39.240 211.955  1.00  0.00    -0.006 C 
ATOM      3  C   UNL     1     -17.706 -38.547 211.734  1.00  0.00     0.008 C 
ATOM      4  C   UNL     1     -17.667 -37.625 210.508  1.00  0.00     0.039 C 
ATOM      5  C   UNL     1     -17.162 -38.335 209.260  1.00  0.00    -0.006 C 
ATOM      6  C   UNL     1     -17.612 -37.991 208.017  1.00  0.00    -0.070 C 
ATOM      7  C   UNL     1     -17.161 -38.725 206.776  1.00  0.00     0.039 C 
ATOM      8  C   UNL     1     -18.618 -36.877 207.828  1.00  0.00     0.039 C 
ATOM      9  C   UNL     1     -16.073 -39.335 209.468  1.00  0.00     0.159 C 
ATOM     10  O   UNL     1     -15.191 -39.534 208.591  1.00  0.00    -0.295 OA
ATOM     11  C   UNL     1     -16.009 -40.122 210.745  1.00  0.00     0.084 C 
ENDROOT
TORSDOF 0
ENDMDL
MODEL 5
REMARK VINA RESULT:    -4.388      2.098      2.803
REMARK INTER + INTRA:          -4.388
REMARK INTER:                  -4.388
REMARK INTRA:                   0.000
REMARK UNBOUND:                 0.000
REMARK SMILES CC(C)=C1CC[C@@H](C)CC1=O
REMARK SMILES IDX 8 1 7 2 6 3 5 4 4 5 2 6 1 7 3 8 10 9 11 10 9 11
REMARK H PARENT
REMARK Flexibility Score: inf
ROOT
ATOM      1  C   UNL     1     -15.957 -42.078 213.535  1.00  0.00     0.008 C 
ATOM      2  C   UNL     1     -16.606 -41.418 212.313  1.00  0.00    -0.006 C 
ATOM      3  C   UNL     1     -15.666 -41.485 211.098  1.00  0.00     0.008 C 
ATOM      4  C   UNL     1     -16.339 -40.920 209.840  1.00  0.00     0.039 C 
ATOM      5  C   UNL     1     -16.912 -39.527 210.061  1.00  0.00    -0.006 C 
ATOM      6  C   UNL     1     -16.961 -38.612 209.048  1.00  0.00    -0.070 C 
ATOM      7  C   UNL     1     -17.475 -37.208 209.268  1.00  0.00     0.039 C 
ATOM      8  C   UNL     1     -16.464 -38.951 207.661  1.00  0.00     0.039 C 
ATOM      9  C   UNL     1     -17.516 -39.270 211.402  1.00  0.00     0.159 C 
ATOM     10  O   UNL     1     -18.492 -38.486 211.541  1.00  0.00    -0.295 OA
ATOM     11  C   UNL     1     -16.965 -39.957 212.619  1.00  0.00     0.084 C 
ENDROOT
TORSDOF 0
ENDMDL
MODEL 6
REMARK VINA RESULT:    -4.258      1.696      2.630
REMARK INTER + INTRA:          -4.258
REMARK INTER:                  -4.258
REMARK INTRA:                   0.000
REMARK UNBOUND:                 0.000
REMARK SMILES CC(C)=C1CC[C@@H](C)CC1=O
REMARK SMILES IDX 8 1 7 2 6 3 5 4 4 5 2 6 1 7 3 8 10 9 11 10 9 11
REMARK H PARENT
REMARK Flexibility Score: inf
ROOT
ATOM      1  C   UNL     1     -16.007 -41.403 213.328  1.00  0.00     0.008 C 
ATOM      2  C   UNL     1     -16.915 -40.382 212.635  1.00  0.00    -0.006 C 
ATOM      3  C   UNL     1     -17.950 -41.092 211.747  1.00  0.00     0.008 C 
ATOM      4  C   UNL     1     -18.932 -40.091 211.124  1.00  0.00     0.039 C 
ATOM      5  C   UNL     1     -18.225 -38.953 210.401  1.00  0.00    -0.006 C 
ATOM      6  C   UNL     1     -18.778 -38.357 209.304  1.00  0.00    -0.070 C 
ATOM      7  C   UNL     1     -18.061 -37.265 208.545  1.00  0.00     0.039 C 
ATOM      8  C   UNL     1     -20.125 -38.792 208.772  1.00  0.00     0.039 C 
ATOM      9  C   UNL     1     -16.963 -38.459 211.030  1.00  0.00     0.159 C 
ATOM     10  O   UNL     1     -16.619 -37.251 210.944  1.00  0.00    -0.295 OA
ATOM     11  C   UNL     1     -16.081 -39.407 211.790  1.00  0.00     0.084 C 
ENDROOT
TORSDOF 0
ENDMDL
MODEL 7
REMARK VINA RESULT:    -4.148      2.475      2.868
REMARK INTER + INTRA:          -4.148
REMARK INTER:                  -4.148
REMARK INTRA:                   0.000
REMARK UNBOUND:                 0.000
REMARK SMILES CC(C)=C1CC[C@@H](C)CC1=O
REMARK SMILES IDX 8 1 7 2 6 3 5 4 4 5 2 6 1 7 3 8 10 9 11 10 9 11
REMARK H PARENT
REMARK Flexibility Score: inf
ROOT
ATOM      1  C   UNL     1     -17.101 -37.622 212.484  1.00  0.00     0.008 C 
ATOM      2  C   UNL     1     -17.030 -38.357 211.141  1.00  0.00    -0.006 C 
ATOM      3  C   UNL     1     -15.570 -38.519 210.689  1.00  0.00     0.008 C 
ATOM      4  C   UNL     1     -15.474 -39.340 209.396  1.00  0.00     0.039 C 
ATOM      5  C   UNL     1     -16.371 -38.798 208.292  1.00  0.00    -0.006 C 
ATOM      6  C   UNL     1     -16.021 -38.907 206.976  1.00  0.00    -0.070 C 
ATOM      7  C   UNL     1     -16.876 -38.323 205.875  1.00  0.00     0.039 C 
ATOM      8  C   UNL     1     -14.737 -39.587 206.561  1.00  0.00     0.039 C 
ATOM      9  C   UNL     1     -17.692 -38.254 208.728  1.00  0.00     0.159 C 
ATOM     10  O   UNL     1     -18.710 -38.338 207.989  1.00  0.00    -0.295 OA
ATOM     11  C   UNL     1     -17.829 -37.598 210.071  1.00  0.00     0.084 C 
ENDROOT
TORSDOF 0
ENDMDL
MODEL 8
REMARK VINA RESULT:    -4.147      2.536      4.850
REMARK INTER + INTRA:          -4.147
REMARK INTER:                  -4.147
REMARK INTRA:                   0.000
REMARK UNBOUND:                 0.000
REMARK SMILES CC(C)=C1CC[C@@H](C)CC1=O
REMARK SMILES IDX 8 1 7 2 6 3 5 4 4 5 2 6 1 7 3 8 10 9 11 10 9 11
REMARK H PARENT
REMARK Flexibility Score: inf
ROOT
ATOM      1  C   UNL     1     -16.287 -39.760 206.521  1.00  0.00     0.008 C 
ATOM      2  C   UNL     1     -15.861 -39.681 207.991  1.00  0.00    -0.006 C 
ATOM      3  C   UNL     1     -16.336 -40.925 208.760  1.00  0.00     0.008 C 
ATOM      4  C   UNL     1     -15.831 -40.911 210.209  1.00  0.00     0.039 C 
ATOM      5  C   UNL     1     -16.166 -39.613 210.931  1.00  0.00    -0.006 C 
ATOM      6  C   UNL     1     -16.411 -39.592 212.275  1.00  0.00    -0.070 C 
ATOM      7  C   UNL     1     -16.799 -38.320 212.993  1.00  0.00     0.039 C 
ATOM      8  C   UNL     1     -16.342 -40.854 213.104  1.00  0.00     0.039 C 
ATOM      9  C   UNL     1     -16.094 -38.367 210.110  1.00  0.00     0.159 C 
ATOM     10  O   UNL     1     -15.753 -37.267 210.620  1.00  0.00    -0.295 OA
ATOM     11  C   UNL     1     -16.425 -38.412 208.647  1.00  0.00     0.084 C 
ENDROOT
TORSDOF 0
ENDMDL
MODEL 9
REMARK VINA RESULT:    -4.113      1.625      2.515
REMARK INTER + INTRA:          -4.113
REMARK INTER:                  -4.113
REMARK INTRA:                   0.000
REMARK UNBOUND:                 0.000
REMARK SMILES CC(C)=C1CC[C@@H](C)CC1=O
REMARK SMILES IDX 8 1 7 2 6 3 5 4 4 5 2 6 1 7 3 8 10 9 11 10 9 11
REMARK H PARENT
REMARK Flexibility Score: inf
ROOT
ATOM      1  C   UNL     1     -16.467 -38.379 212.997  1.00  0.00     0.008 C 
ATOM      2  C   UNL     1     -17.497 -38.348 211.862  1.00  0.00    -0.006 C 
ATOM      3  C   UNL     1     -17.997 -39.767 211.547  1.00  0.00     0.008 C 
ATOM      4  C   UNL     1     -19.103 -39.745 210.483  1.00  0.00     0.039 C 
ATOM      5  C   UNL     1     -18.695 -38.977 209.234  1.00  0.00    -0.006 C 
ATOM      6  C   UNL     1     -19.165 -39.329 208.000  1.00  0.00    -0.070 C 
ATOM      7  C   UNL     1     -18.725 -38.610 206.746  1.00  0.00     0.039 C 
ATOM      8  C   UNL     1     -20.124 -40.485 207.827  1.00  0.00     0.039 C 
ATOM      9  C   UNL     1     -17.856 -37.762 209.454  1.00  0.00     0.159 C 
ATOM     10  O   UNL     1     -17.944 -36.760 208.695  1.00  0.00    -0.295 OA
ATOM     11  C   UNL     1     -16.890 -37.714 210.602  1.00  0.00     0.084 C 
ENDROOT
TORSDOF 0
ENDMDL
