MODEL 1
REMARK VINA RESULT:    -8.159      0.000      0.000
REMARK INTER + INTRA:         -11.744
REMARK INTER:                 -11.020
REMARK INTRA:                  -0.723
REMARK UNBOUND:                -0.723
REMARK SMILES O=c1c(-c2ccc(O)cc2)coc2c([C@H]3O[C@H](CO)[C@@H](O)[C@@H](O)[C@H]3O)c(O)ccc12
REMARK SMILES IDX 3 1 11 2 12 3 13 4 30 5 2 6 1 7 29 8 28 9 26 10 14 11 4 12
REMARK SMILES IDX 5 13 6 14 7 15 10 16 9 17 8 18 15 20 24 21 16 22 22 23 17 24
REMARK SMILES IDX 20 25 25 26 23 28 18 30 19 31 21 33 27 35
REMARK H PARENT 8 19 25 27 23 29 19 32 21 34 27 36
REMARK Flexibility Score: inf
ROOT
ATOM      1  C   UNL     1      46.135  -6.325  25.642  1.00  0.00     0.065 A 
ATOM      2  C   UNL     1      45.039  -6.959  26.206  1.00  0.00     0.208 A 
ATOM      3  O   UNL     1      44.308  -6.351  27.135  1.00  0.00    -0.463 OA
ATOM      4  C   UNL     1      44.549  -5.108  27.546  1.00  0.00     0.147 A 
ATOM      5  C   UNL     1      45.623  -4.382  26.981  1.00  0.00     0.066 A 
ATOM      6  C   UNL     1      46.432  -5.017  26.040  1.00  0.00     0.200 A 
ATOM      7  O   UNL     1      47.439  -4.421  25.545  1.00  0.00    -0.288 OA
ATOM      8  C   UNL     1      45.868  -3.068  27.407  1.00  0.00     0.020 A 
ATOM      9  C   UNL     1      45.075  -2.505  28.407  1.00  0.00     0.047 A 
ATOM     10  C   UNL     1      44.043  -3.222  28.996  1.00  0.00     0.125 A 
ATOM     11  C   UNL     1      43.736  -4.526  28.555  1.00  0.00     0.069 A 
ENDROOT
BRANCH   1  12
ATOM     12  C   UNL     1      46.916  -6.980  24.571  1.00  0.00    -0.011 A 
ATOM     13  C   UNL     1      46.307  -7.302  23.340  1.00  0.00     0.013 A 
ATOM     14  C   UNL     1      47.087  -7.790  22.276  1.00  0.00     0.047 A 
ATOM     15  C   UNL     1      48.454  -8.039  22.469  1.00  0.00     0.115 A 
ATOM     16  C   UNL     1      48.289  -7.233  24.760  1.00  0.00     0.013 A 
ATOM     17  C   UNL     1      49.066  -7.700  23.688  1.00  0.00     0.047 A 
BRANCH  15  18
ATOM     18  O   UNL     1      49.220  -8.553  21.425  1.00  0.00    -0.508 OA
ATOM     19  H   UNL     1      50.221  -8.365  21.409  1.00  0.00     0.293 HD
ENDBRANCH  15  18
ENDBRANCH   1  12
BRANCH  11  20
ATOM     20  C   UNL     1      42.589  -5.304  29.201  1.00  0.00     0.188 C 
ATOM     21  C   UNL     1      41.206  -5.020  28.534  1.00  0.00     0.179 C 
ATOM     22  O   UNL     1      42.565  -5.075  30.599  1.00  0.00    -0.362 OA
ATOM     23  C   UNL     1      40.068  -5.825  29.249  1.00  0.00     0.177 C 
ATOM     24  C   UNL     1      41.682  -5.985  31.249  1.00  0.00     0.176 C 
ATOM     25  C   UNL     1      40.229  -5.739  30.805  1.00  0.00     0.177 C 
BRANCH  21  26
ATOM     26  O   UNL     1      40.847  -3.657  28.580  1.00  0.00    -0.387 OA
ATOM     27  H   UNL     1      41.091  -3.305  29.482  1.00  0.00     0.211 HD
ENDBRANCH  21  26
BRANCH  23  28
ATOM     28  O   UNL     1      38.813  -5.327  28.869  1.00  0.00    -0.387 OA
ATOM     29  H   UNL     1      38.972  -4.525  28.294  1.00  0.00     0.211 HD
ENDBRANCH  23  28
BRANCH  24  30
ATOM     30  C   UNL     1      42.123  -7.480  31.141  1.00  0.00     0.191 C 
BRANCH  30  31
ATOM     31  O   UNL     1      42.509  -8.003  32.394  1.00  0.00    -0.394 OA
ATOM     32  H   UNL     1      43.374  -7.553  32.620  1.00  0.00     0.210 HD
ENDBRANCH  30  31
ENDBRANCH  24  30
BRANCH  25  33
ATOM     33  O   UNL     1      39.879  -4.454  31.270  1.00  0.00    -0.388 OA
ATOM     34  H   UNL     1      39.792  -3.852  30.482  1.00  0.00     0.211 HD
ENDBRANCH  25  33
ENDBRANCH  11  20
BRANCH  10  35
ATOM     35  O   UNL     1      43.352  -2.665  30.070  1.00  0.00    -0.507 OA
ATOM     36  H   UNL     1      43.460  -3.021  31.007  1.00  0.00     0.293 HD
ENDBRANCH  10  35
TORSDOF 9
ENDMDL
MODEL 2
REMARK VINA RESULT:    -7.852      1.136      1.516
REMARK INTER + INTRA:         -11.330
REMARK INTER:                 -11.682
REMARK INTRA:                   0.352
REMARK UNBOUND:                -0.723
REMARK SMILES O=c1c(-c2ccc(O)cc2)coc2c([C@H]3O[C@H](CO)[C@@H](O)[C@@H](O)[C@H]3O)c(O)ccc12
REMARK SMILES IDX 3 1 11 2 12 3 13 4 30 5 2 6 1 7 29 8 28 9 26 10 14 11 4 12
REMARK SMILES IDX 5 13 6 14 7 15 10 16 9 17 8 18 15 20 24 21 16 22 22 23 17 24
REMARK SMILES IDX 20 25 25 26 23 28 18 30 19 31 21 33 27 35
REMARK H PARENT 8 19 25 27 23 29 19 32 21 34 27 36
REMARK Flexibility Score: inf
ROOT
ATOM      1  C   UNL     1      46.061  -6.178  25.508  1.00  0.00     0.065 A 
ATOM      2  C   UNL     1      44.821  -6.661  25.897  1.00  0.00     0.208 A 
ATOM      3  O   UNL     1      44.076  -5.991  26.771  1.00  0.00    -0.463 OA
ATOM      4  C   UNL     1      44.444  -4.821  27.288  1.00  0.00     0.147 A 
ATOM      5  C   UNL     1      45.677  -4.245  26.902  1.00  0.00     0.066 A 
ATOM      6  C   UNL     1      46.495  -4.952  26.024  1.00  0.00     0.200 A 
ATOM      7  O   UNL     1      47.633  -4.496  25.691  1.00  0.00    -0.288 OA
ATOM      8  C   UNL     1      46.057  -3.005  27.439  1.00  0.00     0.020 A 
ATOM      9  C   UNL     1      45.236  -2.374  28.373  1.00  0.00     0.047 A 
ATOM     10  C   UNL     1      44.044  -2.950  28.789  1.00  0.00     0.125 A 
ATOM     11  C   UNL     1      43.605  -4.168  28.231  1.00  0.00     0.069 A 
ENDROOT
BRANCH   1  12
ATOM     12  C   UNL     1      46.865  -6.896  24.497  1.00  0.00    -0.011 A 
ATOM     13  C   UNL     1      46.273  -7.323  23.289  1.00  0.00     0.013 A 
ATOM     14  C   UNL     1      47.074  -7.873  22.271  1.00  0.00     0.047 A 
ATOM     15  C   UNL     1      48.443  -8.077  22.492  1.00  0.00     0.115 A 
ATOM     16  C   UNL     1      48.241  -7.104  24.714  1.00  0.00     0.013 A 
ATOM     17  C   UNL     1      49.037  -7.634  23.687  1.00  0.00     0.047 A 
BRANCH  15  18
ATOM     18  O   UNL     1      49.230  -8.652  21.496  1.00  0.00    -0.508 OA
ATOM     19  H   UNL     1      50.197  -8.351  21.396  1.00  0.00     0.293 HD
ENDBRANCH  15  18
ENDBRANCH   1  12
BRANCH  11  20
ATOM     20  C   UNL     1      42.284  -4.789  28.685  1.00  0.00     0.188 C 
ATOM     21  C   UNL     1      41.617  -5.677  27.588  1.00  0.00     0.179 C 
ATOM     22  O   UNL     1      41.407  -3.784  29.165  1.00  0.00    -0.362 OA
ATOM     23  C   UNL     1      40.259  -6.268  28.099  1.00  0.00     0.177 C 
ATOM     24  C   UNL     1      40.287  -4.361  29.830  1.00  0.00     0.176 C 
ATOM     25  C   UNL     1      39.427  -5.167  28.841  1.00  0.00     0.177 C 
BRANCH  21  26
ATOM     26  O   UNL     1      41.344  -4.966  26.400  1.00  0.00    -0.387 OA
ATOM     27  H   UNL     1      42.211  -4.809  25.931  1.00  0.00     0.211 HD
ENDBRANCH  21  26
BRANCH  23  28
ATOM     28  O   UNL     1      39.522  -6.783  27.023  1.00  0.00    -0.387 OA
ATOM     29  H   UNL     1      40.119  -6.778  26.222  1.00  0.00     0.211 HD
ENDBRANCH  23  28
BRANCH  24  30
ATOM     30  C   UNL     1      40.660  -5.154  31.122  1.00  0.00     0.191 C 
BRANCH  30  31
ATOM     31  O   UNL     1      41.373  -4.353  32.040  1.00  0.00    -0.394 OA
ATOM     32  H   UNL     1      40.696  -4.027  32.699  1.00  0.00     0.210 HD
ENDBRANCH  30  31
ENDBRANCH  24  30
BRANCH  25  33
ATOM     33  O   UNL     1      38.899  -4.239  27.919  1.00  0.00    -0.388 OA
ATOM     34  H   UNL     1      38.659  -4.730  27.086  1.00  0.00     0.211 HD
ENDBRANCH  25  33
ENDBRANCH  11  20
BRANCH  10  35
ATOM     35  O   UNL     1      43.313  -2.343  29.809  1.00  0.00    -0.507 OA
ATOM     36  H   UNL     1      43.759  -2.010  30.649  1.00  0.00     0.293 HD
ENDBRANCH  10  35
TORSDOF 9
ENDMDL
MODEL 3
REMARK VINA RESULT:    -7.659      4.498      7.296
REMARK INTER + INTRA:         -11.069
REMARK INTER:                 -10.504
REMARK INTRA:                  -0.565
REMARK UNBOUND:                -0.723
REMARK SMILES O=c1c(-c2ccc(O)cc2)coc2c([C@H]3O[C@H](CO)[C@@H](O)[C@@H](O)[C@H]3O)c(O)ccc12
REMARK SMILES IDX 3 1 11 2 12 3 13 4 30 5 2 6 1 7 29 8 28 9 26 10 14 11 4 12
REMARK SMILES IDX 5 13 6 14 7 15 10 16 9 17 8 18 15 20 24 21 16 22 22 23 17 24
REMARK SMILES IDX 20 25 25 26 23 28 18 30 19 31 21 33 27 35
REMARK H PARENT 8 19 25 27 23 29 19 32 21 34 27 36
REMARK Flexibility Score: inf
ROOT
ATOM      1  C   UNL     1      43.246  -3.091  29.483  1.00  0.00     0.065 A 
ATOM      2  C   UNL     1      43.408  -1.719  29.366  1.00  0.00     0.208 A 
ATOM      3  O   UNL     1      43.176  -0.918  30.401  1.00  0.00    -0.463 OA
ATOM      4  C   UNL     1      42.819  -1.373  31.600  1.00  0.00     0.147 A 
ATOM      5  C   UNL     1      42.679  -2.765  31.806  1.00  0.00     0.066 A 
ATOM      6  C   UNL     1      42.871  -3.619  30.723  1.00  0.00     0.200 A 
ATOM      7  O   UNL     1      42.705  -4.872  30.849  1.00  0.00    -0.288 OA
ATOM      8  C   UNL     1      42.316  -3.242  33.075  1.00  0.00     0.020 A 
ATOM      9  C   UNL     1      42.061  -2.340  34.108  1.00  0.00     0.047 A 
ATOM     10  C   UNL     1      42.157  -0.970  33.906  1.00  0.00     0.125 A 
ATOM     11  C   UNL     1      42.571  -0.458  32.659  1.00  0.00     0.069 A 
ENDROOT
BRANCH   1  12
ATOM     12  C   UNL     1      43.555  -3.985  28.347  1.00  0.00    -0.011 A 
ATOM     13  C   UNL     1      44.883  -4.395  28.105  1.00  0.00     0.013 A 
ATOM     14  C   UNL     1      45.152  -5.359  27.115  1.00  0.00     0.047 A 
ATOM     15  C   UNL     1      44.110  -5.845  26.312  1.00  0.00     0.115 A 
ATOM     16  C   UNL     1      42.512  -4.476  27.537  1.00  0.00     0.013 A 
ATOM     17  C   UNL     1      42.784  -5.452  26.566  1.00  0.00     0.047 A 
BRANCH  15  18
ATOM     18  O   UNL     1      44.381  -6.776  25.311  1.00  0.00    -0.508 OA
ATOM     19  H   UNL     1      45.336  -7.108  25.193  1.00  0.00     0.293 HD
ENDBRANCH  15  18
ENDBRANCH   1  12
BRANCH  11  20
ATOM     20  C   UNL     1      42.686   1.052  32.450  1.00  0.00     0.188 C 
ATOM     21  C   UNL     1      41.468   1.657  31.681  1.00  0.00     0.179 C 
ATOM     22  O   UNL     1      43.919   1.371  31.831  1.00  0.00    -0.362 OA
ATOM     23  C   UNL     1      41.649   3.199  31.477  1.00  0.00     0.177 C 
ATOM     24  C   UNL     1      44.159   2.775  31.867  1.00  0.00     0.176 C 
ATOM     25  C   UNL     1      43.113   3.525  31.022  1.00  0.00     0.177 C 
BRANCH  21  26
ATOM     26  O   UNL     1      41.288   1.083  30.405  1.00  0.00    -0.387 OA
ATOM     27  H   UNL     1      40.381   1.344  30.077  1.00  0.00     0.211 HD
ENDBRANCH  21  26
BRANCH  23  28
ATOM     28  O   UNL     1      40.736   3.670  30.522  1.00  0.00    -0.387 OA
ATOM     29  H   UNL     1      40.527   2.910  29.909  1.00  0.00     0.211 HD
ENDBRANCH  23  28
BRANCH  24  30
ATOM     30  C   UNL     1      44.325   3.351  33.309  1.00  0.00     0.191 C 
BRANCH  30  31
ATOM     31  O   UNL     1      45.480   2.845  33.945  1.00  0.00    -0.394 OA
ATOM     32  H   UNL     1      45.204   1.974  34.353  1.00  0.00     0.210 HD
ENDBRANCH  30  31
ENDBRANCH  24  30
BRANCH  25  33
ATOM     33  O   UNL     1      43.318   3.126  29.684  1.00  0.00    -0.388 OA
ATOM     34  H   UNL     1      42.546   2.561  29.408  1.00  0.00     0.211 HD
ENDBRANCH  25  33
ENDBRANCH  11  20
BRANCH  10  35
ATOM     35  O   UNL     1      41.780  -0.102  34.930  1.00  0.00    -0.507 OA
ATOM     36  H   UNL     1      42.382   0.648  35.232  1.00  0.00     0.293 HD
ENDBRANCH  10  35
TORSDOF 9
ENDMDL
MODEL 4
REMARK VINA RESULT:    -7.400      3.656      6.048
REMARK INTER + INTRA:         -10.719
REMARK INTER:                 -10.321
REMARK INTRA:                  -0.398
REMARK UNBOUND:                -0.723
REMARK SMILES O=c1c(-c2ccc(O)cc2)coc2c([C@H]3O[C@H](CO)[C@@H](O)[C@@H](O)[C@H]3O)c(O)ccc12
REMARK SMILES IDX 3 1 11 2 12 3 13 4 30 5 2 6 1 7 29 8 28 9 26 10 14 11 4 12
REMARK SMILES IDX 5 13 6 14 7 15 10 16 9 17 8 18 15 20 24 21 16 22 22 23 17 24
REMARK SMILES IDX 20 25 25 26 23 28 18 30 19 31 21 33 27 35
REMARK H PARENT 8 19 25 27 23 29 19 32 21 34 27 36
REMARK Flexibility Score: inf
ROOT
ATOM      1  C   UNL     1      44.197  -3.947  27.873  1.00  0.00     0.065 A 
ATOM      2  C   UNL     1      44.734  -2.913  28.624  1.00  0.00     0.208 A 
ATOM      3  O   UNL     1      43.945  -2.097  29.316  1.00  0.00    -0.463 OA
ATOM      4  C   UNL     1      42.622  -2.239  29.363  1.00  0.00     0.147 A 
ATOM      5  C   UNL     1      42.008  -3.300  28.658  1.00  0.00     0.066 A 
ATOM      6  C   UNL     1      42.812  -4.139  27.889  1.00  0.00     0.200 A 
ATOM      7  O   UNL     1      42.297  -5.073  27.198  1.00  0.00    -0.288 OA
ATOM      8  C   UNL     1      40.615  -3.455  28.720  1.00  0.00     0.020 A 
ATOM      9  C   UNL     1      39.848  -2.542  29.444  1.00  0.00     0.047 A 
ATOM     10  C   UNL     1      40.436  -1.475  30.107  1.00  0.00     0.125 A 
ATOM     11  C   UNL     1      41.838  -1.319  30.110  1.00  0.00     0.069 A 
ENDROOT
BRANCH   1  12
ATOM     12  C   UNL     1      45.079  -4.887  27.148  1.00  0.00    -0.011 A 
ATOM     13  C   UNL     1      46.212  -4.410  26.457  1.00  0.00     0.013 A 
ATOM     14  C   UNL     1      47.126  -5.320  25.893  1.00  0.00     0.047 A 
ATOM     15  C   UNL     1      46.862  -6.697  25.944  1.00  0.00     0.115 A 
ATOM     16  C   UNL     1      44.818  -6.270  27.196  1.00  0.00     0.013 A 
ATOM     17  C   UNL     1      45.743  -7.174  26.649  1.00  0.00     0.047 A 
BRANCH  15  18
ATOM     18  O   UNL     1      47.750  -7.597  25.357  1.00  0.00    -0.508 OA
ATOM     19  H   UNL     1      48.308  -7.291  24.563  1.00  0.00     0.293 HD
ENDBRANCH  15  18
ENDBRANCH   1  12
BRANCH  11  20
ATOM     20  C   UNL     1      42.478  -0.147  30.854  1.00  0.00     0.188 C 
ATOM     21  C   UNL     1      42.829  -0.483  32.338  1.00  0.00     0.179 C 
ATOM     22  O   UNL     1      41.664   1.008  30.746  1.00  0.00    -0.362 OA
ATOM     23  C   UNL     1      43.460   0.758  33.056  1.00  0.00     0.177 C 
ATOM     24  C   UNL     1      42.360   2.165  31.200  1.00  0.00     0.176 C 
ATOM     25  C   UNL     1      42.660   2.059  32.707  1.00  0.00     0.177 C 
BRANCH  21  26
ATOM     26  O   UNL     1      41.701  -0.874  33.090  1.00  0.00    -0.387 OA
ATOM     27  H   UNL     1      41.998  -1.020  34.033  1.00  0.00     0.211 HD
ENDBRANCH  21  26
BRANCH  23  28
ATOM     28  O   UNL     1      43.469   0.559  34.444  1.00  0.00    -0.387 OA
ATOM     29  H   UNL     1      42.807   1.194  34.841  1.00  0.00     0.211 HD
ENDBRANCH  23  28
BRANCH  24  30
ATOM     30  C   UNL     1      43.611   2.530  30.339  1.00  0.00     0.191 C 
BRANCH  30  31
ATOM     31  O   UNL     1      43.311   3.516  29.374  1.00  0.00    -0.394 OA
ATOM     32  H   UNL     1      44.130   4.087  29.307  1.00  0.00     0.210 HD
ENDBRANCH  30  31
ENDBRANCH  24  30
BRANCH  25  33
ATOM     33  O   UNL     1      41.413   2.068  33.366  1.00  0.00    -0.388 OA
ATOM     34  H   UNL     1      41.236   2.996  33.682  1.00  0.00     0.211 HD
ENDBRANCH  25  33
ENDBRANCH  11  20
BRANCH  10  35
ATOM     35  O   UNL     1      39.624  -0.522  30.719  1.00  0.00    -0.507 OA
ATOM     36  H   UNL     1      38.892  -0.049  30.211  1.00  0.00     0.293 HD
ENDBRANCH  10  35
TORSDOF 9
ENDMDL
MODEL 5
REMARK VINA RESULT:    -7.358      2.382      4.155
REMARK INTER + INTRA:         -10.663
REMARK INTER:                  -9.999
REMARK INTRA:                  -0.664
REMARK UNBOUND:                -0.723
REMARK SMILES O=c1c(-c2ccc(O)cc2)coc2c([C@H]3O[C@H](CO)[C@@H](O)[C@@H](O)[C@H]3O)c(O)ccc12
REMARK SMILES IDX 3 1 11 2 12 3 13 4 30 5 2 6 1 7 29 8 28 9 26 10 14 11 4 12
REMARK SMILES IDX 5 13 6 14 7 15 10 16 9 17 8 18 15 20 24 21 16 22 22 23 17 24
REMARK SMILES IDX 20 25 25 26 23 28 18 30 19 31 21 33 27 35
REMARK H PARENT 8 19 25 27 23 29 19 32 21 34 27 36
REMARK Flexibility Score: inf
ROOT
ATOM      1  C   UNL     1      45.434  -5.092  26.722  1.00  0.00     0.065 A 
ATOM      2  C   UNL     1      45.596  -4.262  27.821  1.00  0.00     0.208 A 
ATOM      3  O   UNL     1      44.542  -3.815  28.494  1.00  0.00    -0.463 OA
ATOM      4  C   UNL     1      43.291  -4.156  28.189  1.00  0.00     0.147 A 
ATOM      5  C   UNL     1      43.052  -5.035  27.107  1.00  0.00     0.066 A 
ATOM      6  C   UNL     1      44.140  -5.479  26.359  1.00  0.00     0.200 A 
ATOM      7  O   UNL     1      43.967  -6.228  25.348  1.00  0.00    -0.288 OA
ATOM      8  C   UNL     1      41.734  -5.403  26.795  1.00  0.00     0.020 A 
ATOM      9  C   UNL     1      40.674  -4.870  27.529  1.00  0.00     0.047 A 
ATOM     10  C   UNL     1      40.895  -3.975  28.567  1.00  0.00     0.125 A 
ATOM     11  C   UNL     1      42.209  -3.625  28.941  1.00  0.00     0.069 A 
ENDROOT
BRANCH   1  12
ATOM     12  C   UNL     1      46.609  -5.632  26.006  1.00  0.00    -0.011 A 
ATOM     13  C   UNL     1      46.770  -7.025  25.852  1.00  0.00     0.013 A 
ATOM     14  C   UNL     1      47.809  -7.528  25.047  1.00  0.00     0.047 A 
ATOM     15  C   UNL     1      48.736  -6.647  24.471  1.00  0.00     0.115 A 
ATOM     16  C   UNL     1      47.543  -4.751  25.426  1.00  0.00     0.013 A 
ATOM     17  C   UNL     1      48.565  -5.257  24.608  1.00  0.00     0.047 A 
BRANCH  15  18
ATOM     18  O   UNL     1      49.784  -7.146  23.701  1.00  0.00    -0.508 OA
ATOM     19  H   UNL     1      49.883  -6.829  22.739  1.00  0.00     0.293 HD
ENDBRANCH  15  18
ENDBRANCH   1  12
BRANCH  11  20
ATOM     20  C   UNL     1      42.443  -2.649  30.094  1.00  0.00     0.188 C 
ATOM     21  C   UNL     1      42.298  -3.316  31.499  1.00  0.00     0.179 C 
ATOM     22  O   UNL     1      41.610  -1.512  29.954  1.00  0.00    -0.362 OA
ATOM     23  C   UNL     1      42.527  -2.267  32.639  1.00  0.00     0.177 C 
ATOM     24  C   UNL     1      41.996  -0.482  30.860  1.00  0.00     0.176 C 
ATOM     25  C   UNL     1      41.775  -0.931  32.316  1.00  0.00     0.177 C 
BRANCH  21  26
ATOM     26  O   UNL     1      41.025  -3.887  31.704  1.00  0.00    -0.387 OA
ATOM     27  H   UNL     1      40.940  -4.673  31.094  1.00  0.00     0.211 HD
ENDBRANCH  21  26
BRANCH  23  28
ATOM     28  O   UNL     1      42.082  -2.782  33.865  1.00  0.00    -0.387 OA
ATOM     29  H   UNL     1      41.219  -3.257  33.694  1.00  0.00     0.211 HD
ENDBRANCH  23  28
BRANCH  24  30
ATOM     30  C   UNL     1      43.425   0.090  30.594  1.00  0.00     0.191 C 
BRANCH  30  31
ATOM     31  O   UNL     1      43.402   1.489  30.410  1.00  0.00    -0.394 OA
ATOM     32  H   UNL     1      44.127   1.688  29.751  1.00  0.00     0.210 HD
ENDBRANCH  30  31
ENDBRANCH  24  30
BRANCH  25  33
ATOM     33  O   UNL     1      40.382  -1.093  32.478  1.00  0.00    -0.388 OA
ATOM     34  H   UNL     1      40.083  -0.489  33.211  1.00  0.00     0.211 HD
ENDBRANCH  25  33
ENDBRANCH  11  20
BRANCH  10  35
ATOM     35  O   UNL     1      39.804  -3.378  29.196  1.00  0.00    -0.507 OA
ATOM     36  H   UNL     1      39.686  -3.421  30.196  1.00  0.00     0.293 HD
ENDBRANCH  10  35
TORSDOF 9
ENDMDL
MODEL 6
REMARK VINA RESULT:    -7.306      4.769      7.698
REMARK INTER + INTRA:         -10.591
REMARK INTER:                  -9.812
REMARK INTRA:                  -0.779
REMARK UNBOUND:                -0.723
REMARK SMILES O=c1c(-c2ccc(O)cc2)coc2c([C@H]3O[C@H](CO)[C@@H](O)[C@@H](O)[C@H]3O)c(O)ccc12
REMARK SMILES IDX 3 1 11 2 12 3 13 4 30 5 2 6 1 7 29 8 28 9 26 10 14 11 4 12
REMARK SMILES IDX 5 13 6 14 7 15 10 16 9 17 8 18 15 20 24 21 16 22 22 23 17 24
REMARK SMILES IDX 20 25 25 26 23 28 18 30 19 31 21 33 27 35
REMARK H PARENT 8 19 25 27 23 29 19 32 21 34 27 36
REMARK Flexibility Score: inf
ROOT
ATOM      1  C   UNL     1      43.090  -3.173  29.354  1.00  0.00     0.065 A 
ATOM      2  C   UNL     1      43.694  -1.925  29.367  1.00  0.00     0.208 A 
ATOM      3  O   UNL     1      43.393  -1.036  30.308  1.00  0.00    -0.463 OA
ATOM      4  C   UNL     1      42.542  -1.293  31.299  1.00  0.00     0.147 A 
ATOM      5  C   UNL     1      41.922  -2.561  31.376  1.00  0.00     0.066 A 
ATOM      6  C   UNL     1      42.187  -3.492  30.374  1.00  0.00     0.200 A 
ATOM      7  O   UNL     1      41.613  -4.625  30.375  1.00  0.00    -0.288 OA
ATOM      8  C   UNL     1      41.035  -2.834  32.429  1.00  0.00     0.020 A 
ATOM      9  C   UNL     1      40.746  -1.841  33.365  1.00  0.00     0.047 A 
ATOM     10  C   UNL     1      41.318  -0.579  33.276  1.00  0.00     0.125 A 
ATOM     11  C   UNL     1      42.254  -0.288  32.262  1.00  0.00     0.069 A 
ENDROOT
BRANCH   1  12
ATOM     12  C   UNL     1      43.465  -4.180  28.338  1.00  0.00    -0.011 A 
ATOM     13  C   UNL     1      42.511  -4.641  27.406  1.00  0.00     0.013 A 
ATOM     14  C   UNL     1      42.908  -5.486  26.354  1.00  0.00     0.047 A 
ATOM     15  C   UNL     1      44.234  -5.940  26.284  1.00  0.00     0.115 A 
ATOM     16  C   UNL     1      44.795  -4.639  28.264  1.00  0.00     0.013 A 
ATOM     17  C   UNL     1      45.189  -5.465  27.201  1.00  0.00     0.047 A 
BRANCH  15  18
ATOM     18  O   UNL     1      44.620  -6.803  25.261  1.00  0.00    -0.508 OA
ATOM     19  H   UNL     1      45.304  -7.529  25.461  1.00  0.00     0.293 HD
ENDBRANCH  15  18
ENDBRANCH   1  12
BRANCH  11  20
ATOM     20  C   UNL     1      42.888   1.100  32.180  1.00  0.00     0.188 C 
ATOM     21  C   UNL     1      44.031   1.313  33.223  1.00  0.00     0.179 C 
ATOM     22  O   UNL     1      41.892   2.103  32.267  1.00  0.00    -0.362 OA
ATOM     23  C   UNL     1      44.628   2.756  33.108  1.00  0.00     0.177 C 
ATOM     24  C   UNL     1      42.425   3.381  31.931  1.00  0.00     0.176 C 
ATOM     25  C   UNL     1      43.482   3.814  32.962  1.00  0.00     0.177 C 
BRANCH  21  26
ATOM     26  O   UNL     1      43.593   1.145  34.554  1.00  0.00    -0.387 OA
ATOM     27  H   UNL     1      44.399   1.146  35.144  1.00  0.00     0.211 HD
ENDBRANCH  21  26
BRANCH  23  28
ATOM     28  O   UNL     1      45.408   3.047  34.237  1.00  0.00    -0.387 OA
ATOM     29  H   UNL     1      45.819   2.189  34.544  1.00  0.00     0.211 HD
ENDBRANCH  23  28
BRANCH  24  30
ATOM     30  C   UNL     1      42.913   3.493  30.452  1.00  0.00     0.191 C 
BRANCH  30  31
ATOM     31  O   UNL     1      42.206   4.488  29.742  1.00  0.00    -0.394 OA
ATOM     32  H   UNL     1      42.843   4.832  29.052  1.00  0.00     0.210 HD
ENDBRANCH  30  31
ENDBRANCH  24  30
BRANCH  25  33
ATOM     33  O   UNL     1      42.803   3.983  34.187  1.00  0.00    -0.388 OA
ATOM     34  H   UNL     1      43.476   3.958  34.921  1.00  0.00     0.211 HD
ENDBRANCH  25  33
ENDBRANCH  11  20
BRANCH  10  35
ATOM     35  O   UNL     1      40.912   0.417  34.162  1.00  0.00    -0.507 OA
ATOM     36  H   UNL     1      41.013   1.394  33.937  1.00  0.00     0.293 HD
ENDBRANCH  10  35
TORSDOF 9
ENDMDL
MODEL 7
REMARK VINA RESULT:    -7.075      1.876      2.525
REMARK INTER + INTRA:         -10.280
REMARK INTER:                 -10.613
REMARK INTRA:                   0.333
REMARK UNBOUND:                -0.723
REMARK SMILES O=c1c(-c2ccc(O)cc2)coc2c([C@H]3O[C@H](CO)[C@@H](O)[C@@H](O)[C@H]3O)c(O)ccc12
REMARK SMILES IDX 3 1 11 2 12 3 13 4 30 5 2 6 1 7 29 8 28 9 26 10 14 11 4 12
REMARK SMILES IDX 5 13 6 14 7 15 10 16 9 17 8 18 15 20 24 21 16 22 22 23 17 24
REMARK SMILES IDX 20 25 25 26 23 28 18 30 19 31 21 33 27 35
REMARK H PARENT 8 19 25 27 23 29 19 32 21 34 27 36
REMARK Flexibility Score: inf
ROOT
ATOM      1  C   UNL     1      45.749  -5.359  26.392  1.00  0.00     0.065 A 
ATOM      2  C   UNL     1      44.525  -6.010  26.357  1.00  0.00     0.208 A 
ATOM      3  O   UNL     1      43.488  -5.540  27.043  1.00  0.00    -0.463 OA
ATOM      4  C   UNL     1      43.543  -4.420  27.760  1.00  0.00     0.147 A 
ATOM      5  C   UNL     1      44.746  -3.678  27.805  1.00  0.00     0.066 A 
ATOM      6  C   UNL     1      45.859  -4.177  27.132  1.00  0.00     0.200 A 
ATOM      7  O   UNL     1      46.974  -3.571  27.188  1.00  0.00    -0.288 OA
ATOM      8  C   UNL     1      44.798  -2.491  28.552  1.00  0.00     0.020 A 
ATOM      9  C   UNL     1      43.677  -2.075  29.270  1.00  0.00     0.047 A 
ATOM     10  C   UNL     1      42.504  -2.816  29.265  1.00  0.00     0.125 A 
ATOM     11  C   UNL     1      42.399  -3.986  28.484  1.00  0.00     0.069 A 
ENDROOT
BRANCH   1  12
ATOM     12  C   UNL     1      46.886  -5.851  25.586  1.00  0.00    -0.011 A 
ATOM     13  C   UNL     1      47.232  -7.219  25.603  1.00  0.00     0.013 A 
ATOM     14  C   UNL     1      48.218  -7.705  24.726  1.00  0.00     0.047 A 
ATOM     15  C   UNL     1      48.917  -6.815  23.897  1.00  0.00     0.115 A 
ATOM     16  C   UNL     1      47.591  -4.961  24.752  1.00  0.00     0.013 A 
ATOM     17  C   UNL     1      48.559  -5.455  23.864  1.00  0.00     0.047 A 
BRANCH  15  18
ATOM     18  O   UNL     1      49.916  -7.292  23.051  1.00  0.00    -0.508 OA
ATOM     19  H   UNL     1      50.600  -7.951  23.418  1.00  0.00     0.293 HD
ENDBRANCH  15  18
ENDBRANCH   1  12
BRANCH  11  20
ATOM     20  C   UNL     1      41.098  -4.789  28.474  1.00  0.00     0.188 C 
ATOM     21  C   UNL     1      40.897  -5.610  27.162  1.00  0.00     0.179 C 
ATOM     22  O   UNL     1      39.996  -3.943  28.749  1.00  0.00    -0.362 OA
ATOM     23  C   UNL     1      39.542  -6.394  27.198  1.00  0.00     0.177 C 
ATOM     24  C   UNL     1      38.820  -4.706  29.004  1.00  0.00     0.176 C 
ATOM     25  C   UNL     1      38.393  -5.479  27.743  1.00  0.00     0.177 C 
BRANCH  21  26
ATOM     26  O   UNL     1      40.882  -4.800  26.007  1.00  0.00    -0.387 OA
ATOM     27  H   UNL     1      41.599  -5.127  25.394  1.00  0.00     0.211 HD
ENDBRANCH  21  26
BRANCH  23  28
ATOM     28  O   UNL     1      39.218  -6.857  25.914  1.00  0.00    -0.387 OA
ATOM     29  H   UNL     1      40.075  -6.969  25.412  1.00  0.00     0.211 HD
ENDBRANCH  23  28
BRANCH  24  30
ATOM     30  C   UNL     1      38.910  -5.599  30.282  1.00  0.00     0.191 C 
BRANCH  30  31
ATOM     31  O   UNL     1      39.163  -4.832  31.439  1.00  0.00    -0.394 OA
ATOM     32  H   UNL     1      38.688  -3.963  31.297  1.00  0.00     0.210 HD
ENDBRANCH  30  31
ENDBRANCH  24  30
BRANCH  25  33
ATOM     33  O   UNL     1      38.031  -4.511  26.782  1.00  0.00    -0.388 OA
ATOM     34  H   UNL     1      38.772  -3.848  26.717  1.00  0.00     0.211 HD
ENDBRANCH  25  33
ENDBRANCH  11  20
BRANCH  10  35
ATOM     35  O   UNL     1      41.448  -2.427  30.088  1.00  0.00    -0.507 OA
ATOM     36  H   UNL     1      41.052  -3.057  30.769  1.00  0.00     0.293 HD
ENDBRANCH  10  35
TORSDOF 9
ENDMDL
MODEL 8
REMARK VINA RESULT:    -6.999      1.391      2.602
REMARK INTER + INTRA:         -10.178
REMARK INTER:                 -10.271
REMARK INTRA:                   0.093
REMARK UNBOUND:                -0.723
REMARK SMILES O=c1c(-c2ccc(O)cc2)coc2c([C@H]3O[C@H](CO)[C@@H](O)[C@@H](O)[C@H]3O)c(O)ccc12
REMARK SMILES IDX 3 1 11 2 12 3 13 4 30 5 2 6 1 7 29 8 28 9 26 10 14 11 4 12
REMARK SMILES IDX 5 13 6 14 7 15 10 16 9 17 8 18 15 20 24 21 16 22 22 23 17 24
REMARK SMILES IDX 20 25 25 26 23 28 18 30 19 31 21 33 27 35
REMARK H PARENT 8 19 25 27 23 29 19 32 21 34 27 36
REMARK Flexibility Score: inf
ROOT
ATOM      1  C   UNL     1      45.715  -5.649  26.002  1.00  0.00     0.065 A 
ATOM      2  C   UNL     1      44.418  -6.077  26.240  1.00  0.00     0.208 A 
ATOM      3  O   UNL     1      43.607  -5.376  27.026  1.00  0.00    -0.463 OA
ATOM      4  C   UNL     1      43.965  -4.226  27.592  1.00  0.00     0.147 A 
ATOM      5  C   UNL     1      45.259  -3.704  27.357  1.00  0.00     0.066 A 
ATOM      6  C   UNL     1      46.141  -4.446  26.574  1.00  0.00     0.200 A 
ATOM      7  O   UNL     1      47.329  -4.041  26.379  1.00  0.00    -0.288 OA
ATOM      8  C   UNL     1      45.629  -2.485  27.944  1.00  0.00     0.020 A 
ATOM      9  C   UNL     1      44.734  -1.819  28.782  1.00  0.00     0.047 A 
ATOM     10  C   UNL     1      43.476  -2.342  29.051  1.00  0.00     0.125 A 
ATOM     11  C   UNL     1      43.052  -3.537  28.436  1.00  0.00     0.069 A 
ENDROOT
BRANCH   1  12
ATOM     12  C   UNL     1      46.599  -6.400  25.085  1.00  0.00    -0.011 A 
ATOM     13  C   UNL     1      46.062  -7.059  23.959  1.00  0.00     0.013 A 
ATOM     14  C   UNL     1      46.922  -7.647  23.012  1.00  0.00     0.047 A 
ATOM     15  C   UNL     1      48.306  -7.653  23.235  1.00  0.00     0.115 A 
ATOM     16  C   UNL     1      47.991  -6.409  25.304  1.00  0.00     0.013 A 
ATOM     17  C   UNL     1      48.844  -6.979  24.346  1.00  0.00     0.047 A 
BRANCH  15  18
ATOM     18  O   UNL     1      49.156  -8.263  22.313  1.00  0.00    -0.508 OA
ATOM     19  H   UNL     1      49.745  -7.679  21.725  1.00  0.00     0.293 HD
ENDBRANCH  15  18
ENDBRANCH   1  12
BRANCH  11  20
ATOM     20  C   UNL     1      41.660  -4.099  28.728  1.00  0.00     0.188 C 
ATOM     21  C   UNL     1      41.678  -5.267  29.765  1.00  0.00     0.179 C 
ATOM     22  O   UNL     1      41.013  -4.465  27.522  1.00  0.00    -0.362 OA
ATOM     23  C   UNL     1      40.232  -5.816  30.009  1.00  0.00     0.177 C 
ATOM     24  C   UNL     1      39.633  -4.739  27.748  1.00  0.00     0.176 C 
ATOM     25  C   UNL     1      39.468  -5.975  28.651  1.00  0.00     0.177 C 
BRANCH  21  26
ATOM     26  O   UNL     1      42.475  -6.354  29.349  1.00  0.00    -0.387 OA
ATOM     27  H   UNL     1      41.885  -6.997  28.863  1.00  0.00     0.211 HD
ENDBRANCH  21  26
BRANCH  23  28
ATOM     28  O   UNL     1      40.290  -7.050  30.673  1.00  0.00    -0.387 OA
ATOM     29  H   UNL     1      39.747  -6.966  31.508  1.00  0.00     0.211 HD
ENDBRANCH  23  28
BRANCH  24  30
ATOM     30  C   UNL     1      38.813  -3.500  28.230  1.00  0.00     0.191 C 
BRANCH  30  31
ATOM     31  O   UNL     1      38.332  -2.738  27.143  1.00  0.00    -0.394 OA
ATOM     32  H   UNL     1      39.144  -2.383  26.680  1.00  0.00     0.210 HD
ENDBRANCH  30  31
ENDBRANCH  24  30
BRANCH  25  33
ATOM     33  O   UNL     1      39.972  -7.074  27.923  1.00  0.00    -0.388 OA
ATOM     34  H   UNL     1      40.923  -6.883  27.694  1.00  0.00     0.211 HD
ENDBRANCH  25  33
ENDBRANCH  11  20
BRANCH  10  35
ATOM     35  O   UNL     1      42.659  -1.705  29.983  1.00  0.00    -0.507 OA
ATOM     36  H   UNL     1      42.945  -0.851  30.436  1.00  0.00     0.293 HD
ENDBRANCH  10  35
TORSDOF 9
ENDMDL
MODEL 9
REMARK VINA RESULT:    -6.911      8.098     11.056
REMARK INTER + INTRA:         -10.058
REMARK INTER:                  -9.068
REMARK INTRA:                  -0.990
REMARK UNBOUND:                -0.723
REMARK SMILES O=c1c(-c2ccc(O)cc2)coc2c([C@H]3O[C@H](CO)[C@@H](O)[C@@H](O)[C@H]3O)c(O)ccc12
REMARK SMILES IDX 3 1 11 2 12 3 13 4 30 5 2 6 1 7 29 8 28 9 26 10 14 11 4 12
REMARK SMILES IDX 5 13 6 14 7 15 10 16 9 17 8 18 15 20 24 21 16 22 22 23 17 24
REMARK SMILES IDX 20 25 25 26 23 28 18 30 19 31 21 33 27 35
REMARK H PARENT 8 19 25 27 23 29 19 32 21 34 27 36
REMARK Flexibility Score: inf
ROOT
ATOM      1  C   UNL     1      42.603   0.412  31.549  1.00  0.00     0.065 A 
ATOM      2  C   UNL     1      41.846   1.367  30.888  1.00  0.00     0.208 A 
ATOM      3  O   UNL     1      41.673   2.576  31.411  1.00  0.00    -0.463 OA
ATOM      4  C   UNL     1      42.234   2.955  32.558  1.00  0.00     0.147 A 
ATOM      5  C   UNL     1      43.058   2.048  33.265  1.00  0.00     0.066 A 
ATOM      6  C   UNL     1      43.214   0.759  32.759  1.00  0.00     0.200 A 
ATOM      7  O   UNL     1      43.902  -0.103  33.388  1.00  0.00    -0.288 OA
ATOM      8  C   UNL     1      43.658   2.454  34.467  1.00  0.00     0.020 A 
ATOM      9  C   UNL     1      43.408   3.731  34.970  1.00  0.00     0.047 A 
ATOM     10  C   UNL     1      42.570   4.614  34.304  1.00  0.00     0.125 A 
ATOM     11  C   UNL     1      41.993   4.259  33.067  1.00  0.00     0.069 A 
ENDROOT
BRANCH   1  12
ATOM     12  C   UNL     1      42.839  -0.915  30.942  1.00  0.00    -0.011 A 
ATOM     13  C   UNL     1      42.084  -2.033  31.356  1.00  0.00     0.013 A 
ATOM     14  C   UNL     1      42.210  -3.257  30.674  1.00  0.00     0.047 A 
ATOM     15  C   UNL     1      43.148  -3.389  29.641  1.00  0.00     0.115 A 
ATOM     16  C   UNL     1      43.781  -1.052  29.903  1.00  0.00     0.013 A 
ATOM     17  C   UNL     1      43.887  -2.271  29.214  1.00  0.00     0.047 A 
BRANCH  15  18
ATOM     18  O   UNL     1      43.296  -4.611  28.987  1.00  0.00    -0.508 OA
ATOM     19  H   UNL     1      44.122  -5.174  29.177  1.00  0.00     0.293 HD
ENDBRANCH  15  18
ENDBRANCH   1  12
BRANCH  11  20
ATOM     20  C   UNL     1      41.082   5.244  32.335  1.00  0.00     0.188 C 
ATOM     21  C   UNL     1      41.869   6.274  31.464  1.00  0.00     0.179 C 
ATOM     22  O   UNL     1      40.206   5.879  33.250  1.00  0.00    -0.362 OA
ATOM     23  C   UNL     1      40.889   7.269  30.756  1.00  0.00     0.177 C 
ATOM     24  C   UNL     1      39.183   6.595  32.563  1.00  0.00     0.176 C 
ATOM     25  C   UNL     1      39.786   7.758  31.755  1.00  0.00     0.177 C 
BRANCH  21  26
ATOM     26  O   UNL     1      42.778   7.045  32.218  1.00  0.00    -0.387 OA
ATOM     27  H   UNL     1      43.230   6.438  32.869  1.00  0.00     0.211 HD
ENDBRANCH  21  26
BRANCH  23  28
ATOM     28  O   UNL     1      41.599   8.368  30.251  1.00  0.00    -0.387 OA
ATOM     29  H   UNL     1      41.224   8.576  29.348  1.00  0.00     0.211 HD
ENDBRANCH  23  28
BRANCH  24  30
ATOM     30  C   UNL     1      38.227   5.685  31.728  1.00  0.00     0.191 C 
BRANCH  30  31
ATOM     31  O   UNL     1      37.468   6.435  30.804  1.00  0.00    -0.394 OA
ATOM     32  H   UNL     1      37.864   7.353  30.809  1.00  0.00     0.210 HD
ENDBRANCH  30  31
ENDBRANCH  24  30
BRANCH  25  33
ATOM     33  O   UNL     1      40.332   8.659  32.695  1.00  0.00    -0.388 OA
ATOM     34  H   UNL     1      41.218   8.962  32.355  1.00  0.00     0.211 HD
ENDBRANCH  25  33
ENDBRANCH  11  20
BRANCH  10  35
ATOM     35  O   UNL     1      42.256   5.835  34.899  1.00  0.00    -0.507 OA
ATOM     36  H   UNL     1      41.722   5.881  35.753  1.00  0.00     0.293 HD
ENDBRANCH  10  35
TORSDOF 9
ENDMDL
