MODEL 1
REMARK VINA RESULT:    -2.141      0.000      0.000
REMARK INTER + INTRA:          -2.141
REMARK INTER:                  -2.141
REMARK INTRA:                   0.000
REMARK UNBOUND:                 0.000
REMARK SMILES CC(=O)[O-]
REMARK SMILES IDX 1 1 2 2 3 3 4 4
REMARK H PARENT
REMARK Flexibility Score: inf
ROOT
ATOM      1  C   UNL     1      76.446   0.866  40.124  1.00  0.00     0.063 C 
ATOM      2  C   UNL     1      76.842   0.632  41.543  1.00  0.00     0.038 C 
ATOM      3  O   UNL     1      75.980   0.703  42.458  1.00  0.00    -0.550 OA
ATOM      4  O   UNL     1      78.149   0.280  41.852  1.00  0.00    -0.550 OA
ENDROOT
TORSDOF 0
ENDMDL
MODEL 2
REMARK VINA RESULT:    -2.088      1.538      2.332
REMARK INTER + INTRA:          -2.088
REMARK INTER:                  -2.088
REMARK INTRA:                   0.000
REMARK UNBOUND:                 0.000
REMARK SMILES CC(=O)[O-]
REMARK SMILES IDX 1 1 2 2 3 3 4 4
REMARK H PARENT
REMARK Flexibility Score: inf
ROOT
ATOM      1  C   UNL     1      77.691   0.483  41.998  1.00  0.00     0.063 C 
ATOM      2  C   UNL     1      76.600   0.764  41.020  1.00  0.00     0.038 C 
ATOM      3  O   UNL     1      76.667   0.303  39.850  1.00  0.00    -0.550 OA
ATOM      4  O   UNL     1      75.482   1.489  41.413  1.00  0.00    -0.550 OA
ENDROOT
TORSDOF 0
ENDMDL
MODEL 3
REMARK VINA RESULT:    -2.051     13.907     14.131
REMARK INTER + INTRA:          -2.051
REMARK INTER:                  -2.051
REMARK INTRA:                   0.000
REMARK UNBOUND:                 0.000
REMARK SMILES CC(=O)[O-]
REMARK SMILES IDX 1 1 2 2 3 3 4 4
REMARK H PARENT
REMARK Flexibility Score: inf
ROOT
ATOM      1  C   UNL     1      83.545  11.940  46.101  1.00  0.00     0.063 C 
ATOM      2  C   UNL     1      84.563  11.753  45.027  1.00  0.00     0.038 C 
ATOM      3  O   UNL     1      85.392  10.809  45.101  1.00  0.00    -0.550 OA
ATOM      4  O   UNL     1      84.564  12.587  43.916  1.00  0.00    -0.550 OA
ENDROOT
TORSDOF 0
ENDMDL
MODEL 4
REMARK VINA RESULT:    -2.046     13.162     13.704
REMARK INTER + INTRA:          -2.046
REMARK INTER:                  -2.046
REMARK INTRA:                   0.000
REMARK UNBOUND:                 0.000
REMARK SMILES CC(=O)[O-]
REMARK SMILES IDX 1 1 2 2 3 3 4 4
REMARK H PARENT
REMARK Flexibility Score: inf
ROOT
ATOM      1  C   UNL     1      84.633   4.221  32.690  1.00  0.00     0.063 C 
ATOM      2  C   UNL     1      85.863   4.110  31.853  1.00  0.00     0.038 C 
ATOM      3  O   UNL     1      86.033   4.885  30.876  1.00  0.00    -0.550 OA
ATOM      4  O   UNL     1      86.848   3.187  32.182  1.00  0.00    -0.550 OA
ENDROOT
TORSDOF 0
ENDMDL
MODEL 5
REMARK VINA RESULT:    -2.037     11.930     12.251
REMARK INTER + INTRA:          -2.037
REMARK INTER:                  -2.037
REMARK INTRA:                   0.000
REMARK UNBOUND:                 0.000
REMARK SMILES CC(=O)[O-]
REMARK SMILES IDX 1 1 2 2 3 3 4 4
REMARK H PARENT
REMARK Flexibility Score: inf
ROOT
ATOM      1  C   UNL     1      84.540   8.164  43.728  1.00  0.00     0.063 C 
ATOM      2  C   UNL     1      84.889   9.579  43.411  1.00  0.00     0.038 C 
ATOM      3  O   UNL     1      83.989  10.460  43.386  1.00  0.00    -0.550 OA
ATOM      4  O   UNL     1      86.213   9.939  43.198  1.00  0.00    -0.550 OA
ENDROOT
TORSDOF 0
ENDMDL
MODEL 6
REMARK VINA RESULT:    -1.987     13.830     13.957
REMARK INTER + INTRA:          -1.987
REMARK INTER:                  -1.987
REMARK INTRA:                   0.000
REMARK UNBOUND:                 0.000
REMARK SMILES CC(=O)[O-]
REMARK SMILES IDX 1 1 2 2 3 3 4 4
REMARK H PARENT
REMARK Flexibility Score: inf
ROOT
ATOM      1  C   UNL     1      84.250  12.464  43.910  1.00  0.00     0.063 C 
ATOM      2  C   UNL     1      84.478  11.720  45.182  1.00  0.00     0.038 C 
ATOM      3  O   UNL     1      83.868  12.059  46.230  1.00  0.00    -0.550 OA
ATOM      4  O   UNL     1      85.323  10.618  45.202  1.00  0.00    -0.550 OA
ENDROOT
TORSDOF 0
ENDMDL
MODEL 7
REMARK VINA RESULT:    -1.946     11.951     12.358
REMARK INTER + INTRA:          -1.946
REMARK INTER:                  -1.946
REMARK INTRA:                   0.000
REMARK UNBOUND:                 0.000
REMARK SMILES CC(=O)[O-]
REMARK SMILES IDX 1 1 2 2 3 3 4 4
REMARK H PARENT
REMARK Flexibility Score: inf
ROOT
ATOM      1  C   UNL     1      83.989  10.631  43.665  1.00  0.00     0.063 C 
ATOM      2  C   UNL     1      84.996   9.561  43.404  1.00  0.00     0.038 C 
ATOM      3  O   UNL     1      86.200   9.865  43.198  1.00  0.00    -0.550 OA
ATOM      4  O   UNL     1      84.618   8.225  43.442  1.00  0.00    -0.550 OA
ENDROOT
TORSDOF 0
ENDMDL
MODEL 8
REMARK VINA RESULT:    -1.942     13.806     14.020
REMARK INTER + INTRA:          -1.942
REMARK INTER:                  -1.942
REMARK INTRA:                   0.000
REMARK UNBOUND:                 0.000
REMARK SMILES CC(=O)[O-]
REMARK SMILES IDX 1 1 2 2 3 3 4 4
REMARK H PARENT
REMARK Flexibility Score: inf
ROOT
ATOM      1  C   UNL     1      85.131  10.332  45.093  1.00  0.00     0.063 C 
ATOM      2  C   UNL     1      84.499  11.682  45.143  1.00  0.00     0.038 C 
ATOM      3  O   UNL     1      83.921  12.069  46.193  1.00  0.00    -0.550 OA
ATOM      4  O   UNL     1      84.594  12.536  44.052  1.00  0.00    -0.550 OA
ENDROOT
TORSDOF 0
ENDMDL
MODEL 9
REMARK VINA RESULT:    -1.897     12.718     13.140
REMARK INTER + INTRA:          -1.897
REMARK INTER:                  -1.897
REMARK INTRA:                   0.000
REMARK UNBOUND:                 0.000
REMARK SMILES CC(=O)[O-]
REMARK SMILES IDX 1 1 2 2 3 3 4 4
REMARK H PARENT
REMARK Flexibility Score: inf
ROOT
ATOM      1  C   UNL     1      89.261   3.596  44.439  1.00  0.00     0.063 C 
ATOM      2  C   UNL     1      88.686   4.853  45.000  1.00  0.00     0.038 C 
ATOM      3  O   UNL     1      87.699   5.399  44.441  1.00  0.00    -0.550 OA
ATOM      4  O   UNL     1      89.203   5.393  46.170  1.00  0.00    -0.550 OA
ENDROOT
TORSDOF 0
ENDMDL
