MODEL 1
REMARK VINA RESULT:    -2.293      0.000      0.000
REMARK INTER + INTRA:          -2.293
REMARK INTER:                  -2.293
REMARK INTRA:                   0.000
REMARK UNBOUND:                 0.000
REMARK SMILES CC(=O)[O-]
REMARK SMILES IDX 1 1 2 2 3 3 4 4
REMARK H PARENT
REMARK Flexibility Score: inf
ROOT
ATOM      1  C   UNL     1      11.090 -10.910   5.663  1.00  0.00     0.063 C 
ATOM      2  C   UNL     1      10.765 -12.364   5.628  1.00  0.00     0.038 C 
ATOM      3  O   UNL     1      11.660 -13.218   5.860  1.00  0.00    -0.550 OA
ATOM      4  O   UNL     1       9.460 -12.780   5.392  1.00  0.00    -0.550 OA
ENDROOT
TORSDOF 0
ENDMDL
MODEL 2
REMARK VINA RESULT:    -2.144      1.456      2.050
REMARK INTER + INTRA:          -2.144
REMARK INTER:                  -2.144
REMARK INTRA:                   0.000
REMARK UNBOUND:                 0.000
REMARK SMILES CC(=O)[O-]
REMARK SMILES IDX 1 1 2 2 3 3 4 4
REMARK H PARENT
REMARK Flexibility Score: inf
ROOT
ATOM      1  C   UNL     1      11.872 -13.063   5.932  1.00  0.00     0.063 C 
ATOM      2  C   UNL     1      10.745 -12.116   5.696  1.00  0.00     0.038 C 
ATOM      3  O   UNL     1       9.590 -12.556   5.459  1.00  0.00    -0.550 OA
ATOM      4  O   UNL     1      10.957 -10.746   5.790  1.00  0.00    -0.550 OA
ENDROOT
TORSDOF 0
ENDMDL
MODEL 3
REMARK VINA RESULT:    -2.120      1.437      1.773
REMARK INTER + INTRA:          -2.120
REMARK INTER:                  -2.120
REMARK INTRA:                   0.000
REMARK UNBOUND:                 0.000
REMARK SMILES CC(=O)[O-]
REMARK SMILES IDX 1 1 2 2 3 3 4 4
REMARK H PARENT
REMARK Flexibility Score: inf
ROOT
ATOM      1  C   UNL     1       9.590 -12.863   5.321  1.00  0.00     0.063 C 
ATOM      2  C   UNL     1      10.898 -12.262   5.710  1.00  0.00     0.038 C 
ATOM      3  O   UNL     1      11.881 -13.003   5.973  1.00  0.00    -0.550 OA
ATOM      4  O   UNL     1      11.050 -10.881   5.731  1.00  0.00    -0.550 OA
ENDROOT
TORSDOF 0
ENDMDL
MODEL 4
REMARK VINA RESULT:    -1.458     21.062     21.356
REMARK INTER + INTRA:          -1.458
REMARK INTER:                  -1.458
REMARK INTRA:                   0.000
REMARK UNBOUND:                 0.000
REMARK SMILES CC(=O)[O-]
REMARK SMILES IDX 1 1 2 2 3 3 4 4
REMARK H PARENT
REMARK Flexibility Score: inf
ROOT
ATOM      1  C   UNL     1       1.158  -1.106  22.125  1.00  0.00     0.063 C 
ATOM      2  C   UNL     1       1.351  -2.584  22.102  1.00  0.00     0.038 C 
ATOM      3  O   UNL     1       2.512  -3.071  22.110  1.00  0.00    -0.550 OA
ATOM      4  O   UNL     1       0.248  -3.429  22.124  1.00  0.00    -0.550 OA
ENDROOT
TORSDOF 0
ENDMDL
MODEL 5
REMARK VINA RESULT:    -1.269     21.086     21.364
REMARK INTER + INTRA:          -1.269
REMARK INTER:                  -1.269
REMARK INTRA:                   0.000
REMARK UNBOUND:                 0.000
REMARK SMILES CC(=O)[O-]
REMARK SMILES IDX 1 1 2 2 3 3 4 4
REMARK H PARENT
REMARK Flexibility Score: inf
ROOT
ATOM      1  C   UNL     1       2.657  -3.093  22.123  1.00  0.00     0.063 C 
ATOM      2  C   UNL     1       1.308  -2.474  21.988  1.00  0.00     0.038 C 
ATOM      3  O   UNL     1       0.273  -3.177  22.125  1.00  0.00    -0.550 OA
ATOM      4  O   UNL     1       1.189  -1.108  21.763  1.00  0.00    -0.550 OA
ENDROOT
TORSDOF 0
ENDMDL
MODEL 6
REMARK VINA RESULT:     0.296      8.356      8.985
REMARK INTER + INTRA:           0.296
REMARK INTER:                   0.296
REMARK INTRA:                   0.000
REMARK UNBOUND:                 0.000
REMARK SMILES CC(=O)[O-]
REMARK SMILES IDX 1 1 2 2 3 3 4 4
REMARK H PARENT
REMARK Flexibility Score: inf
ROOT
ATOM      1  C   UNL     1      19.122 -16.956   5.095  1.00  0.00     0.063 C 
ATOM      2  C   UNL     1      18.584 -16.395   6.367  1.00  0.00     0.038 C 
ATOM      3  O   UNL     1      19.125 -16.689   7.465  1.00  0.00    -0.550 OA
ATOM      4  O   UNL     1      17.518 -15.504   6.339  1.00  0.00    -0.550 OA
ENDROOT
TORSDOF 0
ENDMDL
MODEL 7
REMARK VINA RESULT:     0.552      8.424      8.868
REMARK INTER + INTRA:           0.552
REMARK INTER:                   0.552
REMARK INTRA:                   0.000
REMARK UNBOUND:                 0.000
REMARK SMILES CC(=O)[O-]
REMARK SMILES IDX 1 1 2 2 3 3 4 4
REMARK H PARENT
REMARK Flexibility Score: inf
ROOT
ATOM      1  C   UNL     1      17.162 -15.784   6.749  1.00  0.00     0.063 C 
ATOM      2  C   UNL     1      18.497 -16.377   6.453  1.00  0.00     0.038 C 
ATOM      3  O   UNL     1      19.125 -16.999   7.350  1.00  0.00    -0.550 OA
ATOM      4  O   UNL     1      19.029 -16.290   5.173  1.00  0.00    -0.550 OA
ENDROOT
TORSDOF 0
ENDMDL
