MODEL 1
REMARK VINA RESULT:    -3.719      0.000      0.000
REMARK INTER + INTRA:          -4.258
REMARK INTER:                  -4.045
REMARK INTRA:                  -0.213
REMARK UNBOUND:                -0.213
REMARK SMILES O=C([O-])c1ccccc1O
REMARK SMILES IDX 4 1 9 2 5 3 8 4 6 5 7 6 2 7 1 8 3 9 10 10
REMARK H PARENT 10 11
REMARK Flexibility Score: inf
ROOT
ATOM      1  C   UNL     1       4.430  38.200   7.245  1.00  0.00     0.039 A 
ATOM      2  C   UNL     1       5.278  39.056   6.495  1.00  0.00     0.124 A 
ATOM      3  C   UNL     1       4.948  37.557   8.384  1.00  0.00     0.014 A 
ATOM      4  C   UNL     1       6.622  39.195   6.865  1.00  0.00     0.047 A 
ATOM      5  C   UNL     1       6.285  37.724   8.751  1.00  0.00     0.001 A 
ATOM      6  C   UNL     1       7.123  38.534   7.987  1.00  0.00     0.004 A 
ENDROOT
BRANCH   1   7
ATOM      7  C   UNL     1       3.027  37.925   6.862  1.00  0.00     0.075 C 
ATOM      8  O   UNL     1       2.079  38.184   7.649  1.00  0.00    -0.545 OA
ATOM      9  O   UNL     1       2.736  37.437   5.594  1.00  0.00    -0.545 OA
ENDBRANCH   1   7
BRANCH   2  10
ATOM     10  O   UNL     1       4.824  39.807   5.409  1.00  0.00    -0.507 OA
ATOM     11  H   UNL     1       3.904  39.702   5.004  1.00  0.00     0.293 HD
ENDBRANCH   2  10
TORSDOF 2
ENDMDL
MODEL 2
REMARK VINA RESULT:    -3.673      3.646      5.206
REMARK INTER + INTRA:          -4.208
REMARK INTER:                  -3.993
REMARK INTRA:                  -0.215
REMARK UNBOUND:                -0.213
REMARK SMILES O=C([O-])c1ccccc1O
REMARK SMILES IDX 4 1 9 2 5 3 8 4 6 5 7 6 2 7 1 8 3 9 10 10
REMARK H PARENT 10 11
REMARK Flexibility Score: inf
ROOT
ATOM      1  C   UNL     1       1.241  37.770   6.415  1.00  0.00     0.039 A 
ATOM      2  C   UNL     1      -0.061  37.289   6.712  1.00  0.00     0.124 A 
ATOM      3  C   UNL     1       2.114  36.955   5.671  1.00  0.00     0.014 A 
ATOM      4  C   UNL     1      -0.428  35.996   6.317  1.00  0.00     0.047 A 
ATOM      5  C   UNL     1       1.723  35.677   5.266  1.00  0.00     0.001 A 
ATOM      6  C   UNL     1       0.458  35.194   5.597  1.00  0.00     0.004 A 
ENDROOT
BRANCH   1   7
ATOM      7  C   UNL     1       1.737  39.084   6.882  1.00  0.00     0.075 C 
ATOM      8  O   UNL     1       0.949  39.936   7.371  1.00  0.00    -0.545 OA
ATOM      9  O   UNL     1       3.097  39.366   6.848  1.00  0.00    -0.545 OA
ENDBRANCH   1   7
BRANCH   2  10
ATOM     10  O   UNL     1      -1.023  38.066   7.361  1.00  0.00    -0.507 OA
ATOM     11  H   UNL     1      -0.804  38.739   8.082  1.00  0.00     0.293 HD
ENDBRANCH   2  10
TORSDOF 2
ENDMDL
MODEL 3
REMARK VINA RESULT:    -3.653      3.951      5.288
REMARK INTER + INTRA:          -4.186
REMARK INTER:                  -3.934
REMARK INTRA:                  -0.252
REMARK UNBOUND:                -0.213
REMARK SMILES O=C([O-])c1ccccc1O
REMARK SMILES IDX 4 1 9 2 5 3 8 4 6 5 7 6 2 7 1 8 3 9 10 10
REMARK H PARENT 10 11
REMARK Flexibility Score: inf
ROOT
ATOM      1  C   UNL     1      -0.186  36.702   6.264  1.00  0.00     0.039 A 
ATOM      2  C   UNL     1       0.477  37.831   6.812  1.00  0.00     0.124 A 
ATOM      3  C   UNL     1       0.559  35.770   5.518  1.00  0.00     0.014 A 
ATOM      4  C   UNL     1       1.839  38.027   6.550  1.00  0.00     0.047 A 
ATOM      5  C   UNL     1       1.921  35.971   5.284  1.00  0.00     0.001 A 
ATOM      6  C   UNL     1       2.558  37.103   5.791  1.00  0.00     0.004 A 
ENDROOT
BRANCH   1   7
ATOM      7  C   UNL     1      -1.642  36.476   6.413  1.00  0.00     0.075 C 
ATOM      8  O   UNL     1      -2.330  36.044   5.451  1.00  0.00    -0.545 OA
ATOM      9  O   UNL     1      -2.254  36.675   7.644  1.00  0.00    -0.545 OA
ENDBRANCH   1   7
BRANCH   2  10
ATOM     10  O   UNL     1      -0.163  38.753   7.642  1.00  0.00    -0.507 OA
ATOM     11  H   UNL     1       0.211  39.667   7.854  1.00  0.00     0.293 HD
ENDBRANCH   2  10
TORSDOF 2
ENDMDL
MODEL 4
REMARK VINA RESULT:    -3.628      4.493      5.374
REMARK INTER + INTRA:          -4.159
REMARK INTER:                  -3.944
REMARK INTRA:                  -0.215
REMARK UNBOUND:                -0.213
REMARK SMILES O=C([O-])c1ccccc1O
REMARK SMILES IDX 4 1 9 2 5 3 8 4 6 5 7 6 2 7 1 8 3 9 10 10
REMARK H PARENT 10 11
REMARK Flexibility Score: inf
ROOT
ATOM      1  C   UNL     1       0.018  36.632   6.244  1.00  0.00     0.039 A 
ATOM      2  C   UNL     1       0.871  35.704   5.591  1.00  0.00     0.124 A 
ATOM      3  C   UNL     1       0.410  37.982   6.317  1.00  0.00     0.014 A 
ATOM      4  C   UNL     1       2.107  36.134   5.090  1.00  0.00     0.047 A 
ATOM      5  C   UNL     1       1.636  38.397   5.793  1.00  0.00     0.001 A 
ATOM      6  C   UNL     1       2.487  37.473   5.190  1.00  0.00     0.004 A 
ENDROOT
BRANCH   1   7
ATOM      7  C   UNL     1      -1.257  36.237   6.884  1.00  0.00     0.075 C 
ATOM      8  O   UNL     1      -2.099  37.104   7.237  1.00  0.00    -0.545 OA
ATOM      9  O   UNL     1      -1.568  34.892   7.041  1.00  0.00    -0.545 OA
ENDBRANCH   1   7
BRANCH   2  10
ATOM     10  O   UNL     1       0.519  34.368   5.389  1.00  0.00    -0.507 OA
ATOM     11  H   UNL     1      -0.029  33.830   6.046  1.00  0.00     0.293 HD
ENDBRANCH   2  10
TORSDOF 2
ENDMDL
MODEL 5
REMARK VINA RESULT:    -3.544      5.002      6.162
REMARK INTER + INTRA:          -4.068
REMARK INTER:                  -3.839
REMARK INTRA:                  -0.229
REMARK UNBOUND:                -0.213
REMARK SMILES O=C([O-])c1ccccc1O
REMARK SMILES IDX 4 1 9 2 5 3 8 4 6 5 7 6 2 7 1 8 3 9 10 10
REMARK H PARENT 10 11
REMARK Flexibility Score: inf
ROOT
ATOM      1  C   UNL     1      -0.578  36.760   6.348  1.00  0.00     0.039 A 
ATOM      2  C   UNL     1      -0.556  35.346   6.235  1.00  0.00     0.124 A 
ATOM      3  C   UNL     1       0.534  37.496   5.900  1.00  0.00     0.014 A 
ATOM      4  C   UNL     1       0.589  34.709   5.740  1.00  0.00     0.047 A 
ATOM      5  C   UNL     1       1.659  36.846   5.389  1.00  0.00     0.001 A 
ATOM      6  C   UNL     1       1.691  35.454   5.319  1.00  0.00     0.004 A 
ENDROOT
BRANCH   1   7
ATOM      7  C   UNL     1      -1.710  37.500   6.951  1.00  0.00     0.075 C 
ATOM      8  O   UNL     1      -2.556  36.909   7.673  1.00  0.00    -0.545 OA
ATOM      9  O   UNL     1      -1.812  38.875   6.780  1.00  0.00    -0.545 OA
ENDBRANCH   1   7
BRANCH   2  10
ATOM     10  O   UNL     1      -1.651  34.545   6.566  1.00  0.00    -0.507 OA
ATOM     11  H   UNL     1      -1.889  33.694   6.076  1.00  0.00     0.293 HD
ENDBRANCH   2  10
TORSDOF 2
ENDMDL
MODEL 6
REMARK VINA RESULT:    -3.542      4.043      6.107
REMARK INTER + INTRA:          -4.066
REMARK INTER:                  -3.837
REMARK INTRA:                  -0.229
REMARK UNBOUND:                -0.213
REMARK SMILES O=C([O-])c1ccccc1O
REMARK SMILES IDX 4 1 9 2 5 3 8 4 6 5 7 6 2 7 1 8 3 9 10 10
REMARK H PARENT 10 11
REMARK Flexibility Score: inf
ROOT
ATOM      1  C   UNL     1       0.799  36.668   5.772  1.00  0.00     0.039 A 
ATOM      2  C   UNL     1       0.105  35.432   5.831  1.00  0.00     0.124 A 
ATOM      3  C   UNL     1       0.199  37.812   6.330  1.00  0.00     0.014 A 
ATOM      4  C   UNL     1      -1.181  35.386   6.385  1.00  0.00     0.047 A 
ATOM      5  C   UNL     1      -1.075  37.744   6.898  1.00  0.00     0.001 A 
ATOM      6  C   UNL     1      -1.768  36.535   6.916  1.00  0.00     0.004 A 
ENDROOT
BRANCH   1   7
ATOM      7  C   UNL     1       2.118  36.818   5.116  1.00  0.00     0.075 C 
ATOM      8  O   UNL     1       2.301  36.421   3.936  1.00  0.00    -0.545 OA
ATOM      9  O   UNL     1       3.154  37.465   5.778  1.00  0.00    -0.545 OA
ENDBRANCH   1   7
BRANCH   2  10
ATOM     10  O   UNL     1       0.664  34.231   5.389  1.00  0.00    -0.507 OA
ATOM     11  H   UNL     1       0.544  33.871   4.452  1.00  0.00     0.293 HD
ENDBRANCH   2  10
TORSDOF 2
ENDMDL
MODEL 7
REMARK VINA RESULT:    -3.450     13.964     15.041
REMARK INTER + INTRA:          -3.965
REMARK INTER:                  -3.717
REMARK INTRA:                  -0.249
REMARK UNBOUND:                -0.213
REMARK SMILES O=C([O-])c1ccccc1O
REMARK SMILES IDX 4 1 9 2 5 3 8 4 6 5 7 6 2 7 1 8 3 9 10 10
REMARK H PARENT 10 11
REMARK Flexibility Score: inf
ROOT
ATOM      1  C   UNL     1      -5.359  49.363   9.324  1.00  0.00     0.039 A 
ATOM      2  C   UNL     1      -4.270  48.955  10.139  1.00  0.00     0.124 A 
ATOM      3  C   UNL     1      -5.716  48.568   8.219  1.00  0.00     0.014 A 
ATOM      4  C   UNL     1      -3.539  47.811   9.795  1.00  0.00     0.047 A 
ATOM      5  C   UNL     1      -4.989  47.418   7.903  1.00  0.00     0.001 A 
ATOM      6  C   UNL     1      -3.896  47.046   8.684  1.00  0.00     0.004 A 
ENDROOT
BRANCH   1   7
ATOM      7  C   UNL     1      -6.118  50.610   9.564  1.00  0.00     0.075 C 
ATOM      8  O   UNL     1      -7.377  50.612   9.557  1.00  0.00    -0.545 OA
ATOM      9  O   UNL     1      -5.444  51.787   9.870  1.00  0.00    -0.545 OA
ENDBRANCH   1   7
BRANCH   2  10
ATOM     10  O   UNL     1      -3.908  49.630  11.307  1.00  0.00    -0.507 OA
ATOM     11  H   UNL     1      -3.640  50.604  11.328  1.00  0.00     0.293 HD
ENDBRANCH   2  10
TORSDOF 2
ENDMDL
MODEL 8
REMARK VINA RESULT:    -3.424      0.875      2.568
REMARK INTER + INTRA:          -3.937
REMARK INTER:                  -3.694
REMARK INTRA:                  -0.243
REMARK UNBOUND:                -0.213
REMARK SMILES O=C([O-])c1ccccc1O
REMARK SMILES IDX 4 1 9 2 5 3 8 4 6 5 7 6 2 7 1 8 3 9 10 10
REMARK H PARENT 10 11
REMARK Flexibility Score: inf
ROOT
ATOM      1  C   UNL     1       5.053  38.971   6.540  1.00  0.00     0.039 A 
ATOM      2  C   UNL     1       4.283  38.093   7.346  1.00  0.00     0.124 A 
ATOM      3  C   UNL     1       6.418  39.144   6.834  1.00  0.00     0.014 A 
ATOM      4  C   UNL     1       4.877  37.467   8.450  1.00  0.00     0.047 A 
ATOM      5  C   UNL     1       6.999  38.496   7.926  1.00  0.00     0.001 A 
ATOM      6  C   UNL     1       6.228  37.666   8.738  1.00  0.00     0.004 A 
ENDROOT
BRANCH   1   7
ATOM      7  C   UNL     1       4.475  39.744   5.418  1.00  0.00     0.075 C 
ATOM      8  O   UNL     1       3.389  40.367   5.554  1.00  0.00    -0.545 OA
ATOM      9  O   UNL     1       5.164  39.846   4.216  1.00  0.00    -0.545 OA
ENDBRANCH   1   7
BRANCH   2  10
ATOM     10  O   UNL     1       2.948  37.789   7.070  1.00  0.00    -0.507 OA
ATOM     11  H   UNL     1       2.531  37.890   6.155  1.00  0.00     0.293 HD
ENDBRANCH   2  10
TORSDOF 2
ENDMDL
MODEL 9
REMARK VINA RESULT:    -3.422      3.868      5.039
REMARK INTER + INTRA:          -3.935
REMARK INTER:                  -3.693
REMARK INTRA:                  -0.242
REMARK UNBOUND:                -0.213
REMARK SMILES O=C([O-])c1ccccc1O
REMARK SMILES IDX 4 1 9 2 5 3 8 4 6 5 7 6 2 7 1 8 3 9 10 10
REMARK H PARENT 10 11
REMARK Flexibility Score: inf
ROOT
ATOM      1  C   UNL     1       0.864  37.673   6.393  1.00  0.00     0.039 A 
ATOM      2  C   UNL     1       1.931  36.964   5.782  1.00  0.00     0.124 A 
ATOM      3  C   UNL     1      -0.353  37.005   6.623  1.00  0.00     0.014 A 
ATOM      4  C   UNL     1       1.735  35.641   5.366  1.00  0.00     0.047 A 
ATOM      5  C   UNL     1      -0.524  35.679   6.222  1.00  0.00     0.001 A 
ATOM      6  C   UNL     1       0.515  35.001   5.585  1.00  0.00     0.004 A 
ENDROOT
BRANCH   1   7
ATOM      7  C   UNL     1       0.961  39.101   6.770  1.00  0.00     0.075 C 
ATOM      8  O   UNL     1       1.747  39.877   6.165  1.00  0.00    -0.545 OA
ATOM      9  O   UNL     1       0.131  39.617   7.758  1.00  0.00    -0.545 OA
ENDBRANCH   1   7
BRANCH   2  10
ATOM     10  O   UNL     1       3.200  37.519   5.603  1.00  0.00    -0.507 OA
ATOM     11  H   UNL     1       3.408  38.227   4.913  1.00  0.00     0.293 HD
ENDBRANCH   2  10
TORSDOF 2
ENDMDL
