MODEL 1
REMARK VINA RESULT:    -4.220      0.000      0.000
REMARK INTER + INTRA:          -6.880
REMARK INTER:                  -6.440
REMARK INTRA:                  -0.440
REMARK UNBOUND:                -0.440
REMARK SMILES CC1=CCC[C@H](C)C(=O)C[C@H](C(C)C)C(=O)C1
REMARK SMILES IDX 8 1 9 2 6 3 7 4 5 5 4 6 3 7 2 8 1 9 10 11 11 12 15 13 16 14
REMARK SMILES IDX 17 15 12 17 13 18 14 19
REMARK H PARENT
REMARK Flexibility Score: 70.00
ROOT
ATOM      1  C   UNL     1     -26.260  -0.013  -0.739  1.00  0.00     0.136 C 
ATOM      2  O   UNL     1     -27.363  -0.505  -0.549  1.00  0.00    -0.299 OA
ENDROOT
BRANCH   1   3
ATOM      3  C   UNL     1     -25.667   0.013  -2.139  1.00  0.00     0.053 C 
ATOM      4  C   UNL     1     -25.781  -1.346  -2.849  1.00  0.00     0.016 C 
BRANCH   3   5
ATOM      5  C   UNL     1     -26.278   1.145  -2.993  1.00  0.00     0.015 C 
BRANCH   5   6
ATOM      6  C   UNL     1     -25.305   2.312  -3.282  1.00  0.00     0.028 C 
BRANCH   6   7
ATOM      7  C   UNL     1     -25.815   3.599  -2.679  1.00  0.00    -0.028 C 
ATOM      8  C   UNL     1     -25.223   4.287  -1.673  1.00  0.00    -0.070 CG0
ATOM      9  C   UNL     1     -25.834   5.604  -1.267  1.00  0.00     0.039 C 
ATOM     10  G   UNL     1     -24.004   3.781  -0.915  1.00  0.00     0.000 G0
ENDBRANCH   6   7
ENDBRANCH   5   6
ENDBRANCH   3   5
ENDBRANCH   1   3
BRANCH   1  11
ATOM     11  C   UNL     1     -25.512   0.580   0.434  1.00  0.00     0.087 C 
BRANCH  11  12
ATOM     12  C   UNL     1     -24.175   1.271   0.039  1.00  0.00     0.066 C 
BRANCH  12  13
ATOM     13  C   UNL     1     -24.279   2.783   0.210  1.00  0.00     0.140 C 
ATOM     14  O   UNL     1     -24.597   3.221   1.306  1.00  0.00    -0.299 OA
BRANCH  13  15
ATOM     15  C   UNL     1     -23.995   3.791  -0.889  1.00  0.00     0.106 CG0
ATOM     16  G   UNL     1     -25.207   4.290  -1.662  1.00  0.00     0.000 G0
ENDBRANCH  13  15
ENDBRANCH  12  13
BRANCH  12  17
ATOM     17  C   UNL     1     -22.974   0.715   0.868  1.00  0.00    -0.006 C 
ATOM     18  C   UNL     1     -22.882  -0.821   0.802  1.00  0.00     0.008 C 
ATOM     19  C   UNL     1     -21.638   1.312   0.390  1.00  0.00     0.008 C 
ENDBRANCH  12  17
ENDBRANCH  11  12
ENDBRANCH   1  11
TORSDOF 1
ENDMDL
MODEL 2
REMARK VINA RESULT:    -3.852      1.873      4.208
REMARK INTER + INTRA:          -6.319
REMARK INTER:                  -5.806
REMARK INTRA:                  -0.512
REMARK UNBOUND:                -0.440
REMARK SMILES CC1=CCC[C@H](C)C(=O)C[C@H](C(C)C)C(=O)C1
REMARK SMILES IDX 8 1 9 2 6 3 7 4 5 5 4 6 3 7 2 8 1 9 10 11 11 12 15 13 16 14
REMARK SMILES IDX 17 15 12 17 13 18 14 19
REMARK H PARENT
REMARK Flexibility Score: 70.00
ROOT
ATOM      1  C   UNL     1     -24.048   1.825   0.872  1.00  0.00     0.136 C 
ATOM      2  O   UNL     1     -24.547   1.251   1.831  1.00  0.00    -0.299 OA
ENDROOT
BRANCH   1   3
ATOM      3  C   UNL     1     -22.750   1.314   0.268  1.00  0.00     0.053 C 
ATOM      4  C   UNL     1     -21.564   1.435   1.238  1.00  0.00     0.016 C 
BRANCH   3   5
ATOM      5  C   UNL     1     -22.898  -0.131  -0.257  1.00  0.00     0.015 C 
BRANCH   5   6
ATOM      6  C   UNL     1     -23.215  -0.223  -1.768  1.00  0.00     0.028 C 
BRANCH   6   7
ATOM      7  C   UNL     1     -24.706  -0.246  -2.005  1.00  0.00    -0.028 C 
ATOM      8  C   UNL     1     -25.416   0.708  -2.654  1.00  0.00    -0.070 CG0
ATOM      9  C   UNL     1     -26.888   0.464  -2.873  1.00  0.00     0.039 C 
ATOM     10  G   UNL     1     -24.813   2.020  -3.135  1.00  0.00     0.000 G0
ENDBRANCH   6   7
ENDBRANCH   5   6
ENDBRANCH   3   5
ENDBRANCH   1   3
BRANCH   1  11
ATOM     11  C   UNL     1     -24.755   3.031   0.294  1.00  0.00     0.087 C 
BRANCH  11  12
ATOM     12  C   UNL     1     -24.112   3.562  -1.019  1.00  0.00     0.066 C 
BRANCH  12  13
ATOM     13  C   UNL     1     -24.997   3.242  -2.220  1.00  0.00     0.140 C 
ATOM     14  O   UNL     1     -25.917   4.003  -2.480  1.00  0.00    -0.299 OA
BRANCH  13  15
ATOM     15  C   UNL     1     -24.801   2.045  -3.133  1.00  0.00     0.106 CG0
ATOM     16  G   UNL     1     -25.427   0.741  -2.662  1.00  0.00     0.000 G0
ENDBRANCH  13  15
ENDBRANCH  12  13
BRANCH  12  17
ATOM     17  C   UNL     1     -23.837   5.098  -0.945  1.00  0.00    -0.006 C 
ATOM     18  C   UNL     1     -24.760   5.806   0.064  1.00  0.00     0.008 C 
ATOM     19  C   UNL     1     -22.374   5.388  -0.565  1.00  0.00     0.008 C 
ENDBRANCH  12  17
ENDBRANCH  11  12
ENDBRANCH   1  11
TORSDOF 1
ENDMDL
MODEL 3
REMARK VINA RESULT:    -3.768      1.865      3.805
REMARK INTER + INTRA:          -6.191
REMARK INTER:                  -6.135
REMARK INTRA:                  -0.056
REMARK UNBOUND:                -0.440
REMARK SMILES CC1=CCC[C@H](C)C(=O)C[C@H](C(C)C)C(=O)C1
REMARK SMILES IDX 8 1 9 2 6 3 7 4 5 5 4 6 3 7 2 8 1 9 10 11 11 12 15 13 16 14
REMARK SMILES IDX 17 15 12 17 13 18 14 19
REMARK H PARENT
REMARK Flexibility Score: 70.00
ROOT
ATOM      1  C   UNL     1     -22.970   0.362  -0.126  1.00  0.00     0.136 C 
ATOM      2  O   UNL     1     -21.770   0.268   0.094  1.00  0.00    -0.299 OA
ENDROOT
BRANCH   1   3
ATOM      3  C   UNL     1     -23.971   0.111   0.990  1.00  0.00     0.053 C 
ATOM      4  C   UNL     1     -23.449  -0.891   2.033  1.00  0.00     0.016 C 
BRANCH   3   5
ATOM      5  C   UNL     1     -24.422   1.429   1.656  1.00  0.00     0.015 C 
BRANCH   5   6
ATOM      6  C   UNL     1     -23.422   2.596   1.485  1.00  0.00     0.028 C 
BRANCH   6   7
ATOM      7  C   UNL     1     -24.150   3.895   1.233  1.00  0.00    -0.028 C 
ATOM      8  C   UNL     1     -24.468   4.397   0.016  1.00  0.00    -0.070 CG0
ATOM      9  C   UNL     1     -25.280   5.666  -0.032  1.00  0.00     0.039 C 
ATOM     10  G   UNL     1     -24.019   3.767  -1.295  1.00  0.00     0.000 G0
ENDBRANCH   6   7
ENDBRANCH   5   6
ENDBRANCH   3   5
ENDBRANCH   1   3
BRANCH   1  11
ATOM     11  C   UNL     1     -23.431   0.748  -1.513  1.00  0.00     0.087 C 
BRANCH  11  12
ATOM     12  C   UNL     1     -24.902   1.251  -1.567  1.00  0.00     0.066 C 
BRANCH  12  13
ATOM     13  C   UNL     1     -24.951   2.739  -1.896  1.00  0.00     0.140 C 
ATOM     14  O   UNL     1     -25.799   3.131  -2.684  1.00  0.00    -0.299 OA
BRANCH  13  15
ATOM     15  C   UNL     1     -24.024   3.780  -1.293  1.00  0.00     0.106 CG0
ATOM     16  G   UNL     1     -24.476   4.385   0.028  1.00  0.00     0.000 G0
ENDBRANCH  13  15
ENDBRANCH  12  13
BRANCH  12  17
ATOM     17  C   UNL     1     -25.749   0.441  -2.600  1.00  0.00    -0.006 C 
ATOM     18  C   UNL     1     -24.890  -0.543  -3.415  1.00  0.00     0.008 C 
ATOM     19  C   UNL     1     -26.878  -0.344  -1.907  1.00  0.00     0.008 C 
ENDBRANCH  12  17
ENDBRANCH  11  12
ENDBRANCH   1  11
TORSDOF 1
ENDMDL
MODEL 4
REMARK VINA RESULT:    -3.720      1.960      4.448
REMARK INTER + INTRA:          -6.118
REMARK INTER:                  -6.253
REMARK INTRA:                   0.135
REMARK UNBOUND:                -0.440
REMARK SMILES CC1=CCC[C@H](C)C(=O)C[C@H](C(C)C)C(=O)C1
REMARK SMILES IDX 8 1 9 2 6 3 7 4 5 5 4 6 3 7 2 8 1 9 10 11 11 12 15 13 16 14
REMARK SMILES IDX 17 15 12 17 13 18 14 19
REMARK H PARENT
REMARK Flexibility Score: 70.00
ROOT
ATOM      1  C   UNL     1     -24.958   2.509  -1.775  1.00  0.00     0.136 C 
ATOM      2  O   UNL     1     -25.781   2.622  -2.673  1.00  0.00    -0.299 OA
ENDROOT
BRANCH   1   3
ATOM      3  C   UNL     1     -24.673   1.144  -1.169  1.00  0.00     0.053 C 
ATOM      4  C   UNL     1     -25.534   0.034  -1.793  1.00  0.00     0.016 C 
BRANCH   3   5
ATOM      5  C   UNL     1     -23.171   0.794  -1.240  1.00  0.00     0.015 C 
BRANCH   5   6
ATOM      6  C   UNL     1     -22.564   0.346   0.110  1.00  0.00     0.028 C 
BRANCH   6   7
ATOM      7  C   UNL     1     -21.628   1.399   0.655  1.00  0.00    -0.028 C 
ATOM      8  C   UNL     1     -21.997   2.483   1.378  1.00  0.00    -0.070 CG0
ATOM      9  C   UNL     1     -20.907   3.375   1.915  1.00  0.00     0.039 C 
ATOM     10  G   UNL     1     -23.448   2.861   1.642  1.00  0.00     0.000 G0
ENDBRANCH   6   7
ENDBRANCH   5   6
ENDBRANCH   3   5
ENDBRANCH   1   3
BRANCH   1  11
ATOM     11  C   UNL     1     -24.224   3.742  -1.297  1.00  0.00     0.087 C 
BRANCH  11  12
ATOM     12  C   UNL     1     -24.848   4.390  -0.028  1.00  0.00     0.066 C 
BRANCH  12  13
ATOM     13  C   UNL     1     -23.937   4.196   1.180  1.00  0.00     0.140 C 
ATOM     14  O   UNL     1     -23.582   5.187   1.802  1.00  0.00    -0.299 OA
BRANCH  13  15
ATOM     15  C   UNL     1     -23.453   2.847   1.679  1.00  0.00     0.106 CG0
ATOM     16  G   UNL     1     -22.003   2.505   1.367  1.00  0.00     0.000 G0
ENDBRANCH  13  15
ENDBRANCH  12  13
BRANCH  12  17
ATOM     17  C   UNL     1     -25.143   5.909  -0.245  1.00  0.00    -0.006 C 
ATOM     18  C   UNL     1     -23.990   6.629  -0.967  1.00  0.00     0.008 C 
ATOM     19  C   UNL     1     -26.439   6.119  -1.049  1.00  0.00     0.008 C 
ENDBRANCH  12  17
ENDBRANCH  11  12
ENDBRANCH   1  11
TORSDOF 1
ENDMDL
MODEL 5
REMARK VINA RESULT:    -3.532      2.601      3.633
REMARK INTER + INTRA:          -5.830
REMARK INTER:                  -5.791
REMARK INTRA:                  -0.040
REMARK UNBOUND:                -0.440
REMARK SMILES CC1=CCC[C@H](C)C(=O)C[C@H](C(C)C)C(=O)C1
REMARK SMILES IDX 8 1 9 2 6 3 7 4 5 5 4 6 3 7 2 8 1 9 10 11 11 12 15 13 16 14
REMARK SMILES IDX 17 15 12 17 13 18 14 19
REMARK H PARENT
REMARK Flexibility Score: 70.00
ROOT
ATOM      1  C   UNL     1     -24.732   2.504  -0.571  1.00  0.00     0.136 C 
ATOM      2  O   UNL     1     -25.186   1.428  -0.931  1.00  0.00    -0.299 OA
ENDROOT
BRANCH   1   3
ATOM      3  C   UNL     1     -24.730   3.689  -1.524  1.00  0.00     0.053 C 
ATOM      4  C   UNL     1     -25.521   3.408  -2.811  1.00  0.00     0.016 C 
BRANCH   3   5
ATOM      5  C   UNL     1     -25.226   4.976  -0.831  1.00  0.00     0.015 C 
BRANCH   5   6
ATOM      6  C   UNL     1     -24.152   6.082  -0.710  1.00  0.00     0.028 C 
BRANCH   6   7
ATOM      7  C   UNL     1     -24.294   6.830   0.595  1.00  0.00    -0.028 C 
ATOM      8  C   UNL     1     -23.459   6.727   1.657  1.00  0.00    -0.070 CG0
ATOM      9  C   UNL     1     -23.713   7.625   2.841  1.00  0.00     0.039 C 
ATOM     10  G   UNL     1     -22.310   5.731   1.727  1.00  0.00     0.000 G0
ENDBRANCH   6   7
ENDBRANCH   5   6
ENDBRANCH   3   5
ENDBRANCH   1   3
BRANCH   1  11
ATOM     11  C   UNL     1     -24.194   2.636   0.837  1.00  0.00     0.087 C 
BRANCH  11  12
ATOM     12  C   UNL     1     -22.759   3.234   0.905  1.00  0.00     0.066 C 
BRANCH  12  13
ATOM     13  C   UNL     1     -22.667   4.290   2.002  1.00  0.00     0.140 C 
ATOM     14  O   UNL     1     -22.884   3.947   3.155  1.00  0.00    -0.299 OA
BRANCH  13  15
ATOM     15  C   UNL     1     -22.304   5.744   1.762  1.00  0.00     0.106 CG0
ATOM     16  G   UNL     1     -23.473   6.713   1.661  1.00  0.00     0.000 G0
ENDBRANCH  13  15
ENDBRANCH  12  13
BRANCH  12  17
ATOM     17  C   UNL     1     -21.685   2.123   1.133  1.00  0.00    -0.006 C 
ATOM     18  C   UNL     1     -22.199   0.726   0.741  1.00  0.00     0.008 C 
ATOM     19  C   UNL     1     -20.398   2.418   0.341  1.00  0.00     0.008 C 
ENDBRANCH  12  17
ENDBRANCH  11  12
ENDBRANCH   1  11
TORSDOF 1
ENDMDL
MODEL 6
REMARK VINA RESULT:    -3.472      2.429      4.531
REMARK INTER + INTRA:          -5.739
REMARK INTER:                  -5.551
REMARK INTRA:                  -0.188
REMARK UNBOUND:                -0.440
REMARK SMILES CC1=CCC[C@H](C)C(=O)C[C@H](C(C)C)C(=O)C1
REMARK SMILES IDX 8 1 9 2 6 3 7 4 5 5 4 6 3 7 2 8 1 9 10 11 11 12 15 13 16 14
REMARK SMILES IDX 17 15 12 17 13 18 14 19
REMARK H PARENT
REMARK Flexibility Score: 70.00
ROOT
ATOM      1  C   UNL     1     -24.912   3.977  -1.290  1.00  0.00     0.136 C 
ATOM      2  O   UNL     1     -25.227   3.479  -2.362  1.00  0.00    -0.299 OA
ENDROOT
BRANCH   1   3
ATOM      3  C   UNL     1     -25.017   5.480  -1.088  1.00  0.00     0.053 C 
ATOM      4  C   UNL     1     -26.432   6.012  -1.366  1.00  0.00     0.016 C 
BRANCH   3   5
ATOM      5  C   UNL     1     -24.526   5.900   0.314  1.00  0.00     0.015 C 
BRANCH   5   6
ATOM      6  C   UNL     1     -23.022   6.253   0.376  1.00  0.00     0.028 C 
BRANCH   6   7
ATOM      7  C   UNL     1     -22.363   5.593   1.564  1.00  0.00    -0.028 C 
ATOM      8  C   UNL     1     -21.583   4.487   1.519  1.00  0.00    -0.070 CG0
ATOM      9  C   UNL     1     -20.936   4.028   2.801  1.00  0.00     0.039 C 
ATOM     10  G   UNL     1     -21.359   3.670   0.254  1.00  0.00     0.000 G0
ENDBRANCH   6   7
ENDBRANCH   5   6
ENDBRANCH   3   5
ENDBRANCH   1   3
BRANCH   1  11
ATOM     11  C   UNL     1     -24.438   3.072  -0.175  1.00  0.00     0.087 C 
BRANCH  11  12
ATOM     12  C   UNL     1     -23.327   2.073  -0.608  1.00  0.00     0.066 C 
BRANCH  12  13
ATOM     13  C   UNL     1     -22.042   2.324   0.174  1.00  0.00     0.140 C 
ATOM     14  O   UNL     1     -21.536   1.386   0.773  1.00  0.00    -0.299 OA
BRANCH  13  15
ATOM     15  C   UNL     1     -21.331   3.664   0.247  1.00  0.00     0.106 CG0
ATOM     16  G   UNL     1     -21.586   4.483   1.503  1.00  0.00     0.000 G0
ENDBRANCH  13  15
ENDBRANCH  12  13
BRANCH  12  17
ATOM     17  C   UNL     1     -23.787   0.591  -0.431  1.00  0.00    -0.006 C 
ATOM     18  C   UNL     1     -25.129   0.482   0.315  1.00  0.00     0.008 C 
ATOM     19  C   UNL     1     -23.916  -0.122  -1.789  1.00  0.00     0.008 C 
ENDBRANCH  12  17
ENDBRANCH  11  12
ENDBRANCH   1  11
TORSDOF 1
ENDMDL
MODEL 7
REMARK VINA RESULT:    -3.341      2.226      5.052
REMARK INTER + INTRA:          -5.539
REMARK INTER:                  -5.774
REMARK INTRA:                   0.235
REMARK UNBOUND:                -0.440
REMARK SMILES CC1=CCC[C@H](C)C(=O)C[C@H](C(C)C)C(=O)C1
REMARK SMILES IDX 8 1 9 2 6 3 7 4 5 5 4 6 3 7 2 8 1 9 10 11 11 12 15 13 16 14
REMARK SMILES IDX 17 15 12 17 13 18 14 19
REMARK H PARENT
REMARK Flexibility Score: 70.00
ROOT
ATOM      1  C   UNL     1     -25.004   2.864  -3.224  1.00  0.00     0.136 C 
ATOM      2  O   UNL     1     -24.381   2.878  -4.276  1.00  0.00    -0.299 OA
ENDROOT
BRANCH   1   3
ATOM      3  C   UNL     1     -24.730   3.917  -2.162  1.00  0.00     0.053 C 
ATOM      4  C   UNL     1     -25.981   4.742  -1.818  1.00  0.00     0.016 C 
BRANCH   3   5
ATOM      5  C   UNL     1     -24.102   3.297  -0.895  1.00  0.00     0.015 C 
BRANCH   5   6
ATOM      6  C   UNL     1     -22.898   2.369  -1.178  1.00  0.00     0.028 C 
BRANCH   6   7
ATOM      7  C   UNL     1     -22.724   1.360  -0.068  1.00  0.00    -0.028 C 
ATOM      8  C   UNL     1     -23.003   0.037  -0.156  1.00  0.00    -0.070 CG0
ATOM      9  C   UNL     1     -22.676  -0.831   1.033  1.00  0.00     0.039 C 
ATOM     10  G   UNL     1     -23.659  -0.603  -1.371  1.00  0.00     0.000 G0
ENDBRANCH   6   7
ENDBRANCH   5   6
ENDBRANCH   3   5
ENDBRANCH   1   3
BRANCH   1  11
ATOM     11  C   UNL     1     -26.056   1.799  -3.011  1.00  0.00     0.087 C 
BRANCH  11  12
ATOM     12  C   UNL     1     -25.501   0.348  -3.081  1.00  0.00     0.066 C 
BRANCH  12  13
ATOM     13  C   UNL     1     -25.063  -0.129  -1.700  1.00  0.00     0.140 C 
ATOM     14  O   UNL     1     -25.890  -0.131  -0.800  1.00  0.00    -0.299 OA
BRANCH  13  15
ATOM     15  C   UNL     1     -23.666  -0.622  -1.367  1.00  0.00     0.106 CG0
ATOM     16  G   UNL     1     -23.001   0.030  -0.164  1.00  0.00     0.000 G0
ENDBRANCH  13  15
ENDBRANCH  12  13
BRANCH  12  17
ATOM     17  C   UNL     1     -26.548  -0.640  -3.687  1.00  0.00    -0.006 C 
ATOM     18  C   UNL     1     -26.648  -0.517  -5.218  1.00  0.00     0.008 C 
ATOM     19  C   UNL     1     -26.216  -2.099  -3.328  1.00  0.00     0.008 C 
ENDBRANCH  12  17
ENDBRANCH  11  12
ENDBRANCH   1  11
TORSDOF 1
ENDMDL
MODEL 8
REMARK VINA RESULT:    -3.318      2.914      5.250
REMARK INTER + INTRA:          -5.504
REMARK INTER:                  -5.151
REMARK INTRA:                  -0.353
REMARK UNBOUND:                -0.440
REMARK SMILES CC1=CCC[C@H](C)C(=O)C[C@H](C(C)C)C(=O)C1
REMARK SMILES IDX 8 1 9 2 6 3 7 4 5 5 4 6 3 7 2 8 1 9 10 11 11 12 15 13 16 14
REMARK SMILES IDX 17 15 12 17 13 18 14 19
REMARK H PARENT
REMARK Flexibility Score: 70.00
ROOT
ATOM      1  C   UNL     1     -21.069   1.998   0.818  1.00  0.00     0.136 C 
ATOM      2  O   UNL     1     -21.344   0.874   1.213  1.00  0.00    -0.299 OA
ENDROOT
BRANCH   1   3
ATOM      3  C   UNL     1     -19.831   2.709   1.342  1.00  0.00     0.053 C 
ATOM      4  C   UNL     1     -18.979   3.311   0.214  1.00  0.00     0.016 C 
BRANCH   3   5
ATOM      5  C   UNL     1     -20.193   3.773   2.401  1.00  0.00     0.015 C 
BRANCH   5   6
ATOM      6  C   UNL     1     -20.117   5.229   1.884  1.00  0.00     0.028 C 
BRANCH   6   7
ATOM      7  C   UNL     1     -21.319   6.023   2.334  1.00  0.00    -0.028 C 
ATOM      8  C   UNL     1     -22.499   6.110   1.673  1.00  0.00    -0.070 CG0
ATOM      9  C   UNL     1     -23.617   6.880   2.328  1.00  0.00     0.039 C 
ATOM     10  G   UNL     1     -22.735   5.505   0.297  1.00  0.00     0.000 G0
ENDBRANCH   6   7
ENDBRANCH   5   6
ENDBRANCH   3   5
ENDBRANCH   1   3
BRANCH   1  11
ATOM     11  C   UNL     1     -21.968   2.653  -0.206  1.00  0.00     0.087 C 
BRANCH  11  12
ATOM     12  C   UNL     1     -23.418   2.900   0.299  1.00  0.00     0.066 C 
BRANCH  12  13
ATOM     13  C   UNL     1     -23.771   4.382   0.222  1.00  0.00     0.140 C 
ATOM     14  O   UNL     1     -24.948   4.692   0.121  1.00  0.00    -0.299 OA
BRANCH  13  15
ATOM     15  C   UNL     1     -22.754   5.508   0.283  1.00  0.00     0.106 CG0
ATOM     16  G   UNL     1     -22.504   6.102   1.661  1.00  0.00     0.000 G0
ENDBRANCH  13  15
ENDBRANCH  12  13
BRANCH  12  17
ATOM     17  C   UNL     1     -24.458   2.055  -0.504  1.00  0.00    -0.006 C 
ATOM     18  C   UNL     1     -23.796   1.218  -1.614  1.00  0.00     0.008 C 
ATOM     19  C   UNL     1     -25.249   1.113   0.422  1.00  0.00     0.008 C 
ENDBRANCH  12  17
ENDBRANCH  11  12
ENDBRANCH   1  11
TORSDOF 1
ENDMDL
MODEL 9
REMARK VINA RESULT:    -3.239      2.849      6.047
REMARK INTER + INTRA:          -5.384
REMARK INTER:                  -5.074
REMARK INTRA:                  -0.310
REMARK UNBOUND:                -0.440
REMARK SMILES CC1=CCC[C@H](C)C(=O)C[C@H](C(C)C)C(=O)C1
REMARK SMILES IDX 8 1 9 2 6 3 7 4 5 5 4 6 3 7 2 8 1 9 10 11 11 12 15 13 16 14
REMARK SMILES IDX 17 15 12 17 13 18 14 19
REMARK H PARENT
REMARK Flexibility Score: 70.00
ROOT
ATOM      1  C   UNL     1     -22.511   4.502   3.394  1.00  0.00     0.136 C 
ATOM      2  O   UNL     1     -22.678   4.386   4.600  1.00  0.00    -0.299 OA
ENDROOT
BRANCH   1   3
ATOM      3  C   UNL     1     -21.110   4.425   2.808  1.00  0.00     0.053 C 
ATOM      4  C   UNL     1     -20.052   5.047   3.732  1.00  0.00     0.016 C 
BRANCH   3   5
ATOM      5  C   UNL     1     -20.736   2.977   2.421  1.00  0.00     0.015 C 
BRANCH   5   6
ATOM      6  C   UNL     1     -20.540   2.760   0.902  1.00  0.00     0.028 C 
BRANCH   6   7
ATOM      7  C   UNL     1     -21.561   1.788   0.362  1.00  0.00    -0.028 C 
ATOM      8  C   UNL     1     -22.578   2.100  -0.478  1.00  0.00    -0.070 CG0
ATOM      9  C   UNL     1     -23.442   0.973  -0.984  1.00  0.00     0.039 C 
ATOM     10  G   UNL     1     -22.910   3.524  -0.901  1.00  0.00     0.000 G0
ENDBRANCH   6   7
ENDBRANCH   5   6
ENDBRANCH   3   5
ENDBRANCH   1   3
BRANCH   1  11
ATOM     11  C   UNL     1     -23.717   4.704   2.505  1.00  0.00     0.087 C 
BRANCH  11  12
ATOM     12  C   UNL     1     -23.369   5.261   1.095  1.00  0.00     0.066 C 
BRANCH  12  13
ATOM     13  C   UNL     1     -23.845   4.305   0.006  1.00  0.00     0.140 C 
ATOM     14  O   UNL     1     -25.048   4.164  -0.157  1.00  0.00    -0.299 OA
BRANCH  13  15
ATOM     15  C   UNL     1     -22.920   3.525  -0.911  1.00  0.00     0.106 CG0
ATOM     16  G   UNL     1     -22.580   2.110  -0.463  1.00  0.00     0.000 G0
ENDBRANCH  13  15
ENDBRANCH  12  13
BRANCH  12  17
ATOM     17  C   UNL     1     -23.980   6.681   0.872  1.00  0.00    -0.006 C 
ATOM     18  C   UNL     1     -23.283   7.756   1.726  1.00  0.00     0.008 C 
ATOM     19  C   UNL     1     -23.904   7.098  -0.608  1.00  0.00     0.008 C 
ENDBRANCH  12  17
ENDBRANCH  11  12
ENDBRANCH   1  11
TORSDOF 1
ENDMDL
