MODEL 1
REMARK VINA RESULT:    -2.553      0.000      0.000
REMARK INTER + INTRA:          -4.368
REMARK INTER:                  -3.746
REMARK INTRA:                  -0.621
REMARK UNBOUND:                -0.621
REMARK SMILES O=C([O-])CCCCCCCC(=O)[O-]
REMARK SMILES IDX 7 1 6 2 5 3 4 4 2 5 1 6 3 7 8 8 9 9 10 10 11 11 12 12 13 13
REMARK H PARENT
REMARK Flexibility Score: inf
ROOT
ATOM      1  C   UNL     1       0.758  15.258  -2.966  1.00  0.00     0.000 C 
ENDROOT
BRANCH   1   2
ATOM      2  C   UNL     1      -0.614  14.819  -2.430  1.00  0.00     0.000 C 
BRANCH   2   3
ATOM      3  C   UNL     1      -0.599  13.389  -1.866  1.00  0.00     0.006 C 
BRANCH   3   4
ATOM      4  C   UNL     1       0.654  13.112  -1.024  1.00  0.00     0.053 C 
BRANCH   4   5
ATOM      5  C   UNL     1       1.344  11.852  -1.447  1.00  0.00     0.041 C 
ATOM      6  O   UNL     1       2.052  11.835  -2.488  1.00  0.00    -0.550 OA
ATOM      7  O   UNL     1       1.230  10.702  -0.674  1.00  0.00    -0.550 OA
ENDBRANCH   4   5
ENDBRANCH   3   4
ENDBRANCH   2   3
ENDBRANCH   1   2
BRANCH   1   8
ATOM      8  C   UNL     1       0.797  15.341  -4.498  1.00  0.00     0.000 C 
BRANCH   8   9
ATOM      9  C   UNL     1       1.118  13.973  -5.113  1.00  0.00     0.006 C 
BRANCH   9  10
ATOM     10  C   UNL     1      -0.133  13.342  -5.735  1.00  0.00     0.053 C 
BRANCH  10  11
ATOM     11  C   UNL     1       0.016  13.240  -7.220  1.00  0.00     0.041 C 
ATOM     12  O   UNL     1       1.101  13.560  -7.772  1.00  0.00    -0.550 OA
ATOM     13  O   UNL     1      -1.061  12.836  -8.000  1.00  0.00    -0.550 OA
ENDBRANCH  10  11
ENDBRANCH   9  10
ENDBRANCH   8   9
ENDBRANCH   1   8
TORSDOF 8
ENDMDL
MODEL 2
REMARK VINA RESULT:    -2.464      0.993      5.340
REMARK INTER + INTRA:          -4.237
REMARK INTER:                  -3.449
REMARK INTRA:                  -0.788
REMARK UNBOUND:                -0.621
REMARK SMILES O=C([O-])CCCCCCCC(=O)[O-]
REMARK SMILES IDX 7 1 6 2 5 3 4 4 2 5 1 6 3 7 8 8 9 9 10 10 11 11 12 12 13 13
REMARK H PARENT
REMARK Flexibility Score: inf
ROOT
ATOM      1  C   UNL     1       0.847  15.186  -4.743  1.00  0.00     0.000 C 
ENDROOT
BRANCH   1   2
ATOM      2  C   UNL     1       1.968  14.211  -5.138  1.00  0.00     0.000 C 
BRANCH   2   3
ATOM      3  C   UNL     1       1.447  12.998  -5.928  1.00  0.00     0.006 C 
BRANCH   3   4
ATOM      4  C   UNL     1      -0.028  13.154  -6.321  1.00  0.00     0.053 C 
BRANCH   4   5
ATOM      5  C   UNL     1      -0.218  13.108  -7.806  1.00  0.00     0.041 C 
ATOM      6  O   UNL     1      -1.297  12.680  -8.294  1.00  0.00    -0.550 OA
ATOM      7  O   UNL     1       0.785  13.566  -8.652  1.00  0.00    -0.550 OA
ENDBRANCH   4   5
ENDBRANCH   3   4
ENDBRANCH   2   3
ENDBRANCH   1   2
BRANCH   1   8
ATOM      8  C   UNL     1       0.791  15.444  -3.231  1.00  0.00     0.000 C 
BRANCH   8   9
ATOM      9  C   UNL     1      -0.527  14.933  -2.636  1.00  0.00     0.006 C 
BRANCH   9  10
ATOM     10  C   UNL     1      -0.585  13.401  -2.661  1.00  0.00     0.053 C 
BRANCH  10  11
ATOM     11  C   UNL     1       0.520  12.823  -1.835  1.00  0.00     0.041 C 
ATOM     12  O   UNL     1       1.351  12.031  -2.353  1.00  0.00    -0.550 OA
ATOM     13  O   UNL     1       0.606  13.121  -0.480  1.00  0.00    -0.550 OA
ENDBRANCH  10  11
ENDBRANCH   9  10
ENDBRANCH   8   9
ENDBRANCH   1   8
TORSDOF 8
ENDMDL
MODEL 3
REMARK VINA RESULT:    -2.417      1.405      5.561
REMARK INTER + INTRA:          -4.169
REMARK INTER:                  -3.710
REMARK INTRA:                  -0.459
REMARK UNBOUND:                -0.621
REMARK SMILES O=C([O-])CCCCCCCC(=O)[O-]
REMARK SMILES IDX 7 1 6 2 5 3 4 4 2 5 1 6 3 7 8 8 9 9 10 10 11 11 12 12 13 13
REMARK H PARENT
REMARK Flexibility Score: inf
ROOT
ATOM      1  C   UNL     1      -1.816  13.484  -2.108  1.00  0.00     0.000 C 
ENDROOT
BRANCH   1   2
ATOM      2  C   UNL     1      -0.605  14.143  -2.788  1.00  0.00     0.000 C 
BRANCH   2   3
ATOM      3  C   UNL     1      -0.027  13.286  -3.926  1.00  0.00     0.006 C 
BRANCH   3   4
ATOM      4  C   UNL     1       0.288  14.120  -5.175  1.00  0.00     0.053 C 
BRANCH   4   5
ATOM      5  C   UNL     1       0.428  13.265  -6.397  1.00  0.00     0.041 C 
ATOM      6  O   UNL     1       1.446  12.540  -6.551  1.00  0.00    -0.550 OA
ATOM      7  O   UNL     1      -0.582  13.245  -7.352  1.00  0.00    -0.550 OA
ENDBRANCH   4   5
ENDBRANCH   3   4
ENDBRANCH   2   3
ENDBRANCH   1   2
BRANCH   1   8
ATOM      8  C   UNL     1      -1.756  13.570  -0.577  1.00  0.00     0.000 C 
BRANCH   8   9
ATOM      9  C   UNL     1      -1.282  12.244   0.029  1.00  0.00     0.006 C 
BRANCH   9  10
ATOM     10  C   UNL     1       0.234  12.250   0.250  1.00  0.00     0.053 C 
BRANCH  10  11
ATOM     11  C   UNL     1       0.872  11.099  -0.461  1.00  0.00     0.041 C 
ATOM     12  O   UNL     1       1.605  11.302  -1.464  1.00  0.00    -0.550 OA
ATOM     13  O   UNL     1       0.618   9.798  -0.045  1.00  0.00    -0.550 OA
ENDBRANCH  10  11
ENDBRANCH   9  10
ENDBRANCH   8   9
ENDBRANCH   1   8
TORSDOF 8
ENDMDL
MODEL 4
REMARK VINA RESULT:    -2.369      1.659      2.032
REMARK INTER + INTRA:          -4.098
REMARK INTER:                  -3.584
REMARK INTRA:                  -0.514
REMARK UNBOUND:                -0.621
REMARK SMILES O=C([O-])CCCCCCCC(=O)[O-]
REMARK SMILES IDX 7 1 6 2 5 3 4 4 2 5 1 6 3 7 8 8 9 9 10 10 11 11 12 12 13 13
REMARK H PARENT
REMARK Flexibility Score: inf
ROOT
ATOM      1  C   UNL     1       0.472  15.132  -2.795  1.00  0.00     0.000 C 
ENDROOT
BRANCH   1   2
ATOM      2  C   UNL     1      -0.727  15.988  -2.358  1.00  0.00     0.000 C 
BRANCH   2   3
ATOM      3  C   UNL     1      -1.733  15.203  -1.500  1.00  0.00     0.006 C 
BRANCH   3   4
ATOM      4  C   UNL     1      -1.828  13.730  -1.921  1.00  0.00     0.053 C 
BRANCH   4   5
ATOM      5  C   UNL     1      -1.562  12.803  -0.776  1.00  0.00     0.041 C 
ATOM      6  O   UNL     1      -0.390  12.408  -0.539  1.00  0.00    -0.550 OA
ATOM      7  O   UNL     1      -2.605  12.400   0.051  1.00  0.00    -0.550 OA
ENDBRANCH   4   5
ENDBRANCH   3   4
ENDBRANCH   2   3
ENDBRANCH   1   2
BRANCH   1   8
ATOM      8  C   UNL     1       0.811  15.301  -4.283  1.00  0.00     0.000 C 
BRANCH   8   9
ATOM      9  C   UNL     1       1.078  13.942  -4.942  1.00  0.00     0.006 C 
BRANCH   9  10
ATOM     10  C   UNL     1      -0.209  13.352  -5.528  1.00  0.00     0.053 C 
BRANCH  10  11
ATOM     11  C   UNL     1       0.020  12.889  -6.932  1.00  0.00     0.041 C 
ATOM     12  O   UNL     1       1.119  12.366  -7.256  1.00  0.00    -0.550 OA
ATOM     13  O   UNL     1      -0.963  13.077  -7.896  1.00  0.00    -0.550 OA
ENDBRANCH  10  11
ENDBRANCH   9  10
ENDBRANCH   8   9
ENDBRANCH   1   8
TORSDOF 8
ENDMDL
MODEL 5
REMARK VINA RESULT:    -2.346      5.680      8.009
REMARK INTER + INTRA:          -4.064
REMARK INTER:                  -3.595
REMARK INTRA:                  -0.469
REMARK UNBOUND:                -0.621
REMARK SMILES O=C([O-])CCCCCCCC(=O)[O-]
REMARK SMILES IDX 7 1 6 2 5 3 4 4 2 5 1 6 3 7 8 8 9 9 10 10 11 11 12 12 13 13
REMARK H PARENT
REMARK Flexibility Score: inf
ROOT
ATOM      1  C   UNL     1      -0.342   8.596  -9.975  1.00  0.00     0.000 C 
ENDROOT
BRANCH   1   2
ATOM      2  C   UNL     1      -1.325   8.742  -8.802  1.00  0.00     0.000 C 
BRANCH   2   3
ATOM      3  C   UNL     1      -1.651  10.210  -8.481  1.00  0.00     0.006 C 
BRANCH   3   4
ATOM      4  C   UNL     1      -0.935  11.182  -9.429  1.00  0.00     0.053 C 
BRANCH   4   5
ATOM      5  C   UNL     1      -1.233  12.611  -9.093  1.00  0.00     0.041 C 
ATOM      6  O   UNL     1      -0.827  13.105  -8.008  1.00  0.00    -0.550 OA
ATOM      7  O   UNL     1      -1.933  13.406  -9.992  1.00  0.00    -0.550 OA
ENDBRANCH   4   5
ENDBRANCH   3   4
ENDBRANCH   2   3
ENDBRANCH   1   2
BRANCH   1   8
ATOM      8  C   UNL     1       0.981   7.935  -9.562  1.00  0.00     0.000 C 
BRANCH   8   9
ATOM      9  C   UNL     1       1.207   8.058  -8.050  1.00  0.00     0.006 C 
BRANCH   9  10
ATOM     10  C   UNL     1       1.395   6.680  -7.408  1.00  0.00     0.053 C 
BRANCH  10  11
ATOM     11  C   UNL     1       0.695   6.618  -6.088  1.00  0.00     0.041 C 
ATOM     12  O   UNL     1       1.356   6.481  -5.025  1.00  0.00    -0.550 OA
ATOM     13  O   UNL     1      -0.693   6.663  -6.034  1.00  0.00    -0.550 OA
ENDBRANCH  10  11
ENDBRANCH   9  10
ENDBRANCH   8   9
ENDBRANCH   1   8
TORSDOF 8
ENDMDL
MODEL 6
REMARK VINA RESULT:    -2.341      1.787      5.713
REMARK INTER + INTRA:          -4.057
REMARK INTER:                  -3.511
REMARK INTRA:                  -0.547
REMARK UNBOUND:                -0.621
REMARK SMILES O=C([O-])CCCCCCCC(=O)[O-]
REMARK SMILES IDX 7 1 6 2 5 3 4 4 2 5 1 6 3 7 8 8 9 9 10 10 11 11 12 12 13 13
REMARK H PARENT
REMARK Flexibility Score: inf
ROOT
ATOM      1  C   UNL     1       0.676  14.634  -5.062  1.00  0.00     0.000 C 
ENDROOT
BRANCH   1   2
ATOM      2  C   UNL     1       0.017  13.420  -5.737  1.00  0.00     0.000 C 
BRANCH   2   3
ATOM      3  C   UNL     1       0.795  12.933  -6.971  1.00  0.00     0.006 C 
BRANCH   3   4
ATOM      4  C   UNL     1      -0.128  12.319  -8.031  1.00  0.00     0.053 C 
BRANCH   4   5
ATOM      5  C   UNL     1      -0.425  13.282  -9.139  1.00  0.00     0.041 C 
ATOM      6  O   UNL     1      -1.578  13.330  -9.645  1.00  0.00    -0.550 OA
ATOM      7  O   UNL     1       0.562  14.148  -9.593  1.00  0.00    -0.550 OA
ENDBRANCH   4   5
ENDBRANCH   3   4
ENDBRANCH   2   3
ENDBRANCH   1   2
BRANCH   1   8
ATOM      8  C   UNL     1       0.764  14.489  -3.536  1.00  0.00     0.000 C 
BRANCH   8   9
ATOM      9  C   UNL     1       0.540  13.033  -3.109  1.00  0.00     0.006 C 
BRANCH   9  10
ATOM     10  C   UNL     1       1.774  12.474  -2.394  1.00  0.00     0.053 C 
BRANCH  10  11
ATOM     11  C   UNL     1       2.879  12.227  -3.371  1.00  0.00     0.041 C 
ATOM     12  O   UNL     1       3.893  12.973  -3.383  1.00  0.00    -0.550 OA
ATOM     13  O   UNL     1       2.768  11.201  -4.302  1.00  0.00    -0.550 OA
ENDBRANCH  10  11
ENDBRANCH   9  10
ENDBRANCH   8   9
ENDBRANCH   1   8
TORSDOF 8
ENDMDL
MODEL 7
REMARK VINA RESULT:    -2.322      5.157      6.798
REMARK INTER + INTRA:          -4.028
REMARK INTER:                  -3.539
REMARK INTRA:                  -0.490
REMARK UNBOUND:                -0.621
REMARK SMILES O=C([O-])CCCCCCCC(=O)[O-]
REMARK SMILES IDX 7 1 6 2 5 3 4 4 2 5 1 6 3 7 8 8 9 9 10 10 11 11 12 12 13 13
REMARK H PARENT
REMARK Flexibility Score: inf
ROOT
ATOM      1  C   UNL     1       0.532   8.724  -9.194  1.00  0.00     0.000 C 
ENDROOT
BRANCH   1   2
ATOM      2  C   UNL     1       0.883   7.233  -9.324  1.00  0.00     0.000 C 
BRANCH   2   3
ATOM      3  C   UNL     1       1.842   6.752  -8.222  1.00  0.00     0.006 C 
BRANCH   3   4
ATOM      4  C   UNL     1       1.184   5.729  -7.288  1.00  0.00     0.053 C 
BRANCH   4   5
ATOM      5  C   UNL     1       0.583   6.380  -6.080  1.00  0.00     0.041 C 
ATOM      6  O   UNL     1       1.283   6.575  -5.051  1.00  0.00    -0.550 OA
ATOM      7  O   UNL     1      -0.741   6.801  -6.101  1.00  0.00    -0.550 OA
ENDBRANCH   4   5
ENDBRANCH   3   4
ENDBRANCH   2   3
ENDBRANCH   1   2
BRANCH   1   8
ATOM      8  C   UNL     1       1.500   9.483  -8.276  1.00  0.00     0.000 C 
BRANCH   8   9
ATOM      9  C   UNL     1       1.039  10.932  -8.072  1.00  0.00     0.006 C 
BRANCH   9  10
ATOM     10  C   UNL     1      -0.409  11.119  -8.538  1.00  0.00     0.053 C 
BRANCH  10  11
ATOM     11  C   UNL     1      -0.834  12.543  -8.365  1.00  0.00     0.041 C 
ATOM     12  O   UNL     1      -1.364  13.167  -9.322  1.00  0.00    -0.550 OA
ATOM     13  O   UNL     1      -0.601  13.197  -7.162  1.00  0.00    -0.550 OA
ENDBRANCH  10  11
ENDBRANCH   9  10
ENDBRANCH   8   9
ENDBRANCH   1   8
TORSDOF 8
ENDMDL
MODEL 8
REMARK VINA RESULT:    -2.312      1.752      2.717
REMARK INTER + INTRA:          -4.014
REMARK INTER:                  -3.682
REMARK INTRA:                  -0.332
REMARK UNBOUND:                -0.621
REMARK SMILES O=C([O-])CCCCCCCC(=O)[O-]
REMARK SMILES IDX 7 1 6 2 5 3 4 4 2 5 1 6 3 7 8 8 9 9 10 10 11 11 12 12 13 13
REMARK H PARENT
REMARK Flexibility Score: inf
ROOT
ATOM      1  C   UNL     1       0.971  13.910  -5.832  1.00  0.00     0.000 C 
ENDROOT
BRANCH   1   2
ATOM      2  C   UNL     1       0.500  14.407  -4.456  1.00  0.00     0.000 C 
BRANCH   2   3
ATOM      3  C   UNL     1      -0.437  13.410  -3.754  1.00  0.00     0.006 C 
BRANCH   3   4
ATOM      4  C   UNL     1      -0.109  13.259  -2.263  1.00  0.00     0.053 C 
BRANCH   4   5
ATOM      5  C   UNL     1       1.346  12.987  -2.035  1.00  0.00     0.041 C 
ATOM      6  O   UNL     1       2.063  13.833  -1.438  1.00  0.00    -0.550 OA
ATOM      7  O   UNL     1       1.904  11.785  -2.455  1.00  0.00    -0.550 OA
ENDBRANCH   4   5
ENDBRANCH   3   4
ENDBRANCH   2   3
ENDBRANCH   1   2
BRANCH   1   8
ATOM      8  C   UNL     1      -0.148  13.227  -6.630  1.00  0.00     0.000 C 
BRANCH   8   9
ATOM      9  C   UNL     1       0.146  13.272  -8.135  1.00  0.00     0.006 C 
BRANCH   9  10
ATOM     10  C   UNL     1      -0.314  11.983  -8.824  1.00  0.00     0.053 C 
BRANCH  10  11
ATOM     11  C   UNL     1      -1.568  12.226  -9.603  1.00  0.00     0.041 C 
ATOM     12  O   UNL     1      -1.896  13.397  -9.929  1.00  0.00    -0.550 OA
ATOM     13  O   UNL     1      -2.401  11.162  -9.929  1.00  0.00    -0.550 OA
ENDBRANCH  10  11
ENDBRANCH   9  10
ENDBRANCH   8   9
ENDBRANCH   1   8
TORSDOF 8
ENDMDL
MODEL 9
REMARK VINA RESULT:    -2.250      2.375      6.115
REMARK INTER + INTRA:          -3.923
REMARK INTER:                  -3.563
REMARK INTRA:                  -0.360
REMARK UNBOUND:                -0.621
REMARK SMILES O=C([O-])CCCCCCCC(=O)[O-]
REMARK SMILES IDX 7 1 6 2 5 3 4 4 2 5 1 6 3 7 8 8 9 9 10 10 11 11 12 12 13 13
REMARK H PARENT
REMARK Flexibility Score: inf
ROOT
ATOM      1  C   UNL     1       0.340  14.345  -3.878  1.00  0.00     0.000 C 
ENDROOT
BRANCH   1   2
ATOM      2  C   UNL     1       0.692  14.304  -5.374  1.00  0.00     0.000 C 
BRANCH   2   3
ATOM      3  C   UNL     1      -0.126  13.255  -6.146  1.00  0.00     0.006 C 
BRANCH   3   4
ATOM      4  C   UNL     1       0.324  13.133  -7.608  1.00  0.00     0.053 C 
BRANCH   4   5
ATOM      5  C   UNL     1      -0.749  12.549  -8.475  1.00  0.00     0.041 C 
ATOM      6  O   UNL     1      -1.295  13.251  -9.367  1.00  0.00    -0.550 OA
ATOM      7  O   UNL     1      -1.125  11.220  -8.320  1.00  0.00    -0.550 OA
ENDBRANCH   4   5
ENDBRANCH   3   4
ENDBRANCH   2   3
ENDBRANCH   1   2
BRANCH   1   8
ATOM      8  C   UNL     1      -0.657  13.250  -3.473  1.00  0.00     0.000 C 
BRANCH   8   9
ATOM      9  C   UNL     1      -1.600  13.747  -2.371  1.00  0.00     0.006 C 
BRANCH   9  10
ATOM     10  C   UNL     1      -1.220  15.161  -1.918  1.00  0.00     0.053 C 
BRANCH  10  11
ATOM     11  C   UNL     1      -0.874  15.170  -0.463  1.00  0.00     0.041 C 
ATOM     12  O   UNL     1      -0.371  16.197   0.063  1.00  0.00    -0.550 OA
ATOM     13  O   UNL     1      -1.063  14.026   0.303  1.00  0.00    -0.550 OA
ENDBRANCH  10  11
ENDBRANCH   9  10
ENDBRANCH   8   9
ENDBRANCH   1   8
TORSDOF 8
ENDMDL
