MODEL 1
REMARK VINA RESULT:    -4.362      0.000      0.000
REMARK INTER + INTRA:          -8.807
REMARK INTER:                  -6.657
REMARK INTRA:                  -2.150
REMARK UNBOUND:                -2.150
REMARK SMILES CC(=O)CCC=C(C)CCC=C(C)CCC=C(C)C
REMARK SMILES IDX 10 1 11 2 12 3 13 4 14 5 15 6 16 7 18 8 17 9 19 10 9 11 7 12
REMARK SMILES IDX 6 13 8 14 5 15 4 16 2 17 3 18 1 19
REMARK H PARENT
REMARK Flexibility Score: inf
ROOT
ATOM      1  C   UNL     1       7.349   6.586  -7.077  1.00  0.00     0.032 C 
ENDROOT
BRANCH   1   2
ATOM      2  C   UNL     1       7.265   6.408  -8.574  1.00  0.00    -0.028 C 
ATOM      3  C   UNL     1       7.789   5.363  -9.255  1.00  0.00    -0.077 C 
ATOM      4  C   UNL     1       8.586   4.281  -8.566  1.00  0.00     0.039 C 
BRANCH   3   5
ATOM      5  C   UNL     1       7.568   5.279 -10.749  1.00  0.00     0.034 C 
BRANCH   5   6
ATOM      6  C   UNL     1       6.832   3.988 -11.123  1.00  0.00     0.032 C 
BRANCH   6   7
ATOM      7  C   UNL     1       5.405   4.026 -10.637  1.00  0.00    -0.028 C 
ATOM      8  C   UNL     1       5.614   1.880  -9.363  1.00  0.00     0.039 C 
ATOM      9  C   UNL     1       4.836   3.075  -9.864  1.00  0.00    -0.080 C 
ATOM     10  C   UNL     1       3.386   3.230  -9.484  1.00  0.00     0.039 C 
ENDBRANCH   6   7
ENDBRANCH   5   6
ENDBRANCH   3   5
ENDBRANCH   1   2
BRANCH   1  11
ATOM     11  C   UNL     1       6.106   6.026  -6.369  1.00  0.00     0.034 C 
BRANCH  11  12
ATOM     12  C   UNL     1       6.365   4.658  -5.770  1.00  0.00    -0.077 C 
ATOM     13  C   UNL     1       7.409   4.497  -4.925  1.00  0.00    -0.028 C 
ATOM     14  C   UNL     1       5.433   3.519  -6.114  1.00  0.00     0.039 C 
BRANCH  13  15
ATOM     15  C   UNL     1       7.793   3.187  -4.284  1.00  0.00     0.035 C 
BRANCH  15  16
ATOM     16  C   UNL     1       8.942   2.523  -5.049  1.00  0.00     0.079 C 
BRANCH  16  17
ATOM     17  C   UNL     1       8.660   1.061  -5.269  1.00  0.00     0.130 C 
ATOM     18  O   UNL     1       7.513   0.693  -5.469  1.00  0.00    -0.300 OA
ATOM     19  C   UNL     1       9.759   0.040  -5.239  1.00  0.00     0.087 C 
ENDBRANCH  16  17
ENDBRANCH  15  16
ENDBRANCH  13  15
ENDBRANCH  11  12
ENDBRANCH   1  11
TORSDOF 9
ENDMDL
MODEL 2
REMARK VINA RESULT:    -4.357     12.959     15.339
REMARK INTER + INTRA:          -8.801
REMARK INTER:                  -7.196
REMARK INTRA:                  -1.604
REMARK UNBOUND:                -2.150
REMARK SMILES CC(=O)CCC=C(C)CCC=C(C)CCC=C(C)C
REMARK SMILES IDX 10 1 11 2 12 3 13 4 14 5 15 6 16 7 18 8 17 9 19 10 9 11 7 12
REMARK SMILES IDX 6 13 8 14 5 15 4 16 2 17 3 18 1 19
REMARK H PARENT
REMARK Flexibility Score: inf
ROOT
ATOM      1  C   UNL     1      -5.533  11.532  -5.019  1.00  0.00     0.032 C 
ENDROOT
BRANCH   1   2
ATOM      2  C   UNL     1      -6.826  12.170  -5.468  1.00  0.00    -0.028 C 
ATOM      3  C   UNL     1      -7.944  11.487  -5.806  1.00  0.00    -0.077 C 
ATOM      4  C   UNL     1      -7.979   9.977  -5.830  1.00  0.00     0.039 C 
BRANCH   3   5
ATOM      5  C   UNL     1      -9.191  12.261  -6.172  1.00  0.00     0.034 C 
BRANCH   5   6
ATOM      6  C   UNL     1      -8.962  13.109  -7.428  1.00  0.00     0.032 C 
BRANCH   6   7
ATOM      7  C   UNL     1      -9.009  12.252  -8.668  1.00  0.00    -0.028 C 
ATOM      8  C   UNL     1      -6.557  12.487  -9.117  1.00  0.00     0.039 C 
ATOM      9  C   UNL     1      -7.941  11.982  -9.450  1.00  0.00    -0.080 C 
ATOM     10  C   UNL     1      -8.147  11.136 -10.681  1.00  0.00     0.039 C 
ENDBRANCH   6   7
ENDBRANCH   5   6
ENDBRANCH   3   5
ENDBRANCH   1   2
BRANCH   1  11
ATOM     11  C   UNL     1      -4.507  12.584  -4.572  1.00  0.00     0.034 C 
BRANCH  11  12
ATOM     12  C   UNL     1      -3.447  12.824  -5.628  1.00  0.00    -0.077 C 
ATOM     13  C   UNL     1      -3.403  12.015  -6.712  1.00  0.00    -0.028 C 
ATOM     14  C   UNL     1      -2.484  13.976  -5.453  1.00  0.00     0.039 C 
BRANCH  13  15
ATOM     15  C   UNL     1      -2.385  12.126  -7.819  1.00  0.00     0.035 C 
BRANCH  15  16
ATOM     16  C   UNL     1      -2.879  11.421  -9.085  1.00  0.00     0.079 C 
BRANCH  16  17
ATOM     17  C   UNL     1      -2.043  10.204  -9.377  1.00  0.00     0.130 C 
ATOM     18  O   UNL     1      -1.310   9.756  -8.510  1.00  0.00    -0.300 OA
ATOM     19  C   UNL     1      -2.082   9.532 -10.718  1.00  0.00     0.087 C 
ENDBRANCH  16  17
ENDBRANCH  15  16
ENDBRANCH  13  15
ENDBRANCH  11  12
ENDBRANCH   1  11
TORSDOF 9
ENDMDL
MODEL 3
REMARK VINA RESULT:    -4.338      1.837      3.904
REMARK INTER + INTRA:          -8.770
REMARK INTER:                  -6.489
REMARK INTRA:                  -2.282
REMARK UNBOUND:                -2.150
REMARK SMILES CC(=O)CCC=C(C)CCC=C(C)CCC=C(C)C
REMARK SMILES IDX 10 1 11 2 12 3 13 4 14 5 15 6 16 7 18 8 17 9 19 10 9 11 7 12
REMARK SMILES IDX 6 13 8 14 5 15 4 16 2 17 3 18 1 19
REMARK H PARENT
REMARK Flexibility Score: inf
ROOT
ATOM      1  C   UNL     1       6.813   4.513  -5.508  1.00  0.00     0.032 C 
ENDROOT
BRANCH   1   2
ATOM      2  C   UNL     1       6.384   5.730  -6.293  1.00  0.00    -0.028 C 
ATOM      3  C   UNL     1       6.934   6.123  -7.464  1.00  0.00    -0.077 C 
ATOM      4  C   UNL     1       8.107   5.396  -8.079  1.00  0.00     0.039 C 
BRANCH   3   5
ATOM      5  C   UNL     1       6.357   7.327  -8.176  1.00  0.00     0.034 C 
BRANCH   5   6
ATOM      6  C   UNL     1       6.028   6.995  -9.636  1.00  0.00     0.032 C 
BRANCH   6   7
ATOM      7  C   UNL     1       4.925   5.969  -9.716  1.00  0.00    -0.028 C 
ATOM      8  C   UNL     1       6.272   4.397 -11.125  1.00  0.00     0.039 C 
ATOM      9  C   UNL     1       5.011   4.807 -10.400  1.00  0.00    -0.080 C 
ATOM     10  C   UNL     1       3.813   3.894 -10.419  1.00  0.00     0.039 C 
ENDBRANCH   6   7
ENDBRANCH   5   6
ENDBRANCH   3   5
ENDBRANCH   1   2
BRANCH   1  11
ATOM     11  C   UNL     1       5.981   3.277  -5.881  1.00  0.00     0.034 C 
BRANCH  11  12
ATOM     12  C   UNL     1       6.760   2.313  -6.753  1.00  0.00    -0.077 C 
ATOM     13  C   UNL     1       6.406   2.167  -8.051  1.00  0.00    -0.028 C 
ATOM     14  C   UNL     1       7.926   1.561  -6.155  1.00  0.00     0.039 C 
BRANCH  13  15
ATOM     15  C   UNL     1       7.076   1.224  -9.018  1.00  0.00     0.035 C 
BRANCH  15  16
ATOM     16  C   UNL     1       6.203   1.004 -10.257  1.00  0.00     0.079 C 
BRANCH  16  17
ATOM     17  C   UNL     1       5.235  -0.126 -10.030  1.00  0.00     0.130 C 
ATOM     18  O   UNL     1       5.645  -1.194  -9.605  1.00  0.00    -0.300 OA
ATOM     19  C   UNL     1       3.772   0.028 -10.327  1.00  0.00     0.087 C 
ENDBRANCH  16  17
ENDBRANCH  15  16
ENDBRANCH  13  15
ENDBRANCH  11  12
ENDBRANCH   1  11
TORSDOF 9
ENDMDL
MODEL 4
REMARK VINA RESULT:    -4.333     12.810     15.151
REMARK INTER + INTRA:          -8.763
REMARK INTER:                  -7.424
REMARK INTRA:                  -1.340
REMARK UNBOUND:                -2.150
REMARK SMILES CC(=O)CCC=C(C)CCC=C(C)CCC=C(C)C
REMARK SMILES IDX 10 1 11 2 12 3 13 4 14 5 15 6 16 7 18 8 17 9 19 10 9 11 7 12
REMARK SMILES IDX 6 13 8 14 5 15 4 16 2 17 3 18 1 19
REMARK H PARENT
REMARK Flexibility Score: inf
ROOT
ATOM      1  C   UNL     1      -4.728  12.047  -5.499  1.00  0.00     0.032 C 
ENDROOT
BRANCH   1   2
ATOM      2  C   UNL     1      -6.071  12.738  -5.479  1.00  0.00    -0.028 C 
ATOM      3  C   UNL     1      -6.857  12.922  -6.564  1.00  0.00    -0.077 C 
ATOM      4  C   UNL     1      -6.420  12.500  -7.946  1.00  0.00     0.039 C 
BRANCH   3   5
ATOM      5  C   UNL     1      -8.212  13.571  -6.383  1.00  0.00     0.034 C 
BRANCH   5   6
ATOM      6  C   UNL     1      -9.159  12.653  -5.601  1.00  0.00     0.032 C 
BRANCH   6   7
ATOM      7  C   UNL     1      -9.188  11.273  -6.209  1.00  0.00    -0.028 C 
ATOM      8  C   UNL     1      -8.356  10.163  -4.124  1.00  0.00     0.039 C 
ATOM      9  C   UNL     1      -8.809  10.147  -5.566  1.00  0.00    -0.080 C 
ATOM     10  C   UNL     1      -8.859   8.840  -6.315  1.00  0.00     0.039 C 
ENDBRANCH   6   7
ENDBRANCH   5   6
ENDBRANCH   3   5
ENDBRANCH   1   2
BRANCH   1  11
ATOM     11  C   UNL     1      -3.579  13.035  -5.250  1.00  0.00     0.034 C 
BRANCH  11  12
ATOM     12  C   UNL     1      -2.604  13.071  -6.410  1.00  0.00    -0.077 C 
ATOM     13  C   UNL     1      -2.741  12.174  -7.414  1.00  0.00    -0.028 C 
ATOM     14  C   UNL     1      -1.521  14.125  -6.425  1.00  0.00     0.039 C 
BRANCH  13  15
ATOM     15  C   UNL     1      -1.826  12.084  -8.609  1.00  0.00     0.035 C 
BRANCH  15  16
ATOM     16  C   UNL     1      -2.449  11.217  -9.707  1.00  0.00     0.079 C 
BRANCH  16  17
ATOM     17  C   UNL     1      -1.946   9.801  -9.617  1.00  0.00     0.130 C 
ATOM     18  O   UNL     1      -1.524   9.379  -8.552  1.00  0.00    -0.300 OA
ATOM     19  C   UNL     1      -1.942   8.896 -10.814  1.00  0.00     0.087 C 
ENDBRANCH  16  17
ENDBRANCH  15  16
ENDBRANCH  13  15
ENDBRANCH  11  12
ENDBRANCH   1  11
TORSDOF 9
ENDMDL
MODEL 5
REMARK VINA RESULT:    -4.317      1.641      4.387
REMARK INTER + INTRA:          -8.739
REMARK INTER:                  -6.955
REMARK INTRA:                  -1.785
REMARK UNBOUND:                -2.150
REMARK SMILES CC(=O)CCC=C(C)CCC=C(C)CCC=C(C)C
REMARK SMILES IDX 10 1 11 2 12 3 13 4 14 5 15 6 16 7 18 8 17 9 19 10 9 11 7 12
REMARK SMILES IDX 6 13 8 14 5 15 4 16 2 17 3 18 1 19
REMARK H PARENT
REMARK Flexibility Score: inf
ROOT
ATOM      1  C   UNL     1       5.593   1.503 -11.067  1.00  0.00     0.032 C 
ENDROOT
BRANCH   1   2
ATOM      2  C   UNL     1       5.767   2.962 -10.718  1.00  0.00    -0.028 C 
ATOM      3  C   UNL     1       4.851   3.712 -10.064  1.00  0.00    -0.077 C 
ATOM      4  C   UNL     1       3.502   3.157  -9.670  1.00  0.00     0.039 C 
BRANCH   3   5
ATOM      5  C   UNL     1       5.189   5.145  -9.720  1.00  0.00     0.034 C 
BRANCH   5   6
ATOM      6  C   UNL     1       6.610   5.252  -9.153  1.00  0.00     0.032 C 
BRANCH   6   7
ATOM      7  C   UNL     1       6.674   4.676  -7.761  1.00  0.00    -0.028 C 
ATOM      8  C   UNL     1       6.496   6.916  -6.655  1.00  0.00     0.039 C 
ATOM      9  C   UNL     1       6.647   5.413  -6.628  1.00  0.00    -0.080 C 
ATOM     10  C   UNL     1       6.756   4.700  -5.305  1.00  0.00     0.039 C 
ENDBRANCH   6   7
ENDBRANCH   5   6
ENDBRANCH   3   5
ENDBRANCH   1   2
BRANCH   1  11
ATOM     11  C   UNL     1       6.121   0.587  -9.952  1.00  0.00     0.034 C 
BRANCH  11  12
ATOM     12  C   UNL     1       7.494   1.013  -9.473  1.00  0.00    -0.077 C 
ATOM     13  C   UNL     1       7.660   1.355  -8.174  1.00  0.00    -0.028 C 
ATOM     14  C   UNL     1       8.644   1.020 -10.453  1.00  0.00     0.039 C 
BRANCH  13  15
ATOM     15  C   UNL     1       8.963   1.823  -7.575  1.00  0.00     0.035 C 
BRANCH  15  16
ATOM     16  C   UNL     1       9.646   0.688  -6.806  1.00  0.00     0.079 C 
BRANCH  16  17
ATOM     17  C   UNL     1       9.187   0.667  -5.372  1.00  0.00     0.130 C 
ATOM     18  O   UNL     1       8.790  -0.379  -4.883  1.00  0.00    -0.300 OA
ATOM     19  C   UNL     1       9.197   1.908  -4.530  1.00  0.00     0.087 C 
ENDBRANCH  16  17
ENDBRANCH  15  16
ENDBRANCH  13  15
ENDBRANCH  11  12
ENDBRANCH   1  11
TORSDOF 9
ENDMDL
MODEL 6
REMARK VINA RESULT:    -4.264      1.354      4.065
REMARK INTER + INTRA:          -8.658
REMARK INTER:                  -6.425
REMARK INTRA:                  -2.233
REMARK UNBOUND:                -2.150
REMARK SMILES CC(=O)CCC=C(C)CCC=C(C)CCC=C(C)C
REMARK SMILES IDX 10 1 11 2 12 3 13 4 14 5 15 6 16 7 18 8 17 9 19 10 9 11 7 12
REMARK SMILES IDX 6 13 8 14 5 15 4 16 2 17 3 18 1 19
REMARK H PARENT
REMARK Flexibility Score: inf
ROOT
ATOM      1  C   UNL     1       5.832   1.793 -10.812  1.00  0.00     0.032 C 
ENDROOT
BRANCH   1   2
ATOM      2  C   UNL     1       5.661   3.263 -11.116  1.00  0.00    -0.028 C 
ATOM      3  C   UNL     1       4.590   4.004 -10.750  1.00  0.00    -0.077 C 
ATOM      4  C   UNL     1       3.403   3.396 -10.042  1.00  0.00     0.039 C 
BRANCH   3   5
ATOM      5  C   UNL     1       4.586   5.485 -11.061  1.00  0.00     0.034 C 
BRANCH   5   6
ATOM      6  C   UNL     1       5.881   6.150 -10.581  1.00  0.00     0.032 C 
BRANCH   6   7
ATOM      7  C   UNL     1       5.842   6.381  -9.091  1.00  0.00    -0.028 C 
ATOM      8  C   UNL     1       8.205   7.204  -8.997  1.00  0.00     0.039 C 
ATOM      9  C   UNL     1       6.886   6.832  -8.361  1.00  0.00    -0.080 C 
ATOM     10  C   UNL     1       6.710   6.980  -6.872  1.00  0.00     0.039 C 
ENDBRANCH   6   7
ENDBRANCH   5   6
ENDBRANCH   3   5
ENDBRANCH   1   2
BRANCH   1  11
ATOM     11  C   UNL     1       7.097   1.528  -9.984  1.00  0.00     0.034 C 
BRANCH  11  12
ATOM     12  C   UNL     1       7.243   2.515  -8.843  1.00  0.00    -0.077 C 
ATOM     13  C   UNL     1       6.309   2.531  -7.864  1.00  0.00    -0.028 C 
ATOM     14  C   UNL     1       8.440   3.437  -8.818  1.00  0.00     0.039 C 
BRANCH  13  15
ATOM     15  C   UNL     1       6.319   3.478  -6.690  1.00  0.00     0.035 C 
BRANCH  15  16
ATOM     16  C   UNL     1       6.331   2.705  -5.368  1.00  0.00     0.079 C 
BRANCH  16  17
ATOM     17  C   UNL     1       7.394   1.639  -5.384  1.00  0.00     0.130 C 
ATOM     18  O   UNL     1       7.070   0.469  -5.510  1.00  0.00    -0.300 OA
ATOM     19  C   UNL     1       8.847   1.983  -5.237  1.00  0.00     0.087 C 
ENDBRANCH  16  17
ENDBRANCH  15  16
ENDBRANCH  13  15
ENDBRANCH  11  12
ENDBRANCH   1  11
TORSDOF 9
ENDMDL
MODEL 7
REMARK VINA RESULT:    -4.234      2.143      4.779
REMARK INTER + INTRA:          -8.613
REMARK INTER:                  -6.329
REMARK INTRA:                  -2.283
REMARK UNBOUND:                -2.150
REMARK SMILES CC(=O)CCC=C(C)CCC=C(C)CCC=C(C)C
REMARK SMILES IDX 10 1 11 2 12 3 13 4 14 5 15 6 16 7 18 8 17 9 19 10 9 11 7 12
REMARK SMILES IDX 6 13 8 14 5 15 4 16 2 17 3 18 1 19
REMARK H PARENT
REMARK Flexibility Score: inf
ROOT
ATOM      1  C   UNL     1       5.818   4.610 -10.029  1.00  0.00     0.032 C 
ENDROOT
BRANCH   1   2
ATOM      2  C   UNL     1       5.788   4.958  -8.559  1.00  0.00    -0.028 C 
ATOM      3  C   UNL     1       6.880   5.237  -7.812  1.00  0.00    -0.077 C 
ATOM      4  C   UNL     1       8.277   5.156  -8.381  1.00  0.00     0.039 C 
BRANCH   3   5
ATOM      5  C   UNL     1       6.693   5.639  -6.366  1.00  0.00     0.034 C 
BRANCH   5   6
ATOM      6  C   UNL     1       6.228   4.447  -5.521  1.00  0.00     0.032 C 
BRANCH   6   7
ATOM      7  C   UNL     1       7.408   3.731  -4.912  1.00  0.00    -0.028 C 
ATOM      8  C   UNL     1       7.183   1.744  -6.419  1.00  0.00     0.039 C 
ATOM      9  C   UNL     1       7.835   2.506  -5.289  1.00  0.00    -0.080 C 
ATOM     10  C   UNL     1       9.009   1.899  -4.563  1.00  0.00     0.039 C 
ENDBRANCH   6   7
ENDBRANCH   5   6
ENDBRANCH   3   5
ENDBRANCH   1   2
BRANCH   1  11
ATOM     11  C   UNL     1       5.235   3.214 -10.292  1.00  0.00     0.034 C 
BRANCH  11  12
ATOM     12  C   UNL     1       6.302   2.139 -10.255  1.00  0.00    -0.077 C 
ATOM     13  C   UNL     1       7.552   2.437 -10.680  1.00  0.00    -0.028 C 
ATOM     14  C   UNL     1       5.947   0.770  -9.722  1.00  0.00     0.039 C 
BRANCH  13  15
ATOM     15  C   UNL     1       8.696   1.456 -10.722  1.00  0.00     0.035 C 
BRANCH  15  16
ATOM     16  C   UNL     1       9.523   1.529  -9.435  1.00  0.00     0.079 C 
BRANCH  16  17
ATOM     17  C   UNL     1       9.786   0.150  -8.892  1.00  0.00     0.130 C 
ATOM     18  O   UNL     1       9.892  -0.011  -7.687  1.00  0.00    -0.300 OA
ATOM     19  C   UNL     1       9.931  -1.033  -9.803  1.00  0.00     0.087 C 
ENDBRANCH  16  17
ENDBRANCH  15  16
ENDBRANCH  13  15
ENDBRANCH  11  12
ENDBRANCH   1  11
TORSDOF 9
ENDMDL
MODEL 8
REMARK VINA RESULT:    -4.228      1.715      2.427
REMARK INTER + INTRA:          -8.602
REMARK INTER:                  -6.015
REMARK INTRA:                  -2.588
REMARK UNBOUND:                -2.150
REMARK SMILES CC(=O)CCC=C(C)CCC=C(C)CCC=C(C)C
REMARK SMILES IDX 10 1 11 2 12 3 13 4 14 5 15 6 16 7 18 8 17 9 19 10 9 11 7 12
REMARK SMILES IDX 6 13 8 14 5 15 4 16 2 17 3 18 1 19
REMARK H PARENT
REMARK Flexibility Score: inf
ROOT
ATOM      1  C   UNL     1       6.630   5.832  -6.396  1.00  0.00     0.032 C 
ENDROOT
BRANCH   1   2
ATOM      2  C   UNL     1       6.375   6.104  -7.859  1.00  0.00    -0.028 C 
ATOM      3  C   UNL     1       7.249   5.835  -8.856  1.00  0.00    -0.077 C 
ATOM      4  C   UNL     1       8.627   5.284  -8.580  1.00  0.00     0.039 C 
BRANCH   3   5
ATOM      5  C   UNL     1       6.831   6.097 -10.286  1.00  0.00     0.034 C 
BRANCH   5   6
ATOM      6  C   UNL     1       5.657   5.196 -10.687  1.00  0.00     0.032 C 
BRANCH   6   7
ATOM      7  C   UNL     1       6.020   3.741 -10.524  1.00  0.00    -0.028 C 
ATOM      8  C   UNL     1       3.921   3.194  -9.272  1.00  0.00     0.039 C 
ATOM      9  C   UNL     1       5.261   2.834  -9.870  1.00  0.00    -0.080 C 
ATOM     10  C   UNL     1       5.770   1.420  -9.756  1.00  0.00     0.039 C 
ENDBRANCH   6   7
ENDBRANCH   5   6
ENDBRANCH   3   5
ENDBRANCH   1   2
BRANCH   1  11
ATOM     11  C   UNL     1       6.033   4.487  -5.957  1.00  0.00     0.034 C 
BRANCH  11  12
ATOM     12  C   UNL     1       7.107   3.452  -5.689  1.00  0.00    -0.077 C 
ATOM     13  C   UNL     1       7.365   2.513  -6.630  1.00  0.00    -0.028 C 
ATOM     14  C   UNL     1       7.876   3.511  -4.390  1.00  0.00     0.039 C 
BRANCH  13  15
ATOM     15  C   UNL     1       8.384   1.412  -6.480  1.00  0.00     0.035 C 
BRANCH  15  16
ATOM     16  C   UNL     1       9.594   1.665  -7.384  1.00  0.00     0.079 C 
BRANCH  16  17
ATOM     17  C   UNL     1       9.371   1.071  -8.749  1.00  0.00     0.130 C 
ATOM     18  O   UNL     1       9.060  -0.105  -8.850  1.00  0.00    -0.300 OA
ATOM     19  C   UNL     1       9.532   1.892  -9.994  1.00  0.00     0.087 C 
ENDBRANCH  16  17
ENDBRANCH  15  16
ENDBRANCH  13  15
ENDBRANCH  11  12
ENDBRANCH   1  11
TORSDOF 9
ENDMDL
MODEL 9
REMARK VINA RESULT:    -4.149      1.583      3.424
REMARK INTER + INTRA:          -8.483
REMARK INTER:                  -6.523
REMARK INTRA:                  -1.959
REMARK UNBOUND:                -2.150
REMARK SMILES CC(=O)CCC=C(C)CCC=C(C)CCC=C(C)C
REMARK SMILES IDX 10 1 11 2 12 3 13 4 14 5 15 6 16 7 18 8 17 9 19 10 9 11 7 12
REMARK SMILES IDX 6 13 8 14 5 15 4 16 2 17 3 18 1 19
REMARK H PARENT
REMARK Flexibility Score: inf
ROOT
ATOM      1  C   UNL     1       6.358   5.518 -10.110  1.00  0.00     0.032 C 
ENDROOT
BRANCH   1   2
ATOM      2  C   UNL     1       6.444   4.069 -10.527  1.00  0.00    -0.028 C 
ATOM      3  C   UNL     1       5.505   3.134 -10.259  1.00  0.00    -0.077 C 
ATOM      4  C   UNL     1       4.278   3.449  -9.436  1.00  0.00     0.039 C 
BRANCH   3   5
ATOM      5  C   UNL     1       5.691   1.734 -10.800  1.00  0.00     0.034 C 
BRANCH   5   6
ATOM      6  C   UNL     1       6.116   0.768  -9.688  1.00  0.00     0.032 C 
BRANCH   6   7
ATOM      7  C   UNL     1       7.168   1.396  -8.808  1.00  0.00    -0.028 C 
ATOM      8  C   UNL     1       9.063   0.624 -10.252  1.00  0.00     0.039 C 
ATOM      9  C   UNL     1       8.498   1.320  -9.036  1.00  0.00    -0.080 C 
ATOM     10  C   UNL     1       9.435   1.968  -8.049  1.00  0.00     0.039 C 
ENDBRANCH   6   7
ENDBRANCH   5   6
ENDBRANCH   3   5
ENDBRANCH   1   2
BRANCH   1  11
ATOM     11  C   UNL     1       7.386   5.857  -9.021  1.00  0.00     0.034 C 
BRANCH  11  12
ATOM     12  C   UNL     1       6.788   5.768  -7.631  1.00  0.00    -0.077 C 
ATOM     13  C   UNL     1       6.839   4.589  -6.968  1.00  0.00    -0.028 C 
ATOM     14  C   UNL     1       6.174   7.004  -7.015  1.00  0.00     0.039 C 
BRANCH  13  15
ATOM     15  C   UNL     1       6.259   4.357  -5.596  1.00  0.00     0.035 C 
BRANCH  15  16
ATOM     16  C   UNL     1       7.371   4.217  -4.552  1.00  0.00     0.079 C 
BRANCH  16  17
ATOM     17  C   UNL     1       8.028   2.866  -4.653  1.00  0.00     0.130 C 
ATOM     18  O   UNL     1       7.351   1.886  -4.921  1.00  0.00    -0.300 OA
ATOM     19  C   UNL     1       9.500   2.694  -4.420  1.00  0.00     0.087 C 
ENDBRANCH  16  17
ENDBRANCH  15  16
ENDBRANCH  13  15
ENDBRANCH  11  12
ENDBRANCH   1  11
TORSDOF 9
ENDMDL
