MODEL 1
REMARK VINA RESULT:    -6.088      0.000      0.000
REMARK INTER + INTRA:          -6.444
REMARK INTER:                  -6.444
REMARK INTRA:                   0.000
REMARK UNBOUND:                 0.000
REMARK SMILES Cc1cc(O)c(C)c(C)c1O
REMARK SMILES IDX 1 1 2 2 3 3 4 4 6 5 8 6 10 7 9 8 7 9 11 10 5 12
REMARK H PARENT 11 11 5 13
REMARK Flexibility Score: inf
ROOT
ATOM      1  C   UNL     1     -34.975 -10.264  27.516  1.00  0.00     0.048 C 
ATOM      2  C   UNL     1     -36.106  -9.408  27.017  1.00  0.00    -0.005 A 
ATOM      3  C   UNL     1     -37.356  -9.470  27.641  1.00  0.00     0.053 A 
ATOM      4  C   UNL     1     -38.429  -8.712  27.174  1.00  0.00     0.119 A 
ATOM      5  C   UNL     1     -38.269  -7.876  26.043  1.00  0.00    -0.003 A 
ATOM      6  C   UNL     1     -36.970  -7.712  25.482  1.00  0.00    -0.002 A 
ATOM      7  C   UNL     1     -35.910  -8.538  25.932  1.00  0.00     0.121 A 
ATOM      8  C   UNL     1     -36.712  -6.680  24.406  1.00  0.00     0.049 C 
ATOM      9  C   UNL     1     -39.468  -7.161  25.464  1.00  0.00     0.049 C 
ENDROOT
BRANCH   7  10
ATOM     10  O   UNL     1     -34.654  -8.528  25.314  1.00  0.00    -0.507 OA
ATOM     11  H   UNL     1     -34.518  -8.416  24.318  1.00  0.00     0.293 HD
ENDBRANCH   7  10
BRANCH   4  12
ATOM     12  O   UNL     1     -39.638  -8.809  27.869  1.00  0.00    -0.508 OA
ATOM     13  H   UNL     1     -40.391  -8.140  27.777  1.00  0.00     0.293 HD
ENDBRANCH   4  12
TORSDOF 2
ENDMDL
MODEL 2
REMARK VINA RESULT:    -6.060      1.105      3.130
REMARK INTER + INTRA:          -6.414
REMARK INTER:                  -6.414
REMARK INTRA:                   0.000
REMARK UNBOUND:                 0.000
REMARK SMILES Cc1cc(O)c(C)c(C)c1O
REMARK SMILES IDX 1 1 2 2 3 3 4 4 6 5 8 6 10 7 9 8 7 9 11 10 5 12
REMARK H PARENT 11 11 5 13
REMARK Flexibility Score: inf
ROOT
ATOM      1  C   UNL     1     -35.424 -10.518  28.837  1.00  0.00     0.048 C 
ATOM      2  C   UNL     1     -36.046  -9.697  27.741  1.00  0.00    -0.005 A 
ATOM      3  C   UNL     1     -35.268  -9.270  26.662  1.00  0.00     0.053 A 
ATOM      4  C   UNL     1     -35.814  -8.478  25.653  1.00  0.00     0.119 A 
ATOM      5  C   UNL     1     -37.171  -8.081  25.717  1.00  0.00    -0.003 A 
ATOM      6  C   UNL     1     -38.001  -8.615  26.745  1.00  0.00    -0.002 A 
ATOM      7  C   UNL     1     -37.410  -9.366  27.793  1.00  0.00     0.121 A 
ATOM      8  C   UNL     1     -39.495  -8.383  26.739  1.00  0.00     0.049 C 
ATOM      9  C   UNL     1     -37.720  -7.116  24.691  1.00  0.00     0.049 C 
ENDROOT
BRANCH   7  10
ATOM     10  O   UNL     1     -38.149  -9.785  28.906  1.00  0.00    -0.507 OA
ATOM     11  H   UNL     1     -38.577 -10.697  28.986  1.00  0.00     0.293 HD
ENDBRANCH   7  10
BRANCH   4  12
ATOM     12  O   UNL     1     -34.978  -8.115  24.593  1.00  0.00    -0.508 OA
ATOM     13  H   UNL     1     -35.028  -7.221  24.121  1.00  0.00     0.293 HD
ENDBRANCH   4  12
TORSDOF 2
ENDMDL
MODEL 3
REMARK VINA RESULT:    -5.652      1.866      2.927
REMARK INTER + INTRA:          -5.982
REMARK INTER:                  -5.982
REMARK INTRA:                   0.000
REMARK UNBOUND:                 0.000
REMARK SMILES Cc1cc(O)c(C)c(C)c1O
REMARK SMILES IDX 1 1 2 2 3 3 4 4 6 5 8 6 10 7 9 8 7 9 11 10 5 12
REMARK H PARENT 11 11 5 13
REMARK Flexibility Score: inf
ROOT
ATOM      1  C   UNL     1     -36.165  -6.608  24.894  1.00  0.00     0.048 C 
ATOM      2  C   UNL     1     -36.965  -7.821  25.282  1.00  0.00    -0.005 A 
ATOM      3  C   UNL     1     -37.951  -7.720  26.269  1.00  0.00     0.053 A 
ATOM      4  C   UNL     1     -38.680  -8.838  26.671  1.00  0.00     0.119 A 
ATOM      5  C   UNL     1     -38.419 -10.102  26.091  1.00  0.00    -0.003 A 
ATOM      6  C   UNL     1     -37.508 -10.189  25.000  1.00  0.00    -0.002 A 
ATOM      7  C   UNL     1     -36.733  -9.054  24.651  1.00  0.00     0.121 A 
ATOM      8  C   UNL     1     -37.347 -11.475  24.220  1.00  0.00     0.049 C 
ATOM      9  C   UNL     1     -39.120 -11.331  26.625  1.00  0.00     0.049 C 
ENDROOT
BRANCH   7  10
ATOM     10  O   UNL     1     -35.716  -9.122  23.692  1.00  0.00    -0.507 OA
ATOM     11  H   UNL     1     -35.884  -9.137  22.695  1.00  0.00     0.293 HD
ENDBRANCH   7  10
BRANCH   4  12
ATOM     12  O   UNL     1     -39.667  -8.649  27.643  1.00  0.00    -0.508 OA
ATOM     13  H   UNL     1     -39.585  -7.985  28.402  1.00  0.00     0.293 HD
ENDBRANCH   4  12
TORSDOF 2
ENDMDL
MODEL 4
REMARK VINA RESULT:    -5.355      3.047      3.242
REMARK INTER + INTRA:          -5.668
REMARK INTER:                  -5.668
REMARK INTRA:                   0.000
REMARK UNBOUND:                 0.000
REMARK SMILES Cc1cc(O)c(C)c(C)c1O
REMARK SMILES IDX 1 1 2 2 3 3 4 4 6 5 8 6 10 7 9 8 7 9 11 10 5 12
REMARK H PARENT 11 11 5 13
REMARK Flexibility Score: inf
ROOT
ATOM      1  C   UNL     1     -37.024 -12.634  22.657  1.00  0.00     0.048 C 
ATOM      2  C   UNL     1     -37.267 -11.628  23.747  1.00  0.00    -0.005 A 
ATOM      3  C   UNL     1     -38.142 -11.932  24.795  1.00  0.00     0.053 A 
ATOM      4  C   UNL     1     -38.411 -11.001  25.798  1.00  0.00     0.119 A 
ATOM      5  C   UNL     1     -37.809  -9.721  25.758  1.00  0.00    -0.003 A 
ATOM      6  C   UNL     1     -36.823  -9.449  24.767  1.00  0.00    -0.002 A 
ATOM      7  C   UNL     1     -36.613 -10.385  23.723  1.00  0.00     0.121 A 
ATOM      8  C   UNL     1     -36.010  -8.174  24.806  1.00  0.00     0.049 C 
ATOM      9  C   UNL     1     -38.207  -8.674  26.774  1.00  0.00     0.049 C 
ENDROOT
BRANCH   7  10
ATOM     10  O   UNL     1     -35.770 -10.105  22.641  1.00  0.00    -0.507 OA
ATOM     11  H   UNL     1     -35.818 -10.583  21.752  1.00  0.00     0.293 HD
ENDBRANCH   7  10
BRANCH   4  12
ATOM     12  O   UNL     1     -39.274 -11.392  26.825  1.00  0.00    -0.508 OA
ATOM     13  H   UNL     1     -39.774 -12.271  26.832  1.00  0.00     0.293 HD
ENDBRANCH   4  12
TORSDOF 2
ENDMDL
MODEL 5
REMARK VINA RESULT:    -5.340      3.411      4.528
REMARK INTER + INTRA:          -5.652
REMARK INTER:                  -5.652
REMARK INTRA:                   0.000
REMARK UNBOUND:                 0.000
REMARK SMILES Cc1cc(O)c(C)c(C)c1O
REMARK SMILES IDX 1 1 2 2 3 3 4 4 6 5 8 6 10 7 9 8 7 9 11 10 5 12
REMARK H PARENT 11 11 5 13
REMARK Flexibility Score: inf
ROOT
ATOM      1  C   UNL     1     -36.276  -9.240  26.632  1.00  0.00     0.048 C 
ATOM      2  C   UNL     1     -37.026  -9.893  25.503  1.00  0.00    -0.005 A 
ATOM      3  C   UNL     1     -36.504  -9.858  24.206  1.00  0.00     0.053 A 
ATOM      4  C   UNL     1     -37.199 -10.424  23.138  1.00  0.00     0.119 A 
ATOM      5  C   UNL     1     -38.458 -11.033  23.353  1.00  0.00    -0.003 A 
ATOM      6  C   UNL     1     -38.937 -11.183  24.686  1.00  0.00    -0.002 A 
ATOM      7  C   UNL     1     -38.245 -10.545  25.747  1.00  0.00     0.121 A 
ATOM      8  C   UNL     1     -40.174 -12.000  24.982  1.00  0.00     0.049 C 
ATOM      9  C   UNL     1     -39.264 -11.526  22.172  1.00  0.00     0.049 C 
ENDROOT
BRANCH   7  10
ATOM     10  O   UNL     1     -38.751 -10.531  27.053  1.00  0.00    -0.507 OA
ATOM     11  H   UNL     1     -38.941 -11.365  27.591  1.00  0.00     0.293 HD
ENDBRANCH   7  10
BRANCH   4  12
ATOM     12  O   UNL     1     -36.597 -10.373  21.878  1.00  0.00    -0.508 OA
ATOM     13  H   UNL     1     -36.984 -10.816  21.054  1.00  0.00     0.293 HD
ENDBRANCH   4  12
TORSDOF 2
ENDMDL
MODEL 6
REMARK VINA RESULT:    -5.340      2.971      3.628
REMARK INTER + INTRA:          -5.652
REMARK INTER:                  -5.652
REMARK INTRA:                   0.000
REMARK UNBOUND:                 0.000
REMARK SMILES Cc1cc(O)c(C)c(C)c1O
REMARK SMILES IDX 1 1 2 2 3 3 4 4 6 5 8 6 10 7 9 8 7 9 11 10 5 12
REMARK H PARENT 11 11 5 13
REMARK Flexibility Score: inf
ROOT
ATOM      1  C   UNL     1     -38.030  -7.409  26.042  1.00  0.00     0.048 C 
ATOM      2  C   UNL     1     -38.044  -8.824  25.532  1.00  0.00    -0.005 A 
ATOM      3  C   UNL     1     -38.820  -9.791  26.178  1.00  0.00     0.053 A 
ATOM      4  C   UNL     1     -38.820 -11.116  25.745  1.00  0.00     0.119 A 
ATOM      5  C   UNL     1     -38.015 -11.506  24.649  1.00  0.00    -0.003 A 
ATOM      6  C   UNL     1     -37.320 -10.506  23.910  1.00  0.00    -0.002 A 
ATOM      7  C   UNL     1     -37.284  -9.177  24.405  1.00  0.00     0.121 A 
ATOM      8  C   UNL     1     -36.612 -10.843  22.617  1.00  0.00     0.049 C 
ATOM      9  C   UNL     1     -37.919 -12.967  24.270  1.00  0.00     0.049 C 
ENDROOT
BRANCH   7  10
ATOM     10  O   UNL     1     -36.495  -8.189  23.805  1.00  0.00    -0.507 OA
ATOM     11  H   UNL     1     -35.484  -8.186  23.828  1.00  0.00     0.293 HD
ENDBRANCH   7  10
BRANCH   4  12
ATOM     12  O   UNL     1     -39.645 -12.017  26.426  1.00  0.00    -0.508 OA
ATOM     13  H   UNL     1     -39.295 -12.774  26.999  1.00  0.00     0.293 HD
ENDBRANCH   4  12
TORSDOF 2
ENDMDL
MODEL 7
REMARK VINA RESULT:    -5.308      3.101      4.449
REMARK INTER + INTRA:          -5.619
REMARK INTER:                  -5.619
REMARK INTRA:                   0.000
REMARK UNBOUND:                 0.000
REMARK SMILES Cc1cc(O)c(C)c(C)c1O
REMARK SMILES IDX 1 1 2 2 3 3 4 4 6 5 8 6 10 7 9 8 7 9 11 10 5 12
REMARK H PARENT 11 11 5 13
REMARK Flexibility Score: inf
ROOT
ATOM      1  C   UNL     1     -38.903 -13.426  24.656  1.00  0.00     0.048 C 
ATOM      2  C   UNL     1     -38.261 -12.067  24.702  1.00  0.00    -0.005 A 
ATOM      3  C   UNL     1     -37.377 -11.679  23.690  1.00  0.00     0.053 A 
ATOM      4  C   UNL     1     -36.742 -10.438  23.730  1.00  0.00     0.119 A 
ATOM      5  C   UNL     1     -36.974  -9.556  24.812  1.00  0.00    -0.003 A 
ATOM      6  C   UNL     1     -37.965  -9.891  25.779  1.00  0.00    -0.002 A 
ATOM      7  C   UNL     1     -38.551 -11.182  25.753  1.00  0.00     0.121 A 
ATOM      8  C   UNL     1     -38.390  -8.896  26.835  1.00  0.00     0.049 C 
ATOM      9  C   UNL     1     -36.182  -8.272  24.916  1.00  0.00     0.049 C 
ENDROOT
BRANCH   7  10
ATOM     10  O   UNL     1     -39.415 -11.619  26.764  1.00  0.00    -0.507 OA
ATOM     11  H   UNL     1     -39.547 -11.133  27.640  1.00  0.00     0.293 HD
ENDBRANCH   7  10
BRANCH   4  12
ATOM     12  O   UNL     1     -35.895 -10.113  22.667  1.00  0.00    -0.508 OA
ATOM     13  H   UNL     1     -35.148  -9.433  22.734  1.00  0.00     0.293 HD
ENDBRANCH   4  12
TORSDOF 2
ENDMDL
MODEL 8
REMARK VINA RESULT:    -5.233      2.938      4.384
REMARK INTER + INTRA:          -5.539
REMARK INTER:                  -5.539
REMARK INTRA:                   0.000
REMARK UNBOUND:                 0.000
REMARK SMILES Cc1cc(O)c(C)c(C)c1O
REMARK SMILES IDX 1 1 2 2 3 3 4 4 6 5 8 6 10 7 9 8 7 9 11 10 5 12
REMARK H PARENT 11 11 5 13
REMARK Flexibility Score: inf
ROOT
ATOM      1  C   UNL     1     -38.373  -9.618  27.889  1.00  0.00     0.048 C 
ATOM      2  C   UNL     1     -37.894  -9.994  26.514  1.00  0.00    -0.005 A 
ATOM      3  C   UNL     1     -36.872  -9.259  25.906  1.00  0.00     0.053 A 
ATOM      4  C   UNL     1     -36.437  -9.566  24.617  1.00  0.00     0.119 A 
ATOM      5  C   UNL     1     -37.040 -10.625  23.897  1.00  0.00    -0.003 A 
ATOM      6  C   UNL     1     -37.992 -11.455  24.555  1.00  0.00    -0.002 A 
ATOM      7  C   UNL     1     -38.464 -11.087  25.840  1.00  0.00     0.121 A 
ATOM      8  C   UNL     1     -38.513 -12.714  23.898  1.00  0.00     0.049 C 
ATOM      9  C   UNL     1     -36.655 -10.866  22.455  1.00  0.00     0.049 C 
ENDROOT
BRANCH   7  10
ATOM     10  O   UNL     1     -39.507 -11.778  26.468  1.00  0.00    -0.507 OA
ATOM     11  H   UNL     1     -39.721 -11.700  27.453  1.00  0.00     0.293 HD
ENDBRANCH   7  10
BRANCH   4  12
ATOM     12  O   UNL     1     -35.391  -8.802  24.090  1.00  0.00    -0.508 OA
ATOM     13  H   UNL     1     -34.414  -9.040  24.199  1.00  0.00     0.293 HD
ENDBRANCH   4  12
TORSDOF 2
ENDMDL
MODEL 9
REMARK VINA RESULT:    -5.177     11.119     12.789
REMARK INTER + INTRA:          -5.480
REMARK INTER:                  -5.480
REMARK INTRA:                   0.000
REMARK UNBOUND:                 0.000
REMARK SMILES Cc1cc(O)c(C)c(C)c1O
REMARK SMILES IDX 1 1 2 2 3 3 4 4 6 5 8 6 10 7 9 8 7 9 11 10 5 12
REMARK H PARENT 11 11 5 13
REMARK Flexibility Score: inf
ROOT
ATOM      1  C   UNL     1     -23.802 -13.752  26.317  1.00  0.00     0.048 C 
ATOM      2  C   UNL     1     -24.519 -12.649  27.045  1.00  0.00    -0.005 A 
ATOM      3  C   UNL     1     -25.507 -11.907  26.390  1.00  0.00     0.053 A 
ATOM      4  C   UNL     1     -26.160 -10.856  27.032  1.00  0.00     0.119 A 
ATOM      5  C   UNL     1     -25.816 -10.514  28.362  1.00  0.00    -0.003 A 
ATOM      6  C   UNL     1     -24.903 -11.341  29.076  1.00  0.00    -0.002 A 
ATOM      7  C   UNL     1     -24.206 -12.364  28.384  1.00  0.00     0.121 A 
ATOM      8  C   UNL     1     -24.658 -11.136  30.555  1.00  0.00     0.049 C 
ATOM      9  C   UNL     1     -26.432  -9.292  29.005  1.00  0.00     0.049 C 
ENDROOT
BRANCH   7  10
ATOM     10  O   UNL     1     -23.189 -13.107  28.996  1.00  0.00    -0.507 OA
ATOM     11  H   UNL     1     -22.225 -13.096  28.693  1.00  0.00     0.293 HD
ENDBRANCH   7  10
BRANCH   4  12
ATOM     12  O   UNL     1     -27.155 -10.182  26.319  1.00  0.00    -0.508 OA
ATOM     13  H   UNL     1     -27.809  -9.537  26.744  1.00  0.00     0.293 HD
ENDBRANCH   4  12
TORSDOF 2
ENDMDL
