MODEL 1
REMARK VINA RESULT:    -6.713      0.000      0.000
REMARK INTER + INTRA:         -11.277
REMARK INTER:                  -9.852
REMARK INTRA:                  -1.425
REMARK UNBOUND:                -1.425
REMARK SMILES O=c1c(O[C@H]2O[C@@H](CO)[C@H](O)[C@@H](O)[C@H]2O)c(-c2ccc(O)c(O)c2)oc2cc(O)cc(O)c12
REMARK SMILES IDX 4 1 3 2 16 3 25 4 2 5 26 6 1 7 33 8 27 9 31 10 28 11 30 12
REMARK SMILES IDX 17 13 18 14 19 15 20 16 24 17 22 18 21 19 23 21 32 23 29 25
REMARK SMILES IDX 5 27 14 28 6 29 12 30 7 31 10 32 15 33 13 35 8 37 9 38 11 40
REMARK H PARENT 21 20 23 22 32 24 29 26 15 34 13 36 9 39 11 41
REMARK Flexibility Score: inf
ROOT
ATOM      1  O   UNL     1     -10.642  33.571   7.047  1.00  0.00    -0.454 OA
ENDROOT
BRANCH   1   2
ATOM      2  C   UNL     1     -11.051  34.637   7.854  1.00  0.00     0.214 A 
ATOM      3  C   UNL     1     -11.383  34.473   9.224  1.00  0.00     0.180 A 
ATOM      4  O   UNL     1     -11.798  35.543   9.908  1.00  0.00    -0.452 OA
ATOM      5  C   UNL     1     -11.096  35.926   7.296  1.00  0.00     0.239 A 
ATOM      6  C   UNL     1     -11.853  36.772   9.415  1.00  0.00     0.146 A 
ATOM      7  O   UNL     1     -10.752  36.086   6.092  1.00  0.00    -0.285 OA
ATOM      8  C   UNL     1     -11.484  37.019   8.078  1.00  0.00     0.111 A 
ATOM      9  C   UNL     1     -12.254  37.825  10.248  1.00  0.00     0.094 A 
ATOM     10  C   UNL     1     -11.460  38.355   7.607  1.00  0.00     0.134 A 
ATOM     11  C   UNL     1     -12.204  39.145   9.784  1.00  0.00     0.123 A 
ATOM     12  C   UNL     1     -11.777  39.410   8.482  1.00  0.00     0.093 A 
BRANCH   3  13
ATOM     13  C   UNL     1     -11.295  33.179   9.992  1.00  0.00     0.025 A 
ATOM     14  C   UNL     1     -12.208  32.155   9.660  1.00  0.00     0.016 A 
ATOM     15  C   UNL     1     -12.261  30.955  10.375  1.00  0.00     0.051 A 
ATOM     16  C   UNL     1     -11.389  30.740  11.439  1.00  0.00     0.157 A 
ATOM     17  C   UNL     1     -10.412  32.937  11.070  1.00  0.00     0.062 A 
ATOM     18  C   UNL     1     -10.453  31.734  11.786  1.00  0.00     0.158 A 
BRANCH  16  19
ATOM     19  O   UNL     1     -11.452  29.552  12.170  1.00  0.00    -0.504 OA
ATOM     20  H   UNL     1     -10.619  29.017  12.404  1.00  0.00     0.293 HD
ENDBRANCH  16  19
BRANCH  18  21
ATOM     21  O   UNL     1      -9.570  31.546  12.848  1.00  0.00    -0.504 OA
ATOM     22  H   UNL     1      -9.535  30.670  13.357  1.00  0.00     0.293 HD
ENDBRANCH  18  21
ENDBRANCH   3  13
BRANCH  10  23
ATOM     23  O   UNL     1     -11.092  38.641   6.287  1.00  0.00    -0.507 OA
ATOM     24  H   UNL     1     -11.192  39.568   5.883  1.00  0.00     0.293 HD
ENDBRANCH  10  23
BRANCH  11  25
ATOM     25  O   UNL     1     -12.544  40.212  10.623  1.00  0.00    -0.508 OA
ATOM     26  H   UNL     1     -12.018  40.401  11.461  1.00  0.00     0.293 HD
ENDBRANCH  11  25
ENDBRANCH   1   2
BRANCH   1  27
ATOM     27  C   UNL     1      -9.350  32.950   7.111  1.00  0.00     0.339 C 
ATOM     28  C   UNL     1      -8.330  33.861   6.404  1.00  0.00     0.214 C 
ATOM     29  O   UNL     1      -9.394  31.658   6.514  1.00  0.00    -0.332 OA
ATOM     30  C   UNL     1      -6.950  33.188   6.333  1.00  0.00     0.180 C 
ATOM     31  C   UNL     1      -8.146  31.000   6.649  1.00  0.00     0.179 C 
ATOM     32  C   UNL     1      -7.072  31.741   5.821  1.00  0.00     0.177 C 
BRANCH  28  33
ATOM     33  O   UNL     1      -8.799  34.167   5.110  1.00  0.00    -0.384 OA
ATOM     34  H   UNL     1      -8.858  35.157   5.049  1.00  0.00     0.211 HD
ENDBRANCH  28  33
BRANCH  30  35
ATOM     35  O   UNL     1      -6.114  33.903   5.465  1.00  0.00    -0.387 OA
ATOM     36  H   UNL     1      -5.243  33.425   5.432  1.00  0.00     0.211 HD
ENDBRANCH  30  35
BRANCH  31  37
ATOM     37  C   UNL     1      -8.311  29.540   6.202  1.00  0.00     0.191 C 
BRANCH  37  38
ATOM     38  O   UNL     1      -7.217  28.763   6.595  1.00  0.00    -0.394 OA
ATOM     39  H   UNL     1      -7.191  27.961   5.999  1.00  0.00     0.210 HD
ENDBRANCH  37  38
ENDBRANCH  31  37
BRANCH  32  40
ATOM     40  O   UNL     1      -5.831  31.089   5.890  1.00  0.00    -0.387 OA
ATOM     41  H   UNL     1      -5.400  31.175   5.000  1.00  0.00     0.211 HD
ENDBRANCH  32  40
ENDBRANCH   1  27
TORSDOF 12
ENDMDL
MODEL 2
REMARK VINA RESULT:    -6.453      1.789      3.245
REMARK INTER + INTRA:         -10.896
REMARK INTER:                 -10.810
REMARK INTRA:                  -0.085
REMARK UNBOUND:                -1.425
REMARK SMILES O=c1c(O[C@H]2O[C@@H](CO)[C@H](O)[C@@H](O)[C@H]2O)c(-c2ccc(O)c(O)c2)oc2cc(O)cc(O)c12
REMARK SMILES IDX 4 1 3 2 16 3 25 4 2 5 26 6 1 7 33 8 27 9 31 10 28 11 30 12
REMARK SMILES IDX 17 13 18 14 19 15 20 16 24 17 22 18 21 19 23 21 32 23 29 25
REMARK SMILES IDX 5 27 14 28 6 29 12 30 7 31 10 32 15 33 13 35 8 37 9 38 11 40
REMARK H PARENT 21 20 23 22 32 24 29 26 15 34 13 36 9 39 11 41
REMARK Flexibility Score: inf
ROOT
ATOM      1  O   UNL     1      -9.290  31.834   6.845  1.00  0.00    -0.454 OA
ENDROOT
BRANCH   1   2
ATOM      2  C   UNL     1      -9.607  33.170   7.115  1.00  0.00     0.214 A 
ATOM      3  C   UNL     1     -10.430  33.553   8.205  1.00  0.00     0.180 A 
ATOM      4  O   UNL     1     -10.708  34.850   8.364  1.00  0.00    -0.452 OA
ATOM      5  C   UNL     1      -9.056  34.171   6.297  1.00  0.00     0.239 A 
ATOM      6  C   UNL     1     -10.208  35.821   7.612  1.00  0.00     0.146 A 
ATOM      7  O   UNL     1      -8.282  33.839   5.357  1.00  0.00    -0.285 OA
ATOM      8  C   UNL     1      -9.338  35.518   6.546  1.00  0.00     0.111 A 
ATOM      9  C   UNL     1     -10.531  37.151   7.911  1.00  0.00     0.094 A 
ATOM     10  C   UNL     1      -8.742  36.580   5.822  1.00  0.00     0.134 A 
ATOM     11  C   UNL     1      -9.919  38.196   7.208  1.00  0.00     0.123 A 
ATOM     12  C   UNL     1      -9.005  37.912   6.192  1.00  0.00     0.093 A 
BRANCH   3  13
ATOM     13  C   UNL     1     -11.017  32.612   9.226  1.00  0.00     0.025 A 
ATOM     14  C   UNL     1     -10.658  32.802  10.577  1.00  0.00     0.016 A 
ATOM     15  C   UNL     1     -11.080  31.926  11.582  1.00  0.00     0.051 A 
ATOM     16  C   UNL     1     -11.890  30.840  11.262  1.00  0.00     0.157 A 
ATOM     17  C   UNL     1     -11.848  31.508   8.924  1.00  0.00     0.062 A 
ATOM     18  C   UNL     1     -12.283  30.632   9.926  1.00  0.00     0.158 A 
BRANCH  16  19
ATOM     19  O   UNL     1     -12.299  29.951  12.259  1.00  0.00    -0.504 OA
ATOM     20  H   UNL     1     -13.222  30.001  12.682  1.00  0.00     0.293 HD
ENDBRANCH  16  19
BRANCH  18  21
ATOM     21  O   UNL     1     -13.091  29.551   9.578  1.00  0.00    -0.504 OA
ATOM     22  H   UNL     1     -13.891  29.665   8.964  1.00  0.00     0.293 HD
ENDBRANCH  18  21
ENDBRANCH   3  13
BRANCH  10  23
ATOM     23  O   UNL     1      -7.867  36.319   4.760  1.00  0.00    -0.507 OA
ATOM     24  H   UNL     1      -7.702  36.990   4.015  1.00  0.00     0.293 HD
ENDBRANCH  10  23
BRANCH  11  25
ATOM     25  O   UNL     1     -10.186  39.530   7.534  1.00  0.00    -0.508 OA
ATOM     26  H   UNL     1      -9.445  40.210   7.584  1.00  0.00     0.293 HD
ENDBRANCH  11  25
ENDBRANCH   1   2
BRANCH   1  27
ATOM     27  C   UNL     1      -8.203  31.408   6.011  1.00  0.00     0.339 C 
ATOM     28  C   UNL     1      -8.586  30.073   5.348  1.00  0.00     0.214 C 
ATOM     29  O   UNL     1      -7.011  31.283   6.780  1.00  0.00    -0.332 OA
ATOM     30  C   UNL     1      -7.408  29.505   4.538  1.00  0.00     0.180 C 
ATOM     31  C   UNL     1      -5.912  30.947   5.952  1.00  0.00     0.179 C 
ATOM     32  C   UNL     1      -6.111  29.531   5.367  1.00  0.00     0.177 C 
BRANCH  28  33
ATOM     33  O   UNL     1      -8.989  29.159   6.343  1.00  0.00    -0.384 OA
ATOM     34  H   UNL     1      -8.163  28.771   6.735  1.00  0.00     0.211 HD
ENDBRANCH  28  33
BRANCH  30  35
ATOM     35  O   UNL     1      -7.679  28.180   4.168  1.00  0.00    -0.387 OA
ATOM     36  H   UNL     1      -6.878  27.838   3.689  1.00  0.00     0.211 HD
ENDBRANCH  30  35
BRANCH  31  37
ATOM     37  C   UNL     1      -4.623  31.052   6.780  1.00  0.00     0.191 C 
BRANCH  37  38
ATOM     38  O   UNL     1      -4.831  31.787   7.951  1.00  0.00    -0.394 OA
ATOM     39  H   UNL     1      -5.552  32.452   7.763  1.00  0.00     0.210 HD
ENDBRANCH  37  38
ENDBRANCH  31  37
BRANCH  32  40
ATOM     40  O   UNL     1      -5.016  29.142   4.579  1.00  0.00    -0.387 OA
ATOM     41  H   UNL     1      -4.516  29.965   4.339  1.00  0.00     0.211 HD
ENDBRANCH  32  40
ENDBRANCH   1  27
TORSDOF 12
ENDMDL
MODEL 3
REMARK VINA RESULT:    -6.241     14.938     18.386
REMARK INTER + INTRA:         -10.585
REMARK INTER:                  -9.447
REMARK INTRA:                  -1.137
REMARK UNBOUND:                -1.425
REMARK SMILES O=c1c(O[C@H]2O[C@@H](CO)[C@H](O)[C@@H](O)[C@H]2O)c(-c2ccc(O)c(O)c2)oc2cc(O)cc(O)c12
REMARK SMILES IDX 4 1 3 2 16 3 25 4 2 5 26 6 1 7 33 8 27 9 31 10 28 11 30 12
REMARK SMILES IDX 17 13 18 14 19 15 20 16 24 17 22 18 21 19 23 21 32 23 29 25
REMARK SMILES IDX 5 27 14 28 6 29 12 30 7 31 10 32 15 33 13 35 8 37 9 38 11 40
REMARK H PARENT 21 20 23 22 32 24 29 26 15 34 13 36 9 39 11 41
REMARK Flexibility Score: inf
ROOT
ATOM      1  O   UNL     1       2.690  44.452  -0.101  1.00  0.00    -0.454 OA
ENDROOT
BRANCH   1   2
ATOM      2  C   UNL     1       3.402  43.417   0.514  1.00  0.00     0.214 A 
ATOM      3  C   UNL     1       3.199  43.052   1.870  1.00  0.00     0.180 A 
ATOM      4  O   UNL     1       3.950  42.074   2.383  1.00  0.00    -0.452 OA
ATOM      5  C   UNL     1       4.324  42.686  -0.253  1.00  0.00     0.239 A 
ATOM      6  C   UNL     1       4.829  41.363   1.690  1.00  0.00     0.146 A 
ATOM      7  O   UNL     1       4.472  42.972  -1.474  1.00  0.00    -0.285 OA
ATOM      8  C   UNL     1       5.042  41.633   0.324  1.00  0.00     0.111 A 
ATOM      9  C   UNL     1       5.520  40.324   2.326  1.00  0.00     0.094 A 
ATOM     10  C   UNL     1       5.915  40.796  -0.414  1.00  0.00     0.134 A 
ATOM     11  C   UNL     1       6.361  39.485   1.586  1.00  0.00     0.123 A 
ATOM     12  C   UNL     1       6.531  39.700   0.217  1.00  0.00     0.093 A 
BRANCH   3  13
ATOM     13  C   UNL     1       2.183  43.672   2.796  1.00  0.00     0.025 A 
ATOM     14  C   UNL     1       1.002  42.945   3.057  1.00  0.00     0.016 A 
ATOM     15  C   UNL     1      -0.034  43.476   3.830  1.00  0.00     0.051 A 
ATOM     16  C   UNL     1       0.089  44.750   4.377  1.00  0.00     0.157 A 
ATOM     17  C   UNL     1       2.292  44.960   3.368  1.00  0.00     0.062 A 
ATOM     18  C   UNL     1       1.262  45.496   4.152  1.00  0.00     0.158 A 
BRANCH  16  19
ATOM     19  O   UNL     1      -0.953  45.294   5.133  1.00  0.00    -0.504 OA
ATOM     20  H   UNL     1      -1.893  45.399   4.761  1.00  0.00     0.293 HD
ENDBRANCH  16  19
BRANCH  18  21
ATOM     21  O   UNL     1       1.410  46.775   4.686  1.00  0.00    -0.504 OA
ATOM     22  H   UNL     1       1.230  46.963   5.666  1.00  0.00     0.293 HD
ENDBRANCH  18  21
ENDBRANCH   3  13
BRANCH  10  23
ATOM     23  O   UNL     1       6.147  41.028  -1.775  1.00  0.00    -0.507 OA
ATOM     24  H   UNL     1       5.431  41.400  -2.393  1.00  0.00     0.293 HD
ENDBRANCH  10  23
BRANCH  11  25
ATOM     25  O   UNL     1       7.012  38.406   2.195  1.00  0.00    -0.508 OA
ATOM     26  H   UNL     1       6.912  37.471   1.836  1.00  0.00     0.293 HD
ENDBRANCH  11  25
ENDBRANCH   1   2
BRANCH   1  27
ATOM     27  C   UNL     1       1.544  44.264  -0.943  1.00  0.00     0.339 C 
ATOM     28  C   UNL     1       1.203  45.605  -1.617  1.00  0.00     0.214 C 
ATOM     29  O   UNL     1       0.447  43.773  -0.179  1.00  0.00    -0.332 OA
ATOM     30  C   UNL     1      -0.094  45.493  -2.437  1.00  0.00     0.180 C 
ATOM     31  C   UNL     1      -0.665  43.500  -1.014  1.00  0.00     0.179 C 
ATOM     32  C   UNL     1      -1.206  44.819  -1.612  1.00  0.00     0.177 C 
BRANCH  28  33
ATOM     33  O   UNL     1       1.080  46.604  -0.630  1.00  0.00    -0.384 OA
ATOM     34  H   UNL     1       1.969  46.694  -0.196  1.00  0.00     0.211 HD
ENDBRANCH  28  33
BRANCH  30  35
ATOM     35  O   UNL     1      -0.528  46.769  -2.819  1.00  0.00    -0.387 OA
ATOM     36  H   UNL     1       0.097  47.428  -2.416  1.00  0.00     0.211 HD
ENDBRANCH  30  35
BRANCH  31  37
ATOM     37  C   UNL     1      -1.730  42.764  -0.190  1.00  0.00     0.191 C 
BRANCH  37  38
ATOM     38  O   UNL     1      -1.432  41.402  -0.076  1.00  0.00    -0.394 OA
ATOM     39  H   UNL     1      -1.775  40.951  -0.899  1.00  0.00     0.210 HD
ENDBRANCH  37  38
ENDBRANCH  31  37
BRANCH  32  40
ATOM     40  O   UNL     1      -2.341  44.595  -2.408  1.00  0.00    -0.387 OA
ATOM     41  H   UNL     1      -3.128  44.923  -1.901  1.00  0.00     0.211 HD
ENDBRANCH  32  40
ENDBRANCH   1  27
TORSDOF 12
ENDMDL
MODEL 4
REMARK VINA RESULT:    -6.152     15.194     18.944
REMARK INTER + INTRA:         -10.455
REMARK INTER:                  -8.989
REMARK INTRA:                  -1.466
REMARK UNBOUND:                -1.425
REMARK SMILES O=c1c(O[C@H]2O[C@@H](CO)[C@H](O)[C@@H](O)[C@H]2O)c(-c2ccc(O)c(O)c2)oc2cc(O)cc(O)c12
REMARK SMILES IDX 4 1 3 2 16 3 25 4 2 5 26 6 1 7 33 8 27 9 31 10 28 11 30 12
REMARK SMILES IDX 17 13 18 14 19 15 20 16 24 17 22 18 21 19 23 21 32 23 29 25
REMARK SMILES IDX 5 27 14 28 6 29 12 30 7 31 10 32 15 33 13 35 8 37 9 38 11 40
REMARK H PARENT 21 20 23 22 32 24 29 26 15 34 13 36 9 39 11 41
REMARK Flexibility Score: inf
ROOT
ATOM      1  O   UNL     1       2.428  45.931   1.486  1.00  0.00    -0.454 OA
ENDROOT
BRANCH   1   2
ATOM      2  C   UNL     1       3.097  44.810   0.986  1.00  0.00     0.214 A 
ATOM      3  C   UNL     1       2.534  43.965  -0.005  1.00  0.00     0.180 A 
ATOM      4  O   UNL     1       3.231  42.895  -0.397  1.00  0.00    -0.452 OA
ATOM      5  C   UNL     1       4.392  44.533   1.456  1.00  0.00     0.239 A 
ATOM      6  C   UNL     1       4.454  42.602   0.024  1.00  0.00     0.146 A 
ATOM      7  O   UNL     1       4.919  45.309   2.300  1.00  0.00    -0.285 OA
ATOM      8  C   UNL     1       5.098  43.428   0.966  1.00  0.00     0.111 A 
ATOM      9  C   UNL     1       5.107  41.480  -0.502  1.00  0.00     0.094 A 
ATOM     10  C   UNL     1       6.439  43.146   1.325  1.00  0.00     0.134 A 
ATOM     11  C   UNL     1       6.440  41.222  -0.163  1.00  0.00     0.123 A 
ATOM     12  C   UNL     1       7.112  42.069   0.719  1.00  0.00     0.093 A 
BRANCH   3  13
ATOM     13  C   UNL     1       1.201  44.179  -0.676  1.00  0.00     0.025 A 
ATOM     14  C   UNL     1       1.099  45.230  -1.613  1.00  0.00     0.016 A 
ATOM     15  C   UNL     1      -0.116  45.561  -2.219  1.00  0.00     0.051 A 
ATOM     16  C   UNL     1      -1.265  44.837  -1.914  1.00  0.00     0.157 A 
ATOM     17  C   UNL     1       0.025  43.450  -0.388  1.00  0.00     0.062 A 
ATOM     18  C   UNL     1      -1.195  43.769  -0.998  1.00  0.00     0.158 A 
BRANCH  16  19
ATOM     19  O   UNL     1      -2.486  45.177  -2.502  1.00  0.00    -0.504 OA
ATOM     20  H   UNL     1      -3.353  44.705  -2.258  1.00  0.00     0.293 HD
ENDBRANCH  16  19
BRANCH  18  21
ATOM     21  O   UNL     1      -2.330  43.029  -0.674  1.00  0.00    -0.504 OA
ATOM     22  H   UNL     1      -2.466  42.651   0.258  1.00  0.00     0.293 HD
ENDBRANCH  18  21
ENDBRANCH   3  13
BRANCH  10  23
ATOM     23  O   UNL     1       7.115  43.948   2.252  1.00  0.00    -0.507 OA
ATOM     24  H   UNL     1       7.314  44.930   2.080  1.00  0.00     0.293 HD
ENDBRANCH  10  23
BRANCH  11  25
ATOM     25  O   UNL     1       7.125  40.139  -0.726  1.00  0.00    -0.508 OA
ATOM     26  H   UNL     1       7.019  39.209  -0.354  1.00  0.00     0.293 HD
ENDBRANCH  11  25
ENDBRANCH   1   2
BRANCH   1  27
ATOM     27  C   UNL     1       1.378  45.885   2.462  1.00  0.00     0.339 C 
ATOM     28  C   UNL     1       1.808  46.708   3.689  1.00  0.00     0.214 C 
ATOM     29  O   UNL     1       1.092  44.535   2.815  1.00  0.00    -0.332 OA
ATOM     30  C   UNL     1       0.772  46.591   4.819  1.00  0.00     0.180 C 
ATOM     31  C   UNL     1      -0.003  44.471   3.712  1.00  0.00     0.179 C 
ATOM     32  C   UNL     1       0.387  45.120   5.060  1.00  0.00     0.177 C 
BRANCH  28  33
ATOM     33  O   UNL     1       3.071  46.261   4.128  1.00  0.00    -0.384 OA
ATOM     34  H   UNL     1       3.420  46.946   4.757  1.00  0.00     0.211 HD
ENDBRANCH  28  33
BRANCH  30  35
ATOM     35  O   UNL     1       1.298  47.118   6.006  1.00  0.00    -0.387 OA
ATOM     36  H   UNL     1       0.539  47.247   6.635  1.00  0.00     0.211 HD
ENDBRANCH  30  35
BRANCH  31  37
ATOM     37  C   UNL     1      -0.415  43.002   3.879  1.00  0.00     0.191 C 
BRANCH  37  38
ATOM     38  O   UNL     1       0.005  42.230   2.792  1.00  0.00    -0.394 OA
ATOM     39  H   UNL     1      -0.152  41.272   3.027  1.00  0.00     0.210 HD
ENDBRANCH  37  38
ENDBRANCH  31  37
BRANCH  32  40
ATOM     40  O   UNL     1      -0.658  45.031   5.993  1.00  0.00    -0.387 OA
ATOM     41  H   UNL     1      -1.119  44.165   5.842  1.00  0.00     0.211 HD
ENDBRANCH  32  40
ENDBRANCH   1  27
TORSDOF 12
ENDMDL
MODEL 5
REMARK VINA RESULT:    -5.958      2.049      5.832
REMARK INTER + INTRA:         -10.170
REMARK INTER:                  -9.112
REMARK INTRA:                  -1.058
REMARK UNBOUND:                -1.425
REMARK SMILES O=c1c(O[C@H]2O[C@@H](CO)[C@H](O)[C@@H](O)[C@H]2O)c(-c2ccc(O)c(O)c2)oc2cc(O)cc(O)c12
REMARK SMILES IDX 4 1 3 2 16 3 25 4 2 5 26 6 1 7 33 8 27 9 31 10 28 11 30 12
REMARK SMILES IDX 17 13 18 14 19 15 20 16 24 17 22 18 21 19 23 21 32 23 29 25
REMARK SMILES IDX 5 27 14 28 6 29 12 30 7 31 10 32 15 33 13 35 8 37 9 38 11 40
REMARK H PARENT 21 20 23 22 32 24 29 26 15 34 13 36 9 39 11 41
REMARK Flexibility Score: inf
ROOT
ATOM      1  O   UNL     1     -11.081  32.522   7.331  1.00  0.00    -0.454 OA
ENDROOT
BRANCH   1   2
ATOM      2  C   UNL     1     -10.363  33.696   7.084  1.00  0.00     0.214 A 
ATOM      3  C   UNL     1      -9.030  33.687   6.597  1.00  0.00     0.180 A 
ATOM      4  O   UNL     1      -8.410  34.857   6.424  1.00  0.00    -0.452 OA
ATOM      5  C   UNL     1     -11.000  34.931   7.289  1.00  0.00     0.239 A 
ATOM      6  C   UNL     1      -8.979  36.041   6.608  1.00  0.00     0.146 A 
ATOM      7  O   UNL     1     -12.203  34.946   7.673  1.00  0.00    -0.285 OA
ATOM      8  C   UNL     1     -10.318  36.126   7.036  1.00  0.00     0.111 A 
ATOM      9  C   UNL     1      -8.242  37.202   6.341  1.00  0.00     0.094 A 
ATOM     10  C   UNL     1     -10.930  37.401   7.130  1.00  0.00     0.134 A 
ATOM     11  C   UNL     1      -8.859  38.456   6.411  1.00  0.00     0.123 A 
ATOM     12  C   UNL     1     -10.205  38.552   6.771  1.00  0.00     0.093 A 
BRANCH   3  13
ATOM     13  C   UNL     1      -8.243  32.452   6.238  1.00  0.00     0.025 A 
ATOM     14  C   UNL     1      -6.944  32.323   6.775  1.00  0.00     0.016 A 
ATOM     15  C   UNL     1      -6.106  31.259   6.428  1.00  0.00     0.051 A 
ATOM     16  C   UNL     1      -6.552  30.282   5.542  1.00  0.00     0.157 A 
ATOM     17  C   UNL     1      -8.680  31.445   5.348  1.00  0.00     0.062 A 
ATOM     18  C   UNL     1      -7.851  30.370   5.003  1.00  0.00     0.158 A 
BRANCH  16  19
ATOM     19  O   UNL     1      -5.712  29.228   5.177  1.00  0.00    -0.504 OA
ATOM     20  H   UNL     1      -5.516  29.005   4.205  1.00  0.00     0.293 HD
ENDBRANCH  16  19
BRANCH  18  21
ATOM     21  O   UNL     1      -8.322  29.408   4.112  1.00  0.00    -0.504 OA
ATOM     22  H   UNL     1      -7.694  28.746   3.668  1.00  0.00     0.293 HD
ENDBRANCH  18  21
ENDBRANCH   3  13
BRANCH  10  23
ATOM     23  O   UNL     1     -12.261  37.526   7.546  1.00  0.00    -0.507 OA
ATOM     24  H   UNL     1     -12.811  36.729   7.856  1.00  0.00     0.293 HD
ENDBRANCH  10  23
BRANCH  11  25
ATOM     25  O   UNL     1      -8.153  39.621   6.090  1.00  0.00    -0.508 OA
ATOM     26  H   UNL     1      -7.324  39.584   5.520  1.00  0.00     0.293 HD
ENDBRANCH  11  25
ENDBRANCH   1   2
BRANCH   1  27
ATOM     27  C   UNL     1     -11.102  31.830   8.587  1.00  0.00     0.339 C 
ATOM     28  C   UNL     1     -11.284  30.325   8.318  1.00  0.00     0.214 C 
ATOM     29  O   UNL     1     -12.145  32.339   9.413  1.00  0.00    -0.332 OA
ATOM     30  C   UNL     1     -11.438  29.547   9.636  1.00  0.00     0.180 C 
ATOM     31  C   UNL     1     -12.121  31.725  10.689  1.00  0.00     0.179 C 
ATOM     32  C   UNL     1     -12.471  30.225  10.555  1.00  0.00     0.177 C 
BRANCH  28  33
ATOM     33  O   UNL     1     -12.412  30.133   7.494  1.00  0.00    -0.384 OA
ATOM     34  H   UNL     1     -12.086  30.106   6.556  1.00  0.00     0.211 HD
ENDBRANCH  28  33
BRANCH  30  35
ATOM     35  O   UNL     1     -11.864  28.238   9.370  1.00  0.00    -0.387 OA
ATOM     36  H   UNL     1     -11.193  27.826   8.764  1.00  0.00     0.211 HD
ENDBRANCH  30  35
BRANCH  31  37
ATOM     37  C   UNL     1     -13.103  32.464  11.609  1.00  0.00     0.191 C 
BRANCH  37  38
ATOM     38  O   UNL     1     -13.080  33.842  11.373  1.00  0.00    -0.394 OA
ATOM     39  H   UNL     1     -12.953  33.975  10.391  1.00  0.00     0.210 HD
ENDBRANCH  37  38
ENDBRANCH  31  37
BRANCH  32  40
ATOM     40  O   UNL     1     -12.506  29.591  11.807  1.00  0.00    -0.387 OA
ATOM     41  H   UNL     1     -13.401  29.173  11.902  1.00  0.00     0.211 HD
ENDBRANCH  32  40
ENDBRANCH   1  27
TORSDOF 12
ENDMDL
MODEL 6
REMARK VINA RESULT:    -5.927     15.324     18.129
REMARK INTER + INTRA:         -10.124
REMARK INTER:                  -8.713
REMARK INTRA:                  -1.411
REMARK UNBOUND:                -1.425
REMARK SMILES O=c1c(O[C@H]2O[C@@H](CO)[C@H](O)[C@@H](O)[C@H]2O)c(-c2ccc(O)c(O)c2)oc2cc(O)cc(O)c12
REMARK SMILES IDX 4 1 3 2 16 3 25 4 2 5 26 6 1 7 33 8 27 9 31 10 28 11 30 12
REMARK SMILES IDX 17 13 18 14 19 15 20 16 24 17 22 18 21 19 23 21 32 23 29 25
REMARK SMILES IDX 5 27 14 28 6 29 12 30 7 31 10 32 15 33 13 35 8 37 9 38 11 40
REMARK H PARENT 21 20 23 22 32 24 29 26 15 34 13 36 9 39 11 41
REMARK Flexibility Score: inf
ROOT
ATOM      1  O   UNL     1       4.136  44.607   1.034  1.00  0.00    -0.454 OA
ENDROOT
BRANCH   1   2
ATOM      2  C   UNL     1       3.675  45.010   2.291  1.00  0.00     0.214 A 
ATOM      3  C   UNL     1       2.367  44.713   2.755  1.00  0.00     0.180 A 
ATOM      4  O   UNL     1       2.001  45.170   3.955  1.00  0.00    -0.452 OA
ATOM      5  C   UNL     1       4.554  45.701   3.141  1.00  0.00     0.239 A 
ATOM      6  C   UNL     1       2.803  45.825   4.783  1.00  0.00     0.146 A 
ATOM      7  O   UNL     1       5.735  45.924   2.754  1.00  0.00    -0.285 OA
ATOM      8  C   UNL     1       4.132  46.106   4.412  1.00  0.00     0.111 A 
ATOM      9  C   UNL     1       2.320  46.207   6.042  1.00  0.00     0.094 A 
ATOM     10  C   UNL     1       4.994  46.721   5.354  1.00  0.00     0.134 A 
ATOM     11  C   UNL     1       3.183  46.791   6.976  1.00  0.00     0.123 A 
ATOM     12  C   UNL     1       4.521  47.016   6.645  1.00  0.00     0.093 A 
BRANCH   3  13
ATOM     13  C   UNL     1       1.341  43.902   2.005  1.00  0.00     0.025 A 
ATOM     14  C   UNL     1       1.234  42.529   2.317  1.00  0.00     0.016 A 
ATOM     15  C   UNL     1       0.376  41.679   1.614  1.00  0.00     0.051 A 
ATOM     16  C   UNL     1      -0.415  42.184   0.585  1.00  0.00     0.157 A 
ATOM     17  C   UNL     1       0.523  44.397   0.964  1.00  0.00     0.062 A 
ATOM     18  C   UNL     1      -0.347  43.554   0.261  1.00  0.00     0.158 A 
BRANCH  16  19
ATOM     19  O   UNL     1      -1.260  41.335  -0.134  1.00  0.00    -0.504 OA
ATOM     20  H   UNL     1      -0.948  40.433  -0.484  1.00  0.00     0.293 HD
ENDBRANCH  16  19
BRANCH  18  21
ATOM     21  O   UNL     1      -1.125  44.085  -0.766  1.00  0.00    -0.504 OA
ATOM     22  H   UNL     1      -1.513  43.495  -1.495  1.00  0.00     0.293 HD
ENDBRANCH  18  21
ENDBRANCH   3  13
BRANCH  10  23
ATOM     23  O   UNL     1       6.324  47.010   5.024  1.00  0.00    -0.507 OA
ATOM     24  H   UNL     1       7.039  46.289   4.966  1.00  0.00     0.293 HD
ENDBRANCH  10  23
BRANCH  11  25
ATOM     25  O   UNL     1       2.731  47.124   8.258  1.00  0.00    -0.508 OA
ATOM     26  H   UNL     1       3.294  46.936   9.071  1.00  0.00     0.293 HD
ENDBRANCH  11  25
ENDBRANCH   1   2
BRANCH   1  27
ATOM     27  C   UNL     1       4.973  43.465   0.802  1.00  0.00     0.339 C 
ATOM     28  C   UNL     1       4.722  42.953  -0.628  1.00  0.00     0.214 C 
ATOM     29  O   UNL     1       4.708  42.454   1.769  1.00  0.00    -0.332 OA
ATOM     30  C   UNL     1       5.502  41.654  -0.891  1.00  0.00     0.180 C 
ATOM     31  C   UNL     1       5.589  41.357   1.604  1.00  0.00     0.179 C 
ATOM     32  C   UNL     1       5.299  40.651   0.260  1.00  0.00     0.177 C 
BRANCH  28  33
ATOM     33  O   UNL     1       3.340  42.746  -0.812  1.00  0.00    -0.384 OA
ATOM     34  H   UNL     1       3.000  43.509  -1.350  1.00  0.00     0.211 HD
ENDBRANCH  28  33
BRANCH  30  35
ATOM     35  O   UNL     1       5.061  41.065  -2.083  1.00  0.00    -0.387 OA
ATOM     36  H   UNL     1       4.450  40.321  -1.837  1.00  0.00     0.211 HD
ENDBRANCH  30  35
BRANCH  31  37
ATOM     37  C   UNL     1       5.422  40.409   2.799  1.00  0.00     0.191 C 
BRANCH  37  38
ATOM     38  O   UNL     1       4.106  40.417   3.274  1.00  0.00    -0.394 OA
ATOM     39  H   UNL     1       3.506  40.547   2.487  1.00  0.00     0.210 HD
ENDBRANCH  37  38
ENDBRANCH  31  37
BRANCH  32  40
ATOM     40  O   UNL     1       6.121  39.527   0.083  1.00  0.00    -0.387 OA
ATOM     41  H   UNL     1       6.015  39.227  -0.858  1.00  0.00     0.211 HD
ENDBRANCH  32  40
ENDBRANCH   1  27
TORSDOF 12
ENDMDL
MODEL 7
REMARK VINA RESULT:    -5.876      2.015      3.439
REMARK INTER + INTRA:         -10.050
REMARK INTER:                  -8.711
REMARK INTRA:                  -1.339
REMARK UNBOUND:                -1.425
REMARK SMILES O=c1c(O[C@H]2O[C@@H](CO)[C@H](O)[C@@H](O)[C@H]2O)c(-c2ccc(O)c(O)c2)oc2cc(O)cc(O)c12
REMARK SMILES IDX 4 1 3 2 16 3 25 4 2 5 26 6 1 7 33 8 27 9 31 10 28 11 30 12
REMARK SMILES IDX 17 13 18 14 19 15 20 16 24 17 22 18 21 19 23 21 32 23 29 25
REMARK SMILES IDX 5 27 14 28 6 29 12 30 7 31 10 32 15 33 13 35 8 37 9 38 11 40
REMARK H PARENT 21 20 23 22 32 24 29 26 15 34 13 36 9 39 11 41
REMARK Flexibility Score: inf
ROOT
ATOM      1  O   UNL     1      -8.976  31.806   7.090  1.00  0.00    -0.454 OA
ENDROOT
BRANCH   1   2
ATOM      2  C   UNL     1      -9.480  33.103   7.231  1.00  0.00     0.214 A 
ATOM      3  C   UNL     1     -10.478  33.434   8.184  1.00  0.00     0.180 A 
ATOM      4  O   UNL     1     -10.925  34.691   8.223  1.00  0.00    -0.452 OA
ATOM      5  C   UNL     1      -8.950  34.124   6.424  1.00  0.00     0.239 A 
ATOM      6  C   UNL     1     -10.449  35.679   7.478  1.00  0.00     0.146 A 
ATOM      7  O   UNL     1      -8.026  33.846   5.610  1.00  0.00    -0.285 OA
ATOM      8  C   UNL     1      -9.419  35.436   6.549  1.00  0.00     0.111 A 
ATOM      9  C   UNL     1     -10.963  36.972   7.647  1.00  0.00     0.094 A 
ATOM     10  C   UNL     1      -8.863  36.527   5.837  1.00  0.00     0.134 A 
ATOM     11  C   UNL     1     -10.393  38.049   6.960  1.00  0.00     0.123 A 
ATOM     12  C   UNL     1      -9.327  37.832   6.085  1.00  0.00     0.093 A 
BRANCH   3  13
ATOM     13  C   UNL     1     -11.078  32.478   9.183  1.00  0.00     0.025 A 
ATOM     14  C   UNL     1     -12.337  31.915   8.880  1.00  0.00     0.016 A 
ATOM     15  C   UNL     1     -13.011  31.089   9.783  1.00  0.00     0.051 A 
ATOM     16  C   UNL     1     -12.437  30.791  11.016  1.00  0.00     0.157 A 
ATOM     17  C   UNL     1     -10.508  32.154  10.436  1.00  0.00     0.062 A 
ATOM     18  C   UNL     1     -11.173  31.320  11.343  1.00  0.00     0.158 A 
BRANCH  16  19
ATOM     19  O   UNL     1     -13.116  29.982  11.930  1.00  0.00    -0.504 OA
ATOM     20  H   UNL     1     -13.832  29.322  11.640  1.00  0.00     0.293 HD
ENDBRANCH  16  19
BRANCH  18  21
ATOM     21  O   UNL     1     -10.576  31.039  12.571  1.00  0.00    -0.504 OA
ATOM     22  H   UNL     1      -9.636  30.663  12.627  1.00  0.00     0.293 HD
ENDBRANCH  18  21
ENDBRANCH   3  13
BRANCH  10  23
ATOM     23  O   UNL     1      -7.833  36.326   4.910  1.00  0.00    -0.507 OA
ATOM     24  H   UNL     1      -7.357  35.433   4.811  1.00  0.00     0.293 HD
ENDBRANCH  10  23
BRANCH  11  25
ATOM     25  O   UNL     1     -10.856  39.354   7.163  1.00  0.00    -0.508 OA
ATOM     26  H   UNL     1     -11.669  39.533   7.729  1.00  0.00     0.293 HD
ENDBRANCH  11  25
ENDBRANCH   1   2
BRANCH   1  27
ATOM     27  C   UNL     1      -9.295  30.922   6.006  1.00  0.00     0.339 C 
ATOM     28  C   UNL     1     -10.389  29.945   6.473  1.00  0.00     0.214 C 
ATOM     29  O   UNL     1      -8.128  30.229   5.575  1.00  0.00    -0.332 OA
ATOM     30  C   UNL     1     -10.683  28.894   5.390  1.00  0.00     0.180 C 
ATOM     31  C   UNL     1      -8.412  29.418   4.449  1.00  0.00     0.179 C 
ATOM     32  C   UNL     1      -9.377  28.280   4.853  1.00  0.00     0.177 C 
BRANCH  28  33
ATOM     33  O   UNL     1      -9.977  29.324   7.669  1.00  0.00    -0.384 OA
ATOM     34  H   UNL     1      -9.088  28.914   7.493  1.00  0.00     0.211 HD
ENDBRANCH  28  33
BRANCH  30  35
ATOM     35  O   UNL     1     -11.475  27.868   5.925  1.00  0.00    -0.387 OA
ATOM     36  H   UNL     1     -11.449  27.959   6.914  1.00  0.00     0.211 HD
ENDBRANCH  30  35
BRANCH  31  37
ATOM     37  C   UNL     1      -7.090  28.878   3.886  1.00  0.00     0.191 C 
BRANCH  37  38
ATOM     38  O   UNL     1      -7.143  28.754   2.494  1.00  0.00    -0.394 OA
ATOM     39  H   UNL     1      -8.008  29.152   2.191  1.00  0.00     0.210 HD
ENDBRANCH  37  38
ENDBRANCH  31  37
BRANCH  32  40
ATOM     40  O   UNL     1      -9.644  27.425   3.772  1.00  0.00    -0.387 OA
ATOM     41  H   UNL     1     -10.537  27.668   3.415  1.00  0.00     0.211 HD
ENDBRANCH  32  40
ENDBRANCH   1  27
TORSDOF 12
ENDMDL
MODEL 8
REMARK VINA RESULT:    -5.788     15.718     19.004
REMARK INTER + INTRA:          -9.920
REMARK INTER:                  -8.801
REMARK INTRA:                  -1.120
REMARK UNBOUND:                -1.425
REMARK SMILES O=c1c(O[C@H]2O[C@@H](CO)[C@H](O)[C@@H](O)[C@H]2O)c(-c2ccc(O)c(O)c2)oc2cc(O)cc(O)c12
REMARK SMILES IDX 4 1 3 2 16 3 25 4 2 5 26 6 1 7 33 8 27 9 31 10 28 11 30 12
REMARK SMILES IDX 17 13 18 14 19 15 20 16 24 17 22 18 21 19 23 21 32 23 29 25
REMARK SMILES IDX 5 27 14 28 6 29 12 30 7 31 10 32 15 33 13 35 8 37 9 38 11 40
REMARK H PARENT 21 20 23 22 32 24 29 26 15 34 13 36 9 39 11 41
REMARK Flexibility Score: inf
ROOT
ATOM      1  O   UNL     1       2.292  45.414   2.218  1.00  0.00    -0.454 OA
ENDROOT
BRANCH   1   2
ATOM      2  C   UNL     1       2.984  44.359   1.614  1.00  0.00     0.214 A 
ATOM      3  C   UNL     1       2.400  43.536   0.616  1.00  0.00     0.180 A 
ATOM      4  O   UNL     1       3.124  42.529   0.121  1.00  0.00    -0.452 OA
ATOM      5  C   UNL     1       4.320  44.131   1.983  1.00  0.00     0.239 A 
ATOM      6  C   UNL     1       4.386  42.284   0.445  1.00  0.00     0.146 A 
ATOM      7  O   UNL     1       4.861  44.890   2.833  1.00  0.00    -0.285 OA
ATOM      8  C   UNL     1       5.048  43.094   1.388  1.00  0.00     0.111 A 
ATOM      9  C   UNL     1       5.059  41.229  -0.184  1.00  0.00     0.094 A 
ATOM     10  C   UNL     1       6.423  42.870   1.643  1.00  0.00     0.134 A 
ATOM     11  C   UNL     1       6.424  41.028   0.053  1.00  0.00     0.123 A 
ATOM     12  C   UNL     1       7.109  41.865   0.936  1.00  0.00     0.093 A 
BRANCH   3  13
ATOM     13  C   UNL     1       1.015  43.710   0.045  1.00  0.00     0.025 A 
ATOM     14  C   UNL     1       0.004  42.835   0.497  1.00  0.00     0.016 A 
ATOM     15  C   UNL     1      -1.287  42.862  -0.039  1.00  0.00     0.051 A 
ATOM     16  C   UNL     1      -1.607  43.778  -1.037  1.00  0.00     0.157 A 
ATOM     17  C   UNL     1       0.667  44.640  -0.962  1.00  0.00     0.062 A 
ATOM     18  C   UNL     1      -0.627  44.679  -1.497  1.00  0.00     0.158 A 
BRANCH  16  19
ATOM     19  O   UNL     1      -2.890  43.796  -1.590  1.00  0.00    -0.504 OA
ATOM     20  H   UNL     1      -3.722  43.640  -1.028  1.00  0.00     0.293 HD
ENDBRANCH  16  19
BRANCH  18  21
ATOM     21  O   UNL     1      -0.919  45.605  -2.497  1.00  0.00    -0.504 OA
ATOM     22  H   UNL     1      -0.977  45.330  -3.472  1.00  0.00     0.293 HD
ENDBRANCH  18  21
ENDBRANCH   3  13
BRANCH  10  23
ATOM     23  O   UNL     1       7.117  43.659   2.568  1.00  0.00    -0.507 OA
ATOM     24  H   UNL     1       8.126  43.780   2.531  1.00  0.00     0.293 HD
ENDBRANCH  10  23
BRANCH  11  25
ATOM     25  O   UNL     1       7.125  40.015  -0.612  1.00  0.00    -0.508 OA
ATOM     26  H   UNL     1       6.656  39.185  -0.933  1.00  0.00     0.293 HD
ENDBRANCH  11  25
ENDBRANCH   1   2
BRANCH   1  27
ATOM     27  C   UNL     1       1.795  45.397   3.564  1.00  0.00     0.339 C 
ATOM     28  C   UNL     1       0.313  45.813   3.547  1.00  0.00     0.214 C 
ATOM     29  O   UNL     1       2.569  46.265   4.386  1.00  0.00    -0.332 OA
ATOM     30  C   UNL     1      -0.239  45.932   4.977  1.00  0.00     0.180 C 
ATOM     31  C   UNL     1       2.143  46.190   5.735  1.00  0.00     0.179 C 
ATOM     32  C   UNL     1       0.711  46.757   5.864  1.00  0.00     0.177 C 
BRANCH  28  33
ATOM     33  O   UNL     1       0.182  47.037   2.861  1.00  0.00    -0.384 OA
ATOM     34  H   UNL     1      -0.623  46.964   2.284  1.00  0.00     0.211 HD
ENDBRANCH  28  33
BRANCH  30  35
ATOM     35  O   UNL     1      -1.492  46.561   4.953  1.00  0.00    -0.387 OA
ATOM     36  H   UNL     1      -1.509  47.214   5.703  1.00  0.00     0.211 HD
ENDBRANCH  30  35
BRANCH  31  37
ATOM     37  C   UNL     1       3.146  46.957   6.609  1.00  0.00     0.191 C 
BRANCH  37  38
ATOM     38  O   UNL     1       3.221  46.411   7.894  1.00  0.00    -0.394 OA
ATOM     39  H   UNL     1       2.440  45.798   8.005  1.00  0.00     0.210 HD
ENDBRANCH  37  38
ENDBRANCH  31  37
BRANCH  32  40
ATOM     40  O   UNL     1       0.272  46.746   7.198  1.00  0.00    -0.387 OA
ATOM     41  H   UNL     1      -0.720  46.764   7.184  1.00  0.00     0.211 HD
ENDBRANCH  32  40
ENDBRANCH   1  27
TORSDOF 12
ENDMDL
MODEL 9
REMARK VINA RESULT:    -5.724     14.924     17.765
REMARK INTER + INTRA:          -9.826
REMARK INTER:                  -8.490
REMARK INTRA:                  -1.336
REMARK UNBOUND:                -1.425
REMARK SMILES O=c1c(O[C@H]2O[C@@H](CO)[C@H](O)[C@@H](O)[C@H]2O)c(-c2ccc(O)c(O)c2)oc2cc(O)cc(O)c12
REMARK SMILES IDX 4 1 3 2 16 3 25 4 2 5 26 6 1 7 33 8 27 9 31 10 28 11 30 12
REMARK SMILES IDX 17 13 18 14 19 15 20 16 24 17 22 18 21 19 23 21 32 23 29 25
REMARK SMILES IDX 5 27 14 28 6 29 12 30 7 31 10 32 15 33 13 35 8 37 9 38 11 40
REMARK H PARENT 21 20 23 22 32 24 29 26 15 34 13 36 9 39 11 41
REMARK Flexibility Score: inf
ROOT
ATOM      1  O   UNL     1       1.828  45.767   1.895  1.00  0.00    -0.454 OA
ENDROOT
BRANCH   1   2
ATOM      2  C   UNL     1       2.611  45.939   3.040  1.00  0.00     0.214 A 
ATOM      3  C   UNL     1       2.049  46.047   4.339  1.00  0.00     0.180 A 
ATOM      4  O   UNL     1       2.873  46.245   5.372  1.00  0.00    -0.452 OA
ATOM      5  C   UNL     1       4.009  45.967   2.903  1.00  0.00     0.239 A 
ATOM      6  C   UNL     1       4.195  46.277   5.280  1.00  0.00     0.146 A 
ATOM      7  O   UNL     1       4.516  45.821   1.757  1.00  0.00    -0.285 OA
ATOM      8  C   UNL     1       4.824  46.121   4.029  1.00  0.00     0.111 A 
ATOM      9  C   UNL     1       4.957  46.438   6.444  1.00  0.00     0.094 A 
ATOM     10  C   UNL     1       6.239  46.062   3.974  1.00  0.00     0.134 A 
ATOM     11  C   UNL     1       6.353  46.354   6.386  1.00  0.00     0.123 A 
ATOM     12  C   UNL     1       6.988  46.133   5.163  1.00  0.00     0.093 A 
BRANCH   3  13
ATOM     13  C   UNL     1       0.581  45.941   4.664  1.00  0.00     0.025 A 
ATOM     14  C   UNL     1      -0.209  47.102   4.518  1.00  0.00     0.016 A 
ATOM     15  C   UNL     1      -1.559  47.125   4.880  1.00  0.00     0.051 A 
ATOM     16  C   UNL     1      -2.163  45.977   5.386  1.00  0.00     0.157 A 
ATOM     17  C   UNL     1      -0.054  44.784   5.171  1.00  0.00     0.062 A 
ATOM     18  C   UNL     1      -1.409  44.796   5.526  1.00  0.00     0.158 A 
BRANCH  16  19
ATOM     19  O   UNL     1      -3.507  46.000   5.767  1.00  0.00    -0.504 OA
ATOM     20  H   UNL     1      -3.794  46.201   6.721  1.00  0.00     0.293 HD
ENDBRANCH  16  19
BRANCH  18  21
ATOM     21  O   UNL     1      -1.987  43.634   6.032  1.00  0.00    -0.504 OA
ATOM     22  H   UNL     1      -2.648  43.664   6.801  1.00  0.00     0.293 HD
ENDBRANCH  18  21
ENDBRANCH   3  13
BRANCH  10  23
ATOM     23  O   UNL     1       6.900  45.900   2.750  1.00  0.00    -0.507 OA
ATOM     24  H   UNL     1       7.136  44.985   2.376  1.00  0.00     0.293 HD
ENDBRANCH  10  23
BRANCH  11  25
ATOM     25  O   UNL     1       7.125  46.453   7.549  1.00  0.00    -0.508 OA
ATOM     26  H   UNL     1       7.649  47.287   7.754  1.00  0.00     0.293 HD
ENDBRANCH  11  25
ENDBRANCH   1   2
BRANCH   1  27
ATOM     27  C   UNL     1       0.913  44.681   1.689  1.00  0.00     0.339 C 
ATOM     28  C   UNL     1       1.675  43.356   1.867  1.00  0.00     0.214 C 
ATOM     29  O   UNL     1       0.323  44.772   0.397  1.00  0.00    -0.332 OA
ATOM     30  C   UNL     1       0.772  42.156   1.536  1.00  0.00     0.180 C 
ATOM     31  C   UNL     1      -0.647  43.755   0.215  1.00  0.00     0.179 C 
ATOM     32  C   UNL     1       0.042  42.372   0.198  1.00  0.00     0.177 C 
BRANCH  28  33
ATOM     33  O   UNL     1       2.815  43.360   1.039  1.00  0.00    -0.384 OA
ATOM     34  H   UNL     1       3.422  44.068   1.383  1.00  0.00     0.211 HD
ENDBRANCH  28  33
BRANCH  30  35
ATOM     35  O   UNL     1       1.543  40.989   1.444  1.00  0.00    -0.387 OA
ATOM     36  H   UNL     1       1.297  40.538   0.594  1.00  0.00     0.211 HD
ENDBRANCH  30  35
BRANCH  31  37
ATOM     37  C   UNL     1      -1.411  44.033  -1.087  1.00  0.00     0.191 C 
BRANCH  37  38
ATOM     38  O   UNL     1      -2.676  43.436  -1.071  1.00  0.00    -0.394 OA
ATOM     39  H   UNL     1      -2.702  42.811  -0.293  1.00  0.00     0.210 HD
ENDBRANCH  37  38
ENDBRANCH  31  37
BRANCH  32  40
ATOM     40  O   UNL     1      -0.883  41.340  -0.030  1.00  0.00    -0.387 OA
ATOM     41  H   UNL     1      -1.486  41.639  -0.760  1.00  0.00     0.211 HD
ENDBRANCH  32  40
ENDBRANCH   1  27
TORSDOF 12
ENDMDL
