MODEL 1
REMARK VINA RESULT:    24.163      0.000      0.000
REMARK INTER + INTRA:          26.282
REMARK INTER:                  26.282
REMARK INTRA:                   0.000
REMARK UNBOUND:                 0.000
REMARK SMILES Cc1cc(O)c2c(c1)C(=O)c1cc(O)cc(O)c1C2=O
REMARK SMILES IDX 1 1 2 2 8 3 7 4 6 5 4 6 3 7 19 8 20 9 18 10 11 11 9 12 10 13
REMARK SMILES IDX 12 14 13 15 15 16 16 17 5 18 17 20 14 22
REMARK H PARENT 5 19 17 21 14 23
REMARK Flexibility Score: inf
ROOT
ATOM      1  C   UNL     1      -8.877  -9.435  25.125  1.00  0.00     0.044 C 
ATOM      2  C   UNL     1      -8.727  -8.596  23.889  1.00  0.00    -0.047 A 
ATOM      3  C   UNL     1      -8.220  -7.296  23.978  1.00  0.00     0.016 A 
ATOM      4  C   UNL     1      -8.050  -6.512  22.824  1.00  0.00     0.038 A 
ATOM      5  C   UNL     1      -8.394  -7.040  21.559  1.00  0.00     0.076 A 
ATOM      6  C   UNL     1      -8.827  -8.388  21.468  1.00  0.00     0.127 A 
ATOM      7  C   UNL     1      -9.008  -9.141  22.632  1.00  0.00     0.050 A 
ATOM      8  C   UNL     1      -8.341  -6.135  20.382  1.00  0.00     0.201 C 
ATOM      9  O   UNL     1      -9.125  -6.320  19.414  1.00  0.00    -0.288 OA
ATOM     10  C   UNL     1      -7.501  -4.910  20.431  1.00  0.00     0.076 A 
ATOM     11  C   UNL     1      -7.157  -4.385  21.698  1.00  0.00     0.041 A 
ATOM     12  C   UNL     1      -7.505  -5.138  22.927  1.00  0.00     0.194 C 
ATOM     13  O   UNL     1      -7.313  -4.617  24.060  1.00  0.00    -0.289 OA
ATOM     14  C   UNL     1      -6.483  -3.156  21.785  1.00  0.00     0.059 A 
ATOM     15  C   UNL     1      -6.135  -2.453  20.628  1.00  0.00     0.120 A 
ATOM     16  C   UNL     1      -6.438  -2.987  19.376  1.00  0.00     0.093 A 
ATOM     17  C   UNL     1      -7.090  -4.219  19.261  1.00  0.00     0.131 A 
ENDROOT
BRANCH   6  18
ATOM     18  O   UNL     1      -9.053  -9.026  20.246  1.00  0.00    -0.507 OA
ATOM     19  H   UNL     1      -8.832  -8.613  19.350  1.00  0.00     0.293 HD
ENDBRANCH   6  18
BRANCH  17  20
ATOM     20  O   UNL     1      -7.277  -4.731  17.975  1.00  0.00    -0.507 OA
ATOM     21  H   UNL     1      -7.758  -4.232  17.240  1.00  0.00     0.293 HD
ENDBRANCH  17  20
BRANCH  15  22
ATOM     22  O   UNL     1      -5.478  -1.228  20.712  1.00  0.00    -0.508 OA
ATOM     23  H   UNL     1      -5.079  -0.899  21.584  1.00  0.00     0.293 HD
ENDBRANCH  15  22
TORSDOF 3
ENDMDL
