MODEL 1
REMARK VINA RESULT:    -5.452      0.000      0.000
REMARK INTER + INTRA:          -6.777
REMARK INTER:                  -6.568
REMARK INTRA:                  -0.209
REMARK UNBOUND:                -0.209
REMARK SMILES C=CCc1ccc(O)c(OC)c1
REMARK SMILES IDX 9 1 7 2 6 3 5 4 4 5 12 6 10 7 11 8 8 9 3 11 2 12 1 13
REMARK H PARENT 8 10
REMARK Flexibility Score: inf
ROOT
ATOM      1  C   UNL     1     128.894 131.740 111.516  1.00  0.00     0.160 A 
ATOM      2  C   UNL     1     127.751 132.000 110.748  1.00  0.00     0.157 A 
ATOM      3  C   UNL     1     127.361 131.107 109.741  1.00  0.00     0.050 A 
ATOM      4  C   UNL     1     128.110 129.955 109.494  1.00  0.00     0.008 A 
ATOM      5  C   UNL     1     129.262 129.686 110.247  1.00  0.00    -0.040 A 
ATOM      6  C   UNL     1     129.646 130.575 111.262  1.00  0.00     0.054 A 
ENDROOT
BRANCH   1   7
ATOM      7  O   UNL     1     129.249 132.656 112.520  1.00  0.00    -0.493 OA
ATOM      8  C   UNL     1     130.401 132.537 113.348  1.00  0.00     0.278 C 
ENDBRANCH   1   7
BRANCH   2   9
ATOM      9  O   UNL     1     127.002 133.150 110.994  1.00  0.00    -0.504 OA
ATOM     10  H   UNL     1     127.397 133.945 111.484  1.00  0.00     0.293 HD
ENDBRANCH   2   9
BRANCH   5  11
ATOM     11  C   UNL     1     130.055 128.429 110.001  1.00  0.00     0.062 C 
BRANCH  11  12
ATOM     12  C   UNL     1     129.331 127.520 109.049  1.00  0.00    -0.030 C 
ATOM     13  C   UNL     1     129.723 126.259 108.845  1.00  0.00     0.004 C 
ENDBRANCH  11  12
ENDBRANCH   5  11
TORSDOF 4
ENDMDL
MODEL 2
REMARK VINA RESULT:    -5.346      1.567      2.236
REMARK INTER + INTRA:          -6.649
REMARK INTER:                  -6.466
REMARK INTRA:                  -0.183
REMARK UNBOUND:                -0.209
REMARK SMILES C=CCc1ccc(O)c(OC)c1
REMARK SMILES IDX 9 1 7 2 6 3 5 4 4 5 12 6 10 7 11 8 8 9 3 11 2 12 1 13
REMARK H PARENT 8 10
REMARK Flexibility Score: inf
ROOT
ATOM      1  C   UNL     1     129.716 129.872 110.520  1.00  0.00     0.160 A 
ATOM      2  C   UNL     1     128.640 130.442 109.826  1.00  0.00     0.157 A 
ATOM      3  C   UNL     1     127.901 129.673 108.918  1.00  0.00     0.050 A 
ATOM      4  C   UNL     1     128.232 128.335 108.695  1.00  0.00     0.008 A 
ATOM      5  C   UNL     1     129.314 127.753 109.374  1.00  0.00    -0.040 A 
ATOM      6  C   UNL     1     130.047 128.521 110.291  1.00  0.00     0.054 A 
ENDROOT
BRANCH   1   7
ATOM      7  O   UNL     1     130.429 130.674 111.425  1.00  0.00    -0.493 OA
ATOM      8  C   UNL     1     130.761 130.288 112.755  1.00  0.00     0.278 C 
ENDBRANCH   1   7
BRANCH   2   9
ATOM      9  O   UNL     1     128.308 131.778 110.047  1.00  0.00    -0.504 OA
ATOM     10  H   UNL     1     127.571 132.043 110.691  1.00  0.00     0.293 HD
ENDBRANCH   2   9
BRANCH   5  11
ATOM     11  C   UNL     1     129.655 126.302 109.157  1.00  0.00     0.062 C 
BRANCH  11  12
ATOM     12  C   UNL     1     129.253 125.477 110.346  1.00  0.00    -0.030 C 
ATOM     13  C   UNL     1     129.175 124.144 110.283  1.00  0.00     0.004 C 
ENDBRANCH  11  12
ENDBRANCH   5  11
TORSDOF 4
ENDMDL
MODEL 3
REMARK VINA RESULT:    -5.274      2.636      4.563
REMARK INTER + INTRA:          -6.562
REMARK INTER:                  -6.363
REMARK INTRA:                  -0.198
REMARK UNBOUND:                -0.209
REMARK SMILES C=CCc1ccc(O)c(OC)c1
REMARK SMILES IDX 9 1 7 2 6 3 5 4 4 5 12 6 10 7 11 8 8 9 3 11 2 12 1 13
REMARK H PARENT 8 10
REMARK Flexibility Score: inf
ROOT
ATOM      1  C   UNL     1     129.901 128.738 110.153  1.00  0.00     0.160 A 
ATOM      2  C   UNL     1     129.635 127.745 109.200  1.00  0.00     0.157 A 
ATOM      3  C   UNL     1     128.505 127.844 108.377  1.00  0.00     0.050 A 
ATOM      4  C   UNL     1     127.635 128.929 108.502  1.00  0.00     0.008 A 
ATOM      5  C   UNL     1     127.883 129.925 109.459  1.00  0.00    -0.040 A 
ATOM      6  C   UNL     1     129.020 129.831 110.276  1.00  0.00     0.054 A 
ENDROOT
BRANCH   1   7
ATOM      7  O   UNL     1     131.045 128.606 110.956  1.00  0.00    -0.493 OA
ATOM      8  C   UNL     1     131.298 129.369 112.131  1.00  0.00     0.278 C 
ENDBRANCH   1   7
BRANCH   2   9
ATOM      9  O   UNL     1     130.502 126.660 109.075  1.00  0.00    -0.504 OA
ATOM     10  H   UNL     1     131.481 126.787 108.846  1.00  0.00     0.293 HD
ENDBRANCH   2   9
BRANCH   5  11
ATOM     11  C   UNL     1     126.962 131.112 109.575  1.00  0.00     0.062 C 
BRANCH  11  12
ATOM     12  C   UNL     1     127.585 132.188 110.420  1.00  0.00    -0.030 C 
ATOM     13  C   UNL     1     127.676 133.451 109.993  1.00  0.00     0.004 C 
ENDBRANCH  11  12
ENDBRANCH   5  11
TORSDOF 4
ENDMDL
MODEL 4
REMARK VINA RESULT:    -5.180      1.535      2.064
REMARK INTER + INTRA:          -6.449
REMARK INTER:                  -6.244
REMARK INTRA:                  -0.205
REMARK UNBOUND:                -0.209
REMARK SMILES C=CCc1ccc(O)c(OC)c1
REMARK SMILES IDX 9 1 7 2 6 3 5 4 4 5 12 6 10 7 11 8 8 9 3 11 2 12 1 13
REMARK H PARENT 8 10
REMARK Flexibility Score: inf
ROOT
ATOM      1  C   UNL     1     130.286 130.487 112.058  1.00  0.00     0.160 A 
ATOM      2  C   UNL     1     129.507 131.652 112.058  1.00  0.00     0.157 A 
ATOM      3  C   UNL     1     128.515 131.837 111.086  1.00  0.00     0.050 A 
ATOM      4  C   UNL     1     128.298 130.863 110.109  1.00  0.00     0.008 A 
ATOM      5  C   UNL     1     129.077 129.697 110.088  1.00  0.00    -0.040 A 
ATOM      6  C   UNL     1     130.063 129.508 111.069  1.00  0.00     0.054 A 
ENDROOT
BRANCH   1   7
ATOM      7  O   UNL     1     131.267 130.336 113.051  1.00  0.00    -0.493 OA
ATOM      8  C   UNL     1     131.274 129.299 114.026  1.00  0.00     0.278 C 
ENDBRANCH   1   7
BRANCH   2   9
ATOM      9  O   UNL     1     129.723 132.625 113.034  1.00  0.00    -0.504 OA
ATOM     10  H   UNL     1     129.405 133.580 112.911  1.00  0.00     0.293 HD
ENDBRANCH   2   9
BRANCH   5  11
ATOM     11  C   UNL     1     128.824 128.632 109.053  1.00  0.00     0.062 C 
BRANCH  11  12
ATOM     12  C   UNL     1     129.382 127.311 109.501  1.00  0.00    -0.030 C 
ATOM     13  C   UNL     1     129.739 126.366 108.626  1.00  0.00     0.004 C 
ENDBRANCH  11  12
ENDBRANCH   5  11
TORSDOF 4
ENDMDL
MODEL 5
REMARK VINA RESULT:    -5.177      2.796      4.987
REMARK INTER + INTRA:          -6.445
REMARK INTER:                  -6.246
REMARK INTRA:                  -0.199
REMARK UNBOUND:                -0.209
REMARK SMILES C=CCc1ccc(O)c(OC)c1
REMARK SMILES IDX 9 1 7 2 6 3 5 4 4 5 12 6 10 7 11 8 8 9 3 11 2 12 1 13
REMARK H PARENT 8 10
REMARK Flexibility Score: inf
ROOT
ATOM      1  C   UNL     1     129.748 127.913 109.873  1.00  0.00     0.160 A 
ATOM      2  C   UNL     1     128.779 128.607 109.136  1.00  0.00     0.157 A 
ATOM      3  C   UNL     1     128.423 129.914 109.495  1.00  0.00     0.050 A 
ATOM      4  C   UNL     1     129.029 130.533 110.590  1.00  0.00     0.008 A 
ATOM      5  C   UNL     1     129.994 129.848 111.344  1.00  0.00    -0.040 A 
ATOM      6  C   UNL     1     130.357 128.543 110.978  1.00  0.00     0.054 A 
ENDROOT
BRANCH   1   7
ATOM      7  O   UNL     1     130.081 126.607 109.480  1.00  0.00    -0.493 OA
ATOM      8  C   UNL     1     129.394 125.436 109.908  1.00  0.00     0.278 C 
ENDBRANCH   1   7
BRANCH   2   9
ATOM      9  O   UNL     1     128.172 127.989 108.043  1.00  0.00    -0.504 OA
ATOM     10  H   UNL     1     128.124 126.980 107.963  1.00  0.00     0.293 HD
ENDBRANCH   2   9
BRANCH   5  11
ATOM     11  C   UNL     1     130.670 130.524 112.508  1.00  0.00     0.062 C 
BRANCH  11  12
ATOM     12  C   UNL     1     130.016 131.843 112.811  1.00  0.00    -0.030 C 
ATOM     13  C   UNL     1     130.728 132.964 112.956  1.00  0.00     0.004 C 
ENDBRANCH  11  12
ENDBRANCH   5  11
TORSDOF 4
ENDMDL
MODEL 6
REMARK VINA RESULT:    -5.169      2.615      3.891
REMARK INTER + INTRA:          -6.435
REMARK INTER:                  -6.192
REMARK INTRA:                  -0.243
REMARK UNBOUND:                -0.209
REMARK SMILES C=CCc1ccc(O)c(OC)c1
REMARK SMILES IDX 9 1 7 2 6 3 5 4 4 5 12 6 10 7 11 8 8 9 3 11 2 12 1 13
REMARK H PARENT 8 10
REMARK Flexibility Score: inf
ROOT
ATOM      1  C   UNL     1     129.076 130.527 110.137  1.00  0.00     0.160 A 
ATOM      2  C   UNL     1     129.122 129.294 109.472  1.00  0.00     0.157 A 
ATOM      3  C   UNL     1     129.747 128.193 110.072  1.00  0.00     0.050 A 
ATOM      4  C   UNL     1     130.331 128.317 111.334  1.00  0.00     0.008 A 
ATOM      5  C   UNL     1     130.303 129.547 112.008  1.00  0.00    -0.040 A 
ATOM      6  C   UNL     1     129.668 130.647 111.410  1.00  0.00     0.054 A 
ENDROOT
BRANCH   1   7
ATOM      7  O   UNL     1     128.436 131.605 109.505  1.00  0.00    -0.493 OA
ATOM      8  C   UNL     1     127.711 132.624 110.186  1.00  0.00     0.278 C 
ENDBRANCH   1   7
BRANCH   2   9
ATOM      9  O   UNL     1     128.539 129.169 108.211  1.00  0.00    -0.504 OA
ATOM     10  H   UNL     1     128.845 129.733 107.427  1.00  0.00     0.293 HD
ENDBRANCH   2   9
BRANCH   5  11
ATOM     11  C   UNL     1     130.907 129.676 113.382  1.00  0.00     0.062 C 
BRANCH  11  12
ATOM     12  C   UNL     1     131.038 128.329 114.034  1.00  0.00    -0.030 C 
ATOM     13  C   UNL     1     130.253 127.961 115.052  1.00  0.00     0.004 C 
ENDBRANCH  11  12
ENDBRANCH   5  11
TORSDOF 4
ENDMDL
MODEL 7
REMARK VINA RESULT:    -5.141      2.182      3.779
REMARK INTER + INTRA:          -6.402
REMARK INTER:                  -6.168
REMARK INTRA:                  -0.234
REMARK UNBOUND:                -0.209
REMARK SMILES C=CCc1ccc(O)c(OC)c1
REMARK SMILES IDX 9 1 7 2 6 3 5 4 4 5 12 6 10 7 11 8 8 9 3 11 2 12 1 13
REMARK H PARENT 8 10
REMARK Flexibility Score: inf
ROOT
ATOM      1  C   UNL     1     128.579 130.263 109.866  1.00  0.00     0.160 A 
ATOM      2  C   UNL     1     128.035 131.497 110.246  1.00  0.00     0.157 A 
ATOM      3  C   UNL     1     128.528 132.168 111.373  1.00  0.00     0.050 A 
ATOM      4  C   UNL     1     129.562 131.610 112.127  1.00  0.00     0.008 A 
ATOM      5  C   UNL     1     130.111 130.370 111.766  1.00  0.00    -0.040 A 
ATOM      6  C   UNL     1     129.623 129.704 110.631  1.00  0.00     0.054 A 
ENDROOT
BRANCH   1   7
ATOM      7  O   UNL     1     128.062 129.624 108.728  1.00  0.00    -0.493 OA
ATOM      8  C   UNL     1     128.354 128.281 108.354  1.00  0.00     0.278 C 
ENDBRANCH   1   7
BRANCH   2   9
ATOM      9  O   UNL     1     127.001 132.055 109.494  1.00  0.00    -0.504 OA
ATOM     10  H   UNL     1     126.512 131.520 108.786  1.00  0.00     0.293 HD
ENDBRANCH   2   9
BRANCH   5  11
ATOM     11  C   UNL     1     131.246 129.781 112.561  1.00  0.00     0.062 C 
BRANCH  11  12
ATOM     12  C   UNL     1     130.754 129.246 113.876  1.00  0.00    -0.030 C 
ATOM     13  C   UNL     1     130.460 127.953 114.043  1.00  0.00     0.004 C 
ENDBRANCH  11  12
ENDBRANCH   5  11
TORSDOF 4
ENDMDL
MODEL 8
REMARK VINA RESULT:    -5.115      1.992      2.997
REMARK INTER + INTRA:          -6.370
REMARK INTER:                  -6.168
REMARK INTRA:                  -0.202
REMARK UNBOUND:                -0.209
REMARK SMILES C=CCc1ccc(O)c(OC)c1
REMARK SMILES IDX 9 1 7 2 6 3 5 4 4 5 12 6 10 7 11 8 8 9 3 11 2 12 1 13
REMARK H PARENT 8 10
REMARK Flexibility Score: inf
ROOT
ATOM      1  C   UNL     1     130.742 130.357 112.025  1.00  0.00     0.160 A 
ATOM      2  C   UNL     1     130.346 131.549 112.647  1.00  0.00     0.157 A 
ATOM      3  C   UNL     1     129.203 132.228 112.205  1.00  0.00     0.050 A 
ATOM      4  C   UNL     1     128.452 131.724 111.141  1.00  0.00     0.008 A 
ATOM      5  C   UNL     1     128.840 130.537 110.502  1.00  0.00    -0.040 A 
ATOM      6  C   UNL     1     129.980 129.852 110.952  1.00  0.00     0.054 A 
ENDROOT
BRANCH   1   7
ATOM      7  O   UNL     1     131.890 129.703 112.500  1.00  0.00    -0.493 OA
ATOM      8  C   UNL     1     131.881 128.659 113.468  1.00  0.00     0.278 C 
ENDBRANCH   1   7
BRANCH   2   9
ATOM      9  O   UNL     1     131.096 132.054 113.708  1.00  0.00    -0.504 OA
ATOM     10  H   UNL     1     132.093 132.215 113.625  1.00  0.00     0.293 HD
ENDBRANCH   2   9
BRANCH   5  11
ATOM     11  C   UNL     1     128.015 129.975 109.374  1.00  0.00     0.062 C 
BRANCH  11  12
ATOM     12  C   UNL     1     128.446 128.574 109.046  1.00  0.00    -0.030 C 
ATOM     13  C   UNL     1     128.430 128.108 107.794  1.00  0.00     0.004 C 
ENDBRANCH  11  12
ENDBRANCH   5  11
TORSDOF 4
ENDMDL
MODEL 9
REMARK VINA RESULT:    -5.047      2.297      3.637
REMARK INTER + INTRA:          -6.288
REMARK INTER:                  -6.074
REMARK INTRA:                  -0.215
REMARK UNBOUND:                -0.209
REMARK SMILES C=CCc1ccc(O)c(OC)c1
REMARK SMILES IDX 9 1 7 2 6 3 5 4 4 5 12 6 10 7 11 8 8 9 3 11 2 12 1 13
REMARK H PARENT 8 10
REMARK Flexibility Score: inf
ROOT
ATOM      1  C   UNL     1     130.547 130.855 113.136  1.00  0.00     0.160 A 
ATOM      2  C   UNL     1     131.160 129.600 113.021  1.00  0.00     0.157 A 
ATOM      3  C   UNL     1     130.893 128.785 111.913  1.00  0.00     0.050 A 
ATOM      4  C   UNL     1     130.014 129.217 110.917  1.00  0.00     0.008 A 
ATOM      5  C   UNL     1     129.385 130.466 111.023  1.00  0.00    -0.040 A 
ATOM      6  C   UNL     1     129.661 131.286 112.129  1.00  0.00     0.054 A 
ENDROOT
BRANCH   1   7
ATOM      7  O   UNL     1     130.843 131.644 114.259  1.00  0.00    -0.493 OA
ATOM      8  C   UNL     1     130.504 133.021 114.389  1.00  0.00     0.278 C 
ENDBRANCH   1   7
BRANCH   2   9
ATOM      9  O   UNL     1     132.037 129.167 114.015  1.00  0.00    -0.504 OA
ATOM     10  H   UNL     1     132.081 128.195 114.298  1.00  0.00     0.293 HD
ENDBRANCH   2   9
BRANCH   5  11
ATOM     11  C   UNL     1     128.460 130.946 109.936  1.00  0.00     0.062 C 
BRANCH  11  12
ATOM     12  C   UNL     1     127.730 129.791 109.310  1.00  0.00    -0.030 C 
ATOM     13  C   UNL     1     126.422 129.847 109.044  1.00  0.00     0.004 C 
ENDBRANCH  11  12
ENDBRANCH   5  11
TORSDOF 4
ENDMDL
