MODEL 1
REMARK VINA RESULT:    -3.210      0.000      0.000
REMARK INTER + INTRA:          -7.950
REMARK INTER:                  -5.650
REMARK INTRA:                  -2.300
REMARK UNBOUND:                -2.300
REMARK SMILES CCCCCCC=CCCCCCCCC(=O)[O-]
REMARK SMILES IDX 10 1 11 2 12 3 13 4 14 5 15 6 16 7 17 8 18 9 9 10 8 11 7 12
REMARK SMILES IDX 6 13 5 14 4 15 3 16 2 17 1 18
REMARK H PARENT
REMARK Flexibility Score: inf
ROOT
ATOM      1  C   UNL     1      28.734  59.659  86.769  1.00  0.00     0.004 C 
ENDROOT
BRANCH   1   2
ATOM      2  C   UNL     1      29.008  58.165  87.010  1.00  0.00     0.000 C 
BRANCH   2   3
ATOM      3  C   UNL     1      29.117  57.365  85.702  1.00  0.00     0.000 C 
BRANCH   3   4
ATOM      4  C   UNL     1      29.921  58.103  84.620  1.00  0.00     0.000 C 
BRANCH   4   5
ATOM      5  C   UNL     1      29.917  57.317  83.302  1.00  0.00     0.006 C 
BRANCH   5   6
ATOM      6  C   UNL     1      30.286  58.221  82.123  1.00  0.00     0.053 C 
BRANCH   6   7
ATOM      7  C   UNL     1      31.768  58.246  81.924  1.00  0.00     0.041 C 
ATOM      8  O   UNL     1      32.497  57.384  82.483  1.00  0.00    -0.550 OA
ATOM      9  O   UNL     1      32.351  59.251  81.164  1.00  0.00    -0.550 OA
ENDBRANCH   6   7
ENDBRANCH   5   6
ENDBRANCH   4   5
ENDBRANCH   3   4
ENDBRANCH   2   3
ENDBRANCH   1   2
BRANCH   1  10
ATOM     10  C   UNL     1      27.605  60.191  87.664  1.00  0.00     0.027 C 
BRANCH  10  11
ATOM     11  C   UNL     1      26.890  59.078  88.391  1.00  0.00    -0.031 C 
ATOM     12  C   UNL     1      25.771  58.472  87.951  1.00  0.00    -0.031 C 
BRANCH  12  13
ATOM     13  C   UNL     1      25.010  58.874  86.711  1.00  0.00     0.027 C 
BRANCH  13  14
ATOM     14  C   UNL     1      25.468  58.092  85.463  1.00  0.00     0.004 C 
BRANCH  14  15
ATOM     15  C   UNL     1      25.983  58.987  84.322  1.00  0.00     0.000 C 
BRANCH  15  16
ATOM     16  C   UNL     1      25.655  60.474  84.537  1.00  0.00    -0.000 C 
BRANCH  16  17
ATOM     17  C   UNL     1      26.807  61.398  84.112  1.00  0.00    -0.003 C 
ATOM     18  C   UNL     1      27.718  60.764  83.060  1.00  0.00     0.004 C 
ENDBRANCH  16  17
ENDBRANCH  15  16
ENDBRANCH  14  15
ENDBRANCH  13  14
ENDBRANCH  12  13
ENDBRANCH  10  11
ENDBRANCH   1  10
TORSDOF 13
ENDMDL
MODEL 2
REMARK VINA RESULT:    -3.170      1.502      2.316
REMARK INTER + INTRA:          -7.879
REMARK INTER:                  -6.217
REMARK INTRA:                  -1.662
REMARK UNBOUND:                -2.300
REMARK SMILES CCCCCCC=CCCCCCCCC(=O)[O-]
REMARK SMILES IDX 10 1 11 2 12 3 13 4 14 5 15 6 16 7 17 8 18 9 9 10 8 11 7 12
REMARK SMILES IDX 6 13 5 14 4 15 3 16 2 17 1 18
REMARK H PARENT
REMARK Flexibility Score: inf
ROOT
ATOM      1  C   UNL     1      28.109  57.869  88.389  1.00  0.00     0.004 C 
ENDROOT
BRANCH   1   2
ATOM      2  C   UNL     1      28.432  57.282  87.003  1.00  0.00     0.000 C 
BRANCH   2   3
ATOM      3  C   UNL     1      29.928  57.362  86.662  1.00  0.00     0.000 C 
BRANCH   3   4
ATOM      4  C   UNL     1      30.238  58.429  85.600  1.00  0.00     0.000 C 
BRANCH   4   5
ATOM      5  C   UNL     1      29.647  58.036  84.239  1.00  0.00     0.006 C 
BRANCH   5   6
ATOM      6  C   UNL     1      30.150  58.967  83.132  1.00  0.00     0.053 C 
BRANCH   6   7
ATOM      7  C   UNL     1      31.043  58.225  82.189  1.00  0.00     0.041 C 
ATOM      8  O   UNL     1      32.095  57.676  82.612  1.00  0.00    -0.550 OA
ATOM      9  O   UNL     1      30.741  58.183  80.834  1.00  0.00    -0.550 OA
ENDBRANCH   6   7
ENDBRANCH   5   6
ENDBRANCH   4   5
ENDBRANCH   3   4
ENDBRANCH   2   3
ENDBRANCH   1   2
BRANCH   1  10
ATOM     10  C   UNL     1      27.094  59.018  88.307  1.00  0.00     0.027 C 
BRANCH  10  11
ATOM     11  C   UNL     1      27.757  60.335  87.981  1.00  0.00    -0.031 C 
ATOM     12  C   UNL     1      27.680  60.956  86.788  1.00  0.00    -0.031 C 
BRANCH  12  13
ATOM     13  C   UNL     1      26.996  60.387  85.570  1.00  0.00     0.027 C 
BRANCH  13  14
ATOM     14  C   UNL     1      26.780  61.447  84.470  1.00  0.00     0.004 C 
BRANCH  14  15
ATOM     15  C   UNL     1      26.742  60.867  83.045  1.00  0.00     0.000 C 
BRANCH  15  16
ATOM     16  C   UNL     1      27.716  61.574  82.088  1.00  0.00    -0.000 C 
BRANCH  16  17
ATOM     17  C   UNL     1      27.013  62.141  80.845  1.00  0.00    -0.003 C 
ATOM     18  C   UNL     1      27.544  61.546  79.541  1.00  0.00     0.004 C 
ENDBRANCH  16  17
ENDBRANCH  15  16
ENDBRANCH  14  15
ENDBRANCH  13  14
ENDBRANCH  12  13
ENDBRANCH  10  11
ENDBRANCH   1  10
TORSDOF 13
ENDMDL
MODEL 3
REMARK VINA RESULT:    -3.085      2.009      3.522
REMARK INTER + INTRA:          -7.729
REMARK INTER:                  -6.071
REMARK INTRA:                  -1.658
REMARK UNBOUND:                -2.300
REMARK SMILES CCCCCCC=CCCCCCCCC(=O)[O-]
REMARK SMILES IDX 10 1 11 2 12 3 13 4 14 5 15 6 16 7 17 8 18 9 9 10 8 11 7 12
REMARK SMILES IDX 6 13 5 14 4 15 3 16 2 17 1 18
REMARK H PARENT
REMARK Flexibility Score: inf
ROOT
ATOM      1  C   UNL     1      27.947  60.625  87.450  1.00  0.00     0.004 C 
ENDROOT
BRANCH   1   2
ATOM      2  C   UNL     1      27.136  59.428  87.974  1.00  0.00     0.000 C 
BRANCH   2   3
ATOM      3  C   UNL     1      28.006  58.183  88.211  1.00  0.00     0.000 C 
BRANCH   3   4
ATOM      4  C   UNL     1      28.296  57.407  86.917  1.00  0.00     0.000 C 
BRANCH   4   5
ATOM      5  C   UNL     1      29.802  57.373  86.622  1.00  0.00     0.006 C 
BRANCH   5   6
ATOM      6  C   UNL     1      30.179  58.417  85.567  1.00  0.00     0.053 C 
BRANCH   6   7
ATOM      7  C   UNL     1      31.038  57.804  84.507  1.00  0.00     0.041 C 
ATOM      8  O   UNL     1      30.610  57.699  83.327  1.00  0.00    -0.550 OA
ATOM      9  O   UNL     1      32.291  57.302  84.832  1.00  0.00    -0.550 OA
ENDBRANCH   6   7
ENDBRANCH   5   6
ENDBRANCH   4   5
ENDBRANCH   3   4
ENDBRANCH   2   3
ENDBRANCH   1   2
BRANCH   1  10
ATOM     10  C   UNL     1      27.337  61.221  86.173  1.00  0.00     0.027 C 
BRANCH  10  11
ATOM     11  C   UNL     1      26.437  60.237  85.466  1.00  0.00    -0.031 C 
ATOM     12  C   UNL     1      26.658  59.748  84.230  1.00  0.00    -0.031 C 
BRANCH  12  13
ATOM     13  C   UNL     1      27.790  60.179  83.329  1.00  0.00     0.027 C 
BRANCH  13  14
ATOM     14  C   UNL     1      27.518  61.539  82.656  1.00  0.00     0.004 C 
BRANCH  14  15
ATOM     15  C   UNL     1      26.130  61.642  81.998  1.00  0.00     0.000 C 
BRANCH  15  16
ATOM     16  C   UNL     1      26.204  62.003  80.505  1.00  0.00    -0.000 C 
BRANCH  16  17
ATOM     17  C   UNL     1      27.595  61.745  79.905  1.00  0.00    -0.003 C 
ATOM     18  C   UNL     1      27.551  61.473  78.401  1.00  0.00     0.004 C 
ENDBRANCH  16  17
ENDBRANCH  15  16
ENDBRANCH  14  15
ENDBRANCH  13  14
ENDBRANCH  12  13
ENDBRANCH  10  11
ENDBRANCH   1  10
TORSDOF 13
ENDMDL
MODEL 4
REMARK VINA RESULT:    -3.074      1.256      3.448
REMARK INTER + INTRA:          -7.710
REMARK INTER:                  -5.152
REMARK INTRA:                  -2.558
REMARK UNBOUND:                -2.300
REMARK SMILES CCCCCCC=CCCCCCCCC(=O)[O-]
REMARK SMILES IDX 10 1 11 2 12 3 13 4 14 5 15 6 16 7 17 8 18 9 9 10 8 11 7 12
REMARK SMILES IDX 6 13 5 14 4 15 3 16 2 17 1 18
REMARK H PARENT
REMARK Flexibility Score: inf
ROOT
ATOM      1  C   UNL     1      25.825  60.537  84.730  1.00  0.00     0.004 C 
ENDROOT
BRANCH   1   2
ATOM      2  C   UNL     1      26.061  59.327  83.811  1.00  0.00     0.000 C 
BRANCH   2   3
ATOM      3  C   UNL     1      27.468  59.321  83.191  1.00  0.00     0.000 C 
BRANCH   3   4
ATOM      4  C   UNL     1      28.172  57.963  83.329  1.00  0.00     0.000 C 
BRANCH   4   5
ATOM      5  C   UNL     1      29.696  58.136  83.358  1.00  0.00     0.006 C 
BRANCH   5   6
ATOM      6  C   UNL     1      30.352  57.434  82.165  1.00  0.00     0.053 C 
BRANCH   6   7
ATOM      7  C   UNL     1      30.927  58.439  81.218  1.00  0.00     0.041 C 
ATOM      8  O   UNL     1      32.096  58.876  81.391  1.00  0.00    -0.550 OA
ATOM      9  O   UNL     1      30.155  58.933  80.174  1.00  0.00    -0.550 OA
ENDBRANCH   6   7
ENDBRANCH   5   6
ENDBRANCH   4   5
ENDBRANCH   3   4
ENDBRANCH   2   3
ENDBRANCH   1   2
BRANCH   1  10
ATOM     10  C   UNL     1      27.142  61.185  85.183  1.00  0.00     0.027 C 
BRANCH  10  11
ATOM     11  C   UNL     1      27.312  61.126  86.682  1.00  0.00    -0.031 C 
ATOM     12  C   UNL     1      28.153  60.293  87.325  1.00  0.00    -0.031 C 
BRANCH  12  13
ATOM     13  C   UNL     1      28.984  59.229  86.651  1.00  0.00     0.027 C 
BRANCH  13  14
ATOM     14  C   UNL     1      28.788  57.839  87.292  1.00  0.00     0.004 C 
BRANCH  14  15
ATOM     15  C   UNL     1      27.350  57.572  87.770  1.00  0.00     0.000 C 
BRANCH  15  16
ATOM     16  C   UNL     1      26.452  56.994  86.664  1.00  0.00    -0.000 C 
BRANCH  16  17
ATOM     17  C   UNL     1      24.995  57.467  86.782  1.00  0.00    -0.003 C 
ATOM     18  C   UNL     1      24.790  58.479  87.910  1.00  0.00     0.004 C 
ENDBRANCH  16  17
ENDBRANCH  15  16
ENDBRANCH  14  15
ENDBRANCH  13  14
ENDBRANCH  12  13
ENDBRANCH  10  11
ENDBRANCH   1  10
TORSDOF 13
ENDMDL
MODEL 5
REMARK VINA RESULT:    -3.073      1.259      3.124
REMARK INTER + INTRA:          -7.708
REMARK INTER:                  -5.581
REMARK INTRA:                  -2.127
REMARK UNBOUND:                -2.300
REMARK SMILES CCCCCCC=CCCCCCCCC(=O)[O-]
REMARK SMILES IDX 10 1 11 2 12 3 13 4 14 5 15 6 16 7 17 8 18 9 9 10 8 11 7 12
REMARK SMILES IDX 6 13 5 14 4 15 3 16 2 17 1 18
REMARK H PARENT
REMARK Flexibility Score: inf
ROOT
ATOM      1  C   UNL     1      26.753  61.311  83.364  1.00  0.00     0.004 C 
ENDROOT
BRANCH   1   2
ATOM      2  C   UNL     1      27.842  60.261  83.644  1.00  0.00     0.000 C 
BRANCH   2   3
ATOM      3  C   UNL     1      27.701  59.013  82.759  1.00  0.00     0.000 C 
BRANCH   3   4
ATOM      4  C   UNL     1      28.642  57.875  83.183  1.00  0.00     0.000 C 
BRANCH   4   5
ATOM      5  C   UNL     1      30.047  58.411  83.490  1.00  0.00     0.006 C 
BRANCH   5   6
ATOM      6  C   UNL     1      31.110  57.658  82.685  1.00  0.00     0.053 C 
BRANCH   6   7
ATOM      7  C   UNL     1      31.555  58.472  81.512  1.00  0.00     0.041 C 
ATOM      8  O   UNL     1      32.742  58.887  81.442  1.00  0.00    -0.550 OA
ATOM      9  O   UNL     1      30.645  58.819  80.521  1.00  0.00    -0.550 OA
ENDBRANCH   6   7
ENDBRANCH   5   6
ENDBRANCH   4   5
ENDBRANCH   3   4
ENDBRANCH   2   3
ENDBRANCH   1   2
BRANCH   1  10
ATOM     10  C   UNL     1      25.650  61.296  84.432  1.00  0.00     0.027 C 
BRANCH  10  11
ATOM     11  C   UNL     1      24.599  60.251  84.143  1.00  0.00    -0.031 C 
ATOM     12  C   UNL     1      24.301  59.219  84.955  1.00  0.00    -0.031 C 
BRANCH  12  13
ATOM     13  C   UNL     1      25.035  58.898  86.234  1.00  0.00     0.027 C 
BRANCH  13  14
ATOM     14  C   UNL     1      26.221  57.939  86.004  1.00  0.00     0.004 C 
BRANCH  14  15
ATOM     15  C   UNL     1      27.210  57.879  87.181  1.00  0.00     0.000 C 
BRANCH  15  16
ATOM     16  C   UNL     1      27.359  59.228  87.903  1.00  0.00    -0.000 C 
BRANCH  16  17
ATOM     17  C   UNL     1      28.354  60.165  87.200  1.00  0.00    -0.003 C 
ATOM     18  C   UNL     1      28.065  61.643  87.464  1.00  0.00     0.004 C 
ENDBRANCH  16  17
ENDBRANCH  15  16
ENDBRANCH  14  15
ENDBRANCH  13  14
ENDBRANCH  12  13
ENDBRANCH  10  11
ENDBRANCH   1  10
TORSDOF 13
ENDMDL
MODEL 6
REMARK VINA RESULT:    -3.070      1.698      4.316
REMARK INTER + INTRA:          -7.703
REMARK INTER:                  -5.786
REMARK INTRA:                  -1.917
REMARK UNBOUND:                -2.300
REMARK SMILES CCCCCCC=CCCCCCCCC(=O)[O-]
REMARK SMILES IDX 10 1 11 2 12 3 13 4 14 5 15 6 16 7 17 8 18 9 9 10 8 11 7 12
REMARK SMILES IDX 6 13 5 14 4 15 3 16 2 17 1 18
REMARK H PARENT
REMARK Flexibility Score: inf
ROOT
ATOM      1  C   UNL     1      27.702  61.687  82.472  1.00  0.00     0.004 C 
ENDROOT
BRANCH   1   2
ATOM      2  C   UNL     1      26.755  61.843  81.270  1.00  0.00     0.000 C 
BRANCH   2   3
ATOM      3  C   UNL     1      27.212  61.030  80.048  1.00  0.00     0.000 C 
BRANCH   3   4
ATOM      4  C   UNL     1      27.738  59.637  80.426  1.00  0.00     0.000 C 
BRANCH   4   5
ATOM      5  C   UNL     1      29.136  59.400  79.838  1.00  0.00     0.006 C 
BRANCH   5   6
ATOM      6  C   UNL     1      29.605  57.965  80.098  1.00  0.00     0.053 C 
BRANCH   6   7
ATOM      7  C   UNL     1      30.676  57.944  81.141  1.00  0.00     0.041 C 
ATOM      8  O   UNL     1      30.758  56.979  81.946  1.00  0.00    -0.550 OA
ATOM      9  O   UNL     1      31.552  59.016  81.260  1.00  0.00    -0.550 OA
ENDBRANCH   6   7
ENDBRANCH   5   6
ENDBRANCH   4   5
ENDBRANCH   3   4
ENDBRANCH   2   3
ENDBRANCH   1   2
BRANCH   1  10
ATOM     10  C   UNL     1      26.938  61.430  83.779  1.00  0.00     0.027 C 
BRANCH  10  11
ATOM     11  C   UNL     1      26.355  60.038  83.828  1.00  0.00    -0.031 C 
ATOM     12  C   UNL     1      27.076  58.912  83.991  1.00  0.00    -0.031 C 
BRANCH  12  13
ATOM     13  C   UNL     1      28.583  58.863  84.057  1.00  0.00     0.027 C 
BRANCH  13  14
ATOM     14  C   UNL     1      29.090  58.074  85.282  1.00  0.00     0.004 C 
BRANCH  14  15
ATOM     15  C   UNL     1      29.290  58.938  86.540  1.00  0.00     0.000 C 
BRANCH  15  16
ATOM     16  C   UNL     1      28.175  58.741  87.581  1.00  0.00    -0.000 C 
BRANCH  16  17
ATOM     17  C   UNL     1      27.347  60.017  87.805  1.00  0.00    -0.003 C 
ATOM     18  C   UNL     1      28.070  61.281  87.340  1.00  0.00     0.004 C 
ENDBRANCH  16  17
ENDBRANCH  15  16
ENDBRANCH  14  15
ENDBRANCH  13  14
ENDBRANCH  12  13
ENDBRANCH  10  11
ENDBRANCH   1  10
TORSDOF 13
ENDMDL
MODEL 7
REMARK VINA RESULT:    -3.011      2.021      4.067
REMARK INTER + INTRA:          -7.600
REMARK INTER:                  -5.571
REMARK INTRA:                  -2.029
REMARK UNBOUND:                -2.300
REMARK SMILES CCCCCCC=CCCCCCCCC(=O)[O-]
REMARK SMILES IDX 10 1 11 2 12 3 13 4 14 5 15 6 16 7 17 8 18 9 9 10 8 11 7 12
REMARK SMILES IDX 6 13 5 14 4 15 3 16 2 17 1 18
REMARK H PARENT
REMARK Flexibility Score: inf
ROOT
ATOM      1  C   UNL     1      27.397  61.077  86.179  1.00  0.00     0.004 C 
ENDROOT
BRANCH   1   2
ATOM      2  C   UNL     1      26.301  60.152  85.622  1.00  0.00     0.000 C 
BRANCH   2   3
ATOM      3  C   UNL     1      26.308  60.086  84.086  1.00  0.00     0.000 C 
BRANCH   3   4
ATOM      4  C   UNL     1      26.346  61.476  83.433  1.00  0.00     0.000 C 
BRANCH   4   5
ATOM      5  C   UNL     1      27.575  61.622  82.526  1.00  0.00     0.006 C 
BRANCH   5   6
ATOM      6  C   UNL     1      27.178  61.566  81.048  1.00  0.00     0.053 C 
BRANCH   6   7
ATOM      7  C   UNL     1      27.670  60.300  80.421  1.00  0.00     0.041 C 
ATOM      8  O   UNL     1      28.551  60.340  79.521  1.00  0.00    -0.550 OA
ATOM      9  O   UNL     1      27.119  59.081  80.792  1.00  0.00    -0.550 OA
ENDBRANCH   6   7
ENDBRANCH   5   6
ENDBRANCH   4   5
ENDBRANCH   3   4
ENDBRANCH   2   3
ENDBRANCH   1   2
BRANCH   1  10
ATOM     10  C   UNL     1      27.946  60.579  87.524  1.00  0.00     0.027 C 
BRANCH  10  11
ATOM     11  C   UNL     1      27.163  59.400  88.050  1.00  0.00    -0.031 C 
ATOM     12  C   UNL     1      27.608  58.129  88.062  1.00  0.00    -0.031 C 
BRANCH  12  13
ATOM     13  C   UNL     1      28.920  57.676  87.469  1.00  0.00     0.027 C 
BRANCH  13  14
ATOM     14  C   UNL     1      28.810  57.379  85.959  1.00  0.00     0.004 C 
BRANCH  14  15
ATOM     15  C   UNL     1      29.678  58.296  85.079  1.00  0.00     0.000 C 
BRANCH  15  16
ATOM     16  C   UNL     1      29.392  58.124  83.578  1.00  0.00    -0.000 C 
BRANCH  16  17
ATOM     17  C   UNL     1      30.223  59.081  82.708  1.00  0.00    -0.003 C 
ATOM     18  C   UNL     1      31.046  58.353  81.646  1.00  0.00     0.004 C 
ENDBRANCH  16  17
ENDBRANCH  15  16
ENDBRANCH  14  15
ENDBRANCH  13  14
ENDBRANCH  12  13
ENDBRANCH  10  11
ENDBRANCH   1  10
TORSDOF 13
ENDMDL
MODEL 8
REMARK VINA RESULT:    -3.010      2.756      5.363
REMARK INTER + INTRA:          -7.598
REMARK INTER:                  -5.316
REMARK INTRA:                  -2.282
REMARK UNBOUND:                -2.300
REMARK SMILES CCCCCCC=CCCCCCCCC(=O)[O-]
REMARK SMILES IDX 10 1 11 2 12 3 13 4 14 5 15 6 16 7 17 8 18 9 9 10 8 11 7 12
REMARK SMILES IDX 6 13 5 14 4 15 3 16 2 17 1 18
REMARK H PARENT
REMARK Flexibility Score: inf
ROOT
ATOM      1  C   UNL     1      26.588  59.434  83.777  1.00  0.00     0.004 C 
ENDROOT
BRANCH   1   2
ATOM      2  C   UNL     1      26.947  60.913  83.553  1.00  0.00     0.000 C 
BRANCH   2   3
ATOM      3  C   UNL     1      25.778  61.724  82.972  1.00  0.00     0.000 C 
BRANCH   3   4
ATOM      4  C   UNL     1      25.781  61.752  81.436  1.00  0.00     0.000 C 
BRANCH   4   5
ATOM      5  C   UNL     1      27.215  61.795  80.891  1.00  0.00     0.006 C 
BRANCH   5   6
ATOM      6  C   UNL     1      27.451  60.671  79.878  1.00  0.00     0.053 C 
BRANCH   6   7
ATOM      7  C   UNL     1      27.781  61.238  78.533  1.00  0.00     0.041 C 
ATOM      8  O   UNL     1      28.947  61.133  78.071  1.00  0.00    -0.550 OA
ATOM      9  O   UNL     1      26.814  61.928  77.814  1.00  0.00    -0.550 OA
ENDBRANCH   6   7
ENDBRANCH   5   6
ENDBRANCH   4   5
ENDBRANCH   3   4
ENDBRANCH   2   3
ENDBRANCH   1   2
BRANCH   1  10
ATOM     10  C   UNL     1      27.632  58.487  83.168  1.00  0.00     0.027 C 
BRANCH  10  11
ATOM     11  C   UNL     1      28.961  59.174  82.958  1.00  0.00    -0.031 C 
ATOM     12  C   UNL     1      30.130  58.754  83.478  1.00  0.00    -0.031 C 
BRANCH  12  13
ATOM     13  C   UNL     1      30.276  57.586  84.424  1.00  0.00     0.027 C 
BRANCH  13  14
ATOM     14  C   UNL     1      30.318  58.030  85.901  1.00  0.00     0.004 C 
BRANCH  14  15
ATOM     15  C   UNL     1      29.114  57.549  86.729  1.00  0.00     0.000 C 
BRANCH  15  16
ATOM     16  C   UNL     1      28.127  58.682  87.058  1.00  0.00    -0.000 C 
BRANCH  16  17
ATOM     17  C   UNL     1      28.778  60.072  86.976  1.00  0.00    -0.003 C 
ATOM     18  C   UNL     1      27.770  61.209  87.149  1.00  0.00     0.004 C 
ENDBRANCH  16  17
ENDBRANCH  15  16
ENDBRANCH  14  15
ENDBRANCH  13  14
ENDBRANCH  12  13
ENDBRANCH  10  11
ENDBRANCH   1  10
TORSDOF 13
ENDMDL
