MODEL 1
REMARK VINA RESULT:    -3.255      0.000      0.000
REMARK INTER + INTRA:         -11.831
REMARK INTER:                  -7.440
REMARK INTRA:                  -4.391
REMARK UNBOUND:                -4.391
REMARK SMILES CCCCCCCCCCCCCCCCCCCCCCCC(=O)[O-]
REMARK SMILES IDX 13 1 14 2 15 3 16 4 17 5 18 6 19 7 20 8 21 9 22 10 23 11
REMARK SMILES IDX 24 12 25 13 26 14 12 15 11 16 10 17 9 18 8 19 7 20 6 21 5 22
REMARK SMILES IDX 4 23 3 24 2 25 1 26
REMARK H PARENT
REMARK Flexibility Score: inf
ROOT
ATOM      1  C   UNL     1     -18.833  28.726  21.333  1.00  0.00     0.000 C 
ENDROOT
BRANCH   1   2
ATOM      2  C   UNL     1     -19.713  29.666  20.493  1.00  0.00     0.000 C 
BRANCH   2   3
ATOM      3  C   UNL     1     -20.286  28.978  19.240  1.00  0.00     0.000 C 
BRANCH   3   4
ATOM      4  C   UNL     1     -21.819  28.811  19.303  1.00  0.00     0.000 C 
BRANCH   4   5
ATOM      5  C   UNL     1     -22.462  29.430  20.559  1.00  0.00     0.000 C 
BRANCH   5   6
ATOM      6  C   UNL     1     -23.113  28.423  21.527  1.00  0.00     0.000 C 
BRANCH   6   7
ATOM      7  C   UNL     1     -22.418  28.299  22.896  1.00  0.00     0.000 C 
BRANCH   7   8
ATOM      8  C   UNL     1     -21.546  27.037  23.010  1.00  0.00     0.000 C 
BRANCH   8   9
ATOM      9  C   UNL     1     -21.792  26.042  21.863  1.00  0.00     0.000 C 
BRANCH   9  10
ATOM     10  C   UNL     1     -20.485  25.583  21.194  1.00  0.00     0.006 C 
BRANCH  10  11
ATOM     11  C   UNL     1     -20.660  25.342  19.688  1.00  0.00     0.053 C 
BRANCH  11  12
ATOM     12  C   UNL     1     -19.893  24.143  19.222  1.00  0.00     0.041 C 
ATOM     13  O   UNL     1     -20.291  23.483  18.228  1.00  0.00    -0.550 OA
ATOM     14  O   UNL     1     -18.745  23.746  19.896  1.00  0.00    -0.550 OA
ENDBRANCH  11  12
ENDBRANCH  10  11
ENDBRANCH   9  10
ENDBRANCH   8   9
ENDBRANCH   7   8
ENDBRANCH   6   7
ENDBRANCH   5   6
ENDBRANCH   4   5
ENDBRANCH   3   4
ENDBRANCH   2   3
ENDBRANCH   1   2
BRANCH   1  15
ATOM     15  C   UNL     1     -18.263  29.408  22.588  1.00  0.00     0.000 C 
BRANCH  15  16
ATOM     16  C   UNL     1     -19.321  30.271  23.310  1.00  0.00     0.000 C 
BRANCH  16  17
ATOM     17  C   UNL     1     -18.846  31.706  23.596  1.00  0.00     0.000 C 
BRANCH  17  18
ATOM     18  C   UNL     1     -19.959  32.750  23.406  1.00  0.00    -0.000 C 
BRANCH  18  19
ATOM     19  C   UNL     1     -21.088  32.258  22.483  1.00  0.00    -0.000 C 
BRANCH  19  20
ATOM     20  C   UNL     1     -22.500  32.290  23.103  1.00  0.00    -0.000 C 
BRANCH  20  21
ATOM     21  C   UNL     1     -23.634  32.664  22.128  1.00  0.00    -0.000 C 
BRANCH  21  22
ATOM     22  C   UNL     1     -23.176  32.982  20.694  1.00  0.00    -0.000 C 
BRANCH  22  23
ATOM     23  C   UNL     1     -23.369  34.461  20.322  1.00  0.00    -0.000 C 
BRANCH  23  24
ATOM     24  C   UNL     1     -22.133  35.290  20.703  1.00  0.00    -0.000 C 
BRANCH  24  25
ATOM     25  C   UNL     1     -22.449  36.372  21.750  1.00  0.00    -0.003 C 
ATOM     26  C   UNL     1     -21.953  36.006  23.148  1.00  0.00     0.004 C 
ENDBRANCH  24  25
ENDBRANCH  23  24
ENDBRANCH  22  23
ENDBRANCH  21  22
ENDBRANCH  20  21
ENDBRANCH  19  20
ENDBRANCH  18  19
ENDBRANCH  17  18
ENDBRANCH  16  17
ENDBRANCH  15  16
ENDBRANCH   1  15
TORSDOF 22
ENDMDL
MODEL 2
REMARK VINA RESULT:    -3.171      2.448      4.960
REMARK INTER + INTRA:         -11.640
REMARK INTER:                  -9.030
REMARK INTRA:                  -2.610
REMARK UNBOUND:                -4.391
REMARK SMILES CCCCCCCCCCCCCCCCCCCCCCCC(=O)[O-]
REMARK SMILES IDX 13 1 14 2 15 3 16 4 17 5 18 6 19 7 20 8 21 9 22 10 23 11
REMARK SMILES IDX 24 12 25 13 26 14 12 15 11 16 10 17 9 18 8 19 7 20 6 21 5 22
REMARK SMILES IDX 4 23 3 24 2 25 1 26
REMARK H PARENT
REMARK Flexibility Score: inf
ROOT
ATOM      1  C   UNL     1     -22.140  32.209  23.357  1.00  0.00     0.000 C 
ENDROOT
BRANCH   1   2
ATOM      2  C   UNL     1     -20.770  32.071  22.675  1.00  0.00     0.000 C 
BRANCH   2   3
ATOM      3  C   UNL     1     -19.691  32.952  23.332  1.00  0.00     0.000 C 
BRANCH   3   4
ATOM      4  C   UNL     1     -18.520  32.127  23.908  1.00  0.00     0.000 C 
BRANCH   4   5
ATOM      5  C   UNL     1     -18.744  30.603  23.847  1.00  0.00     0.000 C 
BRANCH   5   6
ATOM      6  C   UNL     1     -17.542  29.784  23.339  1.00  0.00     0.000 C 
BRANCH   6   7
ATOM      7  C   UNL     1     -17.908  28.579  22.451  1.00  0.00     0.000 C 
BRANCH   7   8
ATOM      8  C   UNL     1     -19.308  28.705  21.825  1.00  0.00     0.000 C 
BRANCH   8   9
ATOM      9  C   UNL     1     -19.304  29.528  20.527  1.00  0.00     0.000 C 
BRANCH   9  10
ATOM     10  C   UNL     1     -20.403  29.084  19.546  1.00  0.00     0.006 C 
BRANCH  10  11
ATOM     11  C   UNL     1     -20.903  27.663  19.842  1.00  0.00     0.053 C 
BRANCH  11  12
ATOM     12  C   UNL     1     -22.398  27.586  19.835  1.00  0.00     0.041 C 
ATOM     13  O   UNL     1     -22.987  26.754  19.096  1.00  0.00    -0.550 OA
ATOM     14  O   UNL     1     -23.144  28.443  20.635  1.00  0.00    -0.550 OA
ENDBRANCH  11  12
ENDBRANCH  10  11
ENDBRANCH   9  10
ENDBRANCH   8   9
ENDBRANCH   7   8
ENDBRANCH   6   7
ENDBRANCH   5   6
ENDBRANCH   4   5
ENDBRANCH   3   4
ENDBRANCH   2   3
ENDBRANCH   1   2
BRANCH   1  15
ATOM     15  C   UNL     1     -23.309  31.855  22.422  1.00  0.00     0.000 C 
BRANCH  15  16
ATOM     16  C   UNL     1     -23.046  32.307  20.969  1.00  0.00     0.000 C 
BRANCH  16  17
ATOM     17  C   UNL     1     -23.614  33.700  20.650  1.00  0.00     0.000 C 
BRANCH  17  18
ATOM     18  C   UNL     1     -22.580  34.629  19.992  1.00  0.00    -0.000 C 
BRANCH  18  19
ATOM     19  C   UNL     1     -21.581  35.221  21.003  1.00  0.00    -0.000 C 
BRANCH  19  20
ATOM     20  C   UNL     1     -22.218  35.864  22.252  1.00  0.00    -0.000 C 
BRANCH  20  21
ATOM     21  C   UNL     1     -22.662  37.330  22.079  1.00  0.00    -0.000 C 
BRANCH  21  22
ATOM     22  C   UNL     1     -22.077  38.310  23.111  1.00  0.00    -0.000 C 
BRANCH  22  23
ATOM     23  C   UNL     1     -21.944  39.740  22.565  1.00  0.00    -0.000 C 
BRANCH  23  24
ATOM     24  C   UNL     1     -22.309  39.797  21.074  1.00  0.00    -0.000 C 
BRANCH  24  25
ATOM     25  C   UNL     1     -21.848  41.102  20.404  1.00  0.00    -0.003 C 
ATOM     26  C   UNL     1     -20.329  41.275  20.429  1.00  0.00     0.004 C 
ENDBRANCH  24  25
ENDBRANCH  23  24
ENDBRANCH  22  23
ENDBRANCH  21  22
ENDBRANCH  20  21
ENDBRANCH  19  20
ENDBRANCH  18  19
ENDBRANCH  17  18
ENDBRANCH  16  17
ENDBRANCH  15  16
ENDBRANCH   1  15
TORSDOF 22
ENDMDL
MODEL 3
REMARK VINA RESULT:    -3.126      1.502      2.100
REMARK INTER + INTRA:         -11.538
REMARK INTER:                  -8.026
REMARK INTRA:                  -3.512
REMARK UNBOUND:                -4.391
REMARK SMILES CCCCCCCCCCCCCCCCCCCCCCCC(=O)[O-]
REMARK SMILES IDX 13 1 14 2 15 3 16 4 17 5 18 6 19 7 20 8 21 9 22 10 23 11
REMARK SMILES IDX 24 12 25 13 26 14 12 15 11 16 10 17 9 18 8 19 7 20 6 21 5 22
REMARK SMILES IDX 4 23 3 24 2 25 1 26
REMARK H PARENT
REMARK Flexibility Score: inf
ROOT
ATOM      1  C   UNL     1     -17.852  29.057  22.228  1.00  0.00     0.000 C 
ENDROOT
BRANCH   1   2
ATOM      2  C   UNL     1     -19.312  29.084  21.746  1.00  0.00     0.000 C 
BRANCH   2   3
ATOM      3  C   UNL     1     -19.452  29.630  20.313  1.00  0.00     0.000 C 
BRANCH   3   4
ATOM      4  C   UNL     1     -20.494  28.853  19.481  1.00  0.00     0.000 C 
BRANCH   4   5
ATOM      5  C   UNL     1     -20.383  27.321  19.617  1.00  0.00     0.000 C 
BRANCH   5   6
ATOM      6  C   UNL     1     -21.666  26.611  20.090  1.00  0.00     0.000 C 
BRANCH   6   7
ATOM      7  C   UNL     1     -21.780  26.427  21.615  1.00  0.00     0.000 C 
BRANCH   7   8
ATOM      8  C   UNL     1     -20.852  25.324  22.152  1.00  0.00     0.000 C 
BRANCH   8   9
ATOM      9  C   UNL     1     -19.906  25.831  23.253  1.00  0.00     0.000 C 
BRANCH   9  10
ATOM     10  C   UNL     1     -18.467  25.316  23.074  1.00  0.00     0.006 C 
BRANCH  10  11
ATOM     11  C   UNL     1     -17.970  25.475  21.630  1.00  0.00     0.053 C 
BRANCH  11  12
ATOM     12  C   UNL     1     -17.138  24.309  21.195  1.00  0.00     0.041 C 
ATOM     13  O   UNL     1     -16.193  23.899  21.918  1.00  0.00    -0.550 OA
ATOM     14  O   UNL     1     -17.397  23.683  19.982  1.00  0.00    -0.550 OA
ENDBRANCH  11  12
ENDBRANCH  10  11
ENDBRANCH   9  10
ENDBRANCH   8   9
ENDBRANCH   7   8
ENDBRANCH   6   7
ENDBRANCH   5   6
ENDBRANCH   4   5
ENDBRANCH   3   4
ENDBRANCH   2   3
ENDBRANCH   1   2
BRANCH   1  15
ATOM     15  C   UNL     1     -17.667  29.720  23.603  1.00  0.00     0.000 C 
BRANCH  15  16
ATOM     16  C   UNL     1     -18.874  30.604  23.987  1.00  0.00     0.000 C 
BRANCH  16  17
ATOM     17  C   UNL     1     -18.607  32.109  23.818  1.00  0.00     0.000 C 
BRANCH  17  18
ATOM     18  C   UNL     1     -19.779  32.851  23.154  1.00  0.00    -0.000 C 
BRANCH  18  19
ATOM     19  C   UNL     1     -21.099  32.062  23.222  1.00  0.00    -0.000 C 
BRANCH  19  20
ATOM     20  C   UNL     1     -21.742  31.743  21.857  1.00  0.00    -0.000 C 
BRANCH  20  21
ATOM     21  C   UNL     1     -23.274  31.910  21.800  1.00  0.00    -0.000 C 
BRANCH  21  22
ATOM     22  C   UNL     1     -23.801  32.625  20.543  1.00  0.00    -0.000 C 
BRANCH  22  23
ATOM     23  C   UNL     1     -23.816  34.154  20.692  1.00  0.00    -0.000 C 
BRANCH  23  24
ATOM     24  C   UNL     1     -22.610  34.788  19.982  1.00  0.00    -0.000 C 
BRANCH  24  25
ATOM     25  C   UNL     1     -21.556  35.316  20.970  1.00  0.00    -0.003 C 
ATOM     26  C   UNL     1     -22.142  35.638  22.345  1.00  0.00     0.004 C 
ENDBRANCH  24  25
ENDBRANCH  23  24
ENDBRANCH  22  23
ENDBRANCH  21  22
ENDBRANCH  20  21
ENDBRANCH  19  20
ENDBRANCH  18  19
ENDBRANCH  17  18
ENDBRANCH  16  17
ENDBRANCH  15  16
ENDBRANCH   1  15
TORSDOF 22
ENDMDL
MODEL 4
REMARK VINA RESULT:    -3.081      1.726      2.689
REMARK INTER + INTRA:         -11.435
REMARK INTER:                  -7.350
REMARK INTRA:                  -4.086
REMARK UNBOUND:                -4.391
REMARK SMILES CCCCCCCCCCCCCCCCCCCCCCCC(=O)[O-]
REMARK SMILES IDX 13 1 14 2 15 3 16 4 17 5 18 6 19 7 20 8 21 9 22 10 23 11
REMARK SMILES IDX 24 12 25 13 26 14 12 15 11 16 10 17 9 18 8 19 7 20 6 21 5 22
REMARK SMILES IDX 4 23 3 24 2 25 1 26
REMARK H PARENT
REMARK Flexibility Score: inf
ROOT
ATOM      1  C   UNL     1     -19.626  29.624  20.061  1.00  0.00     0.000 C 
ENDROOT
BRANCH   1   2
ATOM      2  C   UNL     1     -20.465  28.637  19.235  1.00  0.00     0.000 C 
BRANCH   2   3
ATOM      3  C   UNL     1     -21.979  28.877  19.385  1.00  0.00     0.000 C 
BRANCH   3   4
ATOM      4  C   UNL     1     -22.715  27.663  19.989  1.00  0.00     0.000 C 
BRANCH   4   5
ATOM      5  C   UNL     1     -22.732  27.649  21.531  1.00  0.00     0.000 C 
BRANCH   5   6
ATOM      6  C   UNL     1     -21.724  26.688  22.189  1.00  0.00     0.000 C 
BRANCH   6   7
ATOM      7  C   UNL     1     -22.047  25.192  22.014  1.00  0.00     0.000 C 
BRANCH   7   8
ATOM      8  C   UNL     1     -20.847  24.380  21.499  1.00  0.00     0.000 C 
BRANCH   8   9
ATOM      9  C   UNL     1     -20.025  25.141  20.446  1.00  0.00     0.000 C 
BRANCH   9  10
ATOM     10  C   UNL     1     -18.537  24.751  20.468  1.00  0.00     0.006 C 
BRANCH  10  11
ATOM     11  C   UNL     1     -17.751  25.526  21.535  1.00  0.00     0.053 C 
BRANCH  11  12
ATOM     12  C   UNL     1     -16.898  24.619  22.368  1.00  0.00     0.041 C 
ATOM     13  O   UNL     1     -15.886  25.071  22.965  1.00  0.00    -0.550 OA
ATOM     14  O   UNL     1     -17.214  23.270  22.475  1.00  0.00    -0.550 OA
ENDBRANCH  11  12
ENDBRANCH  10  11
ENDBRANCH   9  10
ENDBRANCH   8   9
ENDBRANCH   7   8
ENDBRANCH   6   7
ENDBRANCH   5   6
ENDBRANCH   4   5
ENDBRANCH   3   4
ENDBRANCH   2   3
ENDBRANCH   1   2
BRANCH   1  15
ATOM     15  C   UNL     1     -19.141  29.025  21.393  1.00  0.00     0.000 C 
BRANCH  15  16
ATOM     16  C   UNL     1     -19.363  29.990  22.577  1.00  0.00     0.000 C 
BRANCH  16  17
ATOM     17  C   UNL     1     -20.384  31.101  22.278  1.00  0.00     0.000 C 
BRANCH  17  18
ATOM     18  C   UNL     1     -21.764  30.825  22.899  1.00  0.00    -0.000 C 
BRANCH  18  19
ATOM     19  C   UNL     1     -22.903  31.566  22.177  1.00  0.00    -0.000 C 
BRANCH  19  20
ATOM     20  C   UNL     1     -22.499  32.265  20.862  1.00  0.00    -0.000 C 
BRANCH  20  21
ATOM     21  C   UNL     1     -23.424  33.416  20.421  1.00  0.00    -0.000 C 
BRANCH  21  22
ATOM     22  C   UNL     1     -22.741  34.791  20.315  1.00  0.00    -0.000 C 
BRANCH  22  23
ATOM     23  C   UNL     1     -21.534  34.930  21.255  1.00  0.00    -0.000 C 
BRANCH  23  24
ATOM     24  C   UNL     1     -21.889  35.774  22.488  1.00  0.00    -0.000 C 
BRANCH  24  25
ATOM     25  C   UNL     1     -22.018  34.927  23.765  1.00  0.00    -0.003 C 
ATOM     26  C   UNL     1     -20.740  34.158  24.097  1.00  0.00     0.004 C 
ENDBRANCH  24  25
ENDBRANCH  23  24
ENDBRANCH  22  23
ENDBRANCH  21  22
ENDBRANCH  20  21
ENDBRANCH  19  20
ENDBRANCH  18  19
ENDBRANCH  17  18
ENDBRANCH  16  17
ENDBRANCH  15  16
ENDBRANCH   1  15
TORSDOF 22
ENDMDL
MODEL 5
REMARK VINA RESULT:    -3.063      3.739      8.180
REMARK INTER + INTRA:         -11.394
REMARK INTER:                  -8.032
REMARK INTRA:                  -3.362
REMARK UNBOUND:                -4.391
REMARK SMILES CCCCCCCCCCCCCCCCCCCCCCCC(=O)[O-]
REMARK SMILES IDX 13 1 14 2 15 3 16 4 17 5 18 6 19 7 20 8 21 9 22 10 23 11
REMARK SMILES IDX 24 12 25 13 26 14 12 15 11 16 10 17 9 18 8 19 7 20 6 21 5 22
REMARK SMILES IDX 4 23 3 24 2 25 1 26
REMARK H PARENT
REMARK Flexibility Score: inf
ROOT
ATOM      1  C   UNL     1     -19.609  29.692  20.278  1.00  0.00     0.000 C 
ENDROOT
BRANCH   1   2
ATOM      2  C   UNL     1     -20.341  28.783  19.278  1.00  0.00     0.000 C 
BRANCH   2   3
ATOM      3  C   UNL     1     -20.387  27.314  19.738  1.00  0.00     0.000 C 
BRANCH   3   4
ATOM      4  C   UNL     1     -21.828  26.773  19.852  1.00  0.00     0.000 C 
BRANCH   4   5
ATOM      5  C   UNL     1     -22.376  26.760  21.293  1.00  0.00     0.000 C 
BRANCH   5   6
ATOM      6  C   UNL     1     -23.096  28.050  21.732  1.00  0.00     0.000 C 
BRANCH   6   7
ATOM      7  C   UNL     1     -23.688  28.885  20.581  1.00  0.00     0.000 C 
BRANCH   7   8
ATOM      8  C   UNL     1     -23.799  30.380  20.926  1.00  0.00     0.000 C 
BRANCH   8   9
ATOM      9  C   UNL     1     -22.828  30.805  22.039  1.00  0.00     0.000 C 
BRANCH   9  10
ATOM     10  C   UNL     1     -22.022  32.061  21.668  1.00  0.00     0.006 C 
BRANCH  10  11
ATOM     11  C   UNL     1     -22.879  33.105  20.938  1.00  0.00     0.053 C 
BRANCH  11  12
ATOM     12  C   UNL     1     -22.327  34.488  21.094  1.00  0.00     0.041 C 
ATOM     13  O   UNL     1     -22.872  35.459  20.507  1.00  0.00    -0.550 OA
ATOM     14  O   UNL     1     -21.200  34.704  21.877  1.00  0.00    -0.550 OA
ENDBRANCH  11  12
ENDBRANCH  10  11
ENDBRANCH   9  10
ENDBRANCH   8   9
ENDBRANCH   7   8
ENDBRANCH   6   7
ENDBRANCH   5   6
ENDBRANCH   4   5
ENDBRANCH   3   4
ENDBRANCH   2   3
ENDBRANCH   1   2
BRANCH   1  15
ATOM     15  C   UNL     1     -19.518  29.079  21.686  1.00  0.00     0.000 C 
BRANCH  15  16
ATOM     16  C   UNL     1     -18.055  28.927  22.158  1.00  0.00     0.000 C 
BRANCH  16  17
ATOM     17  C   UNL     1     -17.804  27.641  22.963  1.00  0.00     0.000 C 
BRANCH  17  18
ATOM     18  C   UNL     1     -17.774  26.382  22.081  1.00  0.00    -0.000 C 
BRANCH  18  19
ATOM     19  C   UNL     1     -18.879  25.373  22.443  1.00  0.00    -0.000 C 
BRANCH  19  20
ATOM     20  C   UNL     1     -19.016  24.178  21.478  1.00  0.00    -0.000 C 
BRANCH  20  21
ATOM     21  C   UNL     1     -18.156  24.265  20.201  1.00  0.00    -0.000 C 
BRANCH  21  22
ATOM     22  C   UNL     1     -18.144  22.989  19.340  1.00  0.00    -0.000 C 
BRANCH  22  23
ATOM     23  C   UNL     1     -18.531  23.255  17.877  1.00  0.00    -0.000 C 
BRANCH  23  24
ATOM     24  C   UNL     1     -20.018  23.619  17.758  1.00  0.00    -0.000 C 
BRANCH  24  25
ATOM     25  C   UNL     1     -20.534  23.525  16.311  1.00  0.00    -0.003 C 
ATOM     26  C   UNL     1     -19.463  23.873  15.278  1.00  0.00     0.004 C 
ENDBRANCH  24  25
ENDBRANCH  23  24
ENDBRANCH  22  23
ENDBRANCH  21  22
ENDBRANCH  20  21
ENDBRANCH  19  20
ENDBRANCH  18  19
ENDBRANCH  17  18
ENDBRANCH  16  17
ENDBRANCH  15  16
ENDBRANCH   1  15
TORSDOF 22
ENDMDL
MODEL 6
REMARK VINA RESULT:    -3.056      3.235      6.167
REMARK INTER + INTRA:         -11.377
REMARK INTER:                  -8.737
REMARK INTRA:                  -2.640
REMARK UNBOUND:                -4.391
REMARK SMILES CCCCCCCCCCCCCCCCCCCCCCCC(=O)[O-]
REMARK SMILES IDX 13 1 14 2 15 3 16 4 17 5 18 6 19 7 20 8 21 9 22 10 23 11
REMARK SMILES IDX 24 12 25 13 26 14 12 15 11 16 10 17 9 18 8 19 7 20 6 21 5 22
REMARK SMILES IDX 4 23 3 24 2 25 1 26
REMARK H PARENT
REMARK Flexibility Score: inf
ROOT
ATOM      1  C   UNL     1     -22.244  34.309  20.228  1.00  0.00     0.000 C 
ENDROOT
BRANCH   1   2
ATOM      2  C   UNL     1     -22.853  33.374  21.284  1.00  0.00     0.000 C 
BRANCH   2   3
ATOM      3  C   UNL     1     -21.928  32.196  21.637  1.00  0.00     0.000 C 
BRANCH   3   4
ATOM      4  C   UNL     1     -21.293  32.336  23.037  1.00  0.00     0.000 C 
BRANCH   4   5
ATOM      5  C   UNL     1     -19.902  32.999  23.026  1.00  0.00     0.000 C 
BRANCH   5   6
ATOM      6  C   UNL     1     -18.833  32.294  23.883  1.00  0.00     0.000 C 
BRANCH   6   7
ATOM      7  C   UNL     1     -18.985  30.764  23.976  1.00  0.00     0.000 C 
BRANCH   7   8
ATOM      8  C   UNL     1     -17.751  30.010  23.451  1.00  0.00     0.000 C 
BRANCH   8   9
ATOM      9  C   UNL     1     -18.088  29.055  22.295  1.00  0.00     0.000 C 
BRANCH   9  10
ATOM     10  C   UNL     1     -19.556  29.166  21.850  1.00  0.00     0.006 C 
BRANCH  10  11
ATOM     11  C   UNL     1     -19.687  29.493  20.356  1.00  0.00     0.053 C 
BRANCH  11  12
ATOM     12  C   UNL     1     -20.543  28.496  19.639  1.00  0.00     0.041 C 
ATOM     13  O   UNL     1     -21.579  28.870  19.031  1.00  0.00    -0.550 OA
ATOM     14  O   UNL     1     -20.204  27.148  19.655  1.00  0.00    -0.550 OA
ENDBRANCH  11  12
ENDBRANCH  10  11
ENDBRANCH   9  10
ENDBRANCH   8   9
ENDBRANCH   7   8
ENDBRANCH   6   7
ENDBRANCH   5   6
ENDBRANCH   4   5
ENDBRANCH   3   4
ENDBRANCH   2   3
ENDBRANCH   1   2
BRANCH   1  15
ATOM     15  C   UNL     1     -21.885  35.694  20.795  1.00  0.00     0.000 C 
BRANCH  15  16
ATOM     16  C   UNL     1     -22.477  35.914  22.204  1.00  0.00     0.000 C 
BRANCH  16  17
ATOM     17  C   UNL     1     -23.389  37.149  22.297  1.00  0.00     0.000 C 
BRANCH  17  18
ATOM     18  C   UNL     1     -22.686  38.443  21.854  1.00  0.00    -0.000 C 
BRANCH  18  19
ATOM     19  C   UNL     1     -23.198  39.687  22.603  1.00  0.00    -0.000 C 
BRANCH  19  20
ATOM     20  C   UNL     1     -22.254  40.226  23.697  1.00  0.00    -0.000 C 
BRANCH  20  21
ATOM     21  C   UNL     1     -20.930  39.452  23.859  1.00  0.00    -0.000 C 
BRANCH  21  22
ATOM     22  C   UNL     1     -19.666  40.330  23.876  1.00  0.00    -0.000 C 
BRANCH  22  23
ATOM     23  C   UNL     1     -19.832  41.627  23.069  1.00  0.00    -0.000 C 
BRANCH  23  24
ATOM     24  C   UNL     1     -18.935  41.618  21.821  1.00  0.00    -0.000 C 
BRANCH  24  25
ATOM     25  C   UNL     1     -19.697  42.018  20.546  1.00  0.00    -0.003 C 
ATOM     26  C   UNL     1     -20.742  40.983  20.131  1.00  0.00     0.004 C 
ENDBRANCH  24  25
ENDBRANCH  23  24
ENDBRANCH  22  23
ENDBRANCH  21  22
ENDBRANCH  20  21
ENDBRANCH  19  20
ENDBRANCH  18  19
ENDBRANCH  17  18
ENDBRANCH  16  17
ENDBRANCH  15  16
ENDBRANCH   1  15
TORSDOF 22
ENDMDL
MODEL 7
REMARK VINA RESULT:    -3.037      2.812      5.149
REMARK INTER + INTRA:         -11.335
REMARK INTER:                  -8.671
REMARK INTRA:                  -2.665
REMARK UNBOUND:                -4.391
REMARK SMILES CCCCCCCCCCCCCCCCCCCCCCCC(=O)[O-]
REMARK SMILES IDX 13 1 14 2 15 3 16 4 17 5 18 6 19 7 20 8 21 9 22 10 23 11
REMARK SMILES IDX 24 12 25 13 26 14 12 15 11 16 10 17 9 18 8 19 7 20 6 21 5 22
REMARK SMILES IDX 4 23 3 24 2 25 1 26
REMARK H PARENT
REMARK Flexibility Score: inf
ROOT
ATOM      1  C   UNL     1     -22.492  32.140  21.075  1.00  0.00     0.000 C 
ENDROOT
BRANCH   1   2
ATOM      2  C   UNL     1     -22.952  31.285  22.267  1.00  0.00     0.000 C 
BRANCH   2   3
ATOM      3  C   UNL     1     -21.875  31.165  23.360  1.00  0.00     0.000 C 
BRANCH   3   4
ATOM      4  C   UNL     1     -20.654  32.071  23.093  1.00  0.00     0.000 C 
BRANCH   4   5
ATOM      5  C   UNL     1     -19.323  31.302  22.973  1.00  0.00     0.000 C 
BRANCH   5   6
ATOM      6  C   UNL     1     -19.456  29.768  22.903  1.00  0.00     0.000 C 
BRANCH   6   7
ATOM      7  C   UNL     1     -19.017  29.141  21.567  1.00  0.00     0.000 C 
BRANCH   7   8
ATOM      8  C   UNL     1     -19.743  29.750  20.356  1.00  0.00     0.000 C 
BRANCH   8   9
ATOM      9  C   UNL     1     -20.367  28.684  19.441  1.00  0.00     0.000 C 
BRANCH   9  10
ATOM     10  C   UNL     1     -21.870  28.915  19.210  1.00  0.00     0.006 C 
BRANCH  10  11
ATOM     11  C   UNL     1     -22.715  27.707  19.639  1.00  0.00     0.053 C 
BRANCH  11  12
ATOM     12  C   UNL     1     -22.194  27.080  20.895  1.00  0.00     0.041 C 
ATOM     13  O   UNL     1     -21.658  25.942  20.861  1.00  0.00    -0.550 OA
ATOM     14  O   UNL     1     -22.314  27.747  22.108  1.00  0.00    -0.550 OA
ENDBRANCH  11  12
ENDBRANCH  10  11
ENDBRANCH   9  10
ENDBRANCH   8   9
ENDBRANCH   7   8
ENDBRANCH   6   7
ENDBRANCH   5   6
ENDBRANCH   4   5
ENDBRANCH   3   4
ENDBRANCH   2   3
ENDBRANCH   1   2
BRANCH   1  15
ATOM     15  C   UNL     1     -23.363  33.391  20.868  1.00  0.00     0.000 C 
BRANCH  15  16
ATOM     16  C   UNL     1     -22.633  34.475  20.044  1.00  0.00     0.000 C 
BRANCH  16  17
ATOM     17  C   UNL     1     -21.594  35.264  20.858  1.00  0.00     0.000 C 
BRANCH  17  18
ATOM     18  C   UNL     1     -22.014  35.466  22.324  1.00  0.00    -0.000 C 
BRANCH  18  19
ATOM     19  C   UNL     1     -22.218  36.948  22.687  1.00  0.00    -0.000 C 
BRANCH  19  20
ATOM     20  C   UNL     1     -22.639  37.857  21.514  1.00  0.00    -0.000 C 
BRANCH  20  21
ATOM     21  C   UNL     1     -23.513  39.066  21.904  1.00  0.00    -0.000 C 
BRANCH  21  22
ATOM     22  C   UNL     1     -23.143  40.385  21.202  1.00  0.00    -0.000 C 
BRANCH  22  23
ATOM     23  C   UNL     1     -21.884  40.262  20.330  1.00  0.00    -0.000 C 
BRANCH  23  24
ATOM     24  C   UNL     1     -21.094  41.580  20.314  1.00  0.00    -0.000 C 
BRANCH  24  25
ATOM     25  C   UNL     1     -19.643  41.403  20.792  1.00  0.00    -0.003 C 
ATOM     26  C   UNL     1     -19.533  41.258  22.310  1.00  0.00     0.004 C 
ENDBRANCH  24  25
ENDBRANCH  23  24
ENDBRANCH  22  23
ENDBRANCH  21  22
ENDBRANCH  20  21
ENDBRANCH  19  20
ENDBRANCH  18  19
ENDBRANCH  17  18
ENDBRANCH  16  17
ENDBRANCH  15  16
ENDBRANCH   1  15
TORSDOF 22
ENDMDL
MODEL 8
REMARK VINA RESULT:    -3.002      5.662      9.972
REMARK INTER + INTRA:         -11.255
REMARK INTER:                  -8.491
REMARK INTRA:                  -2.764
REMARK UNBOUND:                -4.391
REMARK SMILES CCCCCCCCCCCCCCCCCCCCCCCC(=O)[O-]
REMARK SMILES IDX 13 1 14 2 15 3 16 4 17 5 18 6 19 7 20 8 21 9 22 10 23 11
REMARK SMILES IDX 24 12 25 13 26 14 12 15 11 16 10 17 9 18 8 19 7 20 6 21 5 22
REMARK SMILES IDX 4 23 3 24 2 25 1 26
REMARK H PARENT
REMARK Flexibility Score: inf
ROOT
ATOM      1  C   UNL     1     -23.159  32.647  21.521  1.00  0.00     0.000 C 
ENDROOT
BRANCH   1   2
ATOM      2  C   UNL     1     -23.301  33.641  20.358  1.00  0.00     0.000 C 
BRANCH   2   3
ATOM      3  C   UNL     1     -22.226  34.743  20.386  1.00  0.00     0.000 C 
BRANCH   3   4
ATOM      4  C   UNL     1     -21.528  34.857  21.758  1.00  0.00     0.000 C 
BRANCH   4   5
ATOM      5  C   UNL     1     -22.075  35.996  22.642  1.00  0.00     0.000 C 
BRANCH   5   6
ATOM      6  C   UNL     1     -22.658  37.199  21.874  1.00  0.00     0.000 C 
BRANCH   6   7
ATOM      7  C   UNL     1     -22.604  38.538  22.633  1.00  0.00     0.000 C 
BRANCH   7   8
ATOM      8  C   UNL     1     -21.616  38.515  23.812  1.00  0.00     0.000 C 
BRANCH   8   9
ATOM      9  C   UNL     1     -20.620  39.685  23.771  1.00  0.00     0.000 C 
BRANCH   9  10
ATOM     10  C   UNL     1     -20.854  40.616  22.569  1.00  0.00     0.006 C 
BRANCH  10  11
ATOM     11  C   UNL     1     -20.169  41.977  22.747  1.00  0.00     0.053 C 
BRANCH  11  12
ATOM     12  C   UNL     1     -18.848  42.033  22.043  1.00  0.00     0.041 C 
ATOM     13  O   UNL     1     -18.779  41.818  20.805  1.00  0.00    -0.550 OA
ATOM     14  O   UNL     1     -17.689  42.310  22.759  1.00  0.00    -0.550 OA
ENDBRANCH  11  12
ENDBRANCH  10  11
ENDBRANCH   9  10
ENDBRANCH   8   9
ENDBRANCH   7   8
ENDBRANCH   6   7
ENDBRANCH   5   6
ENDBRANCH   4   5
ENDBRANCH   3   4
ENDBRANCH   2   3
ENDBRANCH   1   2
BRANCH   1  15
ATOM     15  C   UNL     1     -23.621  31.227  21.151  1.00  0.00     0.000 C 
BRANCH  15  16
ATOM     16  C   UNL     1     -23.696  30.302  22.385  1.00  0.00     0.000 C 
BRANCH  16  17
ATOM     17  C   UNL     1     -22.890  29.002  22.224  1.00  0.00     0.000 C 
BRANCH  17  18
ATOM     18  C   UNL     1     -22.994  28.408  20.810  1.00  0.00    -0.000 C 
BRANCH  18  19
ATOM     19  C   UNL     1     -21.641  27.913  20.269  1.00  0.00    -0.000 C 
BRANCH  19  20
ATOM     20  C   UNL     1     -20.890  28.915  19.369  1.00  0.00    -0.000 C 
BRANCH  20  21
ATOM     21  C   UNL     1     -19.720  29.656  20.048  1.00  0.00    -0.000 C 
BRANCH  21  22
ATOM     22  C   UNL     1     -19.151  28.960  21.297  1.00  0.00    -0.000 C 
BRANCH  22  23
ATOM     23  C   UNL     1     -19.274  29.820  22.565  1.00  0.00    -0.000 C 
BRANCH  23  24
ATOM     24  C   UNL     1     -20.033  31.124  22.275  1.00  0.00    -0.000 C 
BRANCH  24  25
ATOM     25  C   UNL     1     -20.019  32.092  23.470  1.00  0.00    -0.003 C 
ATOM     26  C   UNL     1     -18.623  32.633  23.777  1.00  0.00     0.004 C 
ENDBRANCH  24  25
ENDBRANCH  23  24
ENDBRANCH  22  23
ENDBRANCH  21  22
ENDBRANCH  20  21
ENDBRANCH  19  20
ENDBRANCH  18  19
ENDBRANCH  17  18
ENDBRANCH  16  17
ENDBRANCH  15  16
ENDBRANCH   1  15
TORSDOF 22
ENDMDL
MODEL 9
REMARK VINA RESULT:    -2.945      1.747      4.356
REMARK INTER + INTRA:         -11.123
REMARK INTER:                  -7.330
REMARK INTRA:                  -3.792
REMARK UNBOUND:                -4.391
REMARK SMILES CCCCCCCCCCCCCCCCCCCCCCCC(=O)[O-]
REMARK SMILES IDX 13 1 14 2 15 3 16 4 17 5 18 6 19 7 20 8 21 9 22 10 23 11
REMARK SMILES IDX 24 12 25 13 26 14 12 15 11 16 10 17 9 18 8 19 7 20 6 21 5 22
REMARK SMILES IDX 4 23 3 24 2 25 1 26
REMARK H PARENT
REMARK Flexibility Score: inf
ROOT
ATOM      1  C   UNL     1     -19.622  29.634  20.017  1.00  0.00     0.000 C 
ENDROOT
BRANCH   1   2
ATOM      2  C   UNL     1     -19.433  29.312  21.508  1.00  0.00     0.000 C 
BRANCH   2   3
ATOM      3  C   UNL     1     -17.990  28.895  21.846  1.00  0.00     0.000 C 
BRANCH   3   4
ATOM      4  C   UNL     1     -17.782  28.642  23.354  1.00  0.00     0.000 C 
BRANCH   4   5
ATOM      5  C   UNL     1     -17.518  27.164  23.707  1.00  0.00     0.000 C 
BRANCH   5   6
ATOM      6  C   UNL     1     -18.644  26.186  23.319  1.00  0.00     0.000 C 
BRANCH   6   7
ATOM      7  C   UNL     1     -18.170  24.901  22.614  1.00  0.00     0.000 C 
BRANCH   7   8
ATOM      8  C   UNL     1     -17.952  25.096  21.104  1.00  0.00     0.000 C 
BRANCH   8   9
ATOM      9  C   UNL     1     -17.086  23.988  20.482  1.00  0.00     0.000 C 
BRANCH   9  10
ATOM     10  C   UNL     1     -17.806  23.253  19.339  1.00  0.00     0.006 C 
BRANCH  10  11
ATOM     11  C   UNL     1     -19.260  23.717  19.176  1.00  0.00     0.053 C 
BRANCH  11  12
ATOM     12  C   UNL     1     -19.709  23.657  17.749  1.00  0.00     0.041 C 
ATOM     13  O   UNL     1     -18.862  23.615  16.819  1.00  0.00    -0.550 OA
ATOM     14  O   UNL     1     -21.064  23.661  17.444  1.00  0.00    -0.550 OA
ENDBRANCH  11  12
ENDBRANCH  10  11
ENDBRANCH   9  10
ENDBRANCH   8   9
ENDBRANCH   7   8
ENDBRANCH   6   7
ENDBRANCH   5   6
ENDBRANCH   4   5
ENDBRANCH   3   4
ENDBRANCH   2   3
ENDBRANCH   1   2
BRANCH   1  15
ATOM     15  C   UNL     1     -20.539  28.626  19.302  1.00  0.00     0.000 C 
BRANCH  15  16
ATOM     16  C   UNL     1     -20.529  27.244  19.991  1.00  0.00     0.000 C 
BRANCH  16  17
ATOM     17  C   UNL     1     -21.830  26.450  19.786  1.00  0.00     0.000 C 
BRANCH  17  18
ATOM     18  C   UNL     1     -22.695  26.388  21.056  1.00  0.00    -0.000 C 
BRANCH  18  19
ATOM     19  C   UNL     1     -22.046  27.102  22.256  1.00  0.00    -0.000 C 
BRANCH  19  20
ATOM     20  C   UNL     1     -22.840  28.302  22.810  1.00  0.00    -0.000 C 
BRANCH  20  21
ATOM     21  C   UNL     1     -23.729  29.031  21.783  1.00  0.00    -0.000 C 
BRANCH  21  22
ATOM     22  C   UNL     1     -23.089  30.274  21.141  1.00  0.00    -0.000 C 
BRANCH  22  23
ATOM     23  C   UNL     1     -22.748  31.365  22.168  1.00  0.00    -0.000 C 
BRANCH  23  24
ATOM     24  C   UNL     1     -21.813  32.422  21.559  1.00  0.00    -0.000 C 
BRANCH  24  25
ATOM     25  C   UNL     1     -21.052  33.221  22.631  1.00  0.00    -0.003 C 
ATOM     26  C   UNL     1     -19.869  32.451  23.215  1.00  0.00     0.004 C 
ENDBRANCH  24  25
ENDBRANCH  23  24
ENDBRANCH  22  23
ENDBRANCH  21  22
ENDBRANCH  20  21
ENDBRANCH  19  20
ENDBRANCH  18  19
ENDBRANCH  17  18
ENDBRANCH  16  17
ENDBRANCH  15  16
ENDBRANCH   1  15
TORSDOF 22
ENDMDL
