MODEL 1
REMARK VINA RESULT:    -4.906      0.000      0.000
REMARK INTER + INTRA:         -11.416
REMARK INTER:                  -8.490
REMARK INTRA:                  -2.926
REMARK UNBOUND:                -2.926
REMARK SMILES OC[C@@H]1O[C@@H](O[C@@H]2[C@@H](O)[C@H](O)[C@@H](O)O[C@@H]2CO)[C@H](O)[C@@H](O)[C@@H]1O[C@@H]1O[C@H](CO)[C@@H](O)[C@H](O)[C@H]1O
REMARK SMILES IDX 22 1 3 2 4 3 5 4 18 5 20 6 23 7 24 8 26 9 29 10 25 11 31 12
REMARK SMILES IDX 33 13 27 14 28 15 30 17 32 19 34 21 2 23 1 24 21 26 19 28
REMARK SMILES IDX 6 30 7 31 15 32 8 33 14 34 10 35 12 36 16 37 17 38 9 40
REMARK SMILES IDX 11 42 13 44
REMARK H PARENT 28 16 30 18 32 20 34 22 1 25 21 27 19 29 17 39 9 41 11 43
REMARK H PARENT 13 45
REMARK Flexibility Score: inf
ROOT
ATOM      1  C   UNL     1      35.522 -12.956  13.168  1.00  0.00     0.184 C 
ATOM      2  C   UNL     1      36.405 -14.209  12.971  1.00  0.00     0.178 C 
ATOM      3  O   UNL     1      37.479 -14.229  13.900  1.00  0.00    -0.341 OA
ATOM      4  C   UNL     1      38.371 -13.144  13.702  1.00  0.00     0.282 C 
ATOM      5  C   UNL     1      37.661 -11.783  13.875  1.00  0.00     0.202 C 
ATOM      6  C   UNL     1      36.400 -11.693  12.999  1.00  0.00     0.180 C 
ENDROOT
BRANCH   1   7
ATOM      7  O   UNL     1      34.928 -12.990  14.461  1.00  0.00    -0.341 OA
BRANCH   7   8
ATOM      8  C   UNL     1      33.942 -11.978  14.629  1.00  0.00     0.282 C 
ATOM      9  C   UNL     1      33.536 -12.332  16.965  1.00  0.00     0.178 C 
ATOM     10  C   UNL     1      32.108 -12.875  16.708  1.00  0.00     0.177 C 
ATOM     11  O   UNL     1      33.996 -11.448  15.947  1.00  0.00    -0.341 OA
ATOM     12  C   UNL     1      31.941 -13.433  15.283  1.00  0.00     0.179 C 
ATOM     13  C   UNL     1      32.532 -12.478  14.235  1.00  0.00     0.202 C 
BRANCH   9  14
ATOM     14  C   UNL     1      34.556 -13.432  17.323  1.00  0.00     0.191 C 
BRANCH  14  15
ATOM     15  O   UNL     1      35.841 -12.882  17.404  1.00  0.00    -0.394 OA
ATOM     16  H   UNL     1      36.409 -13.412  16.790  1.00  0.00     0.210 HD
ENDBRANCH  14  15
ENDBRANCH   9  14
BRANCH  10  17
ATOM     17  O   UNL     1      31.136 -11.889  16.969  1.00  0.00    -0.387 OA
ATOM     18  H   UNL     1      31.577 -11.128  17.424  1.00  0.00     0.211 HD
ENDBRANCH  10  17
BRANCH  12  19
ATOM     19  O   UNL     1      32.559 -14.689  15.173  1.00  0.00    -0.387 OA
ATOM     20  H   UNL     1      33.536 -14.527  15.103  1.00  0.00     0.211 HD
ENDBRANCH  12  19
BRANCH  13  21
ATOM     21  O   UNL     1      31.686 -11.369  14.061  1.00  0.00    -0.385 OA
ATOM     22  H   UNL     1      31.234 -11.208  14.931  1.00  0.00     0.211 HD
ENDBRANCH  13  21
ENDBRANCH   7   8
ENDBRANCH   1   7
BRANCH   2  23
ATOM     23  C   UNL     1      35.590 -15.496  13.134  1.00  0.00     0.191 C 
BRANCH  23  24
ATOM     24  O   UNL     1      35.290 -15.715  14.487  1.00  0.00    -0.394 OA
ATOM     25  H   UNL     1      34.329 -15.496  14.604  1.00  0.00     0.210 HD
ENDBRANCH  23  24
ENDBRANCH   2  23
BRANCH   6  26
ATOM     26  O   UNL     1      36.782 -11.541  11.655  1.00  0.00    -0.387 OA
ATOM     27  H   UNL     1      35.947 -11.497  11.122  1.00  0.00     0.211 HD
ENDBRANCH   6  26
BRANCH   5  28
ATOM     28  O   UNL     1      37.303 -11.600  15.222  1.00  0.00    -0.385 OA
ATOM     29  H   UNL     1      37.244 -10.621  15.377  1.00  0.00     0.211 HD
ENDBRANCH   5  28
BRANCH   4  30
ATOM     30  O   UNL     1      38.984 -13.216  12.418  1.00  0.00    -0.341 OA
BRANCH  30  31
ATOM     31  C   UNL     1      40.277 -13.804  12.475  1.00  0.00     0.184 C 
ATOM     32  C   UNL     1      40.502 -14.696  11.231  1.00  0.00     0.178 C 
ATOM     33  C   UNL     1      41.363 -12.696  12.533  1.00  0.00     0.180 C 
ATOM     34  O   UNL     1      40.503 -13.924  10.041  1.00  0.00    -0.342 OA
ATOM     35  C   UNL     1      41.605 -12.028  11.157  1.00  0.00     0.201 C 
ATOM     36  C   UNL     1      41.618 -13.045   9.992  1.00  0.00     0.279 C 
BRANCH  32  37
ATOM     37  C   UNL     1      39.437 -15.797  11.111  1.00  0.00     0.191 C 
BRANCH  37  38
ATOM     38  O   UNL     1      39.106 -16.303  12.375  1.00  0.00    -0.394 OA
ATOM     39  H   UNL     1      39.945 -16.281  12.907  1.00  0.00     0.210 HD
ENDBRANCH  37  38
ENDBRANCH  32  37
BRANCH  33  40
ATOM     40  O   UNL     1      42.562 -13.190  13.081  1.00  0.00    -0.387 OA
ATOM     41  H   UNL     1      43.079 -12.428  13.444  1.00  0.00     0.211 HD
ENDBRANCH  33  40
BRANCH  35  42
ATOM     42  O   UNL     1      40.650 -11.021  10.924  1.00  0.00    -0.385 OA
ATOM     43  H   UNL     1      40.597 -10.454  11.735  1.00  0.00     0.211 HD
ENDBRANCH  35  42
BRANCH  36  44
ATOM     44  O   UNL     1      42.830 -13.756   9.958  1.00  0.00    -0.366 OA
ATOM     45  H   UNL     1      43.553 -13.084  10.056  1.00  0.00     0.213 HD
ENDBRANCH  36  44
ENDBRANCH  30  31
ENDBRANCH   4  30
TORSDOF 18
ENDMDL
MODEL 2
REMARK VINA RESULT:    -4.745      4.031      5.833
REMARK INTER + INTRA:         -11.138
REMARK INTER:                  -8.307
REMARK INTRA:                  -2.832
REMARK UNBOUND:                -2.926
REMARK SMILES OC[C@@H]1O[C@@H](O[C@@H]2[C@@H](O)[C@H](O)[C@@H](O)O[C@@H]2CO)[C@H](O)[C@@H](O)[C@@H]1O[C@@H]1O[C@H](CO)[C@@H](O)[C@H](O)[C@H]1O
REMARK SMILES IDX 22 1 3 2 4 3 5 4 18 5 20 6 23 7 24 8 26 9 29 10 25 11 31 12
REMARK SMILES IDX 33 13 27 14 28 15 30 17 32 19 34 21 2 23 1 24 21 26 19 28
REMARK SMILES IDX 6 30 7 31 15 32 8 33 14 34 10 35 12 36 16 37 17 38 9 40
REMARK SMILES IDX 11 42 13 44
REMARK H PARENT 28 16 30 18 32 20 34 22 1 25 21 27 19 29 17 39 9 41 11 43
REMARK H PARENT 13 45
REMARK Flexibility Score: inf
ROOT
ATOM      1  C   UNL     1      35.120 -17.269  10.201  1.00  0.00     0.184 C 
ATOM      2  C   UNL     1      36.509 -17.389  10.869  1.00  0.00     0.178 C 
ATOM      3  O   UNL     1      36.489 -16.866  12.189  1.00  0.00    -0.341 OA
ATOM      4  C   UNL     1      36.219 -15.473  12.202  1.00  0.00     0.282 C 
ATOM      5  C   UNL     1      34.842 -15.153  11.578  1.00  0.00     0.202 C 
ATOM      6  C   UNL     1      34.701 -15.779  10.181  1.00  0.00     0.180 C 
ENDROOT
BRANCH   1   7
ATOM      7  O   UNL     1      34.176 -18.051  10.924  1.00  0.00    -0.341 OA
BRANCH   7   8
ATOM      8  C   UNL     1      32.894 -18.056  10.305  1.00  0.00     0.282 C 
ATOM      9  C   UNL     1      31.682 -19.044  12.122  1.00  0.00     0.178 C 
ATOM     10  C   UNL     1      31.431 -20.355  11.335  1.00  0.00     0.177 C 
ATOM     11  O   UNL     1      31.871 -17.910  11.281  1.00  0.00    -0.341 OA
ATOM     12  C   UNL     1      32.469 -20.578  10.221  1.00  0.00     0.179 C 
ATOM     13  C   UNL     1      32.696 -19.298   9.403  1.00  0.00     0.202 C 
BRANCH   9  14
ATOM     14  C   UNL     1      32.762 -19.181  13.214  1.00  0.00     0.191 C 
BRANCH  14  15
ATOM     15  O   UNL     1      33.068 -17.920  13.740  1.00  0.00    -0.394 OA
ATOM     16  H   UNL     1      32.467 -17.276  13.285  1.00  0.00     0.210 HD
ENDBRANCH  14  15
ENDBRANCH   9  14
BRANCH  10  17
ATOM     17  O   UNL     1      30.125 -20.389  10.807  1.00  0.00    -0.387 OA
ATOM     18  H   UNL     1      29.576 -19.718  11.288  1.00  0.00     0.211 HD
ENDBRANCH  10  17
BRANCH  12  19
ATOM     19  O   UNL     1      33.689 -21.008  10.766  1.00  0.00    -0.387 OA
ATOM     20  H   UNL     1      33.896 -20.404  11.528  1.00  0.00     0.211 HD
ENDBRANCH  12  19
BRANCH  13  21
ATOM     21  O   UNL     1      31.604 -19.072   8.547  1.00  0.00    -0.385 OA
ATOM     22  H   UNL     1      31.683 -19.719   7.797  1.00  0.00     0.211 HD
ENDBRANCH  13  21
ENDBRANCH   7   8
ENDBRANCH   1   7
BRANCH   2  23
ATOM     23  C   UNL     1      36.976 -18.848  10.926  1.00  0.00     0.191 C 
BRANCH  23  24
ATOM     24  O   UNL     1      36.302 -19.613   9.963  1.00  0.00    -0.394 OA
ATOM     25  H   UNL     1      35.576 -20.094  10.439  1.00  0.00     0.210 HD
ENDBRANCH  23  24
ENDBRANCH   2  23
BRANCH   6  26
ATOM     26  O   UNL     1      35.498 -15.063   9.270  1.00  0.00    -0.387 OA
ATOM     27  H   UNL     1      36.155 -15.704   8.895  1.00  0.00     0.211 HD
ENDBRANCH   6  26
BRANCH   5  28
ATOM     28  O   UNL     1      33.817 -15.638  12.408  1.00  0.00    -0.385 OA
ATOM     29  H   UNL     1      34.193 -15.708  13.324  1.00  0.00     0.211 HD
ENDBRANCH   5  28
BRANCH   4  30
ATOM     30  O   UNL     1      37.244 -14.749  11.527  1.00  0.00    -0.341 OA
BRANCH  30  31
ATOM     31  C   UNL     1      38.308 -14.391  12.398  1.00  0.00     0.184 C 
ATOM     32  C   UNL     1      39.591 -14.123  11.575  1.00  0.00     0.178 C 
ATOM     33  C   UNL     1      37.929 -13.124  13.210  1.00  0.00     0.180 C 
ATOM     34  O   UNL     1      39.426 -13.004  10.719  1.00  0.00    -0.342 OA
ATOM     35  C   UNL     1      38.032 -11.827  12.370  1.00  0.00     0.201 C 
ATOM     36  C   UNL     1      39.281 -11.800  11.459  1.00  0.00     0.279 C 
BRANCH  32  37
ATOM     37  C   UNL     1      39.998 -15.341  10.730  1.00  0.00     0.191 C 
BRANCH  37  38
ATOM     38  O   UNL     1      39.842 -16.524  11.464  1.00  0.00    -0.394 OA
ATOM     39  H   UNL     1      40.174 -16.325  12.379  1.00  0.00     0.210 HD
ENDBRANCH  37  38
ENDBRANCH  32  37
BRANCH  33  40
ATOM     40  O   UNL     1      38.690 -13.032  14.391  1.00  0.00    -0.387 OA
ATOM     41  H   UNL     1      39.288 -13.819  14.441  1.00  0.00     0.211 HD
ENDBRANCH  33  40
BRANCH  35  42
ATOM     42  O   UNL     1      36.861 -11.639  11.610  1.00  0.00    -0.385 OA
ATOM     43  H   UNL     1      37.033 -11.974  10.693  1.00  0.00     0.211 HD
ENDBRANCH  35  42
BRANCH  36  44
ATOM     44  O   UNL     1      40.439 -11.515  12.203  1.00  0.00    -0.366 OA
ATOM     45  H   UNL     1      40.973 -12.351  12.224  1.00  0.00     0.213 HD
ENDBRANCH  36  44
ENDBRANCH  30  31
ENDBRANCH   4  30
TORSDOF 18
ENDMDL
MODEL 3
REMARK VINA RESULT:    -4.585      3.469      7.931
REMARK INTER + INTRA:         -10.862
REMARK INTER:                  -8.869
REMARK INTRA:                  -1.993
REMARK UNBOUND:                -2.926
REMARK SMILES OC[C@@H]1O[C@@H](O[C@@H]2[C@@H](O)[C@H](O)[C@@H](O)O[C@@H]2CO)[C@H](O)[C@@H](O)[C@@H]1O[C@@H]1O[C@H](CO)[C@@H](O)[C@H](O)[C@H]1O
REMARK SMILES IDX 22 1 3 2 4 3 5 4 18 5 20 6 23 7 24 8 26 9 29 10 25 11 31 12
REMARK SMILES IDX 33 13 27 14 28 15 30 17 32 19 34 21 2 23 1 24 21 26 19 28
REMARK SMILES IDX 6 30 7 31 15 32 8 33 14 34 10 35 12 36 16 37 17 38 9 40
REMARK SMILES IDX 11 42 13 44
REMARK H PARENT 28 16 30 18 32 20 34 22 1 25 21 27 19 29 17 39 9 41 11 43
REMARK H PARENT 13 45
REMARK Flexibility Score: inf
ROOT
ATOM      1  C   UNL     1      37.589 -15.565  12.966  1.00  0.00     0.184 C 
ATOM      2  C   UNL     1      37.752 -17.079  12.695  1.00  0.00     0.178 C 
ATOM      3  O   UNL     1      37.422 -17.396  11.350  1.00  0.00    -0.341 OA
ATOM      4  C   UNL     1      36.055 -17.140  11.066  1.00  0.00     0.282 C 
ATOM      5  C   UNL     1      35.700 -15.650  11.270  1.00  0.00     0.202 C 
ATOM      6  C   UNL     1      36.127 -15.157  12.663  1.00  0.00     0.180 C 
ENDROOT
BRANCH   1   7
ATOM      7  O   UNL     1      38.498 -14.835  12.151  1.00  0.00    -0.341 OA
BRANCH   7   8
ATOM      8  C   UNL     1      39.355 -13.996  12.917  1.00  0.00     0.282 C 
ATOM      9  C   UNL     1      38.856 -11.939  11.790  1.00  0.00     0.178 C 
ATOM     10  C   UNL     1      40.274 -11.851  11.172  1.00  0.00     0.177 C 
ATOM     11  O   UNL     1      38.815 -12.684  13.004  1.00  0.00    -0.341 OA
ATOM     12  C   UNL     1      40.958 -13.226  11.077  1.00  0.00     0.179 C 
ATOM     13  C   UNL     1      40.807 -14.018  12.385  1.00  0.00     0.202 C 
BRANCH   9  14
ATOM     14  C   UNL     1      37.771 -12.362  10.779  1.00  0.00     0.191 C 
BRANCH  14  15
ATOM     15  O   UNL     1      36.507 -11.993  11.256  1.00  0.00    -0.394 OA
ATOM     16  H   UNL     1      35.860 -12.237  10.545  1.00  0.00     0.210 HD
ENDBRANCH  14  15
ENDBRANCH   9  14
BRANCH  10  17
ATOM     17  O   UNL     1      41.083 -10.945  11.885  1.00  0.00    -0.387 OA
ATOM     18  H   UNL     1      41.302 -11.347  12.764  1.00  0.00     0.211 HD
ENDBRANCH  10  17
BRANCH  12  19
ATOM     19  O   UNL     1      40.420 -13.970  10.015  1.00  0.00    -0.387 OA
ATOM     20  H   UNL     1      40.145 -14.849  10.385  1.00  0.00     0.211 HD
ENDBRANCH  12  19
BRANCH  13  21
ATOM     21  O   UNL     1      41.663 -13.493  13.369  1.00  0.00    -0.385 OA
ATOM     22  H   UNL     1      41.834 -14.220  14.024  1.00  0.00     0.211 HD
ENDBRANCH  13  21
ENDBRANCH   7   8
ENDBRANCH   1   7
BRANCH   2  23
ATOM     23  C   UNL     1      39.186 -17.542  12.971  1.00  0.00     0.191 C 
BRANCH  23  24
ATOM     24  O   UNL     1      39.964 -17.439  11.809  1.00  0.00    -0.394 OA
ATOM     25  H   UNL     1      40.078 -16.469  11.629  1.00  0.00     0.210 HD
ENDBRANCH  23  24
ENDBRANCH   2  23
BRANCH   6  26
ATOM     26  O   UNL     1      35.261 -15.696  13.630  1.00  0.00    -0.387 OA
ATOM     27  H   UNL     1      34.438 -15.979  13.154  1.00  0.00     0.211 HD
ENDBRANCH   6  26
BRANCH   5  28
ATOM     28  O   UNL     1      36.334 -14.870  10.288  1.00  0.00    -0.385 OA
ATOM     29  H   UNL     1      36.255 -15.362   9.429  1.00  0.00     0.211 HD
ENDBRANCH   5  28
BRANCH   4  30
ATOM     30  O   UNL     1      35.207 -17.960  11.865  1.00  0.00    -0.341 OA
BRANCH  30  31
ATOM     31  C   UNL     1      34.956 -19.220  11.258  1.00  0.00     0.184 C 
ATOM     32  C   UNL     1      34.016 -20.057  12.159  1.00  0.00     0.178 C 
ATOM     33  C   UNL     1      34.308 -19.020   9.862  1.00  0.00     0.180 C 
ATOM     34  O   UNL     1      32.741 -19.446  12.275  1.00  0.00    -0.342 OA
ATOM     35  C   UNL     1      32.809 -18.639   9.952  1.00  0.00     0.201 C 
ATOM     36  C   UNL     1      32.051 -19.442  11.034  1.00  0.00     0.279 C 
BRANCH  32  37
ATOM     37  C   UNL     1      34.599 -20.265  13.565  1.00  0.00     0.191 C 
BRANCH  37  38
ATOM     38  O   UNL     1      35.988 -20.076  13.555  1.00  0.00    -0.394 OA
ATOM     39  H   UNL     1      36.377 -20.881  13.988  1.00  0.00     0.210 HD
ENDBRANCH  37  38
ENDBRANCH  32  37
BRANCH  33  40
ATOM     40  O   UNL     1      34.501 -20.150   9.046  1.00  0.00    -0.387 OA
ATOM     41  H   UNL     1      34.653 -19.845   8.117  1.00  0.00     0.211 HD
ENDBRANCH  33  40
BRANCH  35  42
ATOM     42  O   UNL     1      32.665 -17.255  10.171  1.00  0.00    -0.385 OA
ATOM     43  H   UNL     1      33.571 -16.853  10.205  1.00  0.00     0.211 HD
ENDBRANCH  35  42
BRANCH  36  44
ATOM     44  O   UNL     1      31.782 -20.750  10.593  1.00  0.00    -0.366 OA
ATOM     45  H   UNL     1      31.691 -20.700   9.606  1.00  0.00     0.213 HD
ENDBRANCH  36  44
ENDBRANCH  30  31
ENDBRANCH   4  30
TORSDOF 18
ENDMDL
MODEL 4
REMARK VINA RESULT:    -4.554      1.649      8.275
REMARK INTER + INTRA:         -10.808
REMARK INTER:                  -7.924
REMARK INTRA:                  -2.884
REMARK UNBOUND:                -2.926
REMARK SMILES OC[C@@H]1O[C@@H](O[C@@H]2[C@@H](O)[C@H](O)[C@@H](O)O[C@@H]2CO)[C@H](O)[C@@H](O)[C@@H]1O[C@@H]1O[C@H](CO)[C@@H](O)[C@H](O)[C@H]1O
REMARK SMILES IDX 22 1 3 2 4 3 5 4 18 5 20 6 23 7 24 8 26 9 29 10 25 11 31 12
REMARK SMILES IDX 33 13 27 14 28 15 30 17 32 19 34 21 2 23 1 24 21 26 19 28
REMARK SMILES IDX 6 30 7 31 15 32 8 33 14 34 10 35 12 36 16 37 17 38 9 40
REMARK SMILES IDX 11 42 13 44
REMARK H PARENT 28 16 30 18 32 20 34 22 1 25 21 27 19 29 17 39 9 41 11 43
REMARK H PARENT 13 45
REMARK Flexibility Score: inf
ROOT
ATOM      1  C   UNL     1      36.113 -12.965  12.454  1.00  0.00     0.184 C 
ATOM      2  C   UNL     1      36.004 -12.508  13.927  1.00  0.00     0.178 C 
ATOM      3  O   UNL     1      35.821 -13.617  14.795  1.00  0.00    -0.341 OA
ATOM      4  C   UNL     1      34.593 -14.284  14.549  1.00  0.00     0.282 C 
ATOM      5  C   UNL     1      34.522 -14.834  13.107  1.00  0.00     0.202 C 
ATOM      6  C   UNL     1      34.827 -13.737  12.073  1.00  0.00     0.180 C 
ENDROOT
BRANCH   1   7
ATOM      7  O   UNL     1      37.263 -13.788  12.296  1.00  0.00    -0.341 OA
BRANCH   7   8
ATOM      8  C   UNL     1      37.669 -13.892  10.935  1.00  0.00     0.282 C 
ATOM      9  C   UNL     1      39.335 -15.589  11.242  1.00  0.00     0.178 C 
ATOM     10  C   UNL     1      40.492 -14.612  10.912  1.00  0.00     0.177 C 
ATOM     11  O   UNL     1      38.095 -15.217  10.645  1.00  0.00    -0.341 OA
ATOM     12  C   UNL     1      40.106 -13.143  11.155  1.00  0.00     0.179 C 
ATOM     13  C   UNL     1      38.723 -12.822  10.566  1.00  0.00     0.202 C 
BRANCH   9  14
ATOM     14  C   UNL     1      39.215 -15.913  12.745  1.00  0.00     0.191 C 
BRANCH  14  15
ATOM     15  O   UNL     1      38.074 -16.693  12.973  1.00  0.00    -0.394 OA
ATOM     16  H   UNL     1      38.360 -17.637  12.877  1.00  0.00     0.210 HD
ENDBRANCH  14  15
ENDBRANCH   9  14
BRANCH  10  17
ATOM     17  O   UNL     1      40.947 -14.791   9.591  1.00  0.00    -0.387 OA
ATOM     18  H   UNL     1      41.585 -15.550   9.581  1.00  0.00     0.211 HD
ENDBRANCH  10  17
BRANCH  12  19
ATOM     19  O   UNL     1      40.106 -12.856  12.529  1.00  0.00    -0.387 OA
ATOM     20  H   UNL     1      40.302 -13.706  13.004  1.00  0.00     0.211 HD
ENDBRANCH  12  19
BRANCH  13  21
ATOM     21  O   UNL     1      38.806 -12.726   9.166  1.00  0.00    -0.385 OA
ATOM     22  H   UNL     1      39.003 -13.637   8.822  1.00  0.00     0.211 HD
ENDBRANCH  13  21
ENDBRANCH   7   8
ENDBRANCH   1   7
BRANCH   2  23
ATOM     23  C   UNL     1      37.257 -11.742  14.366  1.00  0.00     0.191 C 
BRANCH  23  24
ATOM     24  O   UNL     1      38.321 -12.630  14.582  1.00  0.00    -0.394 OA
ATOM     25  H   UNL     1      38.907 -12.210  15.264  1.00  0.00     0.210 HD
ENDBRANCH  23  24
ENDBRANCH   2  23
BRANCH   6  26
ATOM     26  O   UNL     1      33.735 -12.856  11.998  1.00  0.00    -0.387 OA
ATOM     27  H   UNL     1      34.095 -11.940  12.121  1.00  0.00     0.211 HD
ENDBRANCH   6  26
BRANCH   5  28
ATOM     28  O   UNL     1      35.440 -15.886  12.951  1.00  0.00    -0.385 OA
ATOM     29  H   UNL     1      35.471 -16.105  11.983  1.00  0.00     0.211 HD
ENDBRANCH   5  28
BRANCH   4  30
ATOM     30  O   UNL     1      33.486 -13.423  14.801  1.00  0.00    -0.341 OA
BRANCH  30  31
ATOM     31  C   UNL     1      32.606 -13.957  15.781  1.00  0.00     0.184 C 
ATOM     32  C   UNL     1      31.994 -12.807  16.616  1.00  0.00     0.178 C 
ATOM     33  C   UNL     1      31.476 -14.770  15.096  1.00  0.00     0.180 C 
ATOM     34  O   UNL     1      31.181 -11.967  15.813  1.00  0.00    -0.342 OA
ATOM     35  C   UNL     1      30.394 -13.863  14.457  1.00  0.00     0.201 C 
ATOM     36  C   UNL     1      30.028 -12.652  15.345  1.00  0.00     0.279 C 
BRANCH  32  37
ATOM     37  C   UNL     1      33.074 -11.952  17.298  1.00  0.00     0.191 C 
BRANCH  37  38
ATOM     38  O   UNL     1      34.257 -12.686  17.456  1.00  0.00    -0.394 OA
ATOM     39  H   UNL     1      34.658 -12.379  18.311  1.00  0.00     0.210 HD
ENDBRANCH  37  38
ENDBRANCH  32  37
BRANCH  33  40
ATOM     40  O   UNL     1      30.905 -15.697  15.989  1.00  0.00    -0.387 OA
ATOM     41  H   UNL     1      31.427 -16.537  15.945  1.00  0.00     0.211 HD
ENDBRANCH  33  40
BRANCH  35  42
ATOM     42  O   UNL     1      30.803 -13.435  13.180  1.00  0.00    -0.385 OA
ATOM     43  H   UNL     1      30.914 -12.450  13.207  1.00  0.00     0.211 HD
ENDBRANCH  35  42
BRANCH  36  44
ATOM     44  O   UNL     1      29.197 -13.042  16.410  1.00  0.00    -0.366 OA
ATOM     45  H   UNL     1      28.804 -12.209  16.779  1.00  0.00     0.213 HD
ENDBRANCH  36  44
ENDBRANCH  30  31
ENDBRANCH   4  30
TORSDOF 18
ENDMDL
MODEL 5
REMARK VINA RESULT:    -4.519      4.151      6.695
REMARK INTER + INTRA:         -10.746
REMARK INTER:                  -8.084
REMARK INTRA:                  -2.662
REMARK UNBOUND:                -2.926
REMARK SMILES OC[C@@H]1O[C@@H](O[C@@H]2[C@@H](O)[C@H](O)[C@@H](O)O[C@@H]2CO)[C@H](O)[C@@H](O)[C@@H]1O[C@@H]1O[C@H](CO)[C@@H](O)[C@H](O)[C@H]1O
REMARK SMILES IDX 22 1 3 2 4 3 5 4 18 5 20 6 23 7 24 8 26 9 29 10 25 11 31 12
REMARK SMILES IDX 33 13 27 14 28 15 30 17 32 19 34 21 2 23 1 24 21 26 19 28
REMARK SMILES IDX 6 30 7 31 15 32 8 33 14 34 10 35 12 36 16 37 17 38 9 40
REMARK SMILES IDX 11 42 13 44
REMARK H PARENT 28 16 30 18 32 20 34 22 1 25 21 27 19 29 17 39 9 41 11 43
REMARK H PARENT 13 45
REMARK Flexibility Score: inf
ROOT
ATOM      1  C   UNL     1      34.418 -17.069  11.902  1.00  0.00     0.184 C 
ATOM      2  C   UNL     1      34.598 -15.800  11.037  1.00  0.00     0.178 C 
ATOM      3  O   UNL     1      35.649 -15.967  10.096  1.00  0.00    -0.341 OA
ATOM      4  C   UNL     1      36.907 -16.133  10.731  1.00  0.00     0.282 C 
ATOM      5  C   UNL     1      36.926 -17.381  11.642  1.00  0.00     0.202 C 
ATOM      6  C   UNL     1      35.749 -17.370  12.632  1.00  0.00     0.180 C 
ENDROOT
BRANCH   1   7
ATOM      7  O   UNL     1      34.038 -18.160  11.072  1.00  0.00    -0.341 OA
BRANCH   7   8
ATOM      8  C   UNL     1      33.814 -19.352  11.818  1.00  0.00     0.282 C 
ATOM      9  C   UNL     1      33.850 -20.879   9.970  1.00  0.00     0.178 C 
ATOM     10  C   UNL     1      32.339 -21.193  10.108  1.00  0.00     0.177 C 
ATOM     11  O   UNL     1      34.452 -20.457  11.190  1.00  0.00    -0.341 OA
ATOM     12  C   UNL     1      31.569 -20.066  10.819  1.00  0.00     0.179 C 
ATOM     13  C   UNL     1      32.309 -19.592  12.079  1.00  0.00     0.202 C 
BRANCH   9  14
ATOM     14  C   UNL     1      34.179 -19.960   8.777  1.00  0.00     0.191 C 
BRANCH  14  15
ATOM     15  O   UNL     1      35.547 -19.659   8.771  1.00  0.00    -0.394 OA
ATOM     16  H   UNL     1      35.670 -18.915   9.415  1.00  0.00     0.210 HD
ENDBRANCH  14  15
ENDBRANCH   9  14
BRANCH  10  17
ATOM     17  O   UNL     1      32.134 -22.422  10.764  1.00  0.00    -0.387 OA
ATOM     18  H   UNL     1      32.702 -22.442  11.577  1.00  0.00     0.211 HD
ENDBRANCH  10  17
BRANCH  12  19
ATOM     19  O   UNL     1      31.378 -18.980   9.951  1.00  0.00    -0.387 OA
ATOM     20  H   UNL     1      30.456 -19.056   9.588  1.00  0.00     0.211 HD
ENDBRANCH  12  19
BRANCH  13  21
ATOM     21  O   UNL     1      32.168 -20.540  13.107  1.00  0.00    -0.385 OA
ATOM     22  H   UNL     1      32.927 -20.404  13.734  1.00  0.00     0.211 HD
ENDBRANCH  13  21
ENDBRANCH   7   8
ENDBRANCH   1   7
BRANCH   2  23
ATOM     23  C   UNL     1      33.311 -15.455  10.280  1.00  0.00     0.191 C 
BRANCH  23  24
ATOM     24  O   UNL     1      32.227 -16.167  10.812  1.00  0.00    -0.394 OA
ATOM     25  H   UNL     1      32.606 -16.833  11.443  1.00  0.00     0.210 HD
ENDBRANCH  23  24
ENDBRANCH   2  23
BRANCH   6  26
ATOM     26  O   UNL     1      35.989 -16.403  13.624  1.00  0.00    -0.387 OA
ATOM     27  H   UNL     1      36.045 -16.885  14.489  1.00  0.00     0.211 HD
ENDBRANCH   6  26
BRANCH   5  28
ATOM     28  O   UNL     1      36.860 -18.545  10.858  1.00  0.00    -0.385 OA
ATOM     29  H   UNL     1      36.387 -18.305  10.019  1.00  0.00     0.211 HD
ENDBRANCH   5  28
BRANCH   4  30
ATOM     30  O   UNL     1      37.255 -14.973  11.481  1.00  0.00    -0.341 OA
BRANCH  30  31
ATOM     31  C   UNL     1      38.391 -14.310  10.942  1.00  0.00     0.184 C 
ATOM     32  C   UNL     1      38.659 -13.006  11.732  1.00  0.00     0.178 C 
ATOM     33  C   UNL     1      39.634 -15.235  11.015  1.00  0.00     0.180 C 
ATOM     34  O   UNL     1      39.003 -13.285  13.079  1.00  0.00    -0.342 OA
ATOM     35  C   UNL     1      40.226 -15.324  12.444  1.00  0.00     0.201 C 
ATOM     36  C   UNL     1      40.251 -13.958  13.168  1.00  0.00     0.279 C 
BRANCH  32  37
ATOM     37  C   UNL     1      37.447 -12.061  11.713  1.00  0.00     0.191 C 
BRANCH  37  38
ATOM     38  O   UNL     1      36.603 -12.364  10.636  1.00  0.00    -0.394 OA
ATOM     39  H   UNL     1      35.822 -11.756  10.720  1.00  0.00     0.210 HD
ENDBRANCH  37  38
ENDBRANCH  32  37
BRANCH  33  40
ATOM     40  O   UNL     1      40.611 -14.847  10.080  1.00  0.00    -0.387 OA
ATOM     41  H   UNL     1      40.155 -14.454   9.294  1.00  0.00     0.211 HD
ENDBRANCH  33  40
BRANCH  35  42
ATOM     42  O   UNL     1      39.524 -16.275  13.209  1.00  0.00    -0.385 OA
ATOM     43  H   UNL     1      38.731 -16.564  12.689  1.00  0.00     0.211 HD
ENDBRANCH  35  42
BRANCH  36  44
ATOM     44  O   UNL     1      41.301 -13.155  12.689  1.00  0.00    -0.366 OA
ATOM     45  H   UNL     1      40.903 -12.545  12.015  1.00  0.00     0.213 HD
ENDBRANCH  36  44
ENDBRANCH  30  31
ENDBRANCH   4  30
TORSDOF 18
ENDMDL
MODEL 6
REMARK VINA RESULT:    -4.381      2.560      4.101
REMARK INTER + INTRA:         -10.508
REMARK INTER:                  -8.133
REMARK INTRA:                  -2.375
REMARK UNBOUND:                -2.926
REMARK SMILES OC[C@@H]1O[C@@H](O[C@@H]2[C@@H](O)[C@H](O)[C@@H](O)O[C@@H]2CO)[C@H](O)[C@@H](O)[C@@H]1O[C@@H]1O[C@H](CO)[C@@H](O)[C@H](O)[C@H]1O
REMARK SMILES IDX 22 1 3 2 4 3 5 4 18 5 20 6 23 7 24 8 26 9 29 10 25 11 31 12
REMARK SMILES IDX 33 13 27 14 28 15 30 17 32 19 34 21 2 23 1 24 21 26 19 28
REMARK SMILES IDX 6 30 7 31 15 32 8 33 14 34 10 35 12 36 16 37 17 38 9 40
REMARK SMILES IDX 11 42 13 44
REMARK H PARENT 28 16 30 18 32 20 34 22 1 25 21 27 19 29 17 39 9 41 11 43
REMARK H PARENT 13 45
REMARK Flexibility Score: inf
ROOT
ATOM      1  C   UNL     1      34.534 -15.009  14.914  1.00  0.00     0.184 C 
ATOM      2  C   UNL     1      35.820 -14.862  15.760  1.00  0.00     0.178 C 
ATOM      3  O   UNL     1      36.757 -14.006  15.122  1.00  0.00    -0.341 OA
ATOM      4  C   UNL     1      37.213 -14.544  13.891  1.00  0.00     0.282 C 
ATOM      5  C   UNL     1      36.051 -14.751  12.894  1.00  0.00     0.202 C 
ATOM      6  C   UNL     1      34.911 -15.570  13.522  1.00  0.00     0.180 C 
ENDROOT
BRANCH   1   7
ATOM      7  O   UNL     1      33.896 -13.743  14.794  1.00  0.00    -0.341 OA
BRANCH   7   8
ATOM      8  C   UNL     1      32.526 -13.862  14.427  1.00  0.00     0.282 C 
ATOM      9  C   UNL     1      32.059 -11.518  14.229  1.00  0.00     0.178 C 
ATOM     10  C   UNL     1      31.132 -11.526  15.470  1.00  0.00     0.177 C 
ATOM     11  O   UNL     1      32.145 -12.784  13.581  1.00  0.00    -0.341 OA
ATOM     12  C   UNL     1      31.443 -12.690  16.427  1.00  0.00     0.179 C 
ATOM     13  C   UNL     1      31.610 -14.013  15.664  1.00  0.00     0.202 C 
BRANCH   9  14
ATOM     14  C   UNL     1      33.435 -10.875  14.496  1.00  0.00     0.191 C 
BRANCH  14  15
ATOM     15  O   UNL     1      34.294 -11.127  13.419  1.00  0.00    -0.394 OA
ATOM     16  H   UNL     1      34.714 -12.006  13.598  1.00  0.00     0.210 HD
ENDBRANCH  14  15
ENDBRANCH   9  14
BRANCH  10  17
ATOM     17  O   UNL     1      29.775 -11.548  15.090  1.00  0.00    -0.387 OA
ATOM     18  H   UNL     1      29.438 -12.475  15.191  1.00  0.00     0.211 HD
ENDBRANCH  10  17
BRANCH  12  19
ATOM     19  O   UNL     1      32.609 -12.423  17.162  1.00  0.00    -0.387 OA
ATOM     20  H   UNL     1      32.901 -11.505  16.920  1.00  0.00     0.211 HD
ENDBRANCH  12  19
BRANCH  13  21
ATOM     21  O   UNL     1      30.356 -14.492  15.248  1.00  0.00    -0.385 OA
ATOM     22  H   UNL     1      30.455 -15.469  15.090  1.00  0.00     0.211 HD
ENDBRANCH  13  21
ENDBRANCH   7   8
ENDBRANCH   1   7
BRANCH   2  23
ATOM     23  C   UNL     1      35.510 -14.301  17.152  1.00  0.00     0.191 C 
BRANCH  23  24
ATOM     24  O   UNL     1      36.540 -14.624  18.048  1.00  0.00    -0.394 OA
ATOM     25  H   UNL     1      36.368 -15.551  18.356  1.00  0.00     0.210 HD
ENDBRANCH  23  24
ENDBRANCH   2  23
BRANCH   6  26
ATOM     26  O   UNL     1      35.313 -16.913  13.632  1.00  0.00    -0.387 OA
ATOM     27  H   UNL     1      34.633 -17.457  13.158  1.00  0.00     0.211 HD
ENDBRANCH   6  26
BRANCH   5  28
ATOM     28  O   UNL     1      35.550 -13.505  12.478  1.00  0.00    -0.385 OA
ATOM     29  H   UNL     1      34.578 -13.499  12.681  1.00  0.00     0.211 HD
ENDBRANCH   5  28
BRANCH   4  30
ATOM     30  O   UNL     1      37.906 -15.772  14.097  1.00  0.00    -0.341 OA
BRANCH  30  31
ATOM     31  C   UNL     1      39.138 -15.814  13.390  1.00  0.00     0.184 C 
ATOM     32  C   UNL     1      40.200 -16.559  14.235  1.00  0.00     0.178 C 
ATOM     33  C   UNL     1      38.946 -16.537  12.029  1.00  0.00     0.180 C 
ATOM     34  O   UNL     1      39.841 -17.917  14.428  1.00  0.00    -0.342 OA
ATOM     35  C   UNL     1      38.851 -18.075  12.181  1.00  0.00     0.201 C 
ATOM     36  C   UNL     1      39.862 -18.640  13.205  1.00  0.00     0.279 C 
BRANCH  32  37
ATOM     37  C   UNL     1      40.412 -15.898  15.606  1.00  0.00     0.191 C 
BRANCH  37  38
ATOM     38  O   UNL     1      40.296 -14.505  15.506  1.00  0.00    -0.394 OA
ATOM     39  H   UNL     1      40.146 -14.311  14.543  1.00  0.00     0.210 HD
ENDBRANCH  37  38
ENDBRANCH  32  37
BRANCH  33  40
ATOM     40  O   UNL     1      39.954 -16.173  11.116  1.00  0.00    -0.387 OA
ATOM     41  H   UNL     1      39.934 -16.808  10.357  1.00  0.00     0.211 HD
ENDBRANCH  33  40
BRANCH  35  42
ATOM     42  O   UNL     1      37.539 -18.456  12.520  1.00  0.00    -0.385 OA
ATOM     43  H   UNL     1      37.490 -18.548  13.506  1.00  0.00     0.211 HD
ENDBRANCH  35  42
BRANCH  36  44
ATOM     44  O   UNL     1      41.157 -18.686  12.660  1.00  0.00    -0.366 OA
ATOM     45  H   UNL     1      41.769 -18.917  13.407  1.00  0.00     0.213 HD
ENDBRANCH  36  44
ENDBRANCH  30  31
ENDBRANCH   4  30
TORSDOF 18
ENDMDL
MODEL 7
REMARK VINA RESULT:    -4.373      3.345      8.085
REMARK INTER + INTRA:         -10.494
REMARK INTER:                  -8.157
REMARK INTRA:                  -2.337
REMARK UNBOUND:                -2.926
REMARK SMILES OC[C@@H]1O[C@@H](O[C@@H]2[C@@H](O)[C@H](O)[C@@H](O)O[C@@H]2CO)[C@H](O)[C@@H](O)[C@@H]1O[C@@H]1O[C@H](CO)[C@@H](O)[C@H](O)[C@H]1O
REMARK SMILES IDX 22 1 3 2 4 3 5 4 18 5 20 6 23 7 24 8 26 9 29 10 25 11 31 12
REMARK SMILES IDX 33 13 27 14 28 15 30 17 32 19 34 21 2 23 1 24 21 26 19 28
REMARK SMILES IDX 6 30 7 31 15 32 8 33 14 34 10 35 12 36 16 37 17 38 9 40
REMARK SMILES IDX 11 42 13 44
REMARK H PARENT 28 16 30 18 32 20 34 22 1 25 21 27 19 29 17 39 9 41 11 43
REMARK H PARENT 13 45
REMARK Flexibility Score: inf
ROOT
ATOM      1  C   UNL     1      37.382 -15.699  12.925  1.00  0.00     0.184 C 
ATOM      2  C   UNL     1      37.575 -17.137  12.390  1.00  0.00     0.178 C 
ATOM      3  O   UNL     1      37.120 -17.249  11.049  1.00  0.00    -0.341 OA
ATOM      4  C   UNL     1      35.723 -17.026  10.944  1.00  0.00     0.282 C 
ATOM      5  C   UNL     1      35.333 -15.611  11.427  1.00  0.00     0.202 C 
ATOM      6  C   UNL     1      35.883 -15.328  12.835  1.00  0.00     0.180 C 
ENDROOT
BRANCH   1   7
ATOM      7  O   UNL     1      38.174 -14.797  12.161  1.00  0.00    -0.341 OA
BRANCH   7   8
ATOM      8  C   UNL     1      39.039 -14.015  12.976  1.00  0.00     0.282 C 
ATOM      9  C   UNL     1      38.940 -11.999  11.681  1.00  0.00     0.178 C 
ATOM     10  C   UNL     1      40.418 -12.128  11.235  1.00  0.00     0.177 C 
ATOM     11  O   UNL     1      38.667 -12.644  12.922  1.00  0.00    -0.341 OA
ATOM     12  C   UNL     1      40.926 -13.579  11.303  1.00  0.00     0.179 C 
ATOM     13  C   UNL     1      40.528 -14.251  12.626  1.00  0.00     0.202 C 
BRANCH   9  14
ATOM     14  C   UNL     1      37.931 -12.359  10.572  1.00  0.00     0.191 C 
BRANCH  14  15
ATOM     15  O   UNL     1      36.627 -12.113  11.018  1.00  0.00    -0.394 OA
ATOM     16  H   UNL     1      36.057 -12.083  10.207  1.00  0.00     0.210 HD
ENDBRANCH  14  15
ENDBRANCH   9  14
BRANCH  10  17
ATOM     17  O   UNL     1      41.251 -11.278  11.988  1.00  0.00    -0.387 OA
ATOM     18  H   UNL     1      41.284 -11.616  12.920  1.00  0.00     0.211 HD
ENDBRANCH  10  17
BRANCH  12  19
ATOM     19  O   UNL     1      40.421 -14.326  10.228  1.00  0.00    -0.387 OA
ATOM     20  H   UNL     1      40.893 -14.016   9.410  1.00  0.00     0.211 HD
ENDBRANCH  12  19
BRANCH  13  21
ATOM     21  O   UNL     1      41.327 -13.764  13.675  1.00  0.00    -0.385 OA
ATOM     22  H   UNL     1      41.676 -14.553  14.166  1.00  0.00     0.211 HD
ENDBRANCH  13  21
ENDBRANCH   7   8
ENDBRANCH   1   7
BRANCH   2  23
ATOM     23  C   UNL     1      39.047 -17.559  12.447  1.00  0.00     0.191 C 
BRANCH  23  24
ATOM     24  O   UNL     1      39.717 -17.150  11.284  1.00  0.00    -0.394 OA
ATOM     25  H   UNL     1      40.676 -17.064  11.524  1.00  0.00     0.210 HD
ENDBRANCH  23  24
ENDBRANCH   2  23
BRANCH   6  26
ATOM     26  O   UNL     1      35.142 -16.064  13.776  1.00  0.00    -0.387 OA
ATOM     27  H   UNL     1      35.594 -15.951  14.652  1.00  0.00     0.211 HD
ENDBRANCH   6  26
BRANCH   5  28
ATOM     28  O   UNL     1      35.832 -14.647  10.533  1.00  0.00    -0.385 OA
ATOM     29  H   UNL     1      36.736 -14.949  10.254  1.00  0.00     0.211 HD
ENDBRANCH   5  28
BRANCH   4  30
ATOM     30  O   UNL     1      34.994 -18.010  11.671  1.00  0.00    -0.341 OA
BRANCH  30  31
ATOM     31  C   UNL     1      33.728 -18.278  11.085  1.00  0.00     0.184 C 
ATOM     32  C   UNL     1      33.600 -19.792  10.784  1.00  0.00     0.178 C 
ATOM     33  C   UNL     1      32.591 -17.835  12.044  1.00  0.00     0.180 C 
ATOM     34  O   UNL     1      33.619 -20.555  11.979  1.00  0.00    -0.342 OA
ATOM     35  C   UNL     1      32.383 -18.825  13.217  1.00  0.00     0.201 C 
ATOM     36  C   UNL     1      32.470 -20.304  12.776  1.00  0.00     0.279 C 
BRANCH  32  37
ATOM     37  C   UNL     1      34.719 -20.291   9.856  1.00  0.00     0.191 C 
BRANCH  37  38
ATOM     38  O   UNL     1      35.957 -20.251  10.510  1.00  0.00    -0.394 OA
ATOM     39  H   UNL     1      35.860 -20.823  11.316  1.00  0.00     0.210 HD
ENDBRANCH  37  38
ENDBRANCH  32  37
BRANCH  33  40
ATOM     40  O   UNL     1      31.392 -17.613  11.341  1.00  0.00    -0.387 OA
ATOM     41  H   UNL     1      31.305 -16.643  11.165  1.00  0.00     0.211 HD
ENDBRANCH  33  40
BRANCH  35  42
ATOM     42  O   UNL     1      33.301 -18.563  14.252  1.00  0.00    -0.385 OA
ATOM     43  H   UNL     1      34.201 -18.463  13.846  1.00  0.00     0.211 HD
ENDBRANCH  35  42
BRANCH  36  44
ATOM     44  O   UNL     1      31.294 -20.701  12.116  1.00  0.00    -0.366 OA
ATOM     45  H   UNL     1      30.545 -20.237  12.572  1.00  0.00     0.213 HD
ENDBRANCH  36  44
ENDBRANCH  30  31
ENDBRANCH   4  30
TORSDOF 18
ENDMDL
MODEL 8
REMARK VINA RESULT:    -4.317      1.626      8.054
REMARK INTER + INTRA:         -10.397
REMARK INTER:                  -7.644
REMARK INTRA:                  -2.753
REMARK UNBOUND:                -2.926
REMARK SMILES OC[C@@H]1O[C@@H](O[C@@H]2[C@@H](O)[C@H](O)[C@@H](O)O[C@@H]2CO)[C@H](O)[C@@H](O)[C@@H]1O[C@@H]1O[C@H](CO)[C@@H](O)[C@H](O)[C@H]1O
REMARK SMILES IDX 22 1 3 2 4 3 5 4 18 5 20 6 23 7 24 8 26 9 29 10 25 11 31 12
REMARK SMILES IDX 33 13 27 14 28 15 30 17 32 19 34 21 2 23 1 24 21 26 19 28
REMARK SMILES IDX 6 30 7 31 15 32 8 33 14 34 10 35 12 36 16 37 17 38 9 40
REMARK SMILES IDX 11 42 13 44
REMARK H PARENT 28 16 30 18 32 20 34 22 1 25 21 27 19 29 17 39 9 41 11 43
REMARK H PARENT 13 45
REMARK Flexibility Score: inf
ROOT
ATOM      1  C   UNL     1      37.174 -13.009  11.750  1.00  0.00     0.184 C 
ATOM      2  C   UNL     1      36.501 -12.296  12.945  1.00  0.00     0.178 C 
ATOM      3  O   UNL     1      36.702 -13.017  14.152  1.00  0.00    -0.341 OA
ATOM      4  C   UNL     1      36.080 -14.292  14.116  1.00  0.00     0.282 C 
ATOM      5  C   UNL     1      36.643 -15.170  12.976  1.00  0.00     0.202 C 
ATOM      6  C   UNL     1      36.588 -14.437  11.625  1.00  0.00     0.180 C 
ENDROOT
BRANCH   1   7
ATOM      7  O   UNL     1      38.581 -13.056  11.955  1.00  0.00    -0.341 OA
BRANCH   7   8
ATOM      8  C   UNL     1      39.279 -13.517  10.803  1.00  0.00     0.282 C 
ATOM      9  C   UNL     1      41.323 -14.115  11.904  1.00  0.00     0.178 C 
ATOM     10  C   UNL     1      42.111 -12.972  11.215  1.00  0.00     0.177 C 
ATOM     11  O   UNL     1      40.190 -14.549  11.156  1.00  0.00    -0.341 OA
ATOM     12  C   UNL     1      41.196 -11.823  10.757  1.00  0.00     0.179 C 
ATOM     13  C   UNL     1      39.949 -12.355  10.033  1.00  0.00     0.202 C 
BRANCH   9  14
ATOM     14  C   UNL     1      41.004 -13.834  13.386  1.00  0.00     0.191 C 
BRANCH  14  15
ATOM     15  O   UNL     1      40.645 -15.024  14.029  1.00  0.00    -0.394 OA
ATOM     16  H   UNL     1      39.802 -14.834  14.515  1.00  0.00     0.210 HD
ENDBRANCH  14  15
ENDBRANCH   9  14
BRANCH  10  17
ATOM     17  O   UNL     1      42.872 -13.460  10.135  1.00  0.00    -0.387 OA
ATOM     18  H   UNL     1      43.628 -13.988  10.498  1.00  0.00     0.211 HD
ENDBRANCH  10  17
BRANCH  12  19
ATOM     19  O   UNL     1      40.803 -11.041  11.854  1.00  0.00    -0.387 OA
ATOM     20  H   UNL     1      41.480 -11.179  12.567  1.00  0.00     0.211 HD
ENDBRANCH  12  19
BRANCH  13  21
ATOM     21  O   UNL     1      40.291 -12.798   8.744  1.00  0.00    -0.385 OA
ATOM     22  H   UNL     1      40.436 -11.988   8.186  1.00  0.00     0.211 HD
ENDBRANCH  13  21
ENDBRANCH   7   8
ENDBRANCH   1   7
BRANCH   2  23
ATOM     23  C   UNL     1      37.047 -10.875  13.125  1.00  0.00     0.191 C 
BRANCH  23  24
ATOM     24  O   UNL     1      38.361 -10.917  13.614  1.00  0.00    -0.394 OA
ATOM     25  H   UNL     1      38.697  -9.983  13.604  1.00  0.00     0.210 HD
ENDBRANCH  23  24
ENDBRANCH   2  23
BRANCH   6  26
ATOM     26  O   UNL     1      35.255 -14.379  11.184  1.00  0.00    -0.387 OA
ATOM     27  H   UNL     1      34.701 -14.136  11.970  1.00  0.00     0.211 HD
ENDBRANCH   6  26
BRANCH   5  28
ATOM     28  O   UNL     1      37.973 -15.523  13.258  1.00  0.00    -0.385 OA
ATOM     29  H   UNL     1      38.066 -15.544  14.246  1.00  0.00     0.211 HD
ENDBRANCH   5  28
BRANCH   4  30
ATOM     30  O   UNL     1      34.667 -14.165  13.986  1.00  0.00    -0.341 OA
BRANCH  30  31
ATOM     31  C   UNL     1      34.102 -13.386  15.031  1.00  0.00     0.184 C 
ATOM     32  C   UNL     1      32.743 -12.803  14.573  1.00  0.00     0.178 C 
ATOM     33  C   UNL     1      33.900 -14.259  16.298  1.00  0.00     0.180 C 
ATOM     34  O   UNL     1      31.799 -13.833  14.333  1.00  0.00    -0.342 OA
ATOM     35  C   UNL     1      32.673 -15.198  16.184  1.00  0.00     0.201 C 
ATOM     36  C   UNL     1      31.451 -14.511  15.532  1.00  0.00     0.279 C 
BRANCH  32  37
ATOM     37  C   UNL     1      32.882 -11.947  13.304  1.00  0.00     0.191 C 
BRANCH  37  38
ATOM     38  O   UNL     1      33.027 -12.763  12.173  1.00  0.00    -0.394 OA
ATOM     39  H   UNL     1      32.450 -13.556  12.331  1.00  0.00     0.210 HD
ENDBRANCH  37  38
ENDBRANCH  32  37
BRANCH  33  40
ATOM     40  O   UNL     1      33.830 -13.462  17.457  1.00  0.00    -0.387 OA
ATOM     41  H   UNL     1      33.063 -13.769  18.003  1.00  0.00     0.211 HD
ENDBRANCH  33  40
BRANCH  35  42
ATOM     42  O   UNL     1      33.014 -16.370  15.482  1.00  0.00    -0.385 OA
ATOM     43  H   UNL     1      32.308 -16.540  14.806  1.00  0.00     0.211 HD
ENDBRANCH  35  42
BRANCH  36  44
ATOM     44  O   UNL     1      30.816 -13.647  16.442  1.00  0.00    -0.366 OA
ATOM     45  H   UNL     1      31.161 -13.883  17.342  1.00  0.00     0.213 HD
ENDBRANCH  36  44
ENDBRANCH  30  31
ENDBRANCH   4  30
TORSDOF 18
ENDMDL
MODEL 9
REMARK VINA RESULT:    -4.306      3.336      7.988
REMARK INTER + INTRA:         -10.379
REMARK INTER:                  -7.577
REMARK INTRA:                  -2.801
REMARK UNBOUND:                -2.926
REMARK SMILES OC[C@@H]1O[C@@H](O[C@@H]2[C@@H](O)[C@H](O)[C@@H](O)O[C@@H]2CO)[C@H](O)[C@@H](O)[C@@H]1O[C@@H]1O[C@H](CO)[C@@H](O)[C@H](O)[C@H]1O
REMARK SMILES IDX 22 1 3 2 4 3 5 4 18 5 20 6 23 7 24 8 26 9 29 10 25 11 31 12
REMARK SMILES IDX 33 13 27 14 28 15 30 17 32 19 34 21 2 23 1 24 21 26 19 28
REMARK SMILES IDX 6 30 7 31 15 32 8 33 14 34 10 35 12 36 16 37 17 38 9 40
REMARK SMILES IDX 11 42 13 44
REMARK H PARENT 28 16 30 18 32 20 34 22 1 25 21 27 19 29 17 39 9 41 11 43
REMARK H PARENT 13 45
REMARK Flexibility Score: inf
ROOT
ATOM      1  C   UNL     1      36.761 -14.787  11.588  1.00  0.00     0.184 C 
ATOM      2  C   UNL     1      35.890 -15.109  12.824  1.00  0.00     0.178 C 
ATOM      3  O   UNL     1      36.379 -16.251  13.511  1.00  0.00    -0.341 OA
ATOM      4  C   UNL     1      36.295 -17.424  12.716  1.00  0.00     0.282 C 
ATOM      5  C   UNL     1      37.129 -17.295  11.421  1.00  0.00     0.202 C 
ATOM      6  C   UNL     1      36.768 -16.016  10.647  1.00  0.00     0.180 C 
ENDROOT
BRANCH   1   7
ATOM      7  O   UNL     1      38.081 -14.463  12.008  1.00  0.00    -0.341 OA
BRANCH   7   8
ATOM      8  C   UNL     1      38.965 -14.271  10.909  1.00  0.00     0.282 C 
ATOM      9  C   UNL     1      41.000 -14.151  12.171  1.00  0.00     0.178 C 
ATOM     10  C   UNL     1      41.195 -12.649  11.847  1.00  0.00     0.177 C 
ATOM     11  O   UNL     1      40.235 -14.845  11.188  1.00  0.00    -0.341 OA
ATOM     12  C   UNL     1      39.872 -11.950  11.488  1.00  0.00     0.179 C 
ATOM     13  C   UNL     1      39.051 -12.784  10.493  1.00  0.00     0.202 C 
BRANCH   9  14
ATOM     14  C   UNL     1      40.520 -14.412  13.613  1.00  0.00     0.191 C 
BRANCH  14  15
ATOM     15  O   UNL     1      40.126 -15.748  13.748  1.00  0.00    -0.394 OA
ATOM     16  H   UNL     1      39.273 -15.838  13.250  1.00  0.00     0.210 HD
ENDBRANCH  14  15
ENDBRANCH   9  14
BRANCH  10  17
ATOM     17  O   UNL     1      42.144 -12.469  10.821  1.00  0.00    -0.387 OA
ATOM     18  H   UNL     1      41.660 -12.260   9.982  1.00  0.00     0.211 HD
ENDBRANCH  10  17
BRANCH  12  19
ATOM     19  O   UNL     1      39.111 -11.717  12.644  1.00  0.00    -0.387 OA
ATOM     20  H   UNL     1      38.909 -10.744  12.668  1.00  0.00     0.211 HD
ENDBRANCH  12  19
BRANCH  13  21
ATOM     21  O   UNL     1      39.618 -12.700   9.209  1.00  0.00    -0.385 OA
ATOM     22  H   UNL     1      40.217 -13.486   9.104  1.00  0.00     0.211 HD
ENDBRANCH  13  21
ENDBRANCH   7   8
ENDBRANCH   1   7
BRANCH   2  23
ATOM     23  C   UNL     1      35.850 -13.928  13.800  1.00  0.00     0.191 C 
BRANCH  23  24
ATOM     24  O   UNL     1      36.303 -12.759  13.171  1.00  0.00    -0.394 OA
ATOM     25  H   UNL     1      35.990 -11.998  13.725  1.00  0.00     0.210 HD
ENDBRANCH  23  24
ENDBRANCH   2  23
BRANCH   6  26
ATOM     26  O   UNL     1      35.506 -16.178  10.049  1.00  0.00    -0.387 OA
ATOM     27  H   UNL     1      35.052 -15.298  10.092  1.00  0.00     0.211 HD
ENDBRANCH   6  26
BRANCH   5  28
ATOM     28  O   UNL     1      38.499 -17.275  11.735  1.00  0.00    -0.385 OA
ATOM     29  H   UNL     1      38.946 -17.924  11.131  1.00  0.00     0.211 HD
ENDBRANCH   5  28
BRANCH   4  30
ATOM     30  O   UNL     1      34.940 -17.728  12.398  1.00  0.00    -0.341 OA
BRANCH  30  31
ATOM     31  C   UNL     1      34.752 -19.111  12.134  1.00  0.00     0.184 C 
ATOM     32  C   UNL     1      33.622 -19.666  13.035  1.00  0.00     0.178 C 
ATOM     33  C   UNL     1      34.386 -19.324  10.640  1.00  0.00     0.180 C 
ATOM     34  O   UNL     1      32.377 -19.062  12.727  1.00  0.00    -0.342 OA
ATOM     35  C   UNL     1      32.916 -18.949  10.329  1.00  0.00     0.201 C 
ATOM     36  C   UNL     1      31.932 -19.418  11.426  1.00  0.00     0.279 C 
BRANCH  32  37
ATOM     37  C   UNL     1      33.922 -19.459  14.528  1.00  0.00     0.191 C 
BRANCH  37  38
ATOM     38  O   UNL     1      33.605 -18.151  14.917  1.00  0.00    -0.394 OA
ATOM     39  H   UNL     1      34.141 -17.970  15.733  1.00  0.00     0.210 HD
ENDBRANCH  37  38
ENDBRANCH  32  37
BRANCH  33  40
ATOM     40  O   UNL     1      34.678 -20.638  10.229  1.00  0.00    -0.387 OA
ATOM     41  H   UNL     1      33.870 -21.022   9.806  1.00  0.00     0.211 HD
ENDBRANCH  33  40
BRANCH  35  42
ATOM     42  O   UNL     1      32.795 -17.563  10.118  1.00  0.00    -0.385 OA
ATOM     43  H   UNL     1      32.942 -17.384   9.153  1.00  0.00     0.211 HD
ENDBRANCH  35  42
BRANCH  36  44
ATOM     44  O   UNL     1      31.693 -20.801  11.328  1.00  0.00    -0.366 OA
ATOM     45  H   UNL     1      32.467 -21.251  11.757  1.00  0.00     0.213 HD
ENDBRANCH  36  44
ENDBRANCH  30  31
ENDBRANCH   4  30
TORSDOF 18
ENDMDL
