MODEL 1
REMARK VINA RESULT:    -4.195      0.000      0.000
REMARK INTER + INTRA:          -8.945
REMARK INTER:                  -7.139
REMARK INTRA:                  -1.806
REMARK UNBOUND:                -1.806
REMARK SMILES CCCCCCCCCCCCCC(=O)[O-]
REMARK SMILES IDX 8 1 9 2 10 3 11 4 12 5 13 6 14 7 15 8 16 9 7 10 6 11 5 12
REMARK SMILES IDX 4 13 3 14 2 15 1 16
REMARK H PARENT
REMARK Flexibility Score: inf
ROOT
ATOM      1  C   UNL     1     -13.297  44.465  30.701  1.00  0.00     0.000 C 
ENDROOT
BRANCH   1   2
ATOM      2  C   UNL     1     -14.790  44.727  30.454  1.00  0.00     0.000 C 
BRANCH   2   3
ATOM      3  C   UNL     1     -15.429  43.680  29.527  1.00  0.00     0.000 C 
BRANCH   3   4
ATOM      4  C   UNL     1     -16.399  42.747  30.267  1.00  0.00     0.000 C 
BRANCH   4   5
ATOM      5  C   UNL     1     -15.678  41.479  30.750  1.00  0.00     0.006 C 
BRANCH   5   6
ATOM      6  C   UNL     1     -16.514  40.683  31.762  1.00  0.00     0.053 C 
BRANCH   6   7
ATOM      7  C   UNL     1     -16.809  39.298  31.272  1.00  0.00     0.041 C 
ATOM      8  O   UNL     1     -17.945  38.789  31.459  1.00  0.00    -0.550 OA
ATOM      9  O   UNL     1     -15.818  38.557  30.640  1.00  0.00    -0.550 OA
ENDBRANCH   6   7
ENDBRANCH   5   6
ENDBRANCH   4   5
ENDBRANCH   3   4
ENDBRANCH   2   3
ENDBRANCH   1   2
BRANCH   1  10
ATOM     10  C   UNL     1     -13.006  44.319  32.199  1.00  0.00     0.000 C 
BRANCH  10  11
ATOM     11  C   UNL     1     -14.141  44.919  33.042  1.00  0.00    -0.000 C 
BRANCH  11  12
ATOM     12  C   UNL     1     -14.615  43.977  34.160  1.00  0.00    -0.000 C 
BRANCH  12  13
ATOM     13  C   UNL     1     -16.044  43.458  33.928  1.00  0.00    -0.000 C 
BRANCH  13  14
ATOM     14  C   UNL     1     -17.033  44.575  33.544  1.00  0.00    -0.000 C 
BRANCH  14  15
ATOM     15  C   UNL     1     -18.302  44.098  32.815  1.00  0.00    -0.003 C 
ATOM     16  C   UNL     1     -19.161  43.160  33.660  1.00  0.00     0.004 C 
ENDBRANCH  14  15
ENDBRANCH  13  14
ENDBRANCH  12  13
ENDBRANCH  11  12
ENDBRANCH  10  11
ENDBRANCH   1  10
TORSDOF 12
ENDMDL
MODEL 2
REMARK VINA RESULT:    -4.171      1.373      3.478
REMARK INTER + INTRA:          -8.904
REMARK INTER:                  -7.503
REMARK INTRA:                  -1.401
REMARK UNBOUND:                -1.806
REMARK SMILES CCCCCCCCCCCCCC(=O)[O-]
REMARK SMILES IDX 8 1 9 2 10 3 11 4 12 5 13 6 14 7 15 8 16 9 7 10 6 11 5 12
REMARK SMILES IDX 4 13 3 14 2 15 1 16
REMARK H PARENT
REMARK Flexibility Score: inf
ROOT
ATOM      1  C   UNL     1     -17.314  44.732  31.101  1.00  0.00     0.000 C 
ENDROOT
BRANCH   1   2
ATOM      2  C   UNL     1     -17.548  44.527  32.605  1.00  0.00     0.000 C 
BRANCH   2   3
ATOM      3  C   UNL     1     -18.963  44.019  32.921  1.00  0.00     0.000 C 
BRANCH   3   4
ATOM      4  C   UNL     1     -18.978  42.553  33.381  1.00  0.00     0.000 C 
BRANCH   4   5
ATOM      5  C   UNL     1     -17.552  42.046  33.642  1.00  0.00     0.006 C 
BRANCH   5   6
ATOM      6  C   UNL     1     -17.445  40.520  33.518  1.00  0.00     0.053 C 
BRANCH   6   7
ATOM      7  C   UNL     1     -17.371  40.083  32.087  1.00  0.00     0.041 C 
ATOM      8  O   UNL     1     -17.526  38.870  31.787  1.00  0.00    -0.550 OA
ATOM      9  O   UNL     1     -17.096  41.009  31.088  1.00  0.00    -0.550 OA
ENDBRANCH   6   7
ENDBRANCH   5   6
ENDBRANCH   4   5
ENDBRANCH   3   4
ENDBRANCH   2   3
ENDBRANCH   1   2
BRANCH   1  10
ATOM     10  C   UNL     1     -16.056  43.990  30.635  1.00  0.00     0.000 C 
BRANCH  10  11
ATOM     11  C   UNL     1     -14.895  44.969  30.399  1.00  0.00    -0.000 C 
BRANCH  11  12
ATOM     12  C   UNL     1     -13.639  44.609  31.207  1.00  0.00    -0.000 C 
BRANCH  12  13
ATOM     13  C   UNL     1     -13.821  43.329  32.042  1.00  0.00    -0.000 C 
BRANCH  13  14
ATOM     14  C   UNL     1     -13.488  43.533  33.531  1.00  0.00    -0.000 C 
BRANCH  14  15
ATOM     15  C   UNL     1     -14.598  44.203  34.360  1.00  0.00    -0.003 C 
ATOM     16  C   UNL     1     -14.320  45.677  34.652  1.00  0.00     0.004 C 
ENDBRANCH  14  15
ENDBRANCH  13  14
ENDBRANCH  12  13
ENDBRANCH  11  12
ENDBRANCH  10  11
ENDBRANCH   1  10
TORSDOF 12
ENDMDL
MODEL 3
REMARK VINA RESULT:    -4.123      3.207      4.527
REMARK INTER + INTRA:          -8.821
REMARK INTER:                  -7.171
REMARK INTRA:                  -1.650
REMARK UNBOUND:                -1.806
REMARK SMILES CCCCCCCCCCCCCC(=O)[O-]
REMARK SMILES IDX 8 1 9 2 10 3 11 4 12 5 13 6 14 7 15 8 16 9 7 10 6 11 5 12
REMARK SMILES IDX 4 13 3 14 2 15 1 16
REMARK H PARENT
REMARK Flexibility Score: inf
ROOT
ATOM      1  C   UNL     1     -15.201  43.378  29.970  1.00  0.00     0.000 C 
ENDROOT
BRANCH   1   2
ATOM      2  C   UNL     1     -13.682  43.311  29.747  1.00  0.00     0.000 C 
BRANCH   2   3
ATOM      3  C   UNL     1     -12.931  42.736  30.958  1.00  0.00     0.000 C 
BRANCH   3   4
ATOM      4  C   UNL     1     -13.851  42.480  32.161  1.00  0.00     0.000 C 
BRANCH   4   5
ATOM      5  C   UNL     1     -13.411  43.312  33.375  1.00  0.00     0.006 C 
BRANCH   5   6
ATOM      6  C   UNL     1     -13.714  44.806  33.198  1.00  0.00     0.053 C 
BRANCH   6   7
ATOM      7  C   UNL     1     -14.756  45.280  34.163  1.00  0.00     0.041 C 
ATOM      8  O   UNL     1     -15.942  44.867  34.069  1.00  0.00    -0.550 OA
ATOM      9  O   UNL     1     -14.427  46.206  35.146  1.00  0.00    -0.550 OA
ENDBRANCH   6   7
ENDBRANCH   5   6
ENDBRANCH   4   5
ENDBRANCH   3   4
ENDBRANCH   2   3
ENDBRANCH   1   2
BRANCH   1  10
ATOM     10  C   UNL     1     -15.687  44.831  30.003  1.00  0.00     0.000 C 
BRANCH  10  11
ATOM     11  C   UNL     1     -17.017  44.950  30.763  1.00  0.00    -0.000 C 
BRANCH  11  12
ATOM     12  C   UNL     1     -17.681  43.588  31.018  1.00  0.00    -0.000 C 
BRANCH  12  13
ATOM     13  C   UNL     1     -18.701  43.635  32.168  1.00  0.00    -0.000 C 
BRANCH  13  14
ATOM     14  C   UNL     1     -18.665  42.375  33.053  1.00  0.00    -0.000 C 
BRANCH  14  15
ATOM     15  C   UNL     1     -17.301  41.664  33.116  1.00  0.00    -0.003 C 
ATOM     16  C   UNL     1     -17.140  40.785  34.355  1.00  0.00     0.004 C 
ENDBRANCH  14  15
ENDBRANCH  13  14
ENDBRANCH  12  13
ENDBRANCH  11  12
ENDBRANCH  10  11
ENDBRANCH   1  10
TORSDOF 12
ENDMDL
MODEL 4
REMARK VINA RESULT:    -4.086      1.703      3.695
REMARK INTER + INTRA:          -8.760
REMARK INTER:                  -6.658
REMARK INTRA:                  -2.101
REMARK UNBOUND:                -1.806
REMARK SMILES CCCCCCCCCCCCCC(=O)[O-]
REMARK SMILES IDX 8 1 9 2 10 3 11 4 12 5 13 6 14 7 15 8 16 9 7 10 6 11 5 12
REMARK SMILES IDX 4 13 3 14 2 15 1 16
REMARK H PARENT
REMARK Flexibility Score: inf
ROOT
ATOM      1  C   UNL     1     -13.048  44.791  32.434  1.00  0.00     0.000 C 
ENDROOT
BRANCH   1   2
ATOM      2  C   UNL     1     -13.305  44.458  33.911  1.00  0.00     0.000 C 
BRANCH   2   3
ATOM      3  C   UNL     1     -14.576  45.128  34.457  1.00  0.00     0.000 C 
BRANCH   3   4
ATOM      4  C   UNL     1     -15.853  44.630  33.764  1.00  0.00     0.000 C 
BRANCH   4   5
ATOM      5  C   UNL     1     -16.079  43.136  34.039  1.00  0.00     0.006 C 
BRANCH   5   6
ATOM      6  C   UNL     1     -17.470  42.666  33.592  1.00  0.00     0.053 C 
BRANCH   6   7
ATOM      7  C   UNL     1     -17.526  41.179  33.419  1.00  0.00     0.041 C 
ATOM      8  O   UNL     1     -17.160  40.419  34.353  1.00  0.00    -0.550 OA
ATOM      9  O   UNL     1     -17.950  40.633  32.214  1.00  0.00    -0.550 OA
ENDBRANCH   6   7
ENDBRANCH   5   6
ENDBRANCH   4   5
ENDBRANCH   3   4
ENDBRANCH   2   3
ENDBRANCH   1   2
BRANCH   1  10
ATOM     10  C   UNL     1     -12.560  43.556  31.669  1.00  0.00     0.000 C 
BRANCH  10  11
ATOM     11  C   UNL     1     -13.067  42.264  32.328  1.00  0.00    -0.000 C 
BRANCH  11  12
ATOM     12  C   UNL     1     -14.017  41.467  31.421  1.00  0.00    -0.000 C 
BRANCH  12  13
ATOM     13  C   UNL     1     -14.243  42.147  30.060  1.00  0.00    -0.000 C 
BRANCH  13  14
ATOM     14  C   UNL     1     -15.730  42.219  29.665  1.00  0.00    -0.000 C 
BRANCH  14  15
ATOM     15  C   UNL     1     -16.490  43.439  30.216  1.00  0.00    -0.003 C 
ATOM     16  C   UNL     1     -15.750  44.757  29.994  1.00  0.00     0.004 C 
ENDBRANCH  14  15
ENDBRANCH  13  14
ENDBRANCH  12  13
ENDBRANCH  11  12
ENDBRANCH  10  11
ENDBRANCH   1  10
TORSDOF 12
ENDMDL
MODEL 5
REMARK VINA RESULT:    -4.011      2.545      4.064
REMARK INTER + INTRA:          -8.631
REMARK INTER:                  -6.724
REMARK INTRA:                  -1.907
REMARK UNBOUND:                -1.806
REMARK SMILES CCCCCCCCCCCCCC(=O)[O-]
REMARK SMILES IDX 8 1 9 2 10 3 11 4 12 5 13 6 14 7 15 8 16 9 7 10 6 11 5 12
REMARK SMILES IDX 4 13 3 14 2 15 1 16
REMARK H PARENT
REMARK Flexibility Score: inf
ROOT
ATOM      1  C   UNL     1     -14.191  42.900  29.263  1.00  0.00     0.000 C 
ENDROOT
BRANCH   1   2
ATOM      2  C   UNL     1     -15.642  43.237  29.636  1.00  0.00     0.000 C 
BRANCH   2   3
ATOM      3  C   UNL     1     -15.785  44.636  30.255  1.00  0.00     0.000 C 
BRANCH   3   4
ATOM      4  C   UNL     1     -17.173  44.874  30.869  1.00  0.00     0.000 C 
BRANCH   4   5
ATOM      5  C   UNL     1     -17.172  44.548  32.370  1.00  0.00     0.006 C 
BRANCH   5   6
ATOM      6  C   UNL     1     -17.774  43.168  32.666  1.00  0.00     0.053 C 
BRANCH   6   7
ATOM      7  C   UNL     1     -19.030  43.272  33.477  1.00  0.00     0.041 C 
ATOM      8  O   UNL     1     -19.593  42.232  33.907  1.00  0.00    -0.550 OA
ATOM      9  O   UNL     1     -19.597  44.516  33.727  1.00  0.00    -0.550 OA
ENDBRANCH   6   7
ENDBRANCH   5   6
ENDBRANCH   4   5
ENDBRANCH   3   4
ENDBRANCH   2   3
ENDBRANCH   1   2
BRANCH   1  10
ATOM     10  C   UNL     1     -13.222  43.947  29.823  1.00  0.00     0.000 C 
BRANCH  10  11
ATOM     11  C   UNL     1     -12.064  43.279  30.578  1.00  0.00    -0.000 C 
BRANCH  11  12
ATOM     12  C   UNL     1     -12.453  41.922  31.186  1.00  0.00    -0.000 C 
BRANCH  12  13
ATOM     13  C   UNL     1     -12.681  42.000  32.706  1.00  0.00    -0.000 C 
BRANCH  13  14
ATOM     14  C   UNL     1     -14.044  42.614  33.076  1.00  0.00    -0.000 C 
BRANCH  14  15
ATOM     15  C   UNL     1     -13.977  43.800  34.056  1.00  0.00    -0.003 C 
ATOM     16  C   UNL     1     -13.578  45.112  33.383  1.00  0.00     0.004 C 
ENDBRANCH  14  15
ENDBRANCH  13  14
ENDBRANCH  12  13
ENDBRANCH  11  12
ENDBRANCH  10  11
ENDBRANCH   1  10
TORSDOF 12
ENDMDL
MODEL 6
REMARK VINA RESULT:    -3.981      2.330      4.921
REMARK INTER + INTRA:          -8.580
REMARK INTER:                  -6.523
REMARK INTRA:                  -2.057
REMARK UNBOUND:                -1.806
REMARK SMILES CCCCCCCCCCCCCC(=O)[O-]
REMARK SMILES IDX 8 1 9 2 10 3 11 4 12 5 13 6 14 7 15 8 16 9 7 10 6 11 5 12
REMARK SMILES IDX 4 13 3 14 2 15 1 16
REMARK H PARENT
REMARK Flexibility Score: inf
ROOT
ATOM      1  C   UNL     1     -15.952  41.674  30.029  1.00  0.00     0.000 C 
ENDROOT
BRANCH   1   2
ATOM      2  C   UNL     1     -15.307  41.315  31.376  1.00  0.00     0.000 C 
BRANCH   2   3
ATOM      3  C   UNL     1     -16.211  41.648  32.573  1.00  0.00     0.000 C 
BRANCH   3   4
ATOM      4  C   UNL     1     -15.726  42.876  33.359  1.00  0.00     0.000 C 
BRANCH   4   5
ATOM      5  C   UNL     1     -16.697  44.054  33.188  1.00  0.00     0.006 C 
BRANCH   5   6
ATOM      6  C   UNL     1     -18.019  43.629  32.536  1.00  0.00     0.053 C 
BRANCH   6   7
ATOM      7  C   UNL     1     -19.139  43.578  33.531  1.00  0.00     0.041 C 
ATOM      8  O   UNL     1     -19.612  42.469  33.895  1.00  0.00    -0.550 OA
ATOM      9  O   UNL     1     -19.683  44.755  34.030  1.00  0.00    -0.550 OA
ENDBRANCH   6   7
ENDBRANCH   5   6
ENDBRANCH   4   5
ENDBRANCH   3   4
ENDBRANCH   2   3
ENDBRANCH   1   2
BRANCH   1  10
ATOM     10  C   UNL     1     -15.133  42.742  29.295  1.00  0.00     0.000 C 
BRANCH  10  11
ATOM     11  C   UNL     1     -15.611  44.154  29.665  1.00  0.00    -0.000 C 
BRANCH  11  12
ATOM     12  C   UNL     1     -14.544  44.967  30.413  1.00  0.00    -0.000 C 
BRANCH  12  13
ATOM     13  C   UNL     1     -13.163  44.290  30.392  1.00  0.00    -0.000 C 
BRANCH  13  14
ATOM     14  C   UNL     1     -12.603  44.025  31.802  1.00  0.00    -0.000 C 
BRANCH  14  15
ATOM     15  C   UNL     1     -11.466  42.989  31.866  1.00  0.00    -0.003 C 
ATOM     16  C   UNL     1     -11.915  41.642  32.429  1.00  0.00     0.004 C 
ENDBRANCH  14  15
ENDBRANCH  13  14
ENDBRANCH  12  13
ENDBRANCH  11  12
ENDBRANCH  10  11
ENDBRANCH   1  10
TORSDOF 12
ENDMDL
MODEL 7
REMARK VINA RESULT:    -3.955      3.623      5.199
REMARK INTER + INTRA:          -8.537
REMARK INTER:                  -6.821
REMARK INTRA:                  -1.716
REMARK UNBOUND:                -1.806
REMARK SMILES CCCCCCCCCCCCCC(=O)[O-]
REMARK SMILES IDX 8 1 9 2 10 3 11 4 12 5 13 6 14 7 15 8 16 9 7 10 6 11 5 12
REMARK SMILES IDX 4 13 3 14 2 15 1 16
REMARK H PARENT
REMARK Flexibility Score: inf
ROOT
ATOM      1  C   UNL     1     -16.379  44.842  29.814  1.00  0.00     0.000 C 
ENDROOT
BRANCH   1   2
ATOM      2  C   UNL     1     -14.907  44.723  30.236  1.00  0.00     0.000 C 
BRANCH   2   3
ATOM      3  C   UNL     1     -14.394  43.275  30.194  1.00  0.00     0.000 C 
BRANCH   3   4
ATOM      4  C   UNL     1     -13.033  43.109  30.887  1.00  0.00     0.000 C 
BRANCH   4   5
ATOM      5  C   UNL     1     -12.330  44.465  31.049  1.00  0.00     0.006 C 
BRANCH   5   6
ATOM      6  C   UNL     1     -10.802  44.328  31.079  1.00  0.00     0.053 C 
BRANCH   6   7
ATOM      7  C   UNL     1     -10.237  44.103  29.710  1.00  0.00     0.041 C 
ATOM      8  O   UNL     1      -9.207  43.395  29.558  1.00  0.00    -0.550 OA
ATOM      9  O   UNL     1     -10.827  44.703  28.604  1.00  0.00    -0.550 OA
ENDBRANCH   6   7
ENDBRANCH   5   6
ENDBRANCH   4   5
ENDBRANCH   3   4
ENDBRANCH   2   3
ENDBRANCH   1   2
BRANCH   1  10
ATOM     10  C   UNL     1     -17.289  45.006  31.036  1.00  0.00     0.000 C 
BRANCH  10  11
ATOM     11  C   UNL     1     -17.943  43.670  31.420  1.00  0.00    -0.000 C 
BRANCH  11  12
ATOM     12  C   UNL     1     -17.626  43.244  32.861  1.00  0.00    -0.000 C 
BRANCH  12  13
ATOM     13  C   UNL     1     -16.558  44.136  33.519  1.00  0.00    -0.000 C 
BRANCH  13  14
ATOM     14  C   UNL     1     -15.297  43.355  33.933  1.00  0.00    -0.000 C 
BRANCH  14  15
ATOM     15  C   UNL     1     -14.075  44.227  34.273  1.00  0.00    -0.003 C 
ATOM     16  C   UNL     1     -14.443  45.676  34.587  1.00  0.00     0.004 C 
ENDBRANCH  14  15
ENDBRANCH  13  14
ENDBRANCH  12  13
ENDBRANCH  11  12
ENDBRANCH  10  11
ENDBRANCH   1  10
TORSDOF 12
ENDMDL
MODEL 8
REMARK VINA RESULT:    -3.943      3.193      4.786
REMARK INTER + INTRA:          -8.516
REMARK INTER:                  -7.022
REMARK INTRA:                  -1.494
REMARK UNBOUND:                -1.806
REMARK SMILES CCCCCCCCCCCCCC(=O)[O-]
REMARK SMILES IDX 8 1 9 2 10 3 11 4 12 5 13 6 14 7 15 8 16 9 7 10 6 11 5 12
REMARK SMILES IDX 4 13 3 14 2 15 1 16
REMARK H PARENT
REMARK Flexibility Score: inf
ROOT
ATOM      1  C   UNL     1     -14.956  43.564  30.236  1.00  0.00     0.000 C 
ENDROOT
BRANCH   1   2
ATOM      2  C   UNL     1     -14.180  44.833  30.617  1.00  0.00     0.000 C 
BRANCH   2   3
ATOM      3  C   UNL     1     -12.807  44.526  31.237  1.00  0.00     0.000 C 
BRANCH   3   4
ATOM      4  C   UNL     1     -11.668  44.575  30.208  1.00  0.00     0.000 C 
BRANCH   4   5
ATOM      5  C   UNL     1     -10.358  44.050  30.814  1.00  0.00     0.006 C 
BRANCH   5   6
ATOM      6  C   UNL     1     -10.601  43.152  32.035  1.00  0.00     0.053 C 
BRANCH   6   7
ATOM      7  C   UNL     1     -10.200  41.733  31.769  1.00  0.00     0.041 C 
ATOM      8  O   UNL     1     -10.070  40.923  32.724  1.00  0.00    -0.550 OA
ATOM      9  O   UNL     1      -9.938  41.314  30.471  1.00  0.00    -0.550 OA
ENDBRANCH   6   7
ENDBRANCH   5   6
ENDBRANCH   4   5
ENDBRANCH   3   4
ENDBRANCH   2   3
ENDBRANCH   1   2
BRANCH   1  10
ATOM     10  C   UNL     1     -16.381  43.905  29.787  1.00  0.00     0.000 C 
BRANCH  10  11
ATOM     11  C   UNL     1     -17.044  44.892  30.759  1.00  0.00    -0.000 C 
BRANCH  11  12
ATOM     12  C   UNL     1     -17.808  44.190  31.892  1.00  0.00    -0.000 C 
BRANCH  12  13
ATOM     13  C   UNL     1     -17.207  44.481  33.278  1.00  0.00    -0.000 C 
BRANCH  13  14
ATOM     14  C   UNL     1     -16.281  43.357  33.778  1.00  0.00    -0.000 C 
BRANCH  14  15
ATOM     15  C   UNL     1     -14.854  43.804  34.145  1.00  0.00    -0.003 C 
ATOM     16  C   UNL     1     -14.739  45.311  34.370  1.00  0.00     0.004 C 
ENDBRANCH  14  15
ENDBRANCH  13  14
ENDBRANCH  12  13
ENDBRANCH  11  12
ENDBRANCH  10  11
ENDBRANCH   1  10
TORSDOF 12
ENDMDL
MODEL 9
REMARK VINA RESULT:    -3.919      1.523      3.717
REMARK INTER + INTRA:          -8.474
REMARK INTER:                  -6.835
REMARK INTRA:                  -1.639
REMARK UNBOUND:                -1.806
REMARK SMILES CCCCCCCCCCCCCC(=O)[O-]
REMARK SMILES IDX 8 1 9 2 10 3 11 4 12 5 13 6 14 7 15 8 16 9 7 10 6 11 5 12
REMARK SMILES IDX 4 13 3 14 2 15 1 16
REMARK H PARENT
REMARK Flexibility Score: inf
ROOT
ATOM      1  C   UNL     1     -15.256  43.956  33.701  1.00  0.00     0.000 C 
ENDROOT
BRANCH   1   2
ATOM      2  C   UNL     1     -16.636  44.619  33.572  1.00  0.00     0.000 C 
BRANCH   2   3
ATOM      3  C   UNL     1     -17.191  44.558  32.141  1.00  0.00     0.000 C 
BRANCH   3   4
ATOM      4  C   UNL     1     -18.584  43.913  32.072  1.00  0.00     0.000 C 
BRANCH   4   5
ATOM      5  C   UNL     1     -19.024  43.410  33.455  1.00  0.00     0.006 C 
BRANCH   5   6
ATOM      6  C   UNL     1     -19.279  41.897  33.469  1.00  0.00     0.053 C 
BRANCH   6   7
ATOM      7  C   UNL     1     -18.018  41.118  33.250  1.00  0.00     0.041 C 
ATOM      8  O   UNL     1     -17.814  40.538  32.151  1.00  0.00    -0.550 OA
ATOM      9  O   UNL     1     -17.083  41.003  34.272  1.00  0.00    -0.550 OA
ENDBRANCH   6   7
ENDBRANCH   5   6
ENDBRANCH   4   5
ENDBRANCH   3   4
ENDBRANCH   2   3
ENDBRANCH   1   2
BRANCH   1  10
ATOM     10  C   UNL     1     -14.173  44.998  34.006  1.00  0.00     0.000 C 
BRANCH  10  11
ATOM     11  C   UNL     1     -13.024  44.910  32.991  1.00  0.00    -0.000 C 
BRANCH  11  12
ATOM     12  C   UNL     1     -13.210  43.771  31.977  1.00  0.00    -0.000 C 
BRANCH  12  13
ATOM     13  C   UNL     1     -13.409  44.286  30.541  1.00  0.00    -0.000 C 
BRANCH  13  14
ATOM     14  C   UNL     1     -14.558  43.574  29.803  1.00  0.00    -0.000 C 
BRANCH  14  15
ATOM     15  C   UNL     1     -14.983  42.225  30.410  1.00  0.00    -0.003 C 
ATOM     16  C   UNL     1     -15.669  41.304  29.402  1.00  0.00     0.004 C 
ENDBRANCH  14  15
ENDBRANCH  13  14
ENDBRANCH  12  13
ENDBRANCH  11  12
ENDBRANCH  10  11
ENDBRANCH   1  10
TORSDOF 12
ENDMDL
