MODEL 1
REMARK VINA RESULT:    -3.586      0.000      0.000
REMARK INTER + INTRA:          -3.691
REMARK INTER:                  -3.691
REMARK INTRA:                   0.000
REMARK UNBOUND:                 0.000
REMARK SMILES CC1(C)[C@@H]2CC[C@@]1(C)[C@H](O)C2
REMARK SMILES IDX 1 1 2 2 4 3 5 4 6 5 7 6 9 7 11 8 8 9 3 10 10 11
REMARK H PARENT 10 12
REMARK Flexibility Score: inf
ROOT
ATOM      1  C   UNL     1     146.133 142.728 146.714  1.00  0.00     0.012 C 
ATOM      2  C   UNL     1     147.223 142.832 145.600  1.00  0.00    -0.025 C 
ATOM      3  C   UNL     1     148.508 143.542 146.054  1.00  0.00    -0.002 C 
ATOM      4  C   UNL     1     148.026 144.978 146.377  1.00  0.00     0.005 C 
ATOM      5  C   UNL     1     146.939 145.223 145.310  1.00  0.00     0.010 C 
ATOM      6  C   UNL     1     146.948 143.892 144.506  1.00  0.00    -0.001 C 
ATOM      7  C   UNL     1     148.264 143.921 143.671  1.00  0.00     0.121 C 
ATOM      8  C   UNL     1     149.340 143.649 144.749  1.00  0.00     0.036 C 
ATOM      9  C   UNL     1     145.673 143.690 143.675  1.00  0.00     0.015 C 
ATOM     10  C   UNL     1     147.453 141.374 145.100  1.00  0.00     0.012 C 
ENDROOT
BRANCH   7  11
ATOM     11  O   UNL     1     148.270 142.936 142.669  1.00  0.00    -0.393 OA
ATOM     12  H   UNL     1     148.871 142.213 142.989  1.00  0.00     0.210 HD
ENDBRANCH   7  11
TORSDOF 1
ENDMDL
MODEL 2
REMARK VINA RESULT:    -3.585     13.141     14.724
REMARK INTER + INTRA:          -3.689
REMARK INTER:                  -3.689
REMARK INTRA:                   0.000
REMARK UNBOUND:                 0.000
REMARK SMILES CC1(C)[C@@H]2CC[C@@]1(C)[C@H](O)C2
REMARK SMILES IDX 1 1 2 2 4 3 5 4 6 5 7 6 9 7 11 8 8 9 3 10 10 11
REMARK H PARENT 10 12
REMARK Flexibility Score: inf
ROOT
ATOM      1  C   UNL     1     135.472 139.016 146.714  1.00  0.00     0.012 C 
ATOM      2  C   UNL     1     134.403 138.889 145.582  1.00  0.00    -0.025 C 
ATOM      3  C   UNL     1     133.110 138.185 146.025  1.00  0.00    -0.002 C 
ATOM      4  C   UNL     1     133.588 136.757 146.384  1.00  0.00     0.005 C 
ATOM      5  C   UNL     1     134.695 136.493 145.342  1.00  0.00     0.010 C 
ATOM      6  C   UNL     1     134.698 137.808 144.513  1.00  0.00    -0.001 C 
ATOM      7  C   UNL     1     133.398 137.763 143.654  1.00  0.00     0.121 C 
ATOM      8  C   UNL     1     132.302 138.053 144.708  1.00  0.00     0.036 C 
ATOM      9  C   UNL     1     135.989 137.997 143.701  1.00  0.00     0.015 C 
ATOM     10  C   UNL     1     134.180 140.337 145.050  1.00  0.00     0.012 C 
ENDROOT
BRANCH   7  11
ATOM     11  O   UNL     1     133.410 138.728 142.634  1.00  0.00    -0.393 OA
ATOM     12  H   UNL     1     132.721 139.401 142.876  1.00  0.00     0.210 HD
ENDBRANCH   7  11
TORSDOF 1
ENDMDL
MODEL 3
REMARK VINA RESULT:    -3.560      9.056     10.482
REMARK INTER + INTRA:          -3.664
REMARK INTER:                  -3.664
REMARK INTRA:                   0.000
REMARK UNBOUND:                 0.000
REMARK SMILES CC1(C)[C@@H]2CC[C@@]1(C)[C@H](O)C2
REMARK SMILES IDX 1 1 2 2 4 3 5 4 6 5 7 6 9 7 11 8 8 9 3 10 10 11
REMARK H PARENT 10 12
REMARK Flexibility Score: inf
ROOT
ATOM      1  C   UNL     1     142.678 135.485 146.694  1.00  0.00     0.012 C 
ATOM      2  C   UNL     1     142.777 134.397 145.579  1.00  0.00    -0.025 C 
ATOM      3  C   UNL     1     143.457 133.097 146.038  1.00  0.00    -0.002 C 
ATOM      4  C   UNL     1     144.897 133.552 146.382  1.00  0.00     0.005 C 
ATOM      5  C   UNL     1     145.176 134.637 145.320  1.00  0.00     0.010 C 
ATOM      6  C   UNL     1     143.856 134.653 144.500  1.00  0.00    -0.001 C 
ATOM      7  C   UNL     1     143.870 133.339 143.661  1.00  0.00     0.121 C 
ATOM      8  C   UNL     1     143.565 132.266 144.734  1.00  0.00     0.036 C 
ATOM      9  C   UNL     1     143.688 135.934 143.668  1.00  0.00     0.015 C 
ATOM     10  C   UNL     1     141.321 134.194 145.060  1.00  0.00     0.012 C 
ENDROOT
BRANCH   7  11
ATOM     11  O   UNL     1     142.899 133.354 142.647  1.00  0.00    -0.393 OA
ATOM     12  H   UNL     1     142.732 132.406 142.403  1.00  0.00     0.210 HD
ENDBRANCH   7  11
TORSDOF 1
ENDMDL
MODEL 4
REMARK VINA RESULT:    -3.559      9.020     10.424
REMARK INTER + INTRA:          -3.663
REMARK INTER:                  -3.663
REMARK INTRA:                   0.000
REMARK UNBOUND:                 0.000
REMARK SMILES CC1(C)[C@@H]2CC[C@@]1(C)[C@H](O)C2
REMARK SMILES IDX 1 1 2 2 4 3 5 4 6 5 7 6 9 7 11 8 8 9 3 10 10 11
REMARK H PARENT 10 12
REMARK Flexibility Score: inf
ROOT
ATOM      1  C   UNL     1     138.892 146.145 146.772  1.00  0.00     0.012 C 
ATOM      2  C   UNL     1     138.791 147.199 145.623  1.00  0.00    -0.025 C 
ATOM      3  C   UNL     1     138.080 148.498 146.033  1.00  0.00    -0.002 C 
ATOM      4  C   UNL     1     136.643 148.026 146.368  1.00  0.00     0.005 C 
ATOM      5  C   UNL     1     136.401 146.905 145.335  1.00  0.00     0.010 C 
ATOM      6  C   UNL     1     137.734 146.890 144.535  1.00  0.00    -0.001 C 
ATOM      7  C   UNL     1     137.708 148.178 143.658  1.00  0.00     0.121 C 
ATOM      8  C   UNL     1     137.977 149.288 144.703  1.00  0.00     0.036 C 
ATOM      9  C   UNL     1     137.939 145.589 143.745  1.00  0.00     0.015 C 
ATOM     10  C   UNL     1     140.251 147.414 145.120  1.00  0.00     0.012 C 
ENDROOT
BRANCH   7  11
ATOM     11  O   UNL     1     138.696 148.153 142.659  1.00  0.00    -0.393 OA
ATOM     12  H   UNL     1     139.457 148.690 143.003  1.00  0.00     0.210 HD
ENDBRANCH   7  11
TORSDOF 1
ENDMDL
MODEL 5
REMARK VINA RESULT:    -3.499      9.215     10.843
REMARK INTER + INTRA:          -3.601
REMARK INTER:                  -3.601
REMARK INTRA:                   0.000
REMARK UNBOUND:                 0.000
REMARK SMILES CC1(C)[C@@H]2CC[C@@]1(C)[C@H](O)C2
REMARK SMILES IDX 1 1 2 2 4 3 5 4 6 5 7 6 9 7 11 8 8 9 3 10 10 11
REMARK H PARENT 10 12
REMARK Flexibility Score: inf
ROOT
ATOM      1  C   UNL     1     137.811 146.193 146.703  1.00  0.00     0.012 C 
ATOM      2  C   UNL     1     137.653 147.370 145.688  1.00  0.00    -0.025 C 
ATOM      3  C   UNL     1     136.453 147.216 144.741  1.00  0.00    -0.002 C 
ATOM      4  C   UNL     1     136.800 145.940 143.933  1.00  0.00     0.005 C 
ATOM      5  C   UNL     1     138.332 146.039 143.779  1.00  0.00     0.010 C 
ATOM      6  C   UNL     1     138.661 147.368 144.514  1.00  0.00    -0.001 C 
ATOM      7  C   UNL     1     138.147 148.501 143.575  1.00  0.00     0.121 C 
ATOM      8  C   UNL     1     136.613 148.406 143.760  1.00  0.00     0.036 C 
ATOM      9  C   UNL     1     140.144 147.485 144.896  1.00  0.00     0.015 C 
ATOM     10  C   UNL     1     137.609 148.666 146.553  1.00  0.00     0.012 C 
ENDROOT
BRANCH   7  11
ATOM     11  O   UNL     1     138.641 149.761 143.954  1.00  0.00    -0.393 OA
ATOM     12  H   UNL     1     139.296 149.598 144.682  1.00  0.00     0.210 HD
ENDBRANCH   7  11
TORSDOF 1
ENDMDL
MODEL 6
REMARK VINA RESULT:    -3.484     13.843     15.297
REMARK INTER + INTRA:          -3.586
REMARK INTER:                  -3.586
REMARK INTRA:                   0.000
REMARK UNBOUND:                 0.000
REMARK SMILES CC1(C)[C@@H]2CC[C@@]1(C)[C@H](O)C2
REMARK SMILES IDX 1 1 2 2 4 3 5 4 6 5 7 6 9 7 11 8 8 9 3 10 10 11
REMARK H PARENT 10 12
REMARK Flexibility Score: inf
ROOT
ATOM      1  C   UNL     1     135.340 136.106 145.854  1.00  0.00     0.012 C 
ATOM      2  C   UNL     1     134.608 137.205 145.020  1.00  0.00    -0.025 C 
ATOM      3  C   UNL     1     134.151 138.414 145.852  1.00  0.00    -0.002 C 
ATOM      4  C   UNL     1     133.120 137.802 146.832  1.00  0.00     0.005 C 
ATOM      5  C   UNL     1     132.432 136.719 145.974  1.00  0.00     0.010 C 
ATOM      6  C   UNL     1     133.156 136.862 144.606  1.00  0.00    -0.001 C 
ATOM      7  C   UNL     1     132.618 138.187 143.986  1.00  0.00     0.121 C 
ATOM      8  C   UNL     1     133.336 139.260 144.840  1.00  0.00     0.036 C 
ATOM      9  C   UNL     1     132.984 135.627 143.709  1.00  0.00     0.015 C 
ATOM     10  C   UNL     1     135.583 137.572 143.861  1.00  0.00     0.012 C 
ENDROOT
BRANCH   7  11
ATOM     11  O   UNL     1     132.945 138.300 142.624  1.00  0.00    -0.393 OA
ATOM     12  H   UNL     1     132.401 137.620 142.147  1.00  0.00     0.210 HD
ENDBRANCH   7  11
TORSDOF 1
ENDMDL
MODEL 7
REMARK VINA RESULT:    -3.468      8.857     10.781
REMARK INTER + INTRA:          -3.569
REMARK INTER:                  -3.569
REMARK INTRA:                   0.000
REMARK UNBOUND:                 0.000
REMARK SMILES CC1(C)[C@@H]2CC[C@@]1(C)[C@H](O)C2
REMARK SMILES IDX 1 1 2 2 4 3 5 4 6 5 7 6 9 7 11 8 8 9 3 10 10 11
REMARK H PARENT 10 12
REMARK Flexibility Score: inf
ROOT
ATOM      1  C   UNL     1     145.428 135.420 145.870  1.00  0.00     0.012 C 
ATOM      2  C   UNL     1     144.342 134.672 145.034  1.00  0.00    -0.025 C 
ATOM      3  C   UNL     1     143.126 134.219 145.858  1.00  0.00    -0.002 C 
ATOM      4  C   UNL     1     143.733 133.204 146.858  1.00  0.00     0.005 C 
ATOM      5  C   UNL     1     144.828 132.511 146.021  1.00  0.00     0.010 C 
ATOM      6  C   UNL     1     144.697 133.217 144.642  1.00  0.00    -0.001 C 
ATOM      7  C   UNL     1     143.381 132.664 144.015  1.00  0.00     0.121 C 
ATOM      8  C   UNL     1     142.295 133.387 144.848  1.00  0.00     0.036 C 
ATOM      9  C   UNL     1     145.943 133.040 143.761  1.00  0.00     0.015 C 
ATOM     10  C   UNL     1     143.982 135.631 143.858  1.00  0.00     0.012 C 
ENDROOT
BRANCH   7  11
ATOM     11  O   UNL     1     143.282 132.973 142.648  1.00  0.00    -0.393 OA
ATOM     12  H   UNL     1     142.733 133.799 142.586  1.00  0.00     0.210 HD
ENDBRANCH   7  11
TORSDOF 1
ENDMDL
MODEL 8
REMARK VINA RESULT:    -3.457      1.024      2.111
REMARK INTER + INTRA:          -3.558
REMARK INTER:                  -3.558
REMARK INTRA:                   0.000
REMARK UNBOUND:                 0.000
REMARK SMILES CC1(C)[C@@H]2CC[C@@]1(C)[C@H](O)C2
REMARK SMILES IDX 1 1 2 2 4 3 5 4 6 5 7 6 9 7 11 8 8 9 3 10 10 11
REMARK H PARENT 10 12
REMARK Flexibility Score: inf
ROOT
ATOM      1  C   UNL     1     146.101 145.411 145.803  1.00  0.00     0.012 C 
ATOM      2  C   UNL     1     146.865 144.331 144.973  1.00  0.00    -0.025 C 
ATOM      3  C   UNL     1     147.351 143.135 145.807  1.00  0.00    -0.002 C 
ATOM      4  C   UNL     1     148.362 143.775 146.791  1.00  0.00     0.005 C 
ATOM      5  C   UNL     1     149.024 144.875 145.934  1.00  0.00     0.010 C 
ATOM      6  C   UNL     1     148.309 144.712 144.564  1.00  0.00    -0.001 C 
ATOM      7  C   UNL     1     148.884 143.402 143.947  1.00  0.00     0.121 C 
ATOM      8  C   UNL     1     148.192 142.310 144.799  1.00  0.00     0.036 C 
ATOM      9  C   UNL     1     148.451 145.951 143.667  1.00  0.00     0.015 C 
ATOM     10  C   UNL     1     145.904 143.937 143.810  1.00  0.00     0.012 C 
ENDROOT
BRANCH   7  11
ATOM     11  O   UNL     1     148.566 143.279 142.584  1.00  0.00    -0.393 OA
ATOM     12  H   UNL     1     147.593 143.082 142.540  1.00  0.00     0.210 HD
ENDBRANCH   7  11
TORSDOF 1
ENDMDL
MODEL 9
REMARK VINA RESULT:    -3.447      9.692     10.936
REMARK INTER + INTRA:          -3.548
REMARK INTER:                  -3.548
REMARK INTRA:                   0.000
REMARK UNBOUND:                 0.000
REMARK SMILES CC1(C)[C@@H]2CC[C@@]1(C)[C@H](O)C2
REMARK SMILES IDX 1 1 2 2 4 3 5 4 6 5 7 6 9 7 11 8 8 9 3 10 10 11
REMARK H PARENT 10 12
REMARK Flexibility Score: inf
ROOT
ATOM      1  C   UNL     1     136.122 145.985 145.659  1.00  0.00     0.012 C 
ATOM      2  C   UNL     1     137.227 146.774 144.888  1.00  0.00    -0.025 C 
ATOM      3  C   UNL     1     138.421 147.186 145.764  1.00  0.00    -0.002 C 
ATOM      4  C   UNL     1     137.787 148.151 146.797  1.00  0.00     0.005 C 
ATOM      5  C   UNL     1     136.713 148.884 145.967  1.00  0.00     0.010 C 
ATOM      6  C   UNL     1     136.880 148.246 144.559  1.00  0.00    -0.001 C 
ATOM      7  C   UNL     1     138.210 148.829 143.993  1.00  0.00     0.121 C 
ATOM      8  C   UNL     1     139.276 148.067 144.817  1.00  0.00     0.036 C 
ATOM      9  C   UNL     1     135.656 148.465 143.657  1.00  0.00     0.015 C 
ATOM     10  C   UNL     1     137.618 145.874 143.677  1.00  0.00     0.012 C 
ENDROOT
BRANCH   7  11
ATOM     11  O   UNL     1     138.344 148.588 142.616  1.00  0.00    -0.393 OA
ATOM     12  H   UNL     1     138.734 149.412 142.222  1.00  0.00     0.210 HD
ENDBRANCH   7  11
TORSDOF 1
ENDMDL
