MODEL 1
REMARK VINA RESULT:    -5.143      0.000      0.000
REMARK INTER + INTRA:          -7.122
REMARK INTER:                  -6.346
REMARK INTRA:                  -0.776
REMARK UNBOUND:                -0.776
REMARK SMILES CC(C)=CCC[C@@H](C)[C@@H]1C=CC(C)=CC1
REMARK SMILES IDX 6 1 7 2 8 3 9 4 13 5 12 6 14 7 11 8 15 9 10 10 5 11 4 12
REMARK SMILES IDX 2 13 1 14 3 15
REMARK H PARENT
REMARK Flexibility Score: inf
ROOT
ATOM      1  C   UNL     1      56.618  44.052  42.420  1.00  0.00     0.008 C 
ENDROOT
BRANCH   1   2
ATOM      2  C   UNL     1      56.268  45.224  43.392  1.00  0.00    -0.007 C 
ATOM      3  C   UNL     1      56.995  46.496  42.904  1.00  0.00     0.008 C 
BRANCH   2   4
ATOM      4  C   UNL     1      54.728  45.472  43.513  1.00  0.00     0.018 C 
ATOM      5  C   UNL     1      50.656  46.855  42.899  1.00  0.00     0.044 C 
ATOM      6  C   UNL     1      52.118  46.536  43.004  1.00  0.00    -0.055 C 
ATOM      7  C   UNL     1      52.877  47.124  43.942  1.00  0.00    -0.023 C 
ATOM      8  C   UNL     1      52.751  45.634  42.017  1.00  0.00    -0.001 C 
ATOM      9  C   UNL     1      54.369  46.912  43.960  1.00  0.00     0.035 C 
ATOM     10  C   UNL     1      53.995  45.181  42.211  1.00  0.00    -0.023 C 
ENDBRANCH   2   4
ENDBRANCH   1   2
BRANCH   1  11
ATOM     11  C   UNL     1      57.829  44.343  41.516  1.00  0.00     0.027 C 
BRANCH  11  12
ATOM     12  C   UNL     1      58.915  43.305  41.685  1.00  0.00    -0.028 C 
ATOM     13  C   UNL     1      59.963  43.422  42.530  1.00  0.00    -0.080 C 
ATOM     14  C   UNL     1      60.187  44.662  43.364  1.00  0.00     0.039 C 
ATOM     15  C   UNL     1      60.943  42.281  42.616  1.00  0.00     0.039 C 
ENDBRANCH  11  12
ENDBRANCH   1  11
TORSDOF 4
ENDMDL
MODEL 2
REMARK VINA RESULT:    -4.659      2.093      6.283
REMARK INTER + INTRA:          -6.524
REMARK INTER:                  -5.477
REMARK INTRA:                  -1.047
REMARK UNBOUND:                -0.776
REMARK SMILES CC(C)=CCC[C@@H](C)[C@@H]1C=CC(C)=CC1
REMARK SMILES IDX 6 1 7 2 8 3 9 4 13 5 12 6 14 7 11 8 15 9 10 10 5 11 4 12
REMARK SMILES IDX 2 13 1 14 3 15
REMARK H PARENT
REMARK Flexibility Score: inf
ROOT
ATOM      1  C   UNL     1      56.859  46.566  41.797  1.00  0.00     0.008 C 
ENDROOT
BRANCH   1   2
ATOM      2  C   UNL     1      58.305  46.460  42.377  1.00  0.00    -0.007 C 
ATOM      3  C   UNL     1      58.322  47.125  43.771  1.00  0.00     0.008 C 
BRANCH   2   4
ATOM      4  C   UNL     1      58.821  44.985  42.455  1.00  0.00     0.018 C 
ATOM      5  C   UNL     1      61.219  41.375  42.163  1.00  0.00     0.044 C 
ATOM      6  C   UNL     1      60.510  42.696  42.123  1.00  0.00    -0.055 C 
ATOM      7  C   UNL     1      59.565  42.933  41.200  1.00  0.00    -0.023 C 
ATOM      8  C   UNL     1      60.910  43.778  43.047  1.00  0.00    -0.001 C 
ATOM      9  C   UNL     1      58.952  44.304  41.069  1.00  0.00     0.035 C 
ATOM     10  C   UNL     1      60.164  44.883  43.165  1.00  0.00    -0.023 C 
ENDBRANCH   2   4
ENDBRANCH   1   2
BRANCH   1  11
ATOM     11  C   UNL     1      55.762  46.174  42.804  1.00  0.00     0.027 C 
BRANCH  11  12
ATOM     12  C   UNL     1      54.991  44.958  42.346  1.00  0.00    -0.028 C 
ATOM     13  C   UNL     1      55.156  43.713  42.844  1.00  0.00    -0.080 C 
ATOM     14  C   UNL     1      56.198  43.400  43.892  1.00  0.00     0.039 C 
ATOM     15  C   UNL     1      54.281  42.607  42.312  1.00  0.00     0.039 C 
ENDBRANCH  11  12
ENDBRANCH   1  11
TORSDOF 4
ENDMDL
MODEL 3
REMARK VINA RESULT:    -4.591      1.251      2.277
REMARK INTER + INTRA:          -6.440
REMARK INTER:                  -5.951
REMARK INTRA:                  -0.489
REMARK UNBOUND:                -0.776
REMARK SMILES CC(C)=CCC[C@@H](C)[C@@H]1C=CC(C)=CC1
REMARK SMILES IDX 6 1 7 2 8 3 9 4 13 5 12 6 14 7 11 8 15 9 10 10 5 11 4 12
REMARK SMILES IDX 2 13 1 14 3 15
REMARK H PARENT
REMARK Flexibility Score: inf
ROOT
ATOM      1  C   UNL     1      57.895  43.597  41.760  1.00  0.00     0.008 C 
ENDROOT
BRANCH   1   2
ATOM      2  C   UNL     1      57.045  42.999  42.925  1.00  0.00    -0.007 C 
ATOM      3  C   UNL     1      57.980  42.731  44.125  1.00  0.00     0.008 C 
BRANCH   2   4
ATOM      4  C   UNL     1      55.852  43.924  43.342  1.00  0.00     0.018 C 
ATOM      5  C   UNL     1      52.765  46.977  43.432  1.00  0.00     0.044 C 
ATOM      6  C   UNL     1      53.919  46.035  43.261  1.00  0.00    -0.055 C 
ATOM      7  C   UNL     1      55.075  46.251  43.907  1.00  0.00    -0.023 C 
ATOM      8  C   UNL     1      53.817  44.906  42.311  1.00  0.00    -0.001 C 
ATOM      9  C   UNL     1      56.278  45.386  43.629  1.00  0.00     0.035 C 
ATOM     10  C   UNL     1      54.749  43.945  42.294  1.00  0.00    -0.023 C 
ENDBRANCH   2   4
ENDBRANCH   1   2
BRANCH   1  11
ATOM     11  C   UNL     1      59.318  43.016  41.676  1.00  0.00     0.027 C 
BRANCH  11  12
ATOM     12  C   UNL     1      60.348  43.980  42.219  1.00  0.00    -0.028 C 
ATOM     13  C   UNL     1      61.384  43.629  43.011  1.00  0.00    -0.080 C 
ATOM     14  C   UNL     1      61.582  42.210  43.493  1.00  0.00     0.039 C 
ATOM     15  C   UNL     1      62.354  44.700  43.439  1.00  0.00     0.039 C 
ENDBRANCH  11  12
ENDBRANCH   1  11
TORSDOF 4
ENDMDL
MODEL 4
REMARK VINA RESULT:    -4.561      1.755      3.820
REMARK INTER + INTRA:          -6.403
REMARK INTER:                  -5.938
REMARK INTRA:                  -0.465
REMARK UNBOUND:                -0.776
REMARK SMILES CC(C)=CCC[C@@H](C)[C@@H]1C=CC(C)=CC1
REMARK SMILES IDX 6 1 7 2 8 3 9 4 13 5 12 6 14 7 11 8 15 9 10 10 5 11 4 12
REMARK SMILES IDX 2 13 1 14 3 15
REMARK H PARENT
REMARK Flexibility Score: inf
ROOT
ATOM      1  C   UNL     1      59.826  42.727  41.882  1.00  0.00     0.008 C 
ENDROOT
BRANCH   1   2
ATOM      2  C   UNL     1      59.486  44.236  41.670  1.00  0.00    -0.007 C 
ATOM      3  C   UNL     1      59.556  44.546  40.159  1.00  0.00     0.008 C 
BRANCH   2   4
ATOM      4  C   UNL     1      58.089  44.631  42.256  1.00  0.00     0.018 C 
ATOM      5  C   UNL     1      53.854  45.439  42.781  1.00  0.00     0.044 C 
ATOM      6  C   UNL     1      55.281  45.177  42.404  1.00  0.00    -0.055 C 
ATOM      7  C   UNL     1      56.120  46.197  42.162  1.00  0.00    -0.023 C 
ATOM      8  C   UNL     1      55.752  43.788  42.214  1.00  0.00    -0.001 C 
ATOM      9  C   UNL     1      57.512  45.935  41.648  1.00  0.00     0.035 C 
ATOM     10  C   UNL     1      57.058  43.526  42.079  1.00  0.00    -0.023 C 
ENDBRANCH   2   4
ENDBRANCH   1   2
BRANCH   1  11
ATOM     11  C   UNL     1      61.053  42.493  42.781  1.00  0.00     0.027 C 
BRANCH  11  12
ATOM     12  C   UNL     1      61.623  41.106  42.599  1.00  0.00    -0.028 C 
ATOM     13  C   UNL     1      62.923  40.782  42.773  1.00  0.00    -0.080 C 
ATOM     14  C   UNL     1      63.968  41.817  43.118  1.00  0.00     0.039 C 
ATOM     15  C   UNL     1      63.333  39.343  42.595  1.00  0.00     0.039 C 
ENDBRANCH  11  12
ENDBRANCH   1  11
TORSDOF 4
ENDMDL
MODEL 5
REMARK VINA RESULT:    -4.398     20.006     22.048
REMARK INTER + INTRA:          -6.202
REMARK INTER:                  -5.557
REMARK INTRA:                  -0.645
REMARK UNBOUND:                -0.776
REMARK SMILES CC(C)=CCC[C@@H](C)[C@@H]1C=CC(C)=CC1
REMARK SMILES IDX 6 1 7 2 8 3 9 4 13 5 12 6 14 7 11 8 15 9 10 10 5 11 4 12
REMARK SMILES IDX 2 13 1 14 3 15
REMARK H PARENT
REMARK Flexibility Score: inf
ROOT
ATOM      1  C   UNL     1      52.397  32.366  26.825  1.00  0.00     0.008 C 
ENDROOT
BRANCH   1   2
ATOM      2  C   UNL     1      52.121  30.867  26.482  1.00  0.00    -0.007 C 
ATOM      3  C   UNL     1      51.223  30.809  25.227  1.00  0.00     0.008 C 
BRANCH   2   4
ATOM      4  C   UNL     1      53.435  30.043  26.268  1.00  0.00     0.018 C 
ATOM      5  C   UNL     1      57.179  27.920  26.851  1.00  0.00     0.044 C 
ATOM      6  C   UNL     1      55.926  28.743  26.823  1.00  0.00    -0.055 C 
ATOM      7  C   UNL     1      55.950  30.005  26.367  1.00  0.00    -0.023 C 
ATOM      8  C   UNL     1      54.669  28.196  27.379  1.00  0.00    -0.001 C 
ATOM      9  C   UNL     1      54.725  30.878  26.468  1.00  0.00     0.035 C 
ATOM     10  C   UNL     1      53.506  28.828  27.181  1.00  0.00    -0.023 C 
ENDBRANCH   2   4
ENDBRANCH   1   2
BRANCH   1  11
ATOM     11  C   UNL     1      51.241  33.046  27.580  1.00  0.00     0.027 C 
BRANCH  11  12
ATOM     12  C   UNL     1      50.751  32.200  28.732  1.00  0.00    -0.028 C 
ATOM     13  C   UNL     1      50.600  32.644  29.999  1.00  0.00    -0.080 C 
ATOM     14  C   UNL     1      50.973  34.050  30.407  1.00  0.00     0.039 C 
ATOM     15  C   UNL     1      50.061  31.689  31.033  1.00  0.00     0.039 C 
ENDBRANCH  11  12
ENDBRANCH   1  11
TORSDOF 4
ENDMDL
MODEL 6
REMARK VINA RESULT:    -4.251      1.304      7.105
REMARK INTER + INTRA:          -6.021
REMARK INTER:                  -5.220
REMARK INTRA:                  -0.800
REMARK UNBOUND:                -0.776
REMARK SMILES CC(C)=CCC[C@@H](C)[C@@H]1C=CC(C)=CC1
REMARK SMILES IDX 6 1 7 2 8 3 9 4 13 5 12 6 14 7 11 8 15 9 10 10 5 11 4 12
REMARK SMILES IDX 2 13 1 14 3 15
REMARK H PARENT
REMARK Flexibility Score: inf
ROOT
ATOM      1  C   UNL     1      57.235  44.078  41.804  1.00  0.00     0.008 C 
ENDROOT
BRANCH   1   2
ATOM      2  C   UNL     1      58.571  44.831  42.099  1.00  0.00    -0.007 C 
ATOM      3  C   UNL     1      58.422  45.584  43.440  1.00  0.00     0.008 C 
BRANCH   2   4
ATOM      4  C   UNL     1      59.811  43.876  42.130  1.00  0.00     0.018 C 
ATOM      5  C   UNL     1      62.408  40.405  42.397  1.00  0.00     0.044 C 
ATOM      6  C   UNL     1      61.375  41.492  42.400  1.00  0.00    -0.055 C 
ATOM      7  C   UNL     1      61.225  42.284  43.474  1.00  0.00    -0.023 C 
ATOM      8  C   UNL     1      60.458  41.645  41.251  1.00  0.00    -0.001 C 
ATOM      9  C   UNL     1      60.098  43.284  43.533  1.00  0.00     0.035 C 
ATOM     10  C   UNL     1      59.674  42.724  41.145  1.00  0.00    -0.023 C 
ENDBRANCH   2   4
ENDBRANCH   1   2
BRANCH   1  11
ATOM     11  C   UNL     1      56.277  44.030  43.008  1.00  0.00     0.027 C 
BRANCH  11  12
ATOM     12  C   UNL     1      54.848  44.294  42.596  1.00  0.00    -0.028 C 
ATOM     13  C   UNL     1      54.228  45.490  42.699  1.00  0.00    -0.080 C 
ATOM     14  C   UNL     1      54.906  46.695  43.308  1.00  0.00     0.039 C 
ATOM     15  C   UNL     1      52.809  45.606  42.205  1.00  0.00     0.039 C 
ENDBRANCH  11  12
ENDBRANCH   1  11
TORSDOF 4
ENDMDL
MODEL 7
REMARK VINA RESULT:    -4.244      1.376      2.999
REMARK INTER + INTRA:          -6.012
REMARK INTER:                  -5.350
REMARK INTRA:                  -0.662
REMARK UNBOUND:                -0.776
REMARK SMILES CC(C)=CCC[C@@H](C)[C@@H]1C=CC(C)=CC1
REMARK SMILES IDX 6 1 7 2 8 3 9 4 13 5 12 6 14 7 11 8 15 9 10 10 5 11 4 12
REMARK SMILES IDX 2 13 1 14 3 15
REMARK H PARENT
REMARK Flexibility Score: inf
ROOT
ATOM      1  C   UNL     1      58.782  42.511  41.515  1.00  0.00     0.008 C 
ENDROOT
BRANCH   1   2
ATOM      2  C   UNL     1      58.025  43.248  42.665  1.00  0.00    -0.007 C 
ATOM      3  C   UNL     1      58.945  44.354  43.226  1.00  0.00     0.008 C 
BRANCH   2   4
ATOM      4  C   UNL     1      56.653  43.843  42.204  1.00  0.00     0.018 C 
ATOM      5  C   UNL     1      52.739  45.724  42.092  1.00  0.00     0.044 C 
ATOM      6  C   UNL     1      54.056  45.044  42.325  1.00  0.00    -0.055 C 
ATOM      7  C   UNL     1      54.142  43.705  42.313  1.00  0.00    -0.023 C 
ATOM      8  C   UNL     1      55.254  45.846  42.655  1.00  0.00    -0.001 C 
ATOM      9  C   UNL     1      55.432  43.019  42.684  1.00  0.00     0.035 C 
ATOM     10  C   UNL     1      56.467  45.282  42.665  1.00  0.00    -0.023 C 
ENDBRANCH   2   4
ENDBRANCH   1   2
BRANCH   1  11
ATOM     11  C   UNL     1      60.298  42.780  41.506  1.00  0.00     0.027 C 
BRANCH  11  12
ATOM     12  C   UNL     1      61.092  41.504  41.662  1.00  0.00    -0.028 C 
ATOM     13  C   UNL     1      61.734  41.134  42.793  1.00  0.00    -0.080 C 
ATOM     14  C   UNL     1      61.768  42.014  44.021  1.00  0.00     0.039 C 
ATOM     15  C   UNL     1      62.452  39.809  42.808  1.00  0.00     0.039 C 
ENDBRANCH  11  12
ENDBRANCH   1  11
TORSDOF 4
ENDMDL
MODEL 8
REMARK VINA RESULT:    -4.235     20.332     22.474
REMARK INTER + INTRA:          -6.001
REMARK INTER:                  -5.295
REMARK INTRA:                  -0.706
REMARK UNBOUND:                -0.776
REMARK SMILES CC(C)=CCC[C@@H](C)[C@@H]1C=CC(C)=CC1
REMARK SMILES IDX 6 1 7 2 8 3 9 4 13 5 12 6 14 7 11 8 15 9 10 10 5 11 4 12
REMARK SMILES IDX 2 13 1 14 3 15
REMARK H PARENT
REMARK Flexibility Score: inf
ROOT
ATOM      1  C   UNL     1      51.824  30.393  27.063  1.00  0.00     0.008 C 
ENDROOT
BRANCH   1   2
ATOM      2  C   UNL     1      52.838  30.781  25.940  1.00  0.00    -0.007 C 
ATOM      3  C   UNL     1      53.376  32.198  26.235  1.00  0.00     0.008 C 
BRANCH   2   4
ATOM      4  C   UNL     1      54.012  29.755  25.803  1.00  0.00     0.018 C 
ATOM      5  C   UNL     1      57.547  27.331  26.506  1.00  0.00     0.044 C 
ATOM      6  C   UNL     1      56.399  28.290  26.404  1.00  0.00    -0.055 C 
ATOM      7  C   UNL     1      56.499  29.393  25.646  1.00  0.00    -0.023 C 
ATOM      8  C   UNL     1      55.177  28.069  27.207  1.00  0.00    -0.001 C 
ATOM      9  C   UNL     1      55.401  30.426  25.652  1.00  0.00     0.035 C 
ATOM     10  C   UNL     1      54.074  28.792  26.980  1.00  0.00    -0.023 C 
ENDBRANCH   2   4
ENDBRANCH   1   2
BRANCH   1  11
ATOM     11  C   UNL     1      50.682  31.411  27.238  1.00  0.00     0.027 C 
BRANCH  11  12
ATOM     12  C   UNL     1      50.613  31.935  28.654  1.00  0.00    -0.028 C 
ATOM     13  C   UNL     1      50.732  33.237  28.996  1.00  0.00    -0.080 C 
ATOM     14  C   UNL     1      51.014  34.313  27.973  1.00  0.00     0.039 C 
ATOM     15  C   UNL     1      50.600  33.610  30.450  1.00  0.00     0.039 C 
ENDBRANCH  11  12
ENDBRANCH   1  11
TORSDOF 4
ENDMDL
MODEL 9
REMARK VINA RESULT:    -4.204     21.842     22.964
REMARK INTER + INTRA:          -5.963
REMARK INTER:                  -4.845
REMARK INTRA:                  -1.118
REMARK UNBOUND:                -0.776
REMARK SMILES CC(C)=CCC[C@@H](C)[C@@H]1C=CC(C)=CC1
REMARK SMILES IDX 6 1 7 2 8 3 9 4 13 5 12 6 14 7 11 8 15 9 10 10 5 11 4 12
REMARK SMILES IDX 2 13 1 14 3 15
REMARK H PARENT
REMARK Flexibility Score: inf
ROOT
ATOM      1  C   UNL     1      54.874  30.301  24.140  1.00  0.00     0.008 C 
ENDROOT
BRANCH   1   2
ATOM      2  C   UNL     1      54.089  31.311  25.035  1.00  0.00    -0.007 C 
ATOM      3  C   UNL     1      53.122  32.113  24.135  1.00  0.00     0.008 C 
BRANCH   2   4
ATOM      4  C   UNL     1      53.315  30.613  26.203  1.00  0.00     0.018 C 
ATOM      5  C   UNL     1      50.509  28.259  28.538  1.00  0.00     0.044 C 
ATOM      6  C   UNL     1      51.341  29.067  27.586  1.00  0.00    -0.055 C 
ATOM      7  C   UNL     1      51.155  30.392  27.476  1.00  0.00    -0.023 C 
ATOM      8  C   UNL     1      52.315  28.394  26.700  1.00  0.00    -0.001 C 
ATOM      9  C   UNL     1      51.891  31.181  26.424  1.00  0.00     0.035 C 
ATOM     10  C   UNL     1      53.202  29.109  25.998  1.00  0.00    -0.023 C 
ENDBRANCH   2   4
ENDBRANCH   1   2
BRANCH   1  11
ATOM     11  C   UNL     1      56.387  30.277  24.421  1.00  0.00     0.027 C 
BRANCH  11  12
ATOM     12  C   UNL     1      56.850  28.912  24.874  1.00  0.00    -0.028 C 
ATOM     13  C   UNL     1      56.985  28.537  26.165  1.00  0.00    -0.080 C 
ATOM     14  C   UNL     1      56.738  29.494  27.308  1.00  0.00     0.039 C 
ATOM     15  C   UNL     1      57.419  27.124  26.459  1.00  0.00     0.039 C 
ENDBRANCH  11  12
ENDBRANCH   1  11
TORSDOF 4
ENDMDL
