MODEL 1
REMARK VINA RESULT:    -7.855      0.000      0.000
REMARK INTER + INTRA:         -11.666
REMARK INTER:                 -10.611
REMARK INTRA:                  -1.055
REMARK UNBOUND:                -1.055
REMARK SMILES O=c1c(-c2ccc(O)cc2)coc2c([C@@H]3O[C@@H](CO)[C@H](O)[C@H](O)[C@H]3O)c(O)ccc12
REMARK SMILES IDX 3 1 11 2 12 3 13 4 30 5 2 6 1 7 29 8 28 9 26 10 14 11 4 12
REMARK SMILES IDX 5 13 6 14 7 15 10 16 9 17 8 18 15 20 24 21 16 22 22 23 17 24
REMARK SMILES IDX 20 25 25 26 23 28 18 30 19 31 21 33 27 35
REMARK H PARENT 8 19 25 27 23 29 19 32 21 34 27 36
REMARK Flexibility Score: inf
ROOT
ATOM      1  C   UNL     1      16.133 -47.597  70.622  1.00  0.00     0.065 A 
ATOM      2  C   UNL     1      16.902 -46.514  71.068  1.00  0.00     0.208 A 
ATOM      3  O   UNL     1      17.885 -46.025  70.324  1.00  0.00    -0.463 OA
ATOM      4  C   UNL     1      18.209 -46.511  69.128  1.00  0.00     0.147 A 
ATOM      5  C   UNL     1      17.484 -47.604  68.601  1.00  0.00     0.066 A 
ATOM      6  C   UNL     1      16.428 -48.143  69.360  1.00  0.00     0.200 A 
ATOM      7  O   UNL     1      15.740 -49.098  68.905  1.00  0.00    -0.288 OA
ATOM      8  C   UNL     1      17.826 -48.123  67.345  1.00  0.00     0.020 A 
ATOM      9  C   UNL     1      18.886 -47.578  66.628  1.00  0.00     0.047 A 
ATOM     10  C   UNL     1      19.622 -46.504  67.134  1.00  0.00     0.125 A 
ATOM     11  C   UNL     1      19.276 -45.933  68.392  1.00  0.00     0.069 A 
ENDROOT
BRANCH   1  12
ATOM     12  C   UNL     1      15.041 -48.131  71.475  1.00  0.00    -0.011 A 
ATOM     13  C   UNL     1      13.694 -47.914  71.133  1.00  0.00     0.013 A 
ATOM     14  C   UNL     1      12.670 -48.427  71.934  1.00  0.00     0.047 A 
ATOM     15  C   UNL     1      12.976 -49.167  73.081  1.00  0.00     0.115 A 
ATOM     16  C   UNL     1      15.341 -48.882  72.625  1.00  0.00     0.013 A 
ATOM     17  C   UNL     1      14.315 -49.394  73.423  1.00  0.00     0.047 A 
BRANCH  15  18
ATOM     18  O   UNL     1      11.944 -49.672  73.870  1.00  0.00    -0.508 OA
ATOM     19  H   UNL     1      11.711 -50.657  73.868  1.00  0.00     0.293 HD
ENDBRANCH  15  18
ENDBRANCH   1  12
BRANCH  11  20
ATOM     20  C   UNL     1      20.039 -44.749  68.980  1.00  0.00     0.188 C 
ATOM     21  C   UNL     1      21.271 -45.245  69.770  1.00  0.00     0.179 C 
ATOM     22  O   UNL     1      20.383 -43.847  67.937  1.00  0.00    -0.362 OA
ATOM     23  C   UNL     1      22.055 -44.035  70.311  1.00  0.00     0.177 C 
ATOM     24  C   UNL     1      21.070 -42.689  68.396  1.00  0.00     0.176 C 
ATOM     25  C   UNL     1      22.360 -43.040  69.178  1.00  0.00     0.177 C 
BRANCH  21  26
ATOM     26  O   UNL     1      20.843 -46.046  70.843  1.00  0.00    -0.387 OA
ATOM     27  H   UNL     1      20.811 -45.463  71.646  1.00  0.00     0.211 HD
ENDBRANCH  21  26
BRANCH  23  28
ATOM     28  O   UNL     1      23.237 -44.433  70.964  1.00  0.00    -0.387 OA
ATOM     29  H   UNL     1      23.910 -43.714  70.851  1.00  0.00     0.211 HD
ENDBRANCH  23  28
BRANCH  24  30
ATOM     30  C   UNL     1      20.150 -41.701  69.145  1.00  0.00     0.191 C 
BRANCH  30  31
ATOM     31  O   UNL     1      20.864 -40.553  69.516  1.00  0.00    -0.394 OA
ATOM     32  H   UNL     1      20.306 -39.773  69.256  1.00  0.00     0.210 HD
ENDBRANCH  30  31
ENDBRANCH  24  30
BRANCH  25  33
ATOM     33  O   UNL     1      23.302 -43.601  68.297  1.00  0.00    -0.388 OA
ATOM     34  H   UNL     1      23.928 -42.874  68.042  1.00  0.00     0.211 HD
ENDBRANCH  25  33
ENDBRANCH  11  20
BRANCH  10  35
ATOM     35  O   UNL     1      20.689 -46.046  66.353  1.00  0.00    -0.507 OA
ATOM     36  H   UNL     1      20.725 -46.092  65.347  1.00  0.00     0.293 HD
ENDBRANCH  10  35
TORSDOF 9
ENDMDL
MODEL 2
REMARK VINA RESULT:    -7.851      2.515      4.190
REMARK INTER + INTRA:         -11.660
REMARK INTER:                 -10.811
REMARK INTRA:                  -0.849
REMARK UNBOUND:                -1.055
REMARK SMILES O=c1c(-c2ccc(O)cc2)coc2c([C@@H]3O[C@@H](CO)[C@H](O)[C@H](O)[C@H]3O)c(O)ccc12
REMARK SMILES IDX 3 1 11 2 12 3 13 4 30 5 2 6 1 7 29 8 28 9 26 10 14 11 4 12
REMARK SMILES IDX 5 13 6 14 7 15 10 16 9 17 8 18 15 20 24 21 16 22 22 23 17 24
REMARK SMILES IDX 20 25 25 26 23 28 18 30 19 31 21 33 27 35
REMARK H PARENT 8 19 25 27 23 29 19 32 21 34 27 36
REMARK Flexibility Score: inf
ROOT
ATOM      1  C   UNL     1      14.078 -48.030  70.053  1.00  0.00     0.065 A 
ATOM      2  C   UNL     1      15.442 -47.798  70.272  1.00  0.00     0.208 A 
ATOM      3  O   UNL     1      16.339 -48.072  69.333  1.00  0.00    -0.463 OA
ATOM      4  C   UNL     1      16.021 -48.576  68.142  1.00  0.00     0.147 A 
ATOM      5  C   UNL     1      14.666 -48.841  67.838  1.00  0.00     0.066 A 
ATOM      6  C   UNL     1      13.687 -48.554  68.808  1.00  0.00     0.200 A 
ATOM      7  O   UNL     1      12.465 -48.747  68.556  1.00  0.00    -0.288 OA
ATOM      8  C   UNL     1      14.328 -49.377  66.589  1.00  0.00     0.020 A 
ATOM      9  C   UNL     1      15.321 -49.666  65.658  1.00  0.00     0.047 A 
ATOM     10  C   UNL     1      16.667 -49.421  65.942  1.00  0.00     0.125 A 
ATOM     11  C   UNL     1      17.039 -48.844  67.190  1.00  0.00     0.069 A 
ENDROOT
BRANCH   1  12
ATOM     12  C   UNL     1      13.093 -47.720  71.120  1.00  0.00    -0.011 A 
ATOM     13  C   UNL     1      12.402 -46.494  71.123  1.00  0.00     0.013 A 
ATOM     14  C   UNL     1      11.469 -46.212  72.125  1.00  0.00     0.047 A 
ATOM     15  C   UNL     1      11.210 -47.148  73.132  1.00  0.00     0.115 A 
ATOM     16  C   UNL     1      12.823 -48.659  72.131  1.00  0.00     0.013 A 
ATOM     17  C   UNL     1      11.889 -48.373  73.131  1.00  0.00     0.047 A 
BRANCH  15  18
ATOM     18  O   UNL     1      10.278 -46.851  74.124  1.00  0.00    -0.508 OA
ATOM     19  H   UNL     1       9.283 -46.888  73.942  1.00  0.00     0.293 HD
ENDBRANCH  15  18
ENDBRANCH   1  12
BRANCH  11  20
ATOM     20  C   UNL     1      18.493 -48.543  67.542  1.00  0.00     0.188 C 
ATOM     21  C   UNL     1      19.326 -49.844  67.535  1.00  0.00     0.179 C 
ATOM     22  O   UNL     1      18.999 -47.564  66.644  1.00  0.00    -0.362 OA
ATOM     23  C   UNL     1      20.798 -49.512  67.840  1.00  0.00     0.177 C 
ATOM     24  C   UNL     1      20.345 -47.191  66.917  1.00  0.00     0.176 C 
ATOM     25  C   UNL     1      21.307 -48.404  66.902  1.00  0.00     0.177 C 
BRANCH  21  26
ATOM     26  O   UNL     1      18.828 -50.720  68.516  1.00  0.00    -0.387 OA
ATOM     27  H   UNL     1      18.065 -50.259  68.954  1.00  0.00     0.211 HD
ENDBRANCH  21  26
BRANCH  23  28
ATOM     28  O   UNL     1      21.615 -50.656  67.759  1.00  0.00    -0.387 OA
ATOM     29  H   UNL     1      21.856 -50.797  66.807  1.00  0.00     0.211 HD
ENDBRANCH  23  28
BRANCH  24  30
ATOM     30  C   UNL     1      20.482 -46.316  68.181  1.00  0.00     0.191 C 
BRANCH  30  31
ATOM     31  O   UNL     1      21.652 -45.545  68.118  1.00  0.00    -0.394 OA
ATOM     32  H   UNL     1      22.191 -45.776  68.919  1.00  0.00     0.210 HD
ENDBRANCH  30  31
ENDBRANCH  24  30
BRANCH  25  33
ATOM     33  O   UNL     1      21.408 -48.904  65.591  1.00  0.00    -0.388 OA
ATOM     34  H   UNL     1      22.348 -48.769  65.302  1.00  0.00     0.211 HD
ENDBRANCH  25  33
ENDBRANCH  11  20
BRANCH  10  35
ATOM     35  O   UNL     1      17.595 -49.773  64.956  1.00  0.00    -0.507 OA
ATOM     36  H   UNL     1      17.953 -50.705  64.812  1.00  0.00     0.293 HD
ENDBRANCH  10  35
TORSDOF 9
ENDMDL
MODEL 3
REMARK VINA RESULT:    -7.656      2.453      3.777
REMARK INTER + INTRA:         -11.396
REMARK INTER:                 -11.030
REMARK INTRA:                  -0.366
REMARK UNBOUND:                -1.055
REMARK SMILES O=c1c(-c2ccc(O)cc2)coc2c([C@@H]3O[C@@H](CO)[C@H](O)[C@H](O)[C@H]3O)c(O)ccc12
REMARK SMILES IDX 3 1 11 2 12 3 13 4 30 5 2 6 1 7 29 8 28 9 26 10 14 11 4 12
REMARK SMILES IDX 5 13 6 14 7 15 10 16 9 17 8 18 15 20 24 21 16 22 22 23 17 24
REMARK SMILES IDX 20 25 25 26 23 28 18 30 19 31 21 33 27 35
REMARK H PARENT 8 19 25 27 23 29 19 32 21 34 27 36
REMARK Flexibility Score: inf
ROOT
ATOM      1  C   UNL     1      15.701 -47.278  71.103  1.00  0.00     0.065 A 
ATOM      2  C   UNL     1      15.280 -46.303  70.189  1.00  0.00     0.208 A 
ATOM      3  O   UNL     1      16.162 -45.586  69.503  1.00  0.00    -0.463 OA
ATOM      4  C   UNL     1      17.479 -45.735  69.625  1.00  0.00     0.147 A 
ATOM      5  C   UNL     1      17.990 -46.699  70.525  1.00  0.00     0.066 A 
ATOM      6  C   UNL     1      17.083 -47.482  71.263  1.00  0.00     0.200 A 
ATOM      7  O   UNL     1      17.506 -48.373  72.050  1.00  0.00    -0.288 OA
ATOM      8  C   UNL     1      19.376 -46.854  70.661  1.00  0.00     0.020 A 
ATOM      9  C   UNL     1      20.246 -46.052  69.929  1.00  0.00     0.047 A 
ATOM     10  C   UNL     1      19.762 -45.087  69.042  1.00  0.00     0.125 A 
ATOM     11  C   UNL     1      18.359 -44.930  68.856  1.00  0.00     0.069 A 
ENDROOT
BRANCH   1  12
ATOM     12  C   UNL     1      14.696 -48.063  71.863  1.00  0.00    -0.011 A 
ATOM     13  C   UNL     1      15.082 -48.833  72.976  1.00  0.00     0.013 A 
ATOM     14  C   UNL     1      14.130 -49.563  73.694  1.00  0.00     0.047 A 
ATOM     15  C   UNL     1      12.784 -49.531  73.314  1.00  0.00     0.115 A 
ATOM     16  C   UNL     1      13.341 -48.030  71.492  1.00  0.00     0.013 A 
ATOM     17  C   UNL     1      12.392 -48.761  72.212  1.00  0.00     0.047 A 
BRANCH  15  18
ATOM     18  O   UNL     1      11.847 -50.264  74.039  1.00  0.00    -0.508 OA
ATOM     19  H   UNL     1      11.915 -50.362  75.045  1.00  0.00     0.293 HD
ENDBRANCH  15  18
ENDBRANCH   1  12
BRANCH  11  20
ATOM     20  C   UNL     1      17.781 -43.902  67.887  1.00  0.00     0.188 C 
ATOM     21  C   UNL     1      17.766 -42.500  68.539  1.00  0.00     0.179 C 
ATOM     22  O   UNL     1      18.520 -43.934  66.674  1.00  0.00    -0.362 OA
ATOM     23  C   UNL     1      17.229 -41.471  67.528  1.00  0.00     0.177 C 
ATOM     24  C   UNL     1      18.030 -43.029  65.691  1.00  0.00     0.176 C 
ATOM     25  C   UNL     1      17.999 -41.566  66.199  1.00  0.00     0.177 C 
BRANCH  21  26
ATOM     26  O   UNL     1      16.935 -42.525  69.673  1.00  0.00    -0.387 OA
ATOM     27  H   UNL     1      16.080 -42.092  69.415  1.00  0.00     0.211 HD
ENDBRANCH  21  26
BRANCH  23  28
ATOM     28  O   UNL     1      17.278 -40.162  68.046  1.00  0.00    -0.387 OA
ATOM     29  H   UNL     1      16.546 -39.638  67.631  1.00  0.00     0.211 HD
ENDBRANCH  23  28
BRANCH  24  30
ATOM     30  C   UNL     1      16.697 -43.487  65.062  1.00  0.00     0.191 C 
BRANCH  30  31
ATOM     31  O   UNL     1      16.760 -43.402  63.664  1.00  0.00    -0.394 OA
ATOM     32  H   UNL     1      15.876 -43.071  63.357  1.00  0.00     0.210 HD
ENDBRANCH  30  31
ENDBRANCH  24  30
BRANCH  25  33
ATOM     33  O   UNL     1      19.315 -41.107  66.381  1.00  0.00    -0.388 OA
ATOM     34  H   UNL     1      19.690 -40.940  65.477  1.00  0.00     0.211 HD
ENDBRANCH  25  33
ENDBRANCH  11  20
BRANCH  10  35
ATOM     35  O   UNL     1      20.714 -44.309  68.375  1.00  0.00    -0.507 OA
ATOM     36  H   UNL     1      20.894 -44.346  67.383  1.00  0.00     0.293 HD
ENDBRANCH  10  35
TORSDOF 9
ENDMDL
MODEL 4
REMARK VINA RESULT:    -7.634      2.555      3.976
REMARK INTER + INTRA:         -11.366
REMARK INTER:                 -11.497
REMARK INTRA:                   0.131
REMARK UNBOUND:                -1.055
REMARK SMILES O=c1c(-c2ccc(O)cc2)coc2c([C@@H]3O[C@@H](CO)[C@H](O)[C@H](O)[C@H]3O)c(O)ccc12
REMARK SMILES IDX 3 1 11 2 12 3 13 4 30 5 2 6 1 7 29 8 28 9 26 10 14 11 4 12
REMARK SMILES IDX 5 13 6 14 7 15 10 16 9 17 8 18 15 20 24 21 16 22 22 23 17 24
REMARK SMILES IDX 20 25 25 26 23 28 18 30 19 31 21 33 27 35
REMARK H PARENT 8 19 25 27 23 29 19 32 21 34 27 36
REMARK Flexibility Score: inf
ROOT
ATOM      1  C   UNL     1      15.803 -47.209  71.267  1.00  0.00     0.065 A 
ATOM      2  C   UNL     1      15.403 -46.057  70.576  1.00  0.00     0.208 A 
ATOM      3  O   UNL     1      16.290 -45.303  69.938  1.00  0.00    -0.463 OA
ATOM      4  C   UNL     1      17.593 -45.575  69.906  1.00  0.00     0.147 A 
ATOM      5  C   UNL     1      18.082 -46.719  70.578  1.00  0.00     0.066 A 
ATOM      6  C   UNL     1      17.168 -47.546  71.257  1.00  0.00     0.200 A 
ATOM      7  O   UNL     1      17.567 -48.593  71.838  1.00  0.00    -0.288 OA
ATOM      8  C   UNL     1      19.453 -47.005  70.551  1.00  0.00     0.020 A 
ATOM      9  C   UNL     1      20.333 -46.158  69.885  1.00  0.00     0.047 A 
ATOM     10  C   UNL     1      19.872 -45.016  69.224  1.00  0.00     0.125 A 
ATOM     11  C   UNL     1      18.480 -44.718  69.203  1.00  0.00     0.069 A 
ENDROOT
BRANCH   1  12
ATOM     12  C   UNL     1      14.793 -48.034  71.977  1.00  0.00    -0.011 A 
ATOM     13  C   UNL     1      15.162 -48.823  73.081  1.00  0.00     0.013 A 
ATOM     14  C   UNL     1      14.205 -49.591  73.752  1.00  0.00     0.047 A 
ATOM     15  C   UNL     1      12.871 -49.577  73.333  1.00  0.00     0.115 A 
ATOM     16  C   UNL     1      13.449 -48.020  71.565  1.00  0.00     0.013 A 
ATOM     17  C   UNL     1      12.495 -48.788  72.238  1.00  0.00     0.047 A 
BRANCH  15  18
ATOM     18  O   UNL     1      11.929 -50.348  74.011  1.00  0.00    -0.508 OA
ATOM     19  H   UNL     1      11.384 -51.057  73.535  1.00  0.00     0.293 HD
ENDBRANCH  15  18
ENDBRANCH   1  12
BRANCH  11  20
ATOM     20  C   UNL     1      17.925 -43.493  68.482  1.00  0.00     0.188 C 
ATOM     21  C   UNL     1      16.978 -43.927  67.340  1.00  0.00     0.179 C 
ATOM     22  O   UNL     1      17.291 -42.640  69.425  1.00  0.00    -0.362 OA
ATOM     23  C   UNL     1      16.389 -42.678  66.660  1.00  0.00     0.177 C 
ATOM     24  C   UNL     1      16.770 -41.449  68.848  1.00  0.00     0.176 C 
ATOM     25  C   UNL     1      15.766 -41.737  67.706  1.00  0.00     0.177 C 
BRANCH  21  26
ATOM     26  O   UNL     1      17.701 -44.680  66.398  1.00  0.00    -0.387 OA
ATOM     27  H   UNL     1      17.449 -45.631  66.533  1.00  0.00     0.211 HD
ENDBRANCH  21  26
BRANCH  23  28
ATOM     28  O   UNL     1      15.450 -43.022  65.668  1.00  0.00    -0.387 OA
ATOM     29  H   UNL     1      15.589 -42.422  64.890  1.00  0.00     0.211 HD
ENDBRANCH  23  28
BRANCH  24  30
ATOM     30  C   UNL     1      17.871 -40.440  68.456  1.00  0.00     0.191 C 
BRANCH  30  31
ATOM     31  O   UNL     1      18.734 -40.211  69.537  1.00  0.00    -0.394 OA
ATOM     32  H   UNL     1      18.709 -39.236  69.722  1.00  0.00     0.210 HD
ENDBRANCH  30  31
ENDBRANCH  24  30
BRANCH  25  33
ATOM     33  O   UNL     1      14.607 -42.326  68.241  1.00  0.00    -0.388 OA
ATOM     34  H   UNL     1      14.392 -41.834  69.076  1.00  0.00     0.211 HD
ENDBRANCH  25  33
ENDBRANCH  11  20
BRANCH  10  35
ATOM     35  O   UNL     1      20.836 -44.210  68.610  1.00  0.00    -0.507 OA
ATOM     36  H   UNL     1      20.708 -43.237  68.379  1.00  0.00     0.293 HD
ENDBRANCH  10  35
TORSDOF 9
ENDMDL
MODEL 5
REMARK VINA RESULT:    -7.514      3.758      6.776
REMARK INTER + INTRA:         -11.205
REMARK INTER:                 -10.094
REMARK INTRA:                  -1.111
REMARK UNBOUND:                -1.055
REMARK SMILES O=c1c(-c2ccc(O)cc2)coc2c([C@@H]3O[C@@H](CO)[C@H](O)[C@H](O)[C@H]3O)c(O)ccc12
REMARK SMILES IDX 3 1 11 2 12 3 13 4 30 5 2 6 1 7 29 8 28 9 26 10 14 11 4 12
REMARK SMILES IDX 5 13 6 14 7 15 10 16 9 17 8 18 15 20 24 21 16 22 22 23 17 24
REMARK SMILES IDX 20 25 25 26 23 28 18 30 19 31 21 33 27 35
REMARK H PARENT 8 19 25 27 23 29 19 32 21 34 27 36
REMARK Flexibility Score: inf
ROOT
ATOM      1  C   UNL     1      19.333 -45.064  68.780  1.00  0.00     0.065 A 
ATOM      2  C   UNL     1      18.226 -44.512  68.123  1.00  0.00     0.208 A 
ATOM      3  O   UNL     1      18.183 -43.218  67.829  1.00  0.00    -0.463 OA
ATOM      4  C   UNL     1      19.163 -42.367  68.128  1.00  0.00     0.147 A 
ATOM      5  C   UNL     1      20.318 -42.841  68.791  1.00  0.00     0.066 A 
ATOM      6  C   UNL     1      20.400 -44.210  69.111  1.00  0.00     0.200 A 
ATOM      7  O   UNL     1      21.432 -44.671  69.673  1.00  0.00    -0.288 OA
ATOM      8  C   UNL     1      21.348 -41.948  69.113  1.00  0.00     0.020 A 
ATOM      9  C   UNL     1      21.229 -40.599  68.798  1.00  0.00     0.047 A 
ATOM     10  C   UNL     1      20.091 -40.107  68.152  1.00  0.00     0.125 A 
ATOM     11  C   UNL     1      19.043 -40.997  67.781  1.00  0.00     0.069 A 
ENDROOT
BRANCH   1  12
ATOM     12  C   UNL     1      19.356 -46.513  69.103  1.00  0.00    -0.011 A 
ATOM     13  C   UNL     1      18.932 -46.973  70.363  1.00  0.00     0.013 A 
ATOM     14  C   UNL     1      18.947 -48.340  70.658  1.00  0.00     0.047 A 
ATOM     15  C   UNL     1      19.380 -49.263  69.700  1.00  0.00     0.115 A 
ATOM     16  C   UNL     1      19.783 -47.447  68.143  1.00  0.00     0.013 A 
ATOM     17  C   UNL     1      19.796 -48.812  68.441  1.00  0.00     0.047 A 
BRANCH  15  18
ATOM     18  O   UNL     1      19.389 -50.621  70.009  1.00  0.00    -0.508 OA
ATOM     19  H   UNL     1      19.174 -51.323  69.312  1.00  0.00     0.293 HD
ENDBRANCH  15  18
ENDBRANCH   1  12
BRANCH  11  20
ATOM     20  C   UNL     1      17.788 -40.512  67.059  1.00  0.00     0.188 C 
ATOM     21  C   UNL     1      16.724 -40.056  68.082  1.00  0.00     0.179 C 
ATOM     22  O   UNL     1      18.142 -39.486  66.142  1.00  0.00    -0.362 OA
ATOM     23  C   UNL     1      15.488 -39.523  67.334  1.00  0.00     0.177 C 
ATOM     24  C   UNL     1      17.036 -38.994  65.393  1.00  0.00     0.176 C 
ATOM     25  C   UNL     1      15.900 -38.461  66.300  1.00  0.00     0.177 C 
BRANCH  21  26
ATOM     26  O   UNL     1      16.353 -41.149  68.886  1.00  0.00    -0.387 OA
ATOM     27  H   UNL     1      15.362 -41.207  68.856  1.00  0.00     0.211 HD
ENDBRANCH  21  26
BRANCH  23  28
ATOM     28  O   UNL     1      14.524 -39.013  68.224  1.00  0.00    -0.387 OA
ATOM     29  H   UNL     1      13.718 -39.590  68.171  1.00  0.00     0.211 HD
ENDBRANCH  23  28
BRANCH  24  30
ATOM     30  C   UNL     1      16.547 -39.989  64.318  1.00  0.00     0.191 C 
BRANCH  30  31
ATOM     31  O   UNL     1      15.963 -39.301  63.245  1.00  0.00    -0.394 OA
ATOM     32  H   UNL     1      16.313 -39.717  62.414  1.00  0.00     0.210 HD
ENDBRANCH  30  31
ENDBRANCH  24  30
BRANCH  25  33
ATOM     33  O   UNL     1      16.337 -37.301  66.962  1.00  0.00    -0.388 OA
ATOM     34  H   UNL     1      15.703 -36.575  66.723  1.00  0.00     0.211 HD
ENDBRANCH  25  33
ENDBRANCH  11  20
BRANCH  10  35
ATOM     35  O   UNL     1      20.049 -38.731  67.906  1.00  0.00    -0.507 OA
ATOM     36  H   UNL     1      20.601 -38.255  67.209  1.00  0.00     0.293 HD
ENDBRANCH  10  35
TORSDOF 9
ENDMDL
MODEL 6
REMARK VINA RESULT:    -7.438      3.878      6.336
REMARK INTER + INTRA:         -11.101
REMARK INTER:                 -10.250
REMARK INTRA:                  -0.851
REMARK UNBOUND:                -1.055
REMARK SMILES O=c1c(-c2ccc(O)cc2)coc2c([C@@H]3O[C@@H](CO)[C@H](O)[C@H](O)[C@H]3O)c(O)ccc12
REMARK SMILES IDX 3 1 11 2 12 3 13 4 30 5 2 6 1 7 29 8 28 9 26 10 14 11 4 12
REMARK SMILES IDX 5 13 6 14 7 15 10 16 9 17 8 18 15 20 24 21 16 22 22 23 17 24
REMARK SMILES IDX 20 25 25 26 23 28 18 30 19 31 21 33 27 35
REMARK H PARENT 8 19 25 27 23 29 19 32 21 34 27 36
REMARK Flexibility Score: inf
ROOT
ATOM      1  C   UNL     1      18.543 -44.902  69.333  1.00  0.00     0.065 A 
ATOM      2  C   UNL     1      17.599 -44.469  68.393  1.00  0.00     0.208 A 
ATOM      3  O   UNL     1      17.814 -43.383  67.661  1.00  0.00    -0.463 OA
ATOM      4  C   UNL     1      18.914 -42.640  67.759  1.00  0.00     0.147 A 
ATOM      5  C   UNL     1      19.920 -43.006  68.683  1.00  0.00     0.066 A 
ATOM      6  C   UNL     1      19.729 -44.158  69.470  1.00  0.00     0.200 A 
ATOM      7  O   UNL     1      20.622 -44.530  70.280  1.00  0.00    -0.288 OA
ATOM      8  C   UNL     1      21.077 -42.224  68.794  1.00  0.00     0.020 A 
ATOM      9  C   UNL     1      21.228 -41.082  68.014  1.00  0.00     0.047 A 
ATOM     10  C   UNL     1      20.242 -40.697  67.102  1.00  0.00     0.125 A 
ATOM     11  C   UNL     1      19.071 -41.491  66.941  1.00  0.00     0.069 A 
ENDROOT
BRANCH   1  12
ATOM     12  C   UNL     1      18.279 -46.117  70.144  1.00  0.00    -0.011 A 
ATOM     13  C   UNL     1      19.009 -47.299  69.923  1.00  0.00     0.013 A 
ATOM     14  C   UNL     1      18.762 -48.437  70.696  1.00  0.00     0.047 A 
ATOM     15  C   UNL     1      17.789 -48.409  71.701  1.00  0.00     0.115 A 
ATOM     16  C   UNL     1      17.307 -46.094  71.159  1.00  0.00     0.013 A 
ATOM     17  C   UNL     1      17.063 -47.233  71.931  1.00  0.00     0.047 A 
BRANCH  15  18
ATOM     18  O   UNL     1      17.554 -49.551  72.463  1.00  0.00    -0.508 OA
ATOM     19  H   UNL     1      16.672 -50.048  72.413  1.00  0.00     0.293 HD
ENDBRANCH  15  18
ENDBRANCH   1  12
BRANCH  11  20
ATOM     20  C   UNL     1      17.972 -41.122  65.947  1.00  0.00     0.188 C 
ATOM     21  C   UNL     1      17.291 -39.800  66.368  1.00  0.00     0.179 C 
ATOM     22  O   UNL     1      18.525 -41.062  64.640  1.00  0.00    -0.362 OA
ATOM     23  C   UNL     1      16.224 -39.419  65.326  1.00  0.00     0.177 C 
ATOM     24  C   UNL     1      17.564 -40.757  63.636  1.00  0.00     0.176 C 
ATOM     25  C   UNL     1      16.826 -39.424  63.910  1.00  0.00     0.177 C 
BRANCH  21  26
ATOM     26  O   UNL     1      16.683 -39.970  67.625  1.00  0.00    -0.387 OA
ATOM     27  H   UNL     1      17.410 -40.162  68.274  1.00  0.00     0.211 HD
ENDBRANCH  21  26
BRANCH  23  28
ATOM     28  O   UNL     1      15.635 -38.175  65.619  1.00  0.00    -0.387 OA
ATOM     29  H   UNL     1      15.149 -37.865  64.812  1.00  0.00     0.211 HD
ENDBRANCH  23  28
BRANCH  24  30
ATOM     30  C   UNL     1      16.611 -41.935  63.338  1.00  0.00     0.191 C 
BRANCH  30  31
ATOM     31  O   UNL     1      17.277 -42.932  62.611  1.00  0.00    -0.394 OA
ATOM     32  H   UNL     1      18.002 -43.276  63.196  1.00  0.00     0.210 HD
ENDBRANCH  30  31
ENDBRANCH  24  30
BRANCH  25  33
ATOM     33  O   UNL     1      17.729 -38.355  63.777  1.00  0.00    -0.388 OA
ATOM     34  H   UNL     1      18.642 -38.735  63.864  1.00  0.00     0.211 HD
ENDBRANCH  25  33
ENDBRANCH  11  20
BRANCH  10  35
ATOM     35  O   UNL     1      20.470 -39.517  66.386  1.00  0.00    -0.507 OA
ATOM     36  H   UNL     1      20.894 -38.687  66.768  1.00  0.00     0.293 HD
ENDBRANCH  10  35
TORSDOF 9
ENDMDL
MODEL 7
REMARK VINA RESULT:    -7.353      3.694      6.651
REMARK INTER + INTRA:         -10.986
REMARK INTER:                 -10.041
REMARK INTRA:                  -0.945
REMARK UNBOUND:                -1.055
REMARK SMILES O=c1c(-c2ccc(O)cc2)coc2c([C@@H]3O[C@@H](CO)[C@H](O)[C@H](O)[C@H]3O)c(O)ccc12
REMARK SMILES IDX 3 1 11 2 12 3 13 4 30 5 2 6 1 7 29 8 28 9 26 10 14 11 4 12
REMARK SMILES IDX 5 13 6 14 7 15 10 16 9 17 8 18 15 20 24 21 16 22 22 23 17 24
REMARK SMILES IDX 20 25 25 26 23 28 18 30 19 31 21 33 27 35
REMARK H PARENT 8 19 25 27 23 29 19 32 21 34 27 36
REMARK Flexibility Score: inf
ROOT
ATOM      1  C   UNL     1      19.593 -45.781  68.243  1.00  0.00     0.065 A 
ATOM      2  C   UNL     1      18.687 -45.283  67.297  1.00  0.00     0.208 A 
ATOM      3  O   UNL     1      18.650 -43.989  67.004  1.00  0.00    -0.463 OA
ATOM      4  C   UNL     1      19.450 -43.088  67.570  1.00  0.00     0.147 A 
ATOM      5  C   UNL     1      20.395 -43.505  68.535  1.00  0.00     0.066 A 
ATOM      6  C   UNL     1      20.467 -44.872  68.864  1.00  0.00     0.200 A 
ATOM      7  O   UNL     1      21.322 -45.281  69.697  1.00  0.00    -0.288 OA
ATOM      8  C   UNL     1      21.235 -42.559  69.137  1.00  0.00     0.020 A 
ATOM      9  C   UNL     1      21.126 -41.213  68.802  1.00  0.00     0.047 A 
ATOM     10  C   UNL     1      20.192 -40.778  67.858  1.00  0.00     0.125 A 
ATOM     11  C   UNL     1      19.349 -41.720  67.203  1.00  0.00     0.069 A 
ENDROOT
BRANCH   1  12
ATOM     12  C   UNL     1      19.612 -47.232  68.558  1.00  0.00    -0.011 A 
ATOM     13  C   UNL     1      20.324 -48.132  67.745  1.00  0.00     0.013 A 
ATOM     14  C   UNL     1      20.346 -49.496  68.052  1.00  0.00     0.047 A 
ATOM     15  C   UNL     1      19.664 -49.976  69.175  1.00  0.00     0.115 A 
ATOM     16  C   UNL     1      18.935 -47.721  69.689  1.00  0.00     0.013 A 
ATOM     17  C   UNL     1      18.960 -49.084  69.993  1.00  0.00     0.047 A 
BRANCH  15  18
ATOM     18  O   UNL     1      19.696 -51.338  69.468  1.00  0.00    -0.508 OA
ATOM     19  H   UNL     1      18.862 -51.910  69.413  1.00  0.00     0.293 HD
ENDBRANCH  15  18
ENDBRANCH   1  12
BRANCH  11  20
ATOM     20  C   UNL     1      18.325 -41.298  66.154  1.00  0.00     0.188 C 
ATOM     21  C   UNL     1      17.235 -40.410  66.796  1.00  0.00     0.179 C 
ATOM     22  O   UNL     1      18.994 -40.654  65.078  1.00  0.00    -0.362 OA
ATOM     23  C   UNL     1      16.242 -39.952  65.712  1.00  0.00     0.177 C 
ATOM     24  C   UNL     1      18.119 -40.253  64.030  1.00  0.00     0.176 C 
ATOM     25  C   UNL     1      16.991 -39.317  64.528  1.00  0.00     0.177 C 
BRANCH  21  26
ATOM     26  O   UNL     1      16.553 -41.149  67.778  1.00  0.00    -0.387 OA
ATOM     27  H   UNL     1      17.030 -42.015  67.873  1.00  0.00     0.211 HD
ENDBRANCH  21  26
BRANCH  23  28
ATOM     28  O   UNL     1      15.279 -39.067  66.233  1.00  0.00    -0.387 OA
ATOM     29  H   UNL     1      15.734 -38.449  66.862  1.00  0.00     0.211 HD
ENDBRANCH  23  28
BRANCH  24  30
ATOM     30  C   UNL     1      17.603 -41.441  63.190  1.00  0.00     0.191 C 
BRANCH  30  31
ATOM     31  O   UNL     1      18.641 -41.983  62.419  1.00  0.00    -0.394 OA
ATOM     32  H   UNL     1      19.457 -41.457  62.628  1.00  0.00     0.210 HD
ENDBRANCH  30  31
ENDBRANCH  24  30
BRANCH  25  33
ATOM     33  O   UNL     1      17.546 -38.087  64.924  1.00  0.00    -0.388 OA
ATOM     34  H   UNL     1      17.139 -37.388  64.349  1.00  0.00     0.211 HD
ENDBRANCH  25  33
ENDBRANCH  11  20
BRANCH  10  35
ATOM     35  O   UNL     1      20.137 -39.402  67.612  1.00  0.00    -0.507 OA
ATOM     36  H   UNL     1      20.347 -38.969  66.725  1.00  0.00     0.293 HD
ENDBRANCH  10  35
TORSDOF 9
ENDMDL
MODEL 8
REMARK VINA RESULT:    -7.304      7.154      8.682
REMARK INTER + INTRA:         -10.921
REMARK INTER:                  -9.804
REMARK INTRA:                  -1.117
REMARK UNBOUND:                -1.055
REMARK SMILES O=c1c(-c2ccc(O)cc2)coc2c([C@@H]3O[C@@H](CO)[C@H](O)[C@H](O)[C@H]3O)c(O)ccc12
REMARK SMILES IDX 3 1 11 2 12 3 13 4 30 5 2 6 1 7 29 8 28 9 26 10 14 11 4 12
REMARK SMILES IDX 5 13 6 14 7 15 10 16 9 17 8 18 15 20 24 21 16 22 22 23 17 24
REMARK SMILES IDX 20 25 25 26 23 28 18 30 19 31 21 33 27 35
REMARK H PARENT 8 19 25 27 23 29 19 32 21 34 27 36
REMARK Flexibility Score: inf
ROOT
ATOM      1  C   UNL     1      12.645 -45.596  68.585  1.00  0.00     0.065 A 
ATOM      2  C   UNL     1      11.704 -45.394  67.567  1.00  0.00     0.208 A 
ATOM      3  O   UNL     1      11.947 -44.551  66.572  1.00  0.00    -0.463 OA
ATOM      4  C   UNL     1      13.074 -43.850  66.465  1.00  0.00     0.147 A 
ATOM      5  C   UNL     1      14.078 -43.993  67.450  1.00  0.00     0.066 A 
ATOM      6  C   UNL     1      13.857 -44.886  68.515  1.00  0.00     0.200 A 
ATOM      7  O   UNL     1      14.747 -45.062  69.393  1.00  0.00    -0.288 OA
ATOM      8  C   UNL     1      15.263 -43.253  67.345  1.00  0.00     0.020 A 
ATOM      9  C   UNL     1      15.444 -42.367  66.288  1.00  0.00     0.047 A 
ATOM     10  C   UNL     1      14.459 -42.202  65.310  1.00  0.00     0.125 A 
ATOM     11  C   UNL     1      13.259 -42.966  65.370  1.00  0.00     0.069 A 
ENDROOT
BRANCH   1  12
ATOM     12  C   UNL     1      12.349 -46.540  69.691  1.00  0.00    -0.011 A 
ATOM     13  C   UNL     1      11.897 -46.067  70.937  1.00  0.00     0.013 A 
ATOM     14  C   UNL     1      11.611 -46.962  71.972  1.00  0.00     0.047 A 
ATOM     15  C   UNL     1      11.766 -48.338  71.776  1.00  0.00     0.115 A 
ATOM     16  C   UNL     1      12.496 -47.925  69.500  1.00  0.00     0.013 A 
ATOM     17  C   UNL     1      12.209 -48.817  70.537  1.00  0.00     0.047 A 
BRANCH  15  18
ATOM     18  O   UNL     1      11.478 -49.217  72.818  1.00  0.00    -0.508 OA
ATOM     19  H   UNL     1      12.177 -49.472  73.504  1.00  0.00     0.293 HD
ENDBRANCH  15  18
ENDBRANCH   1  12
BRANCH  11  20
ATOM     20  C   UNL     1      12.162 -42.835  64.318  1.00  0.00     0.188 C 
ATOM     21  C   UNL     1      11.283 -41.599  64.612  1.00  0.00     0.179 C 
ATOM     22  O   UNL     1      12.754 -42.792  63.026  1.00  0.00    -0.362 OA
ATOM     23  C   UNL     1      10.216 -41.454  63.511  1.00  0.00     0.177 C 
ATOM     24  C   UNL     1      11.802 -42.704  61.973  1.00  0.00     0.176 C 
ATOM     25  C   UNL     1      10.871 -41.476  62.119  1.00  0.00     0.177 C 
BRANCH  21  26
ATOM     26  O   UNL     1      10.654 -41.762  65.859  1.00  0.00    -0.387 OA
ATOM     27  H   UNL     1      10.918 -40.987  66.420  1.00  0.00     0.211 HD
ENDBRANCH  21  26
BRANCH  23  28
ATOM     28  O   UNL     1       9.444 -40.290  63.688  1.00  0.00    -0.387 OA
ATOM     29  H   UNL     1       9.140 -39.982  62.795  1.00  0.00     0.211 HD
ENDBRANCH  23  28
BRANCH  24  30
ATOM     30  C   UNL     1      11.039 -44.026  61.740  1.00  0.00     0.191 C 
BRANCH  30  31
ATOM     31  O   UNL     1      10.794 -44.216  60.372  1.00  0.00    -0.394 OA
ATOM     32  H   UNL     1      10.389 -45.118  60.276  1.00  0.00     0.210 HD
ENDBRANCH  30  31
ENDBRANCH  24  30
BRANCH  25  33
ATOM     33  O   UNL     1      11.617 -40.300  61.929  1.00  0.00    -0.388 OA
ATOM     34  H   UNL     1      12.265 -40.483  61.200  1.00  0.00     0.211 HD
ENDBRANCH  25  33
ENDBRANCH  11  20
BRANCH  10  35
ATOM     35  O   UNL     1      14.719 -41.265  64.304  1.00  0.00    -0.507 OA
ATOM     36  H   UNL     1      15.333 -40.471  64.404  1.00  0.00     0.293 HD
ENDBRANCH  10  35
TORSDOF 9
ENDMDL
MODEL 9
REMARK VINA RESULT:    -7.291      4.483      7.224
REMARK INTER + INTRA:         -10.904
REMARK INTER:                  -9.750
REMARK INTRA:                  -1.154
REMARK UNBOUND:                -1.055
REMARK SMILES O=c1c(-c2ccc(O)cc2)coc2c([C@@H]3O[C@@H](CO)[C@H](O)[C@H](O)[C@H]3O)c(O)ccc12
REMARK SMILES IDX 3 1 11 2 12 3 13 4 30 5 2 6 1 7 29 8 28 9 26 10 14 11 4 12
REMARK SMILES IDX 5 13 6 14 7 15 10 16 9 17 8 18 15 20 24 21 16 22 22 23 17 24
REMARK SMILES IDX 20 25 25 26 23 28 18 30 19 31 21 33 27 35
REMARK H PARENT 8 19 25 27 23 29 19 32 21 34 27 36
REMARK Flexibility Score: inf
ROOT
ATOM      1  C   UNL     1      19.154 -47.159  67.868  1.00  0.00     0.065 A 
ATOM      2  C   UNL     1      18.095 -47.012  66.963  1.00  0.00     0.208 A 
ATOM      3  O   UNL     1      17.429 -45.867  66.873  1.00  0.00    -0.463 OA
ATOM      4  C   UNL     1      17.709 -44.798  67.616  1.00  0.00     0.147 A 
ATOM      5  C   UNL     1      18.763 -44.860  68.555  1.00  0.00     0.066 A 
ATOM      6  C   UNL     1      19.496 -46.056  68.671  1.00  0.00     0.200 A 
ATOM      7  O   UNL     1      20.465 -46.134  69.476  1.00  0.00    -0.288 OA
ATOM      8  C   UNL     1      19.057 -43.739  69.343  1.00  0.00     0.020 A 
ATOM      9  C   UNL     1      18.303 -42.577  69.216  1.00  0.00     0.047 A 
ATOM     10  C   UNL     1      17.249 -42.498  68.301  1.00  0.00     0.125 A 
ATOM     11  C   UNL     1      16.950 -43.609  67.462  1.00  0.00     0.069 A 
ENDROOT
BRANCH   1  12
ATOM     12  C   UNL     1      19.880 -48.451  67.955  1.00  0.00    -0.011 A 
ATOM     13  C   UNL     1      19.440 -49.464  68.827  1.00  0.00     0.013 A 
ATOM     14  C   UNL     1      20.123 -50.682  68.897  1.00  0.00     0.047 A 
ATOM     15  C   UNL     1      21.248 -50.906  68.097  1.00  0.00     0.115 A 
ATOM     16  C   UNL     1      21.007 -48.686  67.148  1.00  0.00     0.013 A 
ATOM     17  C   UNL     1      21.687 -49.905  67.221  1.00  0.00     0.047 A 
BRANCH  15  18
ATOM     18  O   UNL     1      21.918 -52.125  68.178  1.00  0.00    -0.508 OA
ATOM     19  H   UNL     1      21.428 -52.984  68.395  1.00  0.00     0.293 HD
ENDBRANCH  15  18
ENDBRANCH   1  12
BRANCH  11  20
ATOM     20  C   UNL     1      15.821 -43.567  66.435  1.00  0.00     0.188 C 
ATOM     21  C   UNL     1      14.456 -43.769  67.132  1.00  0.00     0.179 C 
ATOM     22  O   UNL     1      15.891 -42.346  65.711  1.00  0.00    -0.362 OA
ATOM     23  C   UNL     1      13.328 -43.671  66.088  1.00  0.00     0.177 C 
ATOM     24  C   UNL     1      14.894 -42.231  64.703  1.00  0.00     0.176 C 
ATOM     25  C   UNL     1      13.461 -42.374  65.271  1.00  0.00     0.177 C 
BRANCH  21  26
ATOM     26  O   UNL     1      14.428 -45.037  67.739  1.00  0.00    -0.387 OA
ATOM     27  H   UNL     1      15.370 -45.297  67.909  1.00  0.00     0.211 HD
ENDBRANCH  21  26
BRANCH  23  28
ATOM     28  O   UNL     1      12.058 -43.761  66.688  1.00  0.00    -0.387 OA
ATOM     29  H   UNL     1      11.661 -44.637  66.443  1.00  0.00     0.211 HD
ENDBRANCH  23  28
BRANCH  24  30
ATOM     30  C   UNL     1      15.163 -43.140  63.484  1.00  0.00     0.191 C 
BRANCH  30  31
ATOM     31  O   UNL     1      16.349 -42.757  62.840  1.00  0.00    -0.394 OA
ATOM     32  H   UNL     1      16.084 -42.210  62.055  1.00  0.00     0.210 HD
ENDBRANCH  30  31
ENDBRANCH  24  30
BRANCH  25  33
ATOM     33  O   UNL     1      13.170 -41.268  66.088  1.00  0.00    -0.388 OA
ATOM     34  H   UNL     1      12.287 -41.442  66.506  1.00  0.00     0.211 HD
ENDBRANCH  25  33
ENDBRANCH  11  20
BRANCH  10  35
ATOM     35  O   UNL     1      16.530 -41.299  68.269  1.00  0.00    -0.507 OA
ATOM     36  H   UNL     1      16.369 -40.704  69.067  1.00  0.00     0.293 HD
ENDBRANCH  10  35
TORSDOF 9
ENDMDL
