MODEL 1
REMARK VINA RESULT:    -3.550      0.000      0.000
REMARK INTER + INTRA:         -11.725
REMARK INTER:                  -8.946
REMARK INTRA:                  -2.779
REMARK UNBOUND:                -2.779
REMARK SMILES CCCCCCCCCCCCCCCCCCCCCCCCCCCC(=O)[O-]
REMARK SMILES IDX 15 1 16 2 17 3 18 4 19 5 20 6 21 7 22 8 23 9 24 10 25 11
REMARK SMILES IDX 26 12 27 13 28 14 29 15 30 16 14 17 13 18 12 19 11 20 10 21
REMARK SMILES IDX 9 22 8 23 7 24 6 25 5 26 4 27 3 28 2 29 1 30
REMARK H PARENT
REMARK Flexibility Score: inf
ROOT
ATOM      1  C   UNL     1      -8.223  -4.771 -25.921  1.00  0.00     0.000 C 
ENDROOT
BRANCH   1   2
ATOM      2  C   UNL     1      -8.318  -6.035 -26.793  1.00  0.00     0.000 C 
BRANCH   2   3
ATOM      3  C   UNL     1      -8.300  -7.327 -25.962  1.00  0.00     0.000 C 
BRANCH   3   4
ATOM      4  C   UNL     1      -7.498  -8.451 -26.639  1.00  0.00     0.000 C 
BRANCH   4   5
ATOM      5  C   UNL     1      -8.216  -9.810 -26.592  1.00  0.00     0.000 C 
BRANCH   5   6
ATOM      6  C   UNL     1      -9.616  -9.795 -27.241  1.00  0.00     0.000 C 
BRANCH   6   7
ATOM      7  C   UNL     1     -10.672 -10.478 -26.360  1.00  0.00     0.000 C 
BRANCH   7   8
ATOM      8  C   UNL     1     -11.807 -11.062 -27.209  1.00  0.00     0.000 C 
BRANCH   8   9
ATOM      9  C   UNL     1     -12.187 -12.469 -26.724  1.00  0.00     0.000 C 
BRANCH   9  10
ATOM     10  C   UNL     1     -11.457 -13.586 -27.489  1.00  0.00     0.000 C 
BRANCH  10  11
ATOM     11  C   UNL     1     -10.836 -14.688 -26.606  1.00  0.00     0.000 C 
BRANCH  11  12
ATOM     12  C   UNL     1      -9.348 -14.976 -26.870  1.00  0.00     0.006 C 
BRANCH  12  13
ATOM     13  C   UNL     1      -8.552 -13.715 -27.235  1.00  0.00     0.053 C 
BRANCH  13  14
ATOM     14  C   UNL     1      -7.563 -13.386 -26.162  1.00  0.00     0.041 C 
ATOM     15  O   UNL     1      -6.465 -12.845 -26.458  1.00  0.00    -0.550 OA
ATOM     16  O   UNL     1      -7.850 -13.680 -24.834  1.00  0.00    -0.550 OA
ENDBRANCH  13  14
ENDBRANCH  12  13
ENDBRANCH  11  12
ENDBRANCH  10  11
ENDBRANCH   9  10
ENDBRANCH   8   9
ENDBRANCH   7   8
ENDBRANCH   6   7
ENDBRANCH   5   6
ENDBRANCH   4   5
ENDBRANCH   3   4
ENDBRANCH   2   3
ENDBRANCH   1   2
BRANCH   1  17
ATOM     17  C   UNL     1      -7.013  -3.889 -26.278  1.00  0.00     0.000 C 
BRANCH  17  18
ATOM     18  C   UNL     1      -6.213  -3.355 -25.071  1.00  0.00     0.000 C 
BRANCH  18  19
ATOM     19  C   UNL     1      -7.051  -2.689 -23.965  1.00  0.00     0.000 C 
BRANCH  19  20
ATOM     20  C   UNL     1      -6.191  -2.066 -22.852  1.00  0.00     0.000 C 
BRANCH  20  21
ATOM     21  C   UNL     1      -5.307  -0.911 -23.356  1.00  0.00     0.000 C 
BRANCH  21  22
ATOM     22  C   UNL     1      -5.650   0.476 -22.781  1.00  0.00    -0.000 C 
BRANCH  22  23
ATOM     23  C   UNL     1      -5.578   1.595 -23.834  1.00  0.00    -0.000 C 
BRANCH  23  24
ATOM     24  C   UNL     1      -6.845   2.467 -23.851  1.00  0.00    -0.000 C 
BRANCH  24  25
ATOM     25  C   UNL     1      -7.740   2.177 -25.067  1.00  0.00    -0.000 C 
BRANCH  25  26
ATOM     26  C   UNL     1      -7.135   1.129 -26.017  1.00  0.00    -0.000 C 
BRANCH  26  27
ATOM     27  C   UNL     1      -8.076  -0.034 -26.394  1.00  0.00    -0.000 C 
BRANCH  27  28
ATOM     28  C   UNL     1      -9.207  -0.315 -25.386  1.00  0.00    -0.000 C 
BRANCH  28  29
ATOM     29  C   UNL     1     -10.621   0.023 -25.891  1.00  0.00    -0.003 C 
ATOM     30  C   UNL     1     -10.621   0.653 -27.282  1.00  0.00     0.004 C 
ENDBRANCH  28  29
ENDBRANCH  27  28
ENDBRANCH  26  27
ENDBRANCH  25  26
ENDBRANCH  24  25
ENDBRANCH  23  24
ENDBRANCH  22  23
ENDBRANCH  21  22
ENDBRANCH  20  21
ENDBRANCH  19  20
ENDBRANCH  18  19
ENDBRANCH  17  18
ENDBRANCH   1  17
TORSDOF 26
ENDMDL
MODEL 2
REMARK VINA RESULT:    -3.502      1.994      4.475
REMARK INTER + INTRA:         -11.604
REMARK INTER:                  -8.132
REMARK INTRA:                  -3.472
REMARK UNBOUND:                -2.779
REMARK SMILES CCCCCCCCCCCCCCCCCCCCCCCCCCCC(=O)[O-]
REMARK SMILES IDX 15 1 16 2 17 3 18 4 19 5 20 6 21 7 22 8 23 9 24 10 25 11
REMARK SMILES IDX 26 12 27 13 28 14 29 15 30 16 14 17 13 18 12 19 11 20 10 21
REMARK SMILES IDX 9 22 8 23 7 24 6 25 5 26 4 27 3 28 2 29 1 30
REMARK H PARENT
REMARK Flexibility Score: inf
ROOT
ATOM      1  C   UNL     1      -9.210  -1.402 -26.628  1.00  0.00     0.000 C 
ENDROOT
BRANCH   1   2
ATOM      2  C   UNL     1      -8.821  -2.851 -26.967  1.00  0.00     0.000 C 
BRANCH   2   3
ATOM      3  C   UNL     1      -8.112  -3.558 -25.802  1.00  0.00     0.000 C 
BRANCH   3   4
ATOM      4  C   UNL     1      -6.620  -3.804 -26.082  1.00  0.00     0.000 C 
BRANCH   4   5
ATOM      5  C   UNL     1      -6.151  -5.202 -25.645  1.00  0.00     0.000 C 
BRANCH   5   6
ATOM      6  C   UNL     1      -6.511  -6.318 -26.648  1.00  0.00     0.000 C 
BRANCH   6   7
ATOM      7  C   UNL     1      -7.247  -7.487 -25.978  1.00  0.00     0.000 C 
BRANCH   7   8
ATOM      8  C   UNL     1      -8.757  -7.234 -25.927  1.00  0.00     0.000 C 
BRANCH   8   9
ATOM      9  C   UNL     1      -9.535  -8.440 -26.474  1.00  0.00     0.000 C 
BRANCH   9  10
ATOM     10  C   UNL     1      -8.777  -9.769 -26.309  1.00  0.00     0.000 C 
BRANCH  10  11
ATOM     11  C   UNL     1      -9.663 -11.032 -26.291  1.00  0.00     0.000 C 
BRANCH  11  12
ATOM     12  C   UNL     1     -10.670 -11.139 -27.450  1.00  0.00     0.006 C 
BRANCH  12  13
ATOM     13  C   UNL     1     -12.065 -11.581 -26.989  1.00  0.00     0.053 C 
BRANCH  13  14
ATOM     14  C   UNL     1     -12.162 -13.073 -26.952  1.00  0.00     0.041 C 
ATOM     15  O   UNL     1     -11.330 -13.778 -27.583  1.00  0.00    -0.550 OA
ATOM     16  O   UNL     1     -13.173 -13.689 -26.224  1.00  0.00    -0.550 OA
ENDBRANCH  13  14
ENDBRANCH  12  13
ENDBRANCH  11  12
ENDBRANCH  10  11
ENDBRANCH   9  10
ENDBRANCH   8   9
ENDBRANCH   7   8
ENDBRANCH   6   7
ENDBRANCH   5   6
ENDBRANCH   4   5
ENDBRANCH   3   4
ENDBRANCH   2   3
ENDBRANCH   1   2
BRANCH   1  17
ATOM     17  C   UNL     1      -8.640  -0.382 -27.631  1.00  0.00     0.000 C 
BRANCH  17  18
ATOM     18  C   UNL     1      -7.146  -0.561 -27.970  1.00  0.00     0.000 C 
BRANCH  18  19
ATOM     19  C   UNL     1      -6.166  -0.258 -26.822  1.00  0.00     0.000 C 
BRANCH  19  20
ATOM     20  C   UNL     1      -5.262   0.953 -27.107  1.00  0.00     0.000 C 
BRANCH  20  21
ATOM     21  C   UNL     1      -6.045   2.172 -27.629  1.00  0.00     0.000 C 
BRANCH  21  22
ATOM     22  C   UNL     1      -6.531   3.152 -26.546  1.00  0.00    -0.000 C 
BRANCH  22  23
ATOM     23  C   UNL     1      -7.843   2.703 -25.880  1.00  0.00    -0.000 C 
BRANCH  23  24
ATOM     24  C   UNL     1      -7.712   2.577 -24.352  1.00  0.00    -0.000 C 
BRANCH  24  25
ATOM     25  C   UNL     1      -6.273   2.819 -23.866  1.00  0.00    -0.000 C 
BRANCH  25  26
ATOM     26  C   UNL     1      -6.102   2.567 -22.357  1.00  0.00    -0.000 C 
BRANCH  26  27
ATOM     27  C   UNL     1      -5.770   1.112 -21.970  1.00  0.00    -0.000 C 
BRANCH  27  28
ATOM     28  C   UNL     1      -5.086   0.280 -23.073  1.00  0.00    -0.000 C 
BRANCH  28  29
ATOM     29  C   UNL     1      -5.765  -1.067 -23.380  1.00  0.00    -0.003 C 
ATOM     30  C   UNL     1      -7.232  -1.105 -22.956  1.00  0.00     0.004 C 
ENDBRANCH  28  29
ENDBRANCH  27  28
ENDBRANCH  26  27
ENDBRANCH  25  26
ENDBRANCH  24  25
ENDBRANCH  23  24
ENDBRANCH  22  23
ENDBRANCH  21  22
ENDBRANCH  20  21
ENDBRANCH  19  20
ENDBRANCH  18  19
ENDBRANCH  17  18
ENDBRANCH   1  17
TORSDOF 26
ENDMDL
MODEL 3
REMARK VINA RESULT:    -3.491      4.214     11.740
REMARK INTER + INTRA:         -11.575
REMARK INTER:                  -8.794
REMARK INTRA:                  -2.781
REMARK UNBOUND:                -2.779
REMARK SMILES CCCCCCCCCCCCCCCCCCCCCCCCCCCC(=O)[O-]
REMARK SMILES IDX 15 1 16 2 17 3 18 4 19 5 20 6 21 7 22 8 23 9 24 10 25 11
REMARK SMILES IDX 26 12 27 13 28 14 29 15 30 16 14 17 13 18 12 19 11 20 10 21
REMARK SMILES IDX 9 22 8 23 7 24 6 25 5 26 4 27 3 28 2 29 1 30
REMARK H PARENT
REMARK Flexibility Score: inf
ROOT
ATOM      1  C   UNL     1      -8.253  -1.734 -23.804  1.00  0.00     0.000 C 
ENDROOT
BRANCH   1   2
ATOM      2  C   UNL     1      -8.244  -0.573 -24.812  1.00  0.00     0.000 C 
BRANCH   2   3
ATOM      3  C   UNL     1      -9.625   0.082 -24.968  1.00  0.00     0.000 C 
BRANCH   3   4
ATOM      4  C   UNL     1     -10.297  -0.272 -26.304  1.00  0.00     0.000 C 
BRANCH   4   5
ATOM      5  C   UNL     1     -10.408   0.931 -27.256  1.00  0.00     0.000 C 
BRANCH   5   6
ATOM      6  C   UNL     1      -9.050   1.580 -27.597  1.00  0.00     0.000 C 
BRANCH   6   7
ATOM      7  C   UNL     1      -8.975   3.044 -27.141  1.00  0.00     0.000 C 
BRANCH   7   8
ATOM      8  C   UNL     1      -7.922   3.819 -27.941  1.00  0.00     0.000 C 
BRANCH   8   9
ATOM      9  C   UNL     1      -6.505   3.343 -27.590  1.00  0.00     0.000 C 
BRANCH   9  10
ATOM     10  C   UNL     1      -5.770   4.298 -26.633  1.00  0.00     0.000 C 
BRANCH  10  11
ATOM     11  C   UNL     1      -5.341   3.677 -25.287  1.00  0.00     0.000 C 
BRANCH  11  12
ATOM     12  C   UNL     1      -5.972   2.310 -24.970  1.00  0.00     0.006 C 
BRANCH  12  13
ATOM     13  C   UNL     1      -5.210   1.539 -23.884  1.00  0.00     0.053 C 
BRANCH  13  14
ATOM     14  C   UNL     1      -5.984   1.524 -22.604  1.00  0.00     0.041 C 
ATOM     15  O   UNL     1      -6.185   0.439 -21.997  1.00  0.00    -0.550 OA
ATOM     16  O   UNL     1      -6.489   2.709 -22.081  1.00  0.00    -0.550 OA
ENDBRANCH  13  14
ENDBRANCH  12  13
ENDBRANCH  11  12
ENDBRANCH  10  11
ENDBRANCH   9  10
ENDBRANCH   8   9
ENDBRANCH   7   8
ENDBRANCH   6   7
ENDBRANCH   5   6
ENDBRANCH   4   5
ENDBRANCH   3   4
ENDBRANCH   2   3
ENDBRANCH   1   2
BRANCH   1  17
ATOM     17  C   UNL     1      -7.158  -2.779 -24.088  1.00  0.00     0.000 C 
BRANCH  17  18
ATOM     18  C   UNL     1      -5.787  -2.197 -24.492  1.00  0.00     0.000 C 
BRANCH  18  19
ATOM     19  C   UNL     1      -5.314  -2.544 -25.916  1.00  0.00     0.000 C 
BRANCH  19  20
ATOM     20  C   UNL     1      -6.333  -3.390 -26.698  1.00  0.00     0.000 C 
BRANCH  20  21
ATOM     21  C   UNL     1      -5.837  -4.822 -26.968  1.00  0.00     0.000 C 
BRANCH  21  22
ATOM     22  C   UNL     1      -5.863  -5.767 -25.753  1.00  0.00    -0.000 C 
BRANCH  22  23
ATOM     23  C   UNL     1      -6.733  -7.015 -25.984  1.00  0.00    -0.000 C 
BRANCH  23  24
ATOM     24  C   UNL     1      -8.235  -6.715 -25.852  1.00  0.00    -0.000 C 
BRANCH  24  25
ATOM     25  C   UNL     1      -9.041  -7.213 -27.064  1.00  0.00    -0.000 C 
BRANCH  25  26
ATOM     26  C   UNL     1     -10.112  -8.251 -26.682  1.00  0.00    -0.000 C 
BRANCH  26  27
ATOM     27  C   UNL     1      -9.935  -9.641 -27.327  1.00  0.00    -0.000 C 
BRANCH  27  28
ATOM     28  C   UNL     1     -10.302 -10.835 -26.424  1.00  0.00    -0.000 C 
BRANCH  28  29
ATOM     29  C   UNL     1     -11.722 -11.391 -26.635  1.00  0.00    -0.003 C 
ATOM     30  C   UNL     1     -11.731 -12.875 -26.998  1.00  0.00     0.004 C 
ENDBRANCH  28  29
ENDBRANCH  27  28
ENDBRANCH  26  27
ENDBRANCH  25  26
ENDBRANCH  24  25
ENDBRANCH  23  24
ENDBRANCH  22  23
ENDBRANCH  21  22
ENDBRANCH  20  21
ENDBRANCH  19  20
ENDBRANCH  18  19
ENDBRANCH  17  18
ENDBRANCH   1  17
TORSDOF 26
ENDMDL
MODEL 4
REMARK VINA RESULT:    -3.366      2.069      4.261
REMARK INTER + INTRA:         -11.262
REMARK INTER:                  -8.360
REMARK INTRA:                  -2.902
REMARK UNBOUND:                -2.779
REMARK SMILES CCCCCCCCCCCCCCCCCCCCCCCCCCCC(=O)[O-]
REMARK SMILES IDX 15 1 16 2 17 3 18 4 19 5 20 6 21 7 22 8 23 9 24 10 25 11
REMARK SMILES IDX 26 12 27 13 28 14 29 15 30 16 14 17 13 18 12 19 11 20 10 21
REMARK SMILES IDX 9 22 8 23 7 24 6 25 5 26 4 27 3 28 2 29 1 30
REMARK H PARENT
REMARK Flexibility Score: inf
ROOT
ATOM      1  C   UNL     1      -7.517  -1.192 -23.697  1.00  0.00     0.000 C 
ENDROOT
BRANCH   1   2
ATOM      2  C   UNL     1      -7.020  -2.410 -24.495  1.00  0.00     0.000 C 
BRANCH   2   3
ATOM      3  C   UNL     1      -8.024  -3.572 -24.480  1.00  0.00     0.000 C 
BRANCH   3   4
ATOM      4  C   UNL     1      -8.186  -4.227 -25.862  1.00  0.00     0.000 C 
BRANCH   4   5
ATOM      5  C   UNL     1      -6.868  -4.801 -26.411  1.00  0.00     0.000 C 
BRANCH   5   6
ATOM      6  C   UNL     1      -7.036  -6.150 -27.142  1.00  0.00     0.000 C 
BRANCH   6   7
ATOM      7  C   UNL     1      -8.242  -6.149 -28.093  1.00  0.00     0.000 C 
BRANCH   7   8
ATOM      8  C   UNL     1      -8.927  -7.520 -28.120  1.00  0.00     0.000 C 
BRANCH   8   9
ATOM      9  C   UNL     1      -9.587  -7.830 -26.769  1.00  0.00     0.000 C 
BRANCH   9  10
ATOM     10  C   UNL     1     -10.255  -9.216 -26.730  1.00  0.00     0.000 C 
BRANCH  10  11
ATOM     11  C   UNL     1     -11.409  -9.415 -27.734  1.00  0.00     0.000 C 
BRANCH  11  12
ATOM     12  C   UNL     1     -12.118 -10.779 -27.651  1.00  0.00     0.006 C 
BRANCH  12  13
ATOM     13  C   UNL     1     -11.297 -11.833 -26.897  1.00  0.00     0.053 C 
BRANCH  13  14
ATOM     14  C   UNL     1     -11.991 -13.158 -26.920  1.00  0.00     0.041 C 
ATOM     15  O   UNL     1     -11.393 -14.179 -27.351  1.00  0.00    -0.550 OA
ATOM     16  O   UNL     1     -13.300 -13.267 -26.467  1.00  0.00    -0.550 OA
ENDBRANCH  13  14
ENDBRANCH  12  13
ENDBRANCH  11  12
ENDBRANCH  10  11
ENDBRANCH   9  10
ENDBRANCH   8   9
ENDBRANCH   7   8
ENDBRANCH   6   7
ENDBRANCH   5   6
ENDBRANCH   4   5
ENDBRANCH   3   4
ENDBRANCH   2   3
ENDBRANCH   1   2
BRANCH   1  17
ATOM     17  C   UNL     1      -6.535  -0.763 -22.590  1.00  0.00     0.000 C 
BRANCH  17  18
ATOM     18  C   UNL     1      -6.183   0.739 -22.574  1.00  0.00     0.000 C 
BRANCH  18  19
ATOM     19  C   UNL     1      -6.379   1.480 -23.910  1.00  0.00     0.000 C 
BRANCH  19  20
ATOM     20  C   UNL     1      -5.255   1.202 -24.921  1.00  0.00     0.000 C 
BRANCH  20  21
ATOM     21  C   UNL     1      -5.785   0.778 -26.303  1.00  0.00     0.000 C 
BRANCH  21  22
ATOM     22  C   UNL     1      -5.439   1.733 -27.460  1.00  0.00    -0.000 C 
BRANCH  22  23
ATOM     23  C   UNL     1      -6.667   2.488 -27.998  1.00  0.00    -0.000 C 
BRANCH  23  24
ATOM     24  C   UNL     1      -7.188   3.543 -27.008  1.00  0.00    -0.000 C 
BRANCH  24  25
ATOM     25  C   UNL     1      -8.722   3.547 -26.909  1.00  0.00    -0.000 C 
BRANCH  25  26
ATOM     26  C   UNL     1      -9.392   2.691 -27.999  1.00  0.00    -0.000 C 
BRANCH  26  27
ATOM     27  C   UNL     1     -10.189   1.477 -27.480  1.00  0.00    -0.000 C 
BRANCH  27  28
ATOM     28  C   UNL     1      -9.472   0.631 -26.409  1.00  0.00    -0.000 C 
BRANCH  28  29
ATOM     29  C   UNL     1      -9.842  -0.863 -26.412  1.00  0.00    -0.003 C 
ATOM     30  C   UNL     1     -10.674  -1.268 -27.628  1.00  0.00     0.004 C 
ENDBRANCH  28  29
ENDBRANCH  27  28
ENDBRANCH  26  27
ENDBRANCH  25  26
ENDBRANCH  24  25
ENDBRANCH  23  24
ENDBRANCH  22  23
ENDBRANCH  21  22
ENDBRANCH  20  21
ENDBRANCH  19  20
ENDBRANCH  18  19
ENDBRANCH  17  18
ENDBRANCH   1  17
TORSDOF 26
ENDMDL
MODEL 5
REMARK VINA RESULT:    -3.212      1.278      2.787
REMARK INTER + INTRA:         -10.872
REMARK INTER:                  -8.055
REMARK INTRA:                  -2.817
REMARK UNBOUND:                -2.779
REMARK SMILES CCCCCCCCCCCCCCCCCCCCCCCCCCCC(=O)[O-]
REMARK SMILES IDX 15 1 16 2 17 3 18 4 19 5 20 6 21 7 22 8 23 9 24 10 25 11
REMARK SMILES IDX 26 12 27 13 28 14 29 15 30 16 14 17 13 18 12 19 11 20 10 21
REMARK SMILES IDX 9 22 8 23 7 24 6 25 5 26 4 27 3 28 2 29 1 30
REMARK H PARENT
REMARK Flexibility Score: inf
ROOT
ATOM      1  C   UNL     1      -7.278  -5.054 -25.815  1.00  0.00     0.000 C 
ENDROOT
BRANCH   1   2
ATOM      2  C   UNL     1      -6.764  -6.435 -26.255  1.00  0.00     0.000 C 
BRANCH   2   3
ATOM      3  C   UNL     1      -7.634  -7.584 -25.724  1.00  0.00     0.000 C 
BRANCH   3   4
ATOM      4  C   UNL     1      -8.384  -8.322 -26.845  1.00  0.00     0.000 C 
BRANCH   4   5
ATOM      5  C   UNL     1      -9.903  -8.379 -26.613  1.00  0.00     0.000 C 
BRANCH   5   6
ATOM      6  C   UNL     1     -10.614  -9.480 -27.428  1.00  0.00     0.000 C 
BRANCH   6   7
ATOM      7  C   UNL     1     -11.132 -10.619 -26.538  1.00  0.00     0.000 C 
BRANCH   7   8
ATOM      8  C   UNL     1     -12.088 -11.535 -27.311  1.00  0.00     0.000 C 
BRANCH   8   9
ATOM      9  C   UNL     1     -12.460 -12.770 -26.478  1.00  0.00     0.000 C 
BRANCH   9  10
ATOM     10  C   UNL     1     -11.965 -14.087 -27.101  1.00  0.00     0.000 C 
BRANCH  10  11
ATOM     11  C   UNL     1     -10.786 -13.944 -28.086  1.00  0.00     0.000 C 
BRANCH  11  12
ATOM     12  C   UNL     1      -9.454 -14.542 -27.601  1.00  0.00     0.006 C 
BRANCH  12  13
ATOM     13  C   UNL     1      -8.814 -13.731 -26.467  1.00  0.00     0.053 C 
BRANCH  13  14
ATOM     14  C   UNL     1      -7.327 -13.891 -26.477  1.00  0.00     0.041 C 
ATOM     15  O   UNL     1      -6.749 -14.380 -27.483  1.00  0.00    -0.550 OA
ATOM     16  O   UNL     1      -6.576 -13.502 -25.374  1.00  0.00    -0.550 OA
ENDBRANCH  13  14
ENDBRANCH  12  13
ENDBRANCH  11  12
ENDBRANCH  10  11
ENDBRANCH   9  10
ENDBRANCH   8   9
ENDBRANCH   7   8
ENDBRANCH   6   7
ENDBRANCH   5   6
ENDBRANCH   4   5
ENDBRANCH   3   4
ENDBRANCH   2   3
ENDBRANCH   1   2
BRANCH   1  17
ATOM     17  C   UNL     1      -8.437  -4.542 -26.690  1.00  0.00     0.000 C 
BRANCH  17  18
ATOM     18  C   UNL     1      -8.400  -3.033 -27.008  1.00  0.00     0.000 C 
BRANCH  18  19
ATOM     19  C   UNL     1      -7.007  -2.379 -26.955  1.00  0.00     0.000 C 
BRANCH  19  20
ATOM     20  C   UNL     1      -6.973  -0.985 -27.604  1.00  0.00     0.000 C 
BRANCH  20  21
ATOM     21  C   UNL     1      -6.772   0.147 -26.580  1.00  0.00     0.000 C 
BRANCH  21  22
ATOM     22  C   UNL     1      -7.998   0.465 -25.706  1.00  0.00    -0.000 C 
BRANCH  22  23
ATOM     23  C   UNL     1      -7.912   1.847 -25.034  1.00  0.00    -0.000 C 
BRANCH  23  24
ATOM     24  C   UNL     1      -6.532   2.502 -25.217  1.00  0.00    -0.000 C 
BRANCH  24  25
ATOM     25  C   UNL     1      -5.974   3.070 -23.901  1.00  0.00    -0.000 C 
BRANCH  25  26
ATOM     26  C   UNL     1      -6.202   2.131 -22.702  1.00  0.00    -0.000 C 
BRANCH  26  27
ATOM     27  C   UNL     1      -5.086   1.094 -22.462  1.00  0.00    -0.000 C 
BRANCH  27  28
ATOM     28  C   UNL     1      -5.328  -0.289 -23.098  1.00  0.00    -0.000 C 
BRANCH  28  29
ATOM     29  C   UNL     1      -6.681  -0.933 -22.747  1.00  0.00    -0.003 C 
ATOM     30  C   UNL     1      -6.853  -2.324 -23.353  1.00  0.00     0.004 C 
ENDBRANCH  28  29
ENDBRANCH  27  28
ENDBRANCH  26  27
ENDBRANCH  25  26
ENDBRANCH  24  25
ENDBRANCH  23  24
ENDBRANCH  22  23
ENDBRANCH  21  22
ENDBRANCH  20  21
ENDBRANCH  19  20
ENDBRANCH  18  19
ENDBRANCH  17  18
ENDBRANCH   1  17
TORSDOF 26
ENDMDL
MODEL 6
REMARK VINA RESULT:    -3.039      9.510     12.923
REMARK INTER + INTRA:         -10.438
REMARK INTER:                  -8.936
REMARK INTRA:                  -1.502
REMARK UNBOUND:                -2.779
REMARK SMILES CCCCCCCCCCCCCCCCCCCCCCCCCCCC(=O)[O-]
REMARK SMILES IDX 15 1 16 2 17 3 18 4 19 5 20 6 21 7 22 8 23 9 24 10 25 11
REMARK SMILES IDX 26 12 27 13 28 14 29 15 30 16 14 17 13 18 12 19 11 20 10 21
REMARK SMILES IDX 9 22 8 23 7 24 6 25 5 26 4 27 3 28 2 29 1 30
REMARK H PARENT
REMARK Flexibility Score: inf
ROOT
ATOM      1  C   UNL     1      -8.234 -13.638 -19.518  1.00  0.00     0.000 C 
ENDROOT
BRANCH   1   2
ATOM      2  C   UNL     1      -7.524 -14.655 -20.427  1.00  0.00     0.000 C 
BRANCH   2   3
ATOM      3  C   UNL     1      -6.921 -14.003 -21.681  1.00  0.00     0.000 C 
BRANCH   3   4
ATOM      4  C   UNL     1      -7.538 -14.545 -22.980  1.00  0.00     0.000 C 
BRANCH   4   5
ATOM      5  C   UNL     1      -6.495 -14.779 -24.087  1.00  0.00     0.000 C 
BRANCH   5   6
ATOM      6  C   UNL     1      -7.109 -14.928 -25.495  1.00  0.00     0.000 C 
BRANCH   6   7
ATOM      7  C   UNL     1      -8.643 -14.874 -25.469  1.00  0.00     0.000 C 
BRANCH   7   8
ATOM      8  C   UNL     1      -9.224 -14.979 -26.883  1.00  0.00     0.000 C 
BRANCH   8   9
ATOM      9  C   UNL     1     -10.753 -14.834 -26.861  1.00  0.00     0.000 C 
BRANCH   9  10
ATOM     10  C   UNL     1     -11.246 -13.558 -27.566  1.00  0.00     0.000 C 
BRANCH  10  11
ATOM     11  C   UNL     1     -11.919 -12.519 -26.645  1.00  0.00     0.000 C 
BRANCH  11  12
ATOM     12  C   UNL     1     -11.873 -11.068 -27.155  1.00  0.00     0.006 C 
BRANCH  12  13
ATOM     13  C   UNL     1     -10.451 -10.492 -27.188  1.00  0.00     0.053 C 
BRANCH  13  14
ATOM     14  C   UNL     1      -9.840 -10.514 -25.823  1.00  0.00     0.041 C 
ATOM     15  O   UNL     1      -9.016 -11.414 -25.512  1.00  0.00    -0.550 OA
ATOM     16  O   UNL     1     -10.183  -9.543 -24.889  1.00  0.00    -0.550 OA
ENDBRANCH  13  14
ENDBRANCH  12  13
ENDBRANCH  11  12
ENDBRANCH  10  11
ENDBRANCH   9  10
ENDBRANCH   8   9
ENDBRANCH   7   8
ENDBRANCH   6   7
ENDBRANCH   5   6
ENDBRANCH   4   5
ENDBRANCH   3   4
ENDBRANCH   2   3
ENDBRANCH   1   2
BRANCH   1  17
ATOM     17  C   UNL     1      -7.570 -13.508 -18.135  1.00  0.00     0.000 C 
BRANCH  17  18
ATOM     18  C   UNL     1      -6.411 -14.492 -17.871  1.00  0.00     0.000 C 
BRANCH  18  19
ATOM     19  C   UNL     1      -5.328 -13.992 -16.897  1.00  0.00     0.000 C 
BRANCH  19  20
ATOM     20  C   UNL     1      -5.522 -14.513 -15.463  1.00  0.00     0.000 C 
BRANCH  20  21
ATOM     21  C   UNL     1      -6.010 -13.422 -14.493  1.00  0.00     0.000 C 
BRANCH  21  22
ATOM     22  C   UNL     1      -5.524 -13.571 -13.040  1.00  0.00    -0.000 C 
BRANCH  22  23
ATOM     23  C   UNL     1      -6.420 -14.499 -12.201  1.00  0.00    -0.000 C 
BRANCH  23  24
ATOM     24  C   UNL     1      -7.765 -13.846 -11.841  1.00  0.00    -0.000 C 
BRANCH  24  25
ATOM     25  C   UNL     1      -7.627 -12.799 -10.722  1.00  0.00    -0.000 C 
BRANCH  25  26
ATOM     26  C   UNL     1      -7.879 -11.363 -11.215  1.00  0.00    -0.000 C 
BRANCH  26  27
ATOM     27  C   UNL     1      -8.815 -10.520 -10.324  1.00  0.00    -0.000 C 
BRANCH  27  28
ATOM     28  C   UNL     1      -8.473 -10.529  -8.821  1.00  0.00    -0.000 C 
BRANCH  28  29
ATOM     29  C   UNL     1      -8.906  -9.268  -8.053  1.00  0.00    -0.003 C 
ATOM     30  C   UNL     1      -8.313  -7.985  -8.633  1.00  0.00     0.004 C 
ENDBRANCH  28  29
ENDBRANCH  27  28
ENDBRANCH  26  27
ENDBRANCH  25  26
ENDBRANCH  24  25
ENDBRANCH  23  24
ENDBRANCH  22  23
ENDBRANCH  21  22
ENDBRANCH  20  21
ENDBRANCH  19  20
ENDBRANCH  18  19
ENDBRANCH  17  18
ENDBRANCH   1  17
TORSDOF 26
ENDMDL
MODEL 7
REMARK VINA RESULT:    -2.940      1.353      3.009
REMARK INTER + INTRA:         -10.187
REMARK INTER:                  -7.035
REMARK INTRA:                  -3.153
REMARK UNBOUND:                -2.779
REMARK SMILES CCCCCCCCCCCCCCCCCCCCCCCCCCCC(=O)[O-]
REMARK SMILES IDX 15 1 16 2 17 3 18 4 19 5 20 6 21 7 22 8 23 9 24 10 25 11
REMARK SMILES IDX 26 12 27 13 28 14 29 15 30 16 14 17 13 18 12 19 11 20 10 21
REMARK SMILES IDX 9 22 8 23 7 24 6 25 5 26 4 27 3 28 2 29 1 30
REMARK H PARENT
REMARK Flexibility Score: inf
ROOT
ATOM      1  C   UNL     1      -7.083  -2.433 -27.387  1.00  0.00     0.000 C 
ENDROOT
BRANCH   1   2
ATOM      2  C   UNL     1      -6.799  -3.911 -27.066  1.00  0.00     0.000 C 
BRANCH   2   3
ATOM      3  C   UNL     1      -8.053  -4.664 -26.599  1.00  0.00     0.000 C 
BRANCH   3   4
ATOM      4  C   UNL     1      -7.717  -5.981 -25.882  1.00  0.00     0.000 C 
BRANCH   4   5
ATOM      5  C   UNL     1      -7.399  -7.129 -26.856  1.00  0.00     0.000 C 
BRANCH   5   6
ATOM      6  C   UNL     1      -8.596  -8.068 -27.119  1.00  0.00     0.000 C 
BRANCH   6   7
ATOM      7  C   UNL     1      -9.621  -8.035 -25.976  1.00  0.00     0.000 C 
BRANCH   7   8
ATOM      8  C   UNL     1     -10.140  -9.442 -25.658  1.00  0.00     0.000 C 
BRANCH   8   9
ATOM      9  C   UNL     1     -10.776 -10.086 -26.899  1.00  0.00     0.000 C 
BRANCH   9  10
ATOM     10  C   UNL     1     -11.447 -11.438 -26.598  1.00  0.00     0.000 C 
BRANCH  10  11
ATOM     11  C   UNL     1     -10.893 -12.637 -27.395  1.00  0.00     0.000 C 
BRANCH  11  12
ATOM     12  C   UNL     1      -9.361 -12.671 -27.541  1.00  0.00     0.006 C 
BRANCH  12  13
ATOM     13  C   UNL     1      -8.640 -12.901 -26.206  1.00  0.00     0.053 C 
BRANCH  13  14
ATOM     14  C   UNL     1      -7.360 -13.645 -26.419  1.00  0.00     0.041 C 
ATOM     15  O   UNL     1      -6.306 -13.274 -25.838  1.00  0.00    -0.550 OA
ATOM     16  O   UNL     1      -7.328 -14.750 -27.263  1.00  0.00    -0.550 OA
ENDBRANCH  13  14
ENDBRANCH  12  13
ENDBRANCH  11  12
ENDBRANCH  10  11
ENDBRANCH   9  10
ENDBRANCH   8   9
ENDBRANCH   7   8
ENDBRANCH   6   7
ENDBRANCH   5   6
ENDBRANCH   4   5
ENDBRANCH   3   4
ENDBRANCH   2   3
ENDBRANCH   1   2
BRANCH   1  17
ATOM     17  C   UNL     1      -5.898  -1.735 -28.080  1.00  0.00     0.000 C 
BRANCH  17  18
ATOM     18  C   UNL     1      -5.760  -0.228 -27.780  1.00  0.00     0.000 C 
BRANCH  18  19
ATOM     19  C   UNL     1      -6.842   0.366 -26.860  1.00  0.00     0.000 C 
BRANCH  19  20
ATOM     20  C   UNL     1      -7.163   1.835 -27.179  1.00  0.00     0.000 C 
BRANCH  20  21
ATOM     21  C   UNL     1      -7.459   2.670 -25.920  1.00  0.00     0.000 C 
BRANCH  21  22
ATOM     22  C   UNL     1      -6.256   2.900 -24.987  1.00  0.00    -0.000 C 
BRANCH  22  23
ATOM     23  C   UNL     1      -6.240   1.940 -23.785  1.00  0.00    -0.000 C 
BRANCH  23  24
ATOM     24  C   UNL     1      -4.905   1.188 -23.652  1.00  0.00    -0.000 C 
BRANCH  24  25
ATOM     25  C   UNL     1      -5.091  -0.339 -23.643  1.00  0.00    -0.000 C 
BRANCH  25  26
ATOM     26  C   UNL     1      -6.324  -0.785 -22.837  1.00  0.00    -0.000 C 
BRANCH  26  27
ATOM     27  C   UNL     1      -7.014  -2.065 -23.353  1.00  0.00    -0.000 C 
BRANCH  27  28
ATOM     28  C   UNL     1      -8.250  -1.830 -24.243  1.00  0.00    -0.000 C 
BRANCH  28  29
ATOM     29  C   UNL     1      -8.931  -0.462 -24.055  1.00  0.00    -0.003 C 
ATOM     30  C   UNL     1      -9.918  -0.130 -25.173  1.00  0.00     0.004 C 
ENDBRANCH  28  29
ENDBRANCH  27  28
ENDBRANCH  26  27
ENDBRANCH  25  26
ENDBRANCH  24  25
ENDBRANCH  23  24
ENDBRANCH  22  23
ENDBRANCH  21  22
ENDBRANCH  20  21
ENDBRANCH  19  20
ENDBRANCH  18  19
ENDBRANCH  17  18
ENDBRANCH   1  17
TORSDOF 26
ENDMDL
MODEL 8
REMARK VINA RESULT:    -2.891      2.203      4.985
REMARK INTER + INTRA:         -10.065
REMARK INTER:                  -7.864
REMARK INTRA:                  -2.200
REMARK UNBOUND:                -2.779
REMARK SMILES CCCCCCCCCCCCCCCCCCCCCCCCCCCC(=O)[O-]
REMARK SMILES IDX 15 1 16 2 17 3 18 4 19 5 20 6 21 7 22 8 23 9 24 10 25 11
REMARK SMILES IDX 26 12 27 13 28 14 29 15 30 16 14 17 13 18 12 19 11 20 10 21
REMARK SMILES IDX 9 22 8 23 7 24 6 25 5 26 4 27 3 28 2 29 1 30
REMARK H PARENT
REMARK Flexibility Score: inf
ROOT
ATOM      1  C   UNL     1      -7.039  -0.369 -23.430  1.00  0.00     0.000 C 
ENDROOT
BRANCH   1   2
ATOM      2  C   UNL     1      -7.475  -1.219 -24.635  1.00  0.00     0.000 C 
BRANCH   2   3
ATOM      3  C   UNL     1      -7.360  -2.727 -24.364  1.00  0.00     0.000 C 
BRANCH   3   4
ATOM      4  C   UNL     1      -7.020  -3.529 -25.631  1.00  0.00     0.000 C 
BRANCH   4   5
ATOM      5  C   UNL     1      -5.528  -3.465 -25.999  1.00  0.00     0.000 C 
BRANCH   5   6
ATOM      6  C   UNL     1      -4.901  -4.845 -26.289  1.00  0.00     0.000 C 
BRANCH   6   7
ATOM      7  C   UNL     1      -5.506  -5.507 -27.536  1.00  0.00     0.000 C 
BRANCH   7   8
ATOM      8  C   UNL     1      -5.687  -7.015 -27.329  1.00  0.00     0.000 C 
BRANCH   8   9
ATOM      9  C   UNL     1      -6.112  -7.323 -25.886  1.00  0.00     0.000 C 
BRANCH   9  10
ATOM     10  C   UNL     1      -7.592  -7.727 -25.768  1.00  0.00     0.000 C 
BRANCH  10  11
ATOM     11  C   UNL     1      -8.319  -7.951 -27.110  1.00  0.00     0.000 C 
BRANCH  11  12
ATOM     12  C   UNL     1      -8.228  -9.381 -27.671  1.00  0.00     0.006 C 
BRANCH  12  13
ATOM     13  C   UNL     1      -9.497 -10.205 -27.414  1.00  0.00     0.053 C 
BRANCH  13  14
ATOM     14  C   UNL     1      -9.630 -10.530 -25.960  1.00  0.00     0.041 C 
ATOM     15  O   UNL     1     -10.389  -9.846 -25.224  1.00  0.00    -0.550 OA
ATOM     16  O   UNL     1      -8.914 -11.589 -25.414  1.00  0.00    -0.550 OA
ENDBRANCH  13  14
ENDBRANCH  12  13
ENDBRANCH  11  12
ENDBRANCH  10  11
ENDBRANCH   9  10
ENDBRANCH   8   9
ENDBRANCH   7   8
ENDBRANCH   6   7
ENDBRANCH   5   6
ENDBRANCH   4   5
ENDBRANCH   3   4
ENDBRANCH   2   3
ENDBRANCH   1   2
BRANCH   1  17
ATOM     17  C   UNL     1      -5.520  -0.421 -23.182  1.00  0.00     0.000 C 
BRANCH  17  18
ATOM     18  C   UNL     1      -4.876   0.923 -22.779  1.00  0.00     0.000 C 
BRANCH  18  19
ATOM     19  C   UNL     1      -5.786   1.882 -21.991  1.00  0.00     0.000 C 
BRANCH  19  20
ATOM     20  C   UNL     1      -6.372   3.007 -22.861  1.00  0.00     0.000 C 
BRANCH  20  21
ATOM     21  C   UNL     1      -5.361   3.560 -23.882  1.00  0.00     0.000 C 
BRANCH  21  22
ATOM     22  C   UNL     1      -5.083   2.650 -25.091  1.00  0.00    -0.000 C 
BRANCH  22  23
ATOM     23  C   UNL     1      -6.358   2.290 -25.874  1.00  0.00    -0.000 C 
BRANCH  23  24
ATOM     24  C   UNL     1      -6.811   3.424 -26.809  1.00  0.00    -0.000 C 
BRANCH  24  25
ATOM     25  C   UNL     1      -8.212   3.177 -27.393  1.00  0.00    -0.000 C 
BRANCH  25  26
ATOM     26  C   UNL     1      -8.575   1.682 -27.463  1.00  0.00    -0.000 C 
BRANCH  26  27
ATOM     27  C   UNL     1     -10.061   1.357 -27.210  1.00  0.00    -0.000 C 
BRANCH  27  28
ATOM     28  C   UNL     1     -10.324   0.051 -26.435  1.00  0.00    -0.000 C 
BRANCH  28  29
ATOM     29  C   UNL     1     -10.872  -1.107 -27.287  1.00  0.00    -0.003 C 
ATOM     30  C   UNL     1      -9.796  -2.119 -27.677  1.00  0.00     0.004 C 
ENDBRANCH  28  29
ENDBRANCH  27  28
ENDBRANCH  26  27
ENDBRANCH  25  26
ENDBRANCH  24  25
ENDBRANCH  23  24
ENDBRANCH  22  23
ENDBRANCH  21  22
ENDBRANCH  20  21
ENDBRANCH  19  20
ENDBRANCH  18  19
ENDBRANCH  17  18
ENDBRANCH   1  17
TORSDOF 26
ENDMDL
MODEL 9
REMARK VINA RESULT:    -2.837      1.500      2.422
REMARK INTER + INTRA:          -9.927
REMARK INTER:                  -7.229
REMARK INTRA:                  -2.698
REMARK UNBOUND:                -2.779
REMARK SMILES CCCCCCCCCCCCCCCCCCCCCCCCCCCC(=O)[O-]
REMARK SMILES IDX 15 1 16 2 17 3 18 4 19 5 20 6 21 7 22 8 23 9 24 10 25 11
REMARK SMILES IDX 26 12 27 13 28 14 29 15 30 16 14 17 13 18 12 19 11 20 10 21
REMARK SMILES IDX 9 22 8 23 7 24 6 25 5 26 4 27 3 28 2 29 1 30
REMARK H PARENT
REMARK Flexibility Score: inf
ROOT
ATOM      1  C   UNL     1      -7.427  -5.797 -25.783  1.00  0.00     0.000 C 
ENDROOT
BRANCH   1   2
ATOM      2  C   UNL     1      -7.084  -7.269 -26.072  1.00  0.00     0.000 C 
BRANCH   2   3
ATOM      3  C   UNL     1      -8.302  -8.194 -25.933  1.00  0.00     0.000 C 
BRANCH   3   4
ATOM      4  C   UNL     1      -8.941  -8.535 -27.290  1.00  0.00     0.000 C 
BRANCH   4   5
ATOM      5  C   UNL     1     -10.471  -8.379 -27.288  1.00  0.00     0.000 C 
BRANCH   5   6
ATOM      6  C   UNL     1     -11.215  -9.561 -27.944  1.00  0.00     0.000 C 
BRANCH   6   7
ATOM      7  C   UNL     1     -11.560 -10.664 -26.932  1.00  0.00     0.000 C 
BRANCH   7   8
ATOM      8  C   UNL     1     -12.290 -11.828 -27.610  1.00  0.00     0.000 C 
BRANCH   8   9
ATOM      9  C   UNL     1     -12.449 -13.013 -26.646  1.00  0.00     0.000 C 
BRANCH   9  10
ATOM     10  C   UNL     1     -11.668 -14.261 -27.093  1.00  0.00     0.000 C 
BRANCH  10  11
ATOM     11  C   UNL     1     -10.498 -13.989 -28.062  1.00  0.00     0.000 C 
BRANCH  11  12
ATOM     12  C   UNL     1      -9.155 -14.621 -27.657  1.00  0.00     0.006 C 
BRANCH  12  13
ATOM     13  C   UNL     1      -8.821 -14.412 -26.174  1.00  0.00     0.053 C 
BRANCH  13  14
ATOM     14  C   UNL     1      -8.108 -13.113 -25.972  1.00  0.00     0.041 C 
ATOM     15  O   UNL     1      -8.727 -12.115 -25.516  1.00  0.00    -0.550 OA
ATOM     16  O   UNL     1      -6.759 -13.000 -26.288  1.00  0.00    -0.550 OA
ENDBRANCH  13  14
ENDBRANCH  12  13
ENDBRANCH  11  12
ENDBRANCH  10  11
ENDBRANCH   9  10
ENDBRANCH   8   9
ENDBRANCH   7   8
ENDBRANCH   6   7
ENDBRANCH   5   6
ENDBRANCH   4   5
ENDBRANCH   3   4
ENDBRANCH   2   3
ENDBRANCH   1   2
BRANCH   1  17
ATOM     17  C   UNL     1      -7.780  -5.006 -27.056  1.00  0.00     0.000 C 
BRANCH  17  18
ATOM     18  C   UNL     1      -7.018  -3.676 -27.232  1.00  0.00     0.000 C 
BRANCH  18  19
ATOM     19  C   UNL     1      -5.916  -3.401 -26.192  1.00  0.00     0.000 C 
BRANCH  19  20
ATOM     20  C   UNL     1      -4.884  -2.366 -26.670  1.00  0.00     0.000 C 
BRANCH  20  21
ATOM     21  C   UNL     1      -5.318  -0.916 -26.392  1.00  0.00     0.000 C 
BRANCH  21  22
ATOM     22  C   UNL     1      -5.642  -0.077 -27.641  1.00  0.00    -0.000 C 
BRANCH  22  23
ATOM     23  C   UNL     1      -5.885   1.408 -27.317  1.00  0.00    -0.000 C 
BRANCH  23  24
ATOM     24  C   UNL     1      -7.282   1.658 -26.724  1.00  0.00    -0.000 C 
BRANCH  24  25
ATOM     25  C   UNL     1      -8.409   1.288 -27.704  1.00  0.00    -0.000 C 
BRANCH  25  26
ATOM     26  C   UNL     1      -9.176   0.023 -27.280  1.00  0.00    -0.000 C 
BRANCH  26  27
ATOM     27  C   UNL     1     -10.206   0.230 -26.150  1.00  0.00    -0.000 C 
BRANCH  27  28
ATOM     28  C   UNL     1      -9.716  -0.149 -24.739  1.00  0.00    -0.000 C 
BRANCH  28  29
ATOM     29  C   UNL     1      -8.610  -1.219 -24.705  1.00  0.00    -0.003 C 
ATOM     30  C   UNL     1      -7.465  -0.861 -23.760  1.00  0.00     0.004 C 
ENDBRANCH  28  29
ENDBRANCH  27  28
ENDBRANCH  26  27
ENDBRANCH  25  26
ENDBRANCH  24  25
ENDBRANCH  23  24
ENDBRANCH  22  23
ENDBRANCH  21  22
ENDBRANCH  20  21
ENDBRANCH  19  20
ENDBRANCH  18  19
ENDBRANCH  17  18
ENDBRANCH   1  17
TORSDOF 26
ENDMDL
