MODEL 1
REMARK VINA RESULT:    -3.422      0.000      0.000
REMARK INTER + INTRA:          -5.538
REMARK INTER:                  -5.022
REMARK INTRA:                  -0.517
REMARK UNBOUND:                -0.517
REMARK SMILES C=C1C=C[C@H](C(C)C)CCC(C)=CCC1
REMARK SMILES IDX 3 1 4 2 5 3 9 4 10 5 11 6 12 7 13 8 6 10 7 11 8 12 2 13 1 14
REMARK SMILES IDX 15 15 14 16
REMARK H PARENT
REMARK Flexibility Score: 70.00
ROOT
ATOM      1  C   UNL     1      30.172   6.644  30.886  1.00  0.00    -0.001 C 
ATOM      2  C   UNL     1      30.402   7.478  31.911  1.00  0.00    -0.023 C 
ENDROOT
BRANCH   2   3
ATOM      3  C   UNL     1      31.109   8.814  31.816  1.00  0.00     0.014 C 
BRANCH   3   4
ATOM      4  C   UNL     1      30.072   9.948  31.630  1.00  0.00     0.012 C 
BRANCH   4   5
ATOM      5  C   UNL     1      30.378  10.866  30.433  1.00  0.00     0.031 C 
BRANCH   5   6
ATOM      6  C   UNL     1      29.222  10.945  29.451  1.00  0.00    -0.077 C 
ATOM      7  C   UNL     1      28.214  12.052  29.633  1.00  0.00     0.039 C 
ATOM      8  C   UNL     1      29.048  10.100  28.406  1.00  0.00    -0.028 CG0
ATOM      9  G   UNL     1      29.977   8.984  27.985  1.00  0.00     0.000 G0
ENDBRANCH   5   6
ENDBRANCH   4   5
ENDBRANCH   3   4
BRANCH   3  10
ATOM     10  C   UNL     1      32.041   9.015  33.051  1.00  0.00    -0.010 C 
ATOM     11  C   UNL     1      31.323   8.850  34.401  1.00  0.00     0.008 C 
ATOM     12  C   UNL     1      32.776  10.363  33.003  1.00  0.00     0.008 C 
ENDBRANCH   3  10
ENDBRANCH   2   3
BRANCH   1  13
ATOM     13  C   UNL     1      30.474   6.920  29.461  1.00  0.00    -0.055 C 
ATOM     14  C   UNL     1      31.653   6.509  28.986  1.00  0.00     0.012 C 
BRANCH  13  15
ATOM     15  C   UNL     1      29.504   7.608  28.512  1.00  0.00     0.039 C 
BRANCH  15  16
ATOM     16  C   UNL     1      29.975   8.975  27.960  1.00  0.00     0.032 CG0
ATOM     17  G   UNL     1      29.045  10.087  28.391  1.00  0.00     0.000 G0
ENDBRANCH  15  16
ENDBRANCH  13  15
ENDBRANCH   1  13
TORSDOF 1
ENDMDL
MODEL 2
REMARK VINA RESULT:    -3.357      1.102      3.443
REMARK INTER + INTRA:          -5.443
REMARK INTER:                  -4.836
REMARK INTRA:                  -0.607
REMARK UNBOUND:                -0.517
REMARK SMILES C=C1C=C[C@H](C(C)C)CCC(C)=CCC1
REMARK SMILES IDX 3 1 4 2 5 3 9 4 10 5 11 6 12 7 13 8 6 10 7 11 8 12 2 13 1 14
REMARK SMILES IDX 15 15 14 16
REMARK H PARENT
REMARK Flexibility Score: 70.00
ROOT
ATOM      1  C   UNL     1      30.795  11.276  30.939  1.00  0.00    -0.001 C 
ATOM      2  C   UNL     1      31.227  10.206  31.622  1.00  0.00    -0.023 C 
ENDROOT
BRANCH   2   3
ATOM      3  C   UNL     1      30.521   8.868  31.697  1.00  0.00     0.014 C 
BRANCH   3   4
ATOM      4  C   UNL     1      31.117   7.897  30.649  1.00  0.00     0.012 C 
BRANCH   4   5
ATOM      5  C   UNL     1      30.077   7.373  29.642  1.00  0.00     0.031 C 
BRANCH   5   6
ATOM      6  C   UNL     1      30.436   7.716  28.206  1.00  0.00    -0.077 C 
ATOM      7  C   UNL     1      31.359   6.781  27.466  1.00  0.00     0.039 C 
ATOM      8  C   UNL     1      29.962   8.796  27.537  1.00  0.00    -0.028 CG0
ATOM      9  G   UNL     1      28.963   9.807  28.051  1.00  0.00     0.000 G0
ENDBRANCH   5   6
ENDBRANCH   4   5
ENDBRANCH   3   4
BRANCH   3  10
ATOM     10  C   UNL     1      30.570   8.320  33.157  1.00  0.00    -0.010 C 
ATOM     11  C   UNL     1      30.762   9.412  34.222  1.00  0.00     0.008 C 
ATOM     12  C   UNL     1      31.636   7.225  33.323  1.00  0.00     0.008 C 
ENDBRANCH   3  10
ENDBRANCH   2   3
BRANCH   1  13
ATOM     13  C   UNL     1      29.606  11.318  30.055  1.00  0.00    -0.055 C 
ATOM     14  C   UNL     1      28.425  11.590  30.616  1.00  0.00     0.012 C 
BRANCH  13  15
ATOM     15  C   UNL     1      29.668  11.104  28.550  1.00  0.00     0.039 C 
BRANCH  15  16
ATOM     16  C   UNL     1      28.955   9.831  28.032  1.00  0.00     0.032 CG0
ATOM     17  G   UNL     1      29.955   8.808  27.541  1.00  0.00     0.000 G0
ENDBRANCH  15  16
ENDBRANCH  13  15
ENDBRANCH   1  13
TORSDOF 1
ENDMDL
MODEL 3
REMARK VINA RESULT:    -3.205      4.722      6.693
REMARK INTER + INTRA:          -5.220
REMARK INTER:                  -4.512
REMARK INTRA:                  -0.708
REMARK UNBOUND:                -0.517
REMARK SMILES C=C1C=C[C@H](C(C)C)CCC(C)=CCC1
REMARK SMILES IDX 3 1 4 2 5 3 9 4 10 5 11 6 12 7 13 8 6 10 7 11 8 12 2 13 1 14
REMARK SMILES IDX 15 15 14 16
REMARK H PARENT
REMARK Flexibility Score: 70.00
ROOT
ATOM      1  C   UNL     1      31.641   8.757  36.849  1.00  0.00    -0.001 C 
ATOM      2  C   UNL     1      31.552   9.639  35.843  1.00  0.00    -0.023 C 
ENDROOT
BRANCH   2   3
ATOM      3  C   UNL     1      30.683   9.484  34.612  1.00  0.00     0.014 C 
BRANCH   3   4
ATOM      4  C   UNL     1      29.699  10.674  34.507  1.00  0.00     0.012 C 
BRANCH   4   5
ATOM      5  C   UNL     1      28.983  10.993  35.832  1.00  0.00     0.031 C 
BRANCH   5   6
ATOM      6  C   UNL     1      27.809  10.064  36.096  1.00  0.00    -0.077 C 
ATOM      7  C   UNL     1      26.626  10.139  35.164  1.00  0.00     0.039 C 
ATOM      8  C   UNL     1      27.765   9.156  37.100  1.00  0.00    -0.028 CG0
ATOM      9  G   UNL     1      28.867   8.850  38.089  1.00  0.00     0.000 G0
ENDBRANCH   5   6
ENDBRANCH   4   5
ENDBRANCH   3   4
BRANCH   3  10
ATOM     10  C   UNL     1      31.577   9.299  33.347  1.00  0.00    -0.010 C 
ATOM     11  C   UNL     1      31.995   7.841  33.092  1.00  0.00     0.008 C 
ATOM     12  C   UNL     1      32.816  10.207  33.382  1.00  0.00     0.008 C 
ENDBRANCH   3  10
ENDBRANCH   2   3
BRANCH   1  13
ATOM     13  C   UNL     1      30.833   7.523  36.992  1.00  0.00    -0.055 C 
ATOM     14  C   UNL     1      31.311   6.402  36.443  1.00  0.00     0.012 C 
BRANCH  13  15
ATOM     15  C   UNL     1      29.520   7.459  37.756  1.00  0.00     0.039 C 
BRANCH  15  16
ATOM     16  C   UNL     1      28.877   8.829  38.083  1.00  0.00     0.032 CG0
ATOM     17  G   UNL     1      27.777   9.163  37.101  1.00  0.00     0.000 G0
ENDBRANCH  15  16
ENDBRANCH  13  15
ENDBRANCH   1  13
TORSDOF 1
ENDMDL
MODEL 4
REMARK VINA RESULT:    -3.096      2.719      5.606
REMARK INTER + INTRA:          -5.060
REMARK INTER:                  -5.175
REMARK INTRA:                   0.115
REMARK UNBOUND:                -0.517
REMARK SMILES C=C1C=C[C@H](C(C)C)CCC(C)=CCC1
REMARK SMILES IDX 3 1 4 2 5 3 9 4 10 5 11 6 12 7 13 8 6 10 7 11 8 12 2 13 1 14
REMARK SMILES IDX 15 15 14 16
REMARK H PARENT
REMARK Flexibility Score: 70.00
ROOT
ATOM      1  C   UNL     1      30.118  10.141  30.732  1.00  0.00    -0.001 C 
ATOM      2  C   UNL     1      30.181   8.915  30.191  1.00  0.00    -0.023 C 
ENDROOT
BRANCH   2   3
ATOM      3  C   UNL     1      31.028   7.770  30.705  1.00  0.00     0.014 C 
BRANCH   3   4
ATOM      4  C   UNL     1      30.558   7.360  32.122  1.00  0.00     0.012 C 
BRANCH   4   5
ATOM      5  C   UNL     1      31.666   7.462  33.186  1.00  0.00     0.031 C 
BRANCH   5   6
ATOM      6  C   UNL     1      31.109   7.651  34.587  1.00  0.00    -0.077 C 
ATOM      7  C   UNL     1      30.867   6.420  35.423  1.00  0.00     0.039 C 
ATOM      8  C   UNL     1      30.838   8.856  35.145  1.00  0.00    -0.028 CG0
ATOM      9  G   UNL     1      31.088  10.213  34.527  1.00  0.00     0.000 G0
ENDBRANCH   5   6
ENDBRANCH   4   5
ENDBRANCH   3   4
BRANCH   3  10
ATOM     10  C   UNL     1      31.018   6.595  29.679  1.00  0.00    -0.010 C 
ATOM     11  C   UNL     1      31.724   6.926  28.353  1.00  0.00     0.008 C 
ATOM     12  C   UNL     1      29.595   6.082  29.408  1.00  0.00     0.008 C 
ENDBRANCH   3  10
ENDBRANCH   2   3
BRANCH   1  13
ATOM     13  C   UNL     1      30.782  10.569  31.987  1.00  0.00    -0.055 C 
ATOM     14  C   UNL     1      32.018  11.068  31.895  1.00  0.00     0.012 C 
BRANCH  13  15
ATOM     15  C   UNL     1      30.120  10.504  33.355  1.00  0.00     0.039 C 
BRANCH  15  16
ATOM     16  C   UNL     1      31.076  10.224  34.540  1.00  0.00     0.032 CG0
ATOM     17  G   UNL     1      30.815   8.861  35.141  1.00  0.00     0.000 G0
ENDBRANCH  15  16
ENDBRANCH  13  15
ENDBRANCH   1  13
TORSDOF 1
ENDMDL
MODEL 5
REMARK VINA RESULT:    -2.988      3.901      6.327
REMARK INTER + INTRA:          -4.901
REMARK INTER:                  -4.447
REMARK INTRA:                  -0.455
REMARK UNBOUND:                -0.517
REMARK SMILES C=C1C=C[C@H](C(C)C)CCC(C)=CCC1
REMARK SMILES IDX 3 1 4 2 5 3 9 4 10 5 11 6 12 7 13 8 6 10 7 11 8 12 2 13 1 14
REMARK SMILES IDX 15 15 14 16
REMARK H PARENT
REMARK Flexibility Score: 70.00
ROOT
ATOM      1  C   UNL     1      28.036   9.256  26.627  1.00  0.00    -0.001 C 
ATOM      2  C   UNL     1      28.334  10.385  25.966  1.00  0.00    -0.023 C 
ENDROOT
BRANCH   2   3
ATOM      3  C   UNL     1      29.725  10.825  25.560  1.00  0.00     0.014 C 
BRANCH   3   4
ATOM      4  C   UNL     1      30.014  10.388  24.104  1.00  0.00     0.012 C 
BRANCH   4   5
ATOM      5  C   UNL     1      30.917   9.145  24.007  1.00  0.00     0.031 C 
BRANCH   5   6
ATOM      6  C   UNL     1      30.215   7.966  23.355  1.00  0.00    -0.077 C 
ATOM      7  C   UNL     1      29.898   8.058  21.884  1.00  0.00     0.039 C 
ATOM      8  C   UNL     1      29.875   6.825  24.004  1.00  0.00    -0.028 CG0
ATOM      9  G   UNL     1      30.175   6.485  25.446  1.00  0.00     0.000 G0
ENDBRANCH   5   6
ENDBRANCH   4   5
ENDBRANCH   3   4
BRANCH   3  10
ATOM     10  C   UNL     1      29.890  12.358  25.797  1.00  0.00    -0.010 C 
ATOM     11  C   UNL     1      30.137  12.734  27.267  1.00  0.00     0.008 C 
ATOM     12  C   UNL     1      28.703  13.157  25.238  1.00  0.00     0.008 C 
ENDBRANCH   3  10
ENDBRANCH   2   3
BRANCH   1  13
ATOM     13  C   UNL     1      28.996   8.187  26.991  1.00  0.00    -0.055 C 
ATOM     14  C   UNL     1      29.900   8.462  27.936  1.00  0.00     0.012 C 
BRANCH  13  15
ATOM     15  C   UNL     1      28.982   6.797  26.376  1.00  0.00     0.039 C 
BRANCH  15  16
ATOM     16  C   UNL     1      30.178   6.470  25.448  1.00  0.00     0.032 CG0
ATOM     17  G   UNL     1      29.864   6.820  24.012  1.00  0.00     0.000 G0
ENDBRANCH  15  16
ENDBRANCH  13  15
ENDBRANCH   1  13
TORSDOF 1
ENDMDL
MODEL 6
REMARK VINA RESULT:    -2.981      2.581      6.190
REMARK INTER + INTRA:          -4.891
REMARK INTER:                  -4.315
REMARK INTRA:                  -0.577
REMARK UNBOUND:                -0.517
REMARK SMILES C=C1C=C[C@H](C(C)C)CCC(C)=CCC1
REMARK SMILES IDX 3 1 4 2 5 3 9 4 10 5 11 6 12 7 13 8 6 10 7 11 8 12 2 13 1 14
REMARK SMILES IDX 15 15 14 16
REMARK H PARENT
REMARK Flexibility Score: 70.00
ROOT
ATOM      1  C   UNL     1      28.517  11.487  26.584  1.00  0.00    -0.001 C 
ATOM      2  C   UNL     1      28.907  10.469  25.802  1.00  0.00    -0.023 C 
ENDROOT
BRANCH   2   3
ATOM      3  C   UNL     1      30.329   9.973  25.649  1.00  0.00     0.014 C 
BRANCH   3   4
ATOM      4  C   UNL     1      30.458   8.549  26.242  1.00  0.00     0.012 C 
BRANCH   4   5
ATOM      5  C   UNL     1      29.461   8.270  27.382  1.00  0.00     0.031 C 
BRANCH   5   6
ATOM      6  C   UNL     1      30.101   8.387  28.755  1.00  0.00    -0.077 C 
ATOM      7  C   UNL     1      31.129   7.355  29.145  1.00  0.00     0.039 C 
ATOM      8  C   UNL     1      29.827   9.372  29.644  1.00  0.00    -0.028 CG0
ATOM      9  G   UNL     1      28.905  10.550  29.429  1.00  0.00     0.000 G0
ENDBRANCH   5   6
ENDBRANCH   4   5
ENDBRANCH   3   4
BRANCH   3  10
ATOM     10  C   UNL     1      30.771  10.070  24.156  1.00  0.00    -0.010 C 
ATOM     11  C   UNL     1      30.058  11.184  23.371  1.00  0.00     0.008 C 
ATOM     12  C   UNL     1      30.620   8.727  23.424  1.00  0.00     0.008 C 
ENDBRANCH   3  10
ENDBRANCH   2   3
BRANCH   1  13
ATOM     13  C   UNL     1      29.386  12.244  27.516  1.00  0.00    -0.055 C 
ATOM     14  C   UNL     1      29.919  13.388  27.076  1.00  0.00     0.012 C 
BRANCH  13  15
ATOM     15  C   UNL     1      29.670  11.809  28.945  1.00  0.00     0.039 C 
BRANCH  15  16
ATOM     16  C   UNL     1      28.892  10.558  29.424  1.00  0.00     0.032 CG0
ATOM     17  G   UNL     1      29.825   9.389  29.646  1.00  0.00     0.000 G0
ENDBRANCH  15  16
ENDBRANCH  13  15
ENDBRANCH   1  13
TORSDOF 1
ENDMDL
MODEL 7
REMARK VINA RESULT:    -2.958      3.832      6.337
REMARK INTER + INTRA:          -4.858
REMARK INTER:                  -4.151
REMARK INTRA:                  -0.707
REMARK UNBOUND:                -0.517
REMARK SMILES C=C1C=C[C@H](C(C)C)CCC(C)=CCC1
REMARK SMILES IDX 3 1 4 2 5 3 9 4 10 5 11 6 12 7 13 8 6 10 7 11 8 12 2 13 1 14
REMARK SMILES IDX 15 15 14 16
REMARK H PARENT
REMARK Flexibility Score: 70.00
ROOT
ATOM      1  C   UNL     1      30.359  11.733  25.187  1.00  0.00    -0.001 C 
ATOM      2  C   UNL     1      30.182  11.121  26.367  1.00  0.00    -0.023 C 
ENDROOT
BRANCH   2   3
ATOM      3  C   UNL     1      29.021  10.216  26.722  1.00  0.00     0.014 C 
BRANCH   3   4
ATOM      4  C   UNL     1      29.548   8.831  27.170  1.00  0.00     0.012 C 
BRANCH   4   5
ATOM      5  C   UNL     1      30.689   8.297  26.286  1.00  0.00     0.031 C 
BRANCH   5   6
ATOM      6  C   UNL     1      30.177   7.558  25.061  1.00  0.00    -0.077 C 
ATOM      7  C   UNL     1      29.522   6.216  25.268  1.00  0.00     0.039 C 
ATOM      8  C   UNL     1      30.248   8.037  23.795  1.00  0.00    -0.028 CG0
ATOM      9  G   UNL     1      30.778   9.387  23.370  1.00  0.00     0.000 G0
ENDBRANCH   5   6
ENDBRANCH   4   5
ENDBRANCH   3   4
BRANCH   3  10
ATOM     10  C   UNL     1      28.108  10.910  27.780  1.00  0.00    -0.010 C 
ATOM     11  C   UNL     1      27.455  12.208  27.278  1.00  0.00     0.008 C 
ATOM     12  C   UNL     1      28.851  11.167  29.100  1.00  0.00     0.008 C 
ENDBRANCH   3  10
ENDBRANCH   2   3
BRANCH   1  13
ATOM     13  C   UNL     1      29.511  11.557  23.984  1.00  0.00    -0.055 C 
ATOM     14  C   UNL     1      28.625  12.518  23.705  1.00  0.00     0.012 C 
BRANCH  13  15
ATOM     15  C   UNL     1      29.621  10.369  23.042  1.00  0.00     0.039 C 
BRANCH  15  16
ATOM     16  C   UNL     1      30.778   9.387  23.346  1.00  0.00     0.032 CG0
ATOM     17  G   UNL     1      30.249   8.044  23.797  1.00  0.00     0.000 G0
ENDBRANCH  15  16
ENDBRANCH  13  15
ENDBRANCH   1  13
TORSDOF 1
ENDMDL
MODEL 8
REMARK VINA RESULT:    -2.915      3.585      6.937
REMARK INTER + INTRA:          -4.795
REMARK INTER:                  -4.210
REMARK INTRA:                  -0.585
REMARK UNBOUND:                -0.517
REMARK SMILES C=C1C=C[C@H](C(C)C)CCC(C)=CCC1
REMARK SMILES IDX 3 1 4 2 5 3 9 4 10 5 11 6 12 7 13 8 6 10 7 11 8 12 2 13 1 14
REMARK SMILES IDX 15 15 14 16
REMARK H PARENT
REMARK Flexibility Score: 70.00
ROOT
ATOM      1  C   UNL     1      28.619  11.624  25.241  1.00  0.00    -0.001 C 
ATOM      2  C   UNL     1      29.136  11.092  24.124  1.00  0.00    -0.023 C 
ENDROOT
BRANCH   2   3
ATOM      3  C   UNL     1      30.414  10.283  24.045  1.00  0.00     0.014 C 
BRANCH   3   4
ATOM      4  C   UNL     1      30.090   8.773  24.140  1.00  0.00     0.012 C 
BRANCH   4   5
ATOM      5  C   UNL     1      30.776   8.075  25.328  1.00  0.00     0.031 C 
BRANCH   5   6
ATOM      6  C   UNL     1      29.783   7.386  26.249  1.00  0.00    -0.077 C 
ATOM      7  C   UNL     1      29.349   5.985  25.899  1.00  0.00     0.039 C 
ATOM      8  C   UNL     1      29.279   7.939  27.379  1.00  0.00    -0.028 CG0
ATOM      9  G   UNL     1      29.642   9.285  27.964  1.00  0.00     0.000 G0
ENDBRANCH   5   6
ENDBRANCH   4   5
ENDBRANCH   3   4
BRANCH   3  10
ATOM     10  C   UNL     1      31.214  10.672  22.763  1.00  0.00    -0.010 C 
ATOM     11  C   UNL     1      31.960   9.492  22.117  1.00  0.00     0.008 C 
ATOM     12  C   UNL     1      32.184  11.834  23.021  1.00  0.00     0.008 C 
ENDBRANCH   3  10
ENDBRANCH   2   3
BRANCH   1  13
ATOM     13  C   UNL     1      29.145  11.434  26.614  1.00  0.00    -0.055 C 
ATOM     14  C   UNL     1      30.109  12.261  27.029  1.00  0.00     0.012 C 
BRANCH  13  15
ATOM     15  C   UNL     1      28.622  10.380  27.577  1.00  0.00     0.039 C 
BRANCH  15  16
ATOM     16  C   UNL     1      29.641   9.287  27.981  1.00  0.00     0.032 CG0
ATOM     17  G   UNL     1      29.271   7.949  27.383  1.00  0.00     0.000 G0
ENDBRANCH  15  16
ENDBRANCH  13  15
ENDBRANCH   1  13
TORSDOF 1
ENDMDL
MODEL 9
REMARK VINA RESULT:    -2.819      3.002      5.429
REMARK INTER + INTRA:          -4.655
REMARK INTER:                  -4.147
REMARK INTRA:                  -0.508
REMARK UNBOUND:                -0.517
REMARK SMILES C=C1C=C[C@H](C(C)C)CCC(C)=CCC1
REMARK SMILES IDX 3 1 4 2 5 3 9 4 10 5 11 6 12 7 13 8 6 10 7 11 8 12 2 13 1 14
REMARK SMILES IDX 15 15 14 16
REMARK H PARENT
REMARK Flexibility Score: 70.00
ROOT
ATOM      1  C   UNL     1      30.202  11.514  25.352  1.00  0.00    -0.001 C 
ATOM      2  C   UNL     1      29.839  11.889  26.588  1.00  0.00    -0.023 C 
ENDROOT
BRANCH   2   3
ATOM      3  C   UNL     1      28.931  11.106  27.513  1.00  0.00     0.014 C 
BRANCH   3   4
ATOM      4  C   UNL     1      29.752  10.046  28.286  1.00  0.00     0.012 C 
BRANCH   4   5
ATOM      5  C   UNL     1      29.239   8.609  28.082  1.00  0.00     0.031 C 
BRANCH   5   6
ATOM      6  C   UNL     1      30.362   7.628  27.787  1.00  0.00    -0.077 C 
ATOM      7  C   UNL     1      31.074   6.997  28.956  1.00  0.00     0.039 C 
ATOM      8  C   UNL     1      30.750   7.265  26.540  1.00  0.00    -0.028 CG0
ATOM      9  G   UNL     1      30.121   7.701  25.237  1.00  0.00     0.000 G0
ENDBRANCH   5   6
ENDBRANCH   4   5
ENDBRANCH   3   4
BRANCH   3  10
ATOM     10  C   UNL     1      28.142  12.083  28.439  1.00  0.00    -0.010 C 
ATOM     11  C   UNL     1      27.930  11.549  29.865  1.00  0.00     0.008 C 
ATOM     12  C   UNL     1      26.796  12.497  27.823  1.00  0.00     0.008 C 
ENDBRANCH   3  10
ENDBRANCH   2   3
BRANCH   1  13
ATOM     13  C   UNL     1      29.866  10.222  24.706  1.00  0.00    -0.055 C 
ATOM     14  C   UNL     1      28.706  10.142  24.048  1.00  0.00     0.012 C 
BRANCH  13  15
ATOM     15  C   UNL     1      30.783   9.009  24.722  1.00  0.00     0.039 C 
BRANCH  15  16
ATOM     16  C   UNL     1      30.137   7.698  25.233  1.00  0.00     0.032 CG0
ATOM     17  G   UNL     1      30.754   7.261  26.542  1.00  0.00     0.000 G0
ENDBRANCH  15  16
ENDBRANCH  13  15
ENDBRANCH   1  13
TORSDOF 1
ENDMDL
