MODEL 1
REMARK VINA RESULT:    -6.710      0.000      0.000
REMARK INTER + INTRA:          -7.345
REMARK INTER:                  -7.102
REMARK INTRA:                  -0.242
REMARK UNBOUND:                -0.242
REMARK SMILES O=c1cc(-c2ccccc2)oc2ccccc12
REMARK SMILES IDX 4 1 3 2 2 3 1 4 17 5 16 6 15 7 14 8 13 9 12 10 11 11 5 12
REMARK SMILES IDX 8 13 7 14 9 15 6 16 10 17
REMARK H PARENT
REMARK Flexibility Score: inf
ROOT
ATOM      1  C   UNL     1     123.197 122.017 143.272  1.00  0.00     0.138 A 
ATOM      2  C   UNL     1     122.432 121.457 142.226  1.00  0.00     0.100 A 
ATOM      3  C   UNL     1     121.365 122.182 141.691  1.00  0.00     0.193 A 
ATOM      4  O   UNL     1     120.681 121.682 140.757  1.00  0.00    -0.289 OA
ATOM      5  C   UNL     1     121.071 123.454 142.199  1.00  0.00     0.065 A 
ATOM      6  C   UNL     1     120.010 124.236 141.705  1.00  0.00     0.016 A 
ATOM      7  C   UNL     1     119.759 125.500 142.248  1.00  0.00     0.001 A 
ATOM      8  C   UNL     1     120.560 125.991 143.283  1.00  0.00     0.004 A 
ATOM      9  C   UNL     1     121.615 125.221 143.780  1.00  0.00     0.048 A 
ATOM     10  C   UNL     1     121.874 123.955 143.245  1.00  0.00     0.138 A 
ATOM     11  O   UNL     1     122.881 123.231 143.724  1.00  0.00    -0.456 OA
ENDROOT
BRANCH   1  12
ATOM     12  C   UNL     1     124.355 121.310 143.901  1.00  0.00     0.017 A 
ATOM     13  C   UNL     1     126.573 119.953 145.001  1.00  0.00     0.000 A 
ATOM     14  C   UNL     1     125.623 120.534 145.841  1.00  0.00     0.001 A 
ATOM     15  C   UNL     1     126.426 120.044 143.617  1.00  0.00     0.001 A 
ATOM     16  C   UNL     1     124.522 121.207 145.301  1.00  0.00     0.012 A 
ATOM     17  C   UNL     1     125.328 120.715 143.071  1.00  0.00     0.012 A 
ENDBRANCH   1  12
TORSDOF 1
ENDMDL
MODEL 2
REMARK VINA RESULT:    -6.571      1.433      1.876
REMARK INTER + INTRA:          -7.197
REMARK INTER:                  -6.938
REMARK INTRA:                  -0.259
REMARK UNBOUND:                -0.242
REMARK SMILES O=c1cc(-c2ccccc2)oc2ccccc12
REMARK SMILES IDX 4 1 3 2 2 3 1 4 17 5 16 6 15 7 14 8 13 9 12 10 11 11 5 12
REMARK SMILES IDX 8 13 7 14 9 15 6 16 10 17
REMARK H PARENT
REMARK Flexibility Score: inf
ROOT
ATOM      1  C   UNL     1     123.243 122.169 143.401  1.00  0.00     0.138 A 
ATOM      2  C   UNL     1     121.979 122.235 144.028  1.00  0.00     0.100 A 
ATOM      3  C   UNL     1     120.952 122.967 143.429  1.00  0.00     0.193 A 
ATOM      4  O   UNL     1     119.823 123.026 143.989  1.00  0.00    -0.289 OA
ATOM      5  C   UNL     1     121.190 123.625 142.215  1.00  0.00     0.065 A 
ATOM      6  C   UNL     1     120.199 124.379 141.560  1.00  0.00     0.016 A 
ATOM      7  C   UNL     1     120.490 125.017 140.350  1.00  0.00     0.001 A 
ATOM      8  C   UNL     1     121.765 124.908 139.786  1.00  0.00     0.004 A 
ATOM      9  C   UNL     1     122.755 124.162 140.431  1.00  0.00     0.048 A 
ATOM     10  C   UNL     1     122.475 123.520 141.642  1.00  0.00     0.138 A 
ATOM     11  O   UNL     1     123.424 122.812 142.247  1.00  0.00    -0.456 OA
ENDROOT
BRANCH   1  12
ATOM     12  C   UNL     1     124.396 121.409 143.973  1.00  0.00     0.017 A 
ATOM     13  C   UNL     1     126.611 119.964 144.963  1.00  0.00     0.000 A 
ATOM     14  C   UNL     1     125.619 120.409 145.838  1.00  0.00     0.001 A 
ATOM     15  C   UNL     1     126.507 120.235 143.599  1.00  0.00     0.001 A 
ATOM     16  C   UNL     1     124.520 121.125 145.353  1.00  0.00     0.012 A 
ATOM     17  C   UNL     1     125.411 120.950 143.107  1.00  0.00     0.012 A 
ENDBRANCH   1  12
TORSDOF 1
ENDMDL
MODEL 3
REMARK VINA RESULT:    -6.469     19.144     20.261
REMARK INTER + INTRA:          -7.089
REMARK INTER:                  -6.866
REMARK INTRA:                  -0.224
REMARK UNBOUND:                -0.242
REMARK SMILES O=c1cc(-c2ccccc2)oc2ccccc12
REMARK SMILES IDX 4 1 3 2 2 3 1 4 17 5 16 6 15 7 14 8 13 9 12 10 11 11 5 12
REMARK SMILES IDX 8 13 7 14 9 15 6 16 10 17
REMARK H PARENT
REMARK Flexibility Score: inf
ROOT
ATOM      1  C   UNL     1     134.116 136.306 134.726  1.00  0.00     0.138 A 
ATOM      2  C   UNL     1     133.596 136.462 133.423  1.00  0.00     0.100 A 
ATOM      3  C   UNL     1     133.870 135.496 132.453  1.00  0.00     0.193 A 
ATOM      4  O   UNL     1     133.406 135.635 131.289  1.00  0.00    -0.289 OA
ATOM      5  C   UNL     1     134.657 134.385 132.787  1.00  0.00     0.065 A 
ATOM      6  C   UNL     1     134.969 133.377 131.857  1.00  0.00     0.016 A 
ATOM      7  C   UNL     1     135.759 132.289 132.243  1.00  0.00     0.001 A 
ATOM      8  C   UNL     1     136.240 132.199 133.552  1.00  0.00     0.004 A 
ATOM      9  C   UNL     1     135.934 133.197 134.482  1.00  0.00     0.048 A 
ATOM     10  C   UNL     1     135.146 134.289 134.107  1.00  0.00     0.138 A 
ATOM     11  O   UNL     1     134.860 135.233 134.999  1.00  0.00    -0.456 OA
ENDROOT
BRANCH   1  12
ATOM     12  C   UNL     1     133.872 137.292 135.823  1.00  0.00     0.017 A 
ATOM     13  C   UNL     1     133.318 139.124 137.899  1.00  0.00     0.000 A 
ATOM     14  C   UNL     1     134.600 139.053 137.353  1.00  0.00     0.001 A 
ATOM     15  C   UNL     1     132.311 138.287 137.418  1.00  0.00     0.001 A 
ATOM     16  C   UNL     1     134.880 138.148 136.324  1.00  0.00     0.012 A 
ATOM     17  C   UNL     1     132.583 137.380 136.390  1.00  0.00     0.012 A 
ENDBRANCH   1  12
TORSDOF 1
ENDMDL
MODEL 4
REMARK VINA RESULT:    -6.332      5.620      7.866
REMARK INTER + INTRA:          -6.944
REMARK INTER:                  -6.690
REMARK INTRA:                  -0.254
REMARK UNBOUND:                -0.242
REMARK SMILES O=c1cc(-c2ccccc2)oc2ccccc12
REMARK SMILES IDX 4 1 3 2 2 3 1 4 17 5 16 6 15 7 14 8 13 9 12 10 11 11 5 12
REMARK SMILES IDX 8 13 7 14 9 15 6 16 10 17
REMARK H PARENT
REMARK Flexibility Score: inf
ROOT
ATOM      1  C   UNL     1     121.538 125.572 138.230  1.00  0.00     0.138 A 
ATOM      2  C   UNL     1     122.139 126.841 138.084  1.00  0.00     0.100 A 
ATOM      3  C   UNL     1     122.649 127.222 136.842  1.00  0.00     0.193 A 
ATOM      4  O   UNL     1     123.187 128.356 136.712  1.00  0.00    -0.289 OA
ATOM      5  C   UNL     1     122.559 126.339 135.758  1.00  0.00     0.065 A 
ATOM      6  C   UNL     1     123.053 126.660 134.481  1.00  0.00     0.016 A 
ATOM      7  C   UNL     1     122.937 125.742 133.432  1.00  0.00     0.001 A 
ATOM      8  C   UNL     1     122.328 124.502 133.649  1.00  0.00     0.004 A 
ATOM      9  C   UNL     1     121.835 124.174 134.915  1.00  0.00     0.048 A 
ATOM     10  C   UNL     1     121.947 125.085 135.970  1.00  0.00     0.138 A 
ATOM     11  O   UNL     1     121.473 124.764 137.171  1.00  0.00    -0.456 OA
ENDROOT
BRANCH   1  12
ATOM     12  C   UNL     1     120.966 125.086 139.523  1.00  0.00     0.017 A 
ATOM     13  C   UNL     1     119.864 124.260 141.988  1.00  0.00     0.000 A 
ATOM     14  C   UNL     1     120.419 123.319 141.120  1.00  0.00     0.001 A 
ATOM     15  C   UNL     1     119.855 125.609 141.636  1.00  0.00     0.001 A 
ATOM     16  C   UNL     1     120.966 123.723 139.898  1.00  0.00     0.012 A 
ATOM     17  C   UNL     1     120.400 126.020 140.416  1.00  0.00     0.012 A 
ENDBRANCH   1  12
TORSDOF 1
ENDMDL
MODEL 5
REMARK VINA RESULT:    -6.240     18.668     19.458
REMARK INTER + INTRA:          -6.847
REMARK INTER:                  -6.604
REMARK INTRA:                  -0.243
REMARK UNBOUND:                -0.242
REMARK SMILES O=c1cc(-c2ccccc2)oc2ccccc12
REMARK SMILES IDX 4 1 3 2 2 3 1 4 17 5 16 6 15 7 14 8 13 9 12 10 11 11 5 12
REMARK SMILES IDX 8 13 7 14 9 15 6 16 10 17
REMARK H PARENT
REMARK Flexibility Score: inf
ROOT
ATOM      1  C   UNL     1     133.052 134.117 132.724  1.00  0.00     0.138 A 
ATOM      2  C   UNL     1     134.445 134.044 132.505  1.00  0.00     0.100 A 
ATOM      3  C   UNL     1     135.265 135.087 132.940  1.00  0.00     0.193 A 
ATOM      4  O   UNL     1     136.509 135.022 132.744  1.00  0.00    -0.289 OA
ATOM      5  C   UNL     1     134.693 136.191 133.587  1.00  0.00     0.065 A 
ATOM      6  C   UNL     1     135.463 137.275 134.049  1.00  0.00     0.016 A 
ATOM      7  C   UNL     1     134.842 138.352 134.689  1.00  0.00     0.001 A 
ATOM      8  C   UNL     1     133.456 138.357 134.872  1.00  0.00     0.004 A 
ATOM      9  C   UNL     1     132.684 137.285 134.415  1.00  0.00     0.048 A 
ATOM     10  C   UNL     1     133.295 136.203 133.773  1.00  0.00     0.138 A 
ATOM     11  O   UNL     1     132.552 135.187 133.343  1.00  0.00    -0.456 OA
ENDROOT
BRANCH   1  12
ATOM     12  C   UNL     1     132.103 133.046 132.291  1.00  0.00     0.017 A 
ATOM     13  C   UNL     1     130.271 131.025 131.563  1.00  0.00     0.000 A 
ATOM     14  C   UNL     1     131.210 131.483 130.638  1.00  0.00     0.001 A 
ATOM     15  C   UNL     1     130.239 131.567 132.847  1.00  0.00     0.001 A 
ATOM     16  C   UNL     1     132.120 132.484 130.994  1.00  0.00     0.012 A 
ATOM     17  C   UNL     1     131.145 132.568 133.209  1.00  0.00     0.012 A 
ENDBRANCH   1  12
TORSDOF 1
ENDMDL
MODEL 6
REMARK VINA RESULT:    -6.217      1.250      2.779
REMARK INTER + INTRA:          -6.823
REMARK INTER:                  -6.589
REMARK INTRA:                  -0.234
REMARK UNBOUND:                -0.242
REMARK SMILES O=c1cc(-c2ccccc2)oc2ccccc12
REMARK SMILES IDX 4 1 3 2 2 3 1 4 17 5 16 6 15 7 14 8 13 9 12 10 11 11 5 12
REMARK SMILES IDX 8 13 7 14 9 15 6 16 10 17
REMARK H PARENT
REMARK Flexibility Score: inf
ROOT
ATOM      1  C   UNL     1     123.934 122.990 143.966  1.00  0.00     0.138 A 
ATOM      2  C   UNL     1     123.839 124.136 144.785  1.00  0.00     0.100 A 
ATOM      3  C   UNL     1     122.814 125.057 144.561  1.00  0.00     0.193 A 
ATOM      4  O   UNL     1     122.729 126.081 145.293  1.00  0.00    -0.289 OA
ATOM      5  C   UNL     1     121.896 124.832 143.527  1.00  0.00     0.065 A 
ATOM      6  C   UNL     1     120.841 125.721 143.249  1.00  0.00     0.016 A 
ATOM      7  C   UNL     1     119.952 125.448 142.205  1.00  0.00     0.001 A 
ATOM      8  C   UNL     1     120.107 124.292 141.434  1.00  0.00     0.004 A 
ATOM      9  C   UNL     1     121.152 123.404 141.703  1.00  0.00     0.048 A 
ATOM     10  C   UNL     1     122.047 123.668 142.745  1.00  0.00     0.138 A 
ATOM     11  O   UNL     1     123.038 122.816 142.993  1.00  0.00    -0.456 OA
ENDROOT
BRANCH   1  12
ATOM     12  C   UNL     1     124.999 121.954 144.136  1.00  0.00     0.017 A 
ATOM     13  C   UNL     1     126.979 119.985 144.550  1.00  0.00     0.000 A 
ATOM     14  C   UNL     1     126.881 120.629 143.316  1.00  0.00     0.001 A 
ATOM     15  C   UNL     1     126.097 120.315 145.578  1.00  0.00     0.001 A 
ATOM     16  C   UNL     1     125.902 121.605 143.106  1.00  0.00     0.012 A 
ATOM     17  C   UNL     1     125.116 121.290 145.375  1.00  0.00     0.012 A 
ENDBRANCH   1  12
TORSDOF 1
ENDMDL
MODEL 7
REMARK VINA RESULT:    -6.152     18.892     19.954
REMARK INTER + INTRA:          -6.754
REMARK INTER:                  -6.489
REMARK INTRA:                  -0.265
REMARK UNBOUND:                -0.242
REMARK SMILES O=c1cc(-c2ccccc2)oc2ccccc12
REMARK SMILES IDX 4 1 3 2 2 3 1 4 17 5 16 6 15 7 14 8 13 9 12 10 11 11 5 12
REMARK SMILES IDX 8 13 7 14 9 15 6 16 10 17
REMARK H PARENT
REMARK Flexibility Score: inf
ROOT
ATOM      1  C   UNL     1     134.063 136.240 134.850  1.00  0.00     0.138 A 
ATOM      2  C   UNL     1     135.286 136.222 134.145  1.00  0.00     0.100 A 
ATOM      3  C   UNL     1     135.505 135.244 133.174  1.00  0.00     0.193 A 
ATOM      4  O   UNL     1     136.598 135.227 132.544  1.00  0.00    -0.289 OA
ATOM      5  C   UNL     1     134.509 134.294 132.912  1.00  0.00     0.065 A 
ATOM      6  C   UNL     1     134.666 133.283 131.947  1.00  0.00     0.016 A 
ATOM      7  C   UNL     1     133.639 132.360 131.725  1.00  0.00     0.001 A 
ATOM      8  C   UNL     1     132.453 132.438 132.461  1.00  0.00     0.004 A 
ATOM      9  C   UNL     1     132.289 133.439 133.422  1.00  0.00     0.048 A 
ATOM     10  C   UNL     1     133.310 134.367 133.652  1.00  0.00     0.138 A 
ATOM     11  O   UNL     1     133.143 135.316 134.569  1.00  0.00    -0.456 OA
ENDROOT
BRANCH   1  12
ATOM     12  C   UNL     1     133.747 137.251 135.905  1.00  0.00     0.017 A 
ATOM     13  C   UNL     1     133.058 139.125 137.902  1.00  0.00     0.000 A 
ATOM     14  C   UNL     1     134.349 139.111 137.372  1.00  0.00     0.001 A 
ATOM     15  C   UNL     1     132.109 138.212 137.444  1.00  0.00     0.001 A 
ATOM     16  C   UNL     1     134.695 138.184 136.383  1.00  0.00     0.012 A 
ATOM     17  C   UNL     1     132.448 137.283 136.455  1.00  0.00     0.012 A 
ENDBRANCH   1  12
TORSDOF 1
ENDMDL
MODEL 8
REMARK VINA RESULT:    -6.048      2.177      6.081
REMARK INTER + INTRA:          -6.644
REMARK INTER:                  -6.382
REMARK INTRA:                  -0.262
REMARK UNBOUND:                -0.242
REMARK SMILES O=c1cc(-c2ccccc2)oc2ccccc12
REMARK SMILES IDX 4 1 3 2 2 3 1 4 17 5 16 6 15 7 14 8 13 9 12 10 11 11 5 12
REMARK SMILES IDX 8 13 7 14 9 15 6 16 10 17
REMARK H PARENT
REMARK Flexibility Score: inf
ROOT
ATOM      1  C   UNL     1     123.471 122.577 142.205  1.00  0.00     0.138 A 
ATOM      2  C   UNL     1     122.723 121.995 143.251  1.00  0.00     0.100 A 
ATOM      3  C   UNL     1     123.377 121.238 144.225  1.00  0.00     0.193 A 
ATOM      4  O   UNL     1     122.708 120.718 145.160  1.00  0.00    -0.289 OA
ATOM      5  C   UNL     1     124.765 121.065 144.149  1.00  0.00     0.065 A 
ATOM      6  C   UNL     1     125.484 120.314 145.097  1.00  0.00     0.016 A 
ATOM      7  C   UNL     1     126.869 120.173 144.975  1.00  0.00     0.001 A 
ATOM      8  C   UNL     1     127.546 120.778 143.911  1.00  0.00     0.004 A 
ATOM      9  C   UNL     1     126.840 121.526 142.965  1.00  0.00     0.048 A 
ATOM     10  C   UNL     1     125.453 121.672 143.078  1.00  0.00     0.138 A 
ATOM     11  O   UNL     1     124.791 122.386 142.173  1.00  0.00    -0.456 OA
ENDROOT
BRANCH   1  12
ATOM     12  C   UNL     1     122.852 123.402 141.123  1.00  0.00     0.017 A 
ATOM     13  C   UNL     1     121.770 124.998 139.060  1.00  0.00     0.000 A 
ATOM     14  C   UNL     1     120.941 124.150 139.795  1.00  0.00     0.001 A 
ATOM     15  C   UNL     1     123.134 125.056 139.346  1.00  0.00     0.001 A 
ATOM     16  C   UNL     1     121.472 123.357 140.818  1.00  0.00     0.012 A 
ATOM     17  C   UNL     1     123.671 124.266 140.367  1.00  0.00     0.012 A 
ENDBRANCH   1  12
TORSDOF 1
ENDMDL
MODEL 9
REMARK VINA RESULT:    -6.030      5.491      7.847
REMARK INTER + INTRA:          -6.625
REMARK INTER:                  -6.362
REMARK INTRA:                  -0.263
REMARK UNBOUND:                -0.242
REMARK SMILES O=c1cc(-c2ccccc2)oc2ccccc12
REMARK SMILES IDX 4 1 3 2 2 3 1 4 17 5 16 6 15 7 14 8 13 9 12 10 11 11 5 12
REMARK SMILES IDX 8 13 7 14 9 15 6 16 10 17
REMARK H PARENT
REMARK Flexibility Score: inf
ROOT
ATOM      1  C   UNL     1     122.283 126.277 137.652  1.00  0.00     0.138 A 
ATOM      2  C   UNL     1     122.916 127.458 138.095  1.00  0.00     0.100 A 
ATOM      3  C   UNL     1     122.724 127.891 139.408  1.00  0.00     0.193 A 
ATOM      4  O   UNL     1     123.290 128.947 139.803  1.00  0.00    -0.289 OA
ATOM      5  C   UNL     1     121.904 127.148 140.268  1.00  0.00     0.065 A 
ATOM      6  C   UNL     1     121.669 127.529 141.601  1.00  0.00     0.016 A 
ATOM      7  C   UNL     1     120.843 126.750 142.417  1.00  0.00     0.001 A 
ATOM      8  C   UNL     1     120.247 125.590 141.912  1.00  0.00     0.004 A 
ATOM      9  C   UNL     1     120.476 125.204 140.588  1.00  0.00     0.048 A 
ATOM     10  C   UNL     1     121.300 125.977 139.763  1.00  0.00     0.138 A 
ATOM     11  O   UNL     1     121.511 125.601 138.505  1.00  0.00    -0.456 OA
ENDROOT
BRANCH   1  12
ATOM     12  C   UNL     1     122.435 125.743 136.264  1.00  0.00     0.017 A 
ATOM     13  C   UNL     1     122.798 124.794 133.630  1.00  0.00     0.000 A 
ATOM     14  C   UNL     1     121.763 124.289 134.418  1.00  0.00     0.001 A 
ATOM     15  C   UNL     1     123.653 125.767 134.146  1.00  0.00     0.001 A 
ATOM     16  C   UNL     1     121.578 124.756 135.723  1.00  0.00     0.012 A 
ATOM     17  C   UNL     1     123.475 126.238 135.450  1.00  0.00     0.012 A 
ENDBRANCH   1  12
TORSDOF 1
ENDMDL
