MODEL 1
REMARK VINA RESULT:    -4.793      0.000      0.000
REMARK INTER + INTRA:          -9.961
REMARK INTER:                  -8.155
REMARK INTRA:                  -1.806
REMARK UNBOUND:                -1.806
REMARK SMILES CCCCCCCCCCCCCC(=O)[O-]
REMARK SMILES IDX 8 1 9 2 10 3 11 4 12 5 13 6 14 7 15 8 16 9 7 10 6 11 5 12
REMARK SMILES IDX 4 13 3 14 2 15 1 16
REMARK H PARENT
REMARK Flexibility Score: inf
ROOT
ATOM      1  C   UNL     1      88.282  74.227  74.639  1.00  0.00     0.000 C 
ENDROOT
BRANCH   1   2
ATOM      2  C   UNL     1      89.570  73.506  74.217  1.00  0.00     0.000 C 
BRANCH   2   3
ATOM      3  C   UNL     1      89.945  73.857  72.769  1.00  0.00     0.000 C 
BRANCH   3   4
ATOM      4  C   UNL     1      88.766  73.706  71.790  1.00  0.00     0.000 C 
BRANCH   4   5
ATOM      5  C   UNL     1      89.130  73.861  70.300  1.00  0.00     0.006 C 
BRANCH   5   6
ATOM      6  C   UNL     1      90.453  74.597  70.040  1.00  0.00     0.053 C 
BRANCH   6   7
ATOM      7  C   UNL     1      90.235  76.050  69.747  1.00  0.00     0.041 C 
ATOM      8  O   UNL     1      89.196  76.428  69.145  1.00  0.00    -0.550 OA
ATOM      9  O   UNL     1      91.197  76.985  70.110  1.00  0.00    -0.550 OA
ENDBRANCH   6   7
ENDBRANCH   5   6
ENDBRANCH   4   5
ENDBRANCH   3   4
ENDBRANCH   2   3
ENDBRANCH   1   2
BRANCH   1  10
ATOM     10  C   UNL     1      87.136  73.256  74.972  1.00  0.00     0.000 C 
BRANCH  10  11
ATOM     11  C   UNL     1      85.850  73.459  74.146  1.00  0.00    -0.000 C 
BRANCH  11  12
ATOM     12  C   UNL     1      85.252  74.879  74.203  1.00  0.00    -0.000 C 
BRANCH  12  13
ATOM     13  C   UNL     1      85.503  75.744  72.954  1.00  0.00    -0.000 C 
BRANCH  13  14
ATOM     14  C   UNL     1      86.375  76.976  73.246  1.00  0.00    -0.000 C 
BRANCH  14  15
ATOM     15  C   UNL     1      87.526  77.134  72.240  1.00  0.00    -0.003 C 
ATOM     16  C   UNL     1      88.864  77.440  72.912  1.00  0.00     0.004 C 
ENDBRANCH  14  15
ENDBRANCH  13  14
ENDBRANCH  12  13
ENDBRANCH  11  12
ENDBRANCH  10  11
ENDBRANCH   1  10
TORSDOF 12
ENDMDL
MODEL 2
REMARK VINA RESULT:    -4.769      2.762      5.699
REMARK INTER + INTRA:          -9.920
REMARK INTER:                  -8.111
REMARK INTRA:                  -1.809
REMARK UNBOUND:                -1.806
REMARK SMILES CCCCCCCCCCCCCC(=O)[O-]
REMARK SMILES IDX 8 1 9 2 10 3 11 4 12 5 13 6 14 7 15 8 16 9 7 10 6 11 5 12
REMARK SMILES IDX 4 13 3 14 2 15 1 16
REMARK H PARENT
REMARK Flexibility Score: inf
ROOT
ATOM      1  C   UNL     1      90.009  76.908  70.689  1.00  0.00     0.000 C 
ENDROOT
BRANCH   1   2
ATOM      2  C   UNL     1      89.363  77.183  72.055  1.00  0.00     0.000 C 
BRANCH   2   3
ATOM      3  C   UNL     1      87.905  77.638  71.889  1.00  0.00     0.000 C 
BRANCH   3   4
ATOM      4  C   UNL     1      86.994  77.158  73.034  1.00  0.00     0.000 C 
BRANCH   4   5
ATOM      5  C   UNL     1      86.301  75.803  72.793  1.00  0.00     0.006 C 
BRANCH   5   6
ATOM      6  C   UNL     1      85.138  75.502  73.751  1.00  0.00     0.053 C 
BRANCH   6   7
ATOM      7  C   UNL     1      85.329  74.203  74.473  1.00  0.00     0.041 C 
ATOM      8  O   UNL     1      84.875  74.051  75.637  1.00  0.00    -0.550 OA
ATOM      9  O   UNL     1      86.040  73.172  73.871  1.00  0.00    -0.550 OA
ENDBRANCH   6   7
ENDBRANCH   5   6
ENDBRANCH   4   5
ENDBRANCH   3   4
ENDBRANCH   2   3
ENDBRANCH   1   2
BRANCH   1  10
ATOM     10  C   UNL     1      88.980  76.537  69.606  1.00  0.00     0.000 C 
BRANCH  10  11
ATOM     11  C   UNL     1      88.991  75.057  69.177  1.00  0.00    -0.000 C 
BRANCH  11  12
ATOM     12  C   UNL     1      90.168  74.225  69.724  1.00  0.00    -0.000 C 
BRANCH  12  13
ATOM     13  C   UNL     1      89.770  73.064  70.655  1.00  0.00    -0.000 C 
BRANCH  13  14
ATOM     14  C   UNL     1      89.033  73.538  71.919  1.00  0.00    -0.000 C 
BRANCH  14  15
ATOM     15  C   UNL     1      89.944  73.559  73.157  1.00  0.00    -0.003 C 
ATOM     16  C   UNL     1      89.335  74.330  74.328  1.00  0.00     0.004 C 
ENDBRANCH  14  15
ENDBRANCH  13  14
ENDBRANCH  12  13
ENDBRANCH  11  12
ENDBRANCH  10  11
ENDBRANCH   1  10
TORSDOF 12
ENDMDL
MODEL 3
REMARK VINA RESULT:    -4.681      1.507      4.344
REMARK INTER + INTRA:          -9.771
REMARK INTER:                  -8.393
REMARK INTRA:                  -1.378
REMARK UNBOUND:                -1.806
REMARK SMILES CCCCCCCCCCCCCC(=O)[O-]
REMARK SMILES IDX 8 1 9 2 10 3 11 4 12 5 13 6 14 7 15 8 16 9 7 10 6 11 5 12
REMARK SMILES IDX 4 13 3 14 2 15 1 16
REMARK H PARENT
REMARK Flexibility Score: inf
ROOT
ATOM      1  C   UNL     1      88.895  74.171  73.997  1.00  0.00     0.000 C 
ENDROOT
BRANCH   1   2
ATOM      2  C   UNL     1      87.811  73.489  74.844  1.00  0.00     0.000 C 
BRANCH   2   3
ATOM      3  C   UNL     1      86.504  73.347  74.050  1.00  0.00     0.000 C 
BRANCH   3   4
ATOM      4  C   UNL     1      85.502  74.482  74.335  1.00  0.00     0.000 C 
BRANCH   4   5
ATOM      5  C   UNL     1      85.332  75.504  73.194  1.00  0.00     0.006 C 
BRANCH   5   6
ATOM      6  C   UNL     1      86.027  76.853  73.437  1.00  0.00     0.053 C 
BRANCH   6   7
ATOM      7  C   UNL     1      87.229  77.028  72.561  1.00  0.00     0.041 C 
ATOM      8  O   UNL     1      87.194  76.669  71.355  1.00  0.00    -0.550 OA
ATOM      9  O   UNL     1      88.402  77.558  73.086  1.00  0.00    -0.550 OA
ENDBRANCH   6   7
ENDBRANCH   5   6
ENDBRANCH   4   5
ENDBRANCH   3   4
ENDBRANCH   2   3
ENDBRANCH   1   2
BRANCH   1  10
ATOM     10  C   UNL     1      88.855  73.741  72.519  1.00  0.00     0.000 C 
BRANCH  10  11
ATOM     11  C   UNL     1      90.217  73.334  71.924  1.00  0.00    -0.000 C 
BRANCH  11  12
ATOM     12  C   UNL     1      90.306  73.398  70.386  1.00  0.00    -0.000 C 
BRANCH  12  13
ATOM     13  C   UNL     1      89.044  73.929  69.681  1.00  0.00    -0.000 C 
BRANCH  13  14
ATOM     14  C   UNL     1      89.264  75.299  69.016  1.00  0.00    -0.000 C 
BRANCH  14  15
ATOM     15  C   UNL     1      90.646  75.892  69.336  1.00  0.00    -0.003 C 
ATOM     16  C   UNL     1      90.579  77.044  70.338  1.00  0.00     0.004 C 
ENDBRANCH  14  15
ENDBRANCH  13  14
ENDBRANCH  12  13
ENDBRANCH  11  12
ENDBRANCH  10  11
ENDBRANCH   1  10
TORSDOF 12
ENDMDL
MODEL 4
REMARK VINA RESULT:    -4.548      1.444      3.148
REMARK INTER + INTRA:          -9.545
REMARK INTER:                  -7.930
REMARK INTRA:                  -1.614
REMARK UNBOUND:                -1.806
REMARK SMILES CCCCCCCCCCCCCC(=O)[O-]
REMARK SMILES IDX 8 1 9 2 10 3 11 4 12 5 13 6 14 7 15 8 16 9 7 10 6 11 5 12
REMARK SMILES IDX 4 13 3 14 2 15 1 16
REMARK H PARENT
REMARK Flexibility Score: inf
ROOT
ATOM      1  C   UNL     1      87.128  77.173  73.415  1.00  0.00     0.000 C 
ENDROOT
BRANCH   1   2
ATOM      2  C   UNL     1      87.487  77.947  72.139  1.00  0.00     0.000 C 
BRANCH   2   3
ATOM      3  C   UNL     1      88.349  77.088  71.201  1.00  0.00     0.000 C 
BRANCH   3   4
ATOM      4  C   UNL     1      87.512  76.208  70.255  1.00  0.00     0.000 C 
BRANCH   4   5
ATOM      5  C   UNL     1      88.292  75.588  69.078  1.00  0.00     0.006 C 
BRANCH   5   6
ATOM      6  C   UNL     1      89.091  74.326  69.437  1.00  0.00     0.053 C 
BRANCH   6   7
ATOM      7  C   UNL     1      90.494  74.650  69.848  1.00  0.00     0.041 C 
ATOM      8  O   UNL     1      90.966  75.799  69.644  1.00  0.00    -0.550 OA
ATOM      9  O   UNL     1      91.293  73.672  70.428  1.00  0.00    -0.550 OA
ENDBRANCH   6   7
ENDBRANCH   5   6
ENDBRANCH   4   5
ENDBRANCH   3   4
ENDBRANCH   2   3
ENDBRANCH   1   2
BRANCH   1  10
ATOM     10  C   UNL     1      85.657  76.719  73.444  1.00  0.00     0.000 C 
BRANCH  10  11
ATOM     11  C   UNL     1      85.445  75.196  73.353  1.00  0.00    -0.000 C 
BRANCH  11  12
ATOM     12  C   UNL     1      85.926  74.391  74.577  1.00  0.00    -0.000 C 
BRANCH  12  13
ATOM     13  C   UNL     1      87.047  73.375  74.290  1.00  0.00    -0.000 C 
BRANCH  13  14
ATOM     14  C   UNL     1      87.874  73.734  73.044  1.00  0.00    -0.000 C 
BRANCH  14  15
ATOM     15  C   UNL     1      89.337  74.062  73.384  1.00  0.00    -0.003 C 
ATOM     16  C   UNL     1      89.489  74.759  74.736  1.00  0.00     0.004 C 
ENDBRANCH  14  15
ENDBRANCH  13  14
ENDBRANCH  12  13
ENDBRANCH  11  12
ENDBRANCH  10  11
ENDBRANCH   1  10
TORSDOF 12
ENDMDL
MODEL 5
REMARK VINA RESULT:    -4.466      1.018      2.702
REMARK INTER + INTRA:          -9.404
REMARK INTER:                  -7.772
REMARK INTRA:                  -1.632
REMARK UNBOUND:                -1.806
REMARK SMILES CCCCCCCCCCCCCC(=O)[O-]
REMARK SMILES IDX 8 1 9 2 10 3 11 4 12 5 13 6 14 7 15 8 16 9 7 10 6 11 5 12
REMARK SMILES IDX 4 13 3 14 2 15 1 16
REMARK H PARENT
REMARK Flexibility Score: inf
ROOT
ATOM      1  C   UNL     1      88.979  75.484  74.405  1.00  0.00     0.000 C 
ENDROOT
BRANCH   1   2
ATOM      2  C   UNL     1      89.079  74.035  73.908  1.00  0.00     0.000 C 
BRANCH   2   3
ATOM      3  C   UNL     1      89.822  73.966  72.566  1.00  0.00     0.000 C 
BRANCH   3   4
ATOM      4  C   UNL     1      88.894  73.636  71.382  1.00  0.00     0.000 C 
BRANCH   4   5
ATOM      5  C   UNL     1      89.592  73.546  70.010  1.00  0.00     0.006 C 
BRANCH   5   6
ATOM      6  C   UNL     1      88.960  74.419  68.915  1.00  0.00     0.053 C 
BRANCH   6   7
ATOM      7  C   UNL     1      88.767  75.833  69.369  1.00  0.00     0.041 C 
ATOM      8  O   UNL     1      87.609  76.322  69.449  1.00  0.00    -0.550 OA
ATOM      9  O   UNL     1      89.869  76.623  69.672  1.00  0.00    -0.550 OA
ENDBRANCH   6   7
ENDBRANCH   5   6
ENDBRANCH   4   5
ENDBRANCH   3   4
ENDBRANCH   2   3
ENDBRANCH   1   2
BRANCH   1  10
ATOM     10  C   UNL     1      89.431  76.509  73.349  1.00  0.00     0.000 C 
BRANCH  10  11
ATOM     11  C   UNL     1      88.292  77.327  72.708  1.00  0.00    -0.000 C 
BRANCH  11  12
ATOM     12  C   UNL     1      86.894  77.091  73.313  1.00  0.00    -0.000 C 
BRANCH  12  13
ATOM     13  C   UNL     1      86.075  75.970  72.647  1.00  0.00    -0.000 C 
BRANCH  13  14
ATOM     14  C   UNL     1      85.017  75.365  73.585  1.00  0.00    -0.000 C 
BRANCH  14  15
ATOM     15  C   UNL     1      85.286  73.884  73.897  1.00  0.00    -0.003 C 
ATOM     16  C   UNL     1      85.784  73.660  75.325  1.00  0.00     0.004 C 
ENDBRANCH  14  15
ENDBRANCH  13  14
ENDBRANCH  12  13
ENDBRANCH  11  12
ENDBRANCH  10  11
ENDBRANCH   1  10
TORSDOF 12
ENDMDL
MODEL 6
REMARK VINA RESULT:    -4.164      2.316      5.045
REMARK INTER + INTRA:          -8.890
REMARK INTER:                  -7.286
REMARK INTRA:                  -1.604
REMARK UNBOUND:                -1.806
REMARK SMILES CCCCCCCCCCCCCC(=O)[O-]
REMARK SMILES IDX 8 1 9 2 10 3 11 4 12 5 13 6 14 7 15 8 16 9 7 10 6 11 5 12
REMARK SMILES IDX 4 13 3 14 2 15 1 16
REMARK H PARENT
REMARK Flexibility Score: inf
ROOT
ATOM      1  C   UNL     1      87.129  75.978  70.714  1.00  0.00     0.000 C 
ENDROOT
BRANCH   1   2
ATOM      2  C   UNL     1      87.698  77.088  71.609  1.00  0.00     0.000 C 
BRANCH   2   3
ATOM      3  C   UNL     1      87.072  77.036  73.011  1.00  0.00     0.000 C 
BRANCH   3   4
ATOM      4  C   UNL     1      86.284  75.738  73.268  1.00  0.00     0.000 C 
BRANCH   4   5
ATOM      5  C   UNL     1      86.932  74.771  74.278  1.00  0.00     0.006 C 
BRANCH   5   6
ATOM      6  C   UNL     1      87.969  73.814  73.670  1.00  0.00     0.053 C 
BRANCH   6   7
ATOM      7  C   UNL     1      89.334  74.029  74.248  1.00  0.00     0.041 C 
ATOM      8  O   UNL     1      89.538  74.968  75.062  1.00  0.00    -0.550 OA
ATOM      9  O   UNL     1      90.390  73.213  73.861  1.00  0.00    -0.550 OA
ENDBRANCH   6   7
ENDBRANCH   5   6
ENDBRANCH   4   5
ENDBRANCH   3   4
ENDBRANCH   2   3
ENDBRANCH   1   2
BRANCH   1  10
ATOM     10  C   UNL     1      87.800  75.925  69.329  1.00  0.00     0.000 C 
BRANCH  10  11
ATOM     11  C   UNL     1      88.244  74.521  68.875  1.00  0.00    -0.000 C 
BRANCH  11  12
ATOM     12  C   UNL     1      88.710  73.583  70.007  1.00  0.00    -0.000 C 
BRANCH  12  13
ATOM     13  C   UNL     1      90.226  73.590  70.279  1.00  0.00    -0.000 C 
BRANCH  13  14
ATOM     14  C   UNL     1      90.709  74.898  70.928  1.00  0.00    -0.000 C 
BRANCH  14  15
ATOM     15  C   UNL     1      91.261  75.897  69.898  1.00  0.00    -0.003 C 
ATOM     16  C   UNL     1      91.187  77.346  70.378  1.00  0.00     0.004 C 
ENDBRANCH  14  15
ENDBRANCH  13  14
ENDBRANCH  12  13
ENDBRANCH  11  12
ENDBRANCH  10  11
ENDBRANCH   1  10
TORSDOF 12
ENDMDL
MODEL 7
REMARK VINA RESULT:    -3.807     13.345     15.199
REMARK INTER + INTRA:          -8.283
REMARK INTER:                  -7.232
REMARK INTRA:                  -1.051
REMARK UNBOUND:                -1.806
REMARK SMILES CCCCCCCCCCCCCC(=O)[O-]
REMARK SMILES IDX 8 1 9 2 10 3 11 4 12 5 13 6 14 7 15 8 16 9 7 10 6 11 5 12
REMARK SMILES IDX 4 13 3 14 2 15 1 16
REMARK H PARENT
REMARK Flexibility Score: inf
ROOT
ATOM      1  C   UNL     1      95.711  85.112  80.842  1.00  0.00     0.000 C 
ENDROOT
BRANCH   1   2
ATOM      2  C   UNL     1      97.199  85.406  80.600  1.00  0.00     0.000 C 
BRANCH   2   3
ATOM      3  C   UNL     1      97.918  84.167  80.044  1.00  0.00     0.000 C 
BRANCH   3   4
ATOM      4  C   UNL     1      97.664  82.900  80.880  1.00  0.00     0.000 C 
BRANCH   4   5
ATOM      5  C   UNL     1      98.724  82.606  81.960  1.00  0.00     0.006 C 
BRANCH   5   6
ATOM      6  C   UNL     1     100.161  82.976  81.561  1.00  0.00     0.053 C 
BRANCH   6   7
ATOM      7  C   UNL     1     100.927  83.560  82.709  1.00  0.00     0.041 C 
ATOM      8  O   UNL     1     100.635  83.245  83.893  1.00  0.00    -0.550 OA
ATOM      9  O   UNL     1     101.941  84.480  82.472  1.00  0.00    -0.550 OA
ENDBRANCH   6   7
ENDBRANCH   5   6
ENDBRANCH   4   5
ENDBRANCH   3   4
ENDBRANCH   2   3
ENDBRANCH   1   2
BRANCH   1  10
ATOM     10  C   UNL     1      94.896  85.047  79.537  1.00  0.00     0.000 C 
BRANCH  10  11
ATOM     11  C   UNL     1      94.074  83.757  79.348  1.00  0.00    -0.000 C 
BRANCH  11  12
ATOM     12  C   UNL     1      93.600  83.084  80.652  1.00  0.00    -0.000 C 
BRANCH  12  13
ATOM     13  C   UNL     1      92.098  83.236  80.956  1.00  0.00    -0.000 C 
BRANCH  13  14
ATOM     14  C   UNL     1      91.549  84.622  80.577  1.00  0.00    -0.000 C 
BRANCH  14  15
ATOM     15  C   UNL     1      90.568  84.562  79.395  1.00  0.00    -0.003 C 
ATOM     16  C   UNL     1      90.998  85.445  78.224  1.00  0.00     0.004 C 
ENDBRANCH  14  15
ENDBRANCH  13  14
ENDBRANCH  12  13
ENDBRANCH  11  12
ENDBRANCH  10  11
ENDBRANCH   1  10
TORSDOF 12
ENDMDL
MODEL 8
REMARK VINA RESULT:    -3.779     11.626     13.489
REMARK INTER + INTRA:          -8.236
REMARK INTER:                  -6.851
REMARK INTRA:                  -1.385
REMARK UNBOUND:                -1.806
REMARK SMILES CCCCCCCCCCCCCC(=O)[O-]
REMARK SMILES IDX 8 1 9 2 10 3 11 4 12 5 13 6 14 7 15 8 16 9 7 10 6 11 5 12
REMARK SMILES IDX 4 13 3 14 2 15 1 16
REMARK H PARENT
REMARK Flexibility Score: inf
ROOT
ATOM      1  C   UNL     1      93.210  82.956  80.748  1.00  0.00     0.000 C 
ENDROOT
BRANCH   1   2
ATOM      2  C   UNL     1      93.407  83.422  79.298  1.00  0.00     0.000 C 
BRANCH   2   3
ATOM      3  C   UNL     1      93.695  84.930  79.242  1.00  0.00     0.000 C 
BRANCH   3   4
ATOM      4  C   UNL     1      95.072  85.256  78.634  1.00  0.00     0.000 C 
BRANCH   4   5
ATOM      5  C   UNL     1      96.206  85.464  79.657  1.00  0.00     0.006 C 
BRANCH   5   6
ATOM      6  C   UNL     1      96.851  84.166  80.167  1.00  0.00     0.053 C 
BRANCH   6   7
ATOM      7  C   UNL     1      96.786  84.058  81.659  1.00  0.00     0.041 C 
ATOM      8  O   UNL     1      95.911  84.693  82.304  1.00  0.00    -0.550 OA
ATOM      9  O   UNL     1      97.715  83.281  82.341  1.00  0.00    -0.550 OA
ENDBRANCH   6   7
ENDBRANCH   5   6
ENDBRANCH   4   5
ENDBRANCH   3   4
ENDBRANCH   2   3
ENDBRANCH   1   2
BRANCH   1  10
ATOM     10  C   UNL     1      92.481  83.997  81.615  1.00  0.00     0.000 C 
BRANCH  10  11
ATOM     11  C   UNL     1      91.169  83.504  82.257  1.00  0.00    -0.000 C 
BRANCH  11  12
ATOM     12  C   UNL     1      89.922  84.351  81.932  1.00  0.00    -0.000 C 
BRANCH  12  13
ATOM     13  C   UNL     1      89.674  84.599  80.432  1.00  0.00    -0.000 C 
BRANCH  13  14
ATOM     14  C   UNL     1      89.537  83.297  79.626  1.00  0.00    -0.000 C 
BRANCH  14  15
ATOM     15  C   UNL     1      88.087  82.792  79.567  1.00  0.00    -0.003 C 
ATOM     16  C   UNL     1      87.788  81.723  80.618  1.00  0.00     0.004 C 
ENDBRANCH  14  15
ENDBRANCH  13  14
ENDBRANCH  12  13
ENDBRANCH  11  12
ENDBRANCH  10  11
ENDBRANCH   1  10
TORSDOF 12
ENDMDL
MODEL 9
REMARK VINA RESULT:    -3.735     12.970     14.718
REMARK INTER + INTRA:          -8.161
REMARK INTER:                  -7.640
REMARK INTRA:                  -0.521
REMARK UNBOUND:                -1.806
REMARK SMILES CCCCCCCCCCCCCC(=O)[O-]
REMARK SMILES IDX 8 1 9 2 10 3 11 4 12 5 13 6 14 7 15 8 16 9 7 10 6 11 5 12
REMARK SMILES IDX 4 13 3 14 2 15 1 16
REMARK H PARENT
REMARK Flexibility Score: inf
ROOT
ATOM      1  C   UNL     1      94.949  84.235  80.681  1.00  0.00     0.000 C 
ENDROOT
BRANCH   1   2
ATOM      2  C   UNL     1      96.397  83.837  80.362  1.00  0.00     0.000 C 
BRANCH   2   3
ATOM      3  C   UNL     1      96.680  82.396  80.811  1.00  0.00     0.000 C 
BRANCH   3   4
ATOM      4  C   UNL     1      98.007  82.258  81.581  1.00  0.00     0.000 C 
BRANCH   4   5
ATOM      5  C   UNL     1      99.003  83.417  81.380  1.00  0.00     0.006 C 
BRANCH   5   6
ATOM      6  C   UNL     1     100.472  83.046  81.633  1.00  0.00     0.053 C 
BRANCH   6   7
ATOM      7  C   UNL     1     101.022  83.734  82.844  1.00  0.00     0.041 C 
ATOM      8  O   UNL     1     101.887  84.641  82.722  1.00  0.00    -0.550 OA
ATOM      9  O   UNL     1     100.603  83.350  84.112  1.00  0.00    -0.550 OA
ENDBRANCH   6   7
ENDBRANCH   5   6
ENDBRANCH   4   5
ENDBRANCH   3   4
ENDBRANCH   2   3
ENDBRANCH   1   2
BRANCH   1  10
ATOM     10  C   UNL     1      93.921  83.506  79.798  1.00  0.00     0.000 C 
BRANCH  10  11
ATOM     11  C   UNL     1      92.811  84.403  79.216  1.00  0.00    -0.000 C 
BRANCH  11  12
ATOM     12  C   UNL     1      91.371  83.916  79.474  1.00  0.00    -0.000 C 
BRANCH  12  13
ATOM     13  C   UNL     1      91.103  83.399  80.900  1.00  0.00    -0.000 C 
BRANCH  13  14
ATOM     14  C   UNL     1      89.604  83.295  81.226  1.00  0.00    -0.000 C 
BRANCH  14  15
ATOM     15  C   UNL     1      88.783  82.748  80.047  1.00  0.00    -0.003 C 
ATOM     16  C   UNL     1      87.703  81.758  80.484  1.00  0.00     0.004 C 
ENDBRANCH  14  15
ENDBRANCH  13  14
ENDBRANCH  12  13
ENDBRANCH  11  12
ENDBRANCH  10  11
ENDBRANCH   1  10
TORSDOF 12
ENDMDL
