MODEL 1
REMARK VINA RESULT:    -4.239      0.000      0.000
REMARK INTER + INTRA:          -9.312
REMARK INTER:                  -7.460
REMARK INTRA:                  -1.851
REMARK UNBOUND:                -1.851
REMARK SMILES CCCCCCCCCCCCCCC(=O)[O-]
REMARK SMILES IDX 9 1 10 2 11 3 12 4 13 5 14 6 15 7 16 8 17 9 8 10 7 11 6 12
REMARK SMILES IDX 5 13 4 14 3 15 2 16 1 17
REMARK H PARENT
REMARK Flexibility Score: inf
ROOT
ATOM      1  C   UNL     1      17.549 -44.358  25.871  1.00  0.00     0.000 C 
ENDROOT
BRANCH   1   2
ATOM      2  C   UNL     1      18.469 -43.221  25.397  1.00  0.00     0.000 C 
BRANCH   2   3
ATOM      3  C   UNL     1      18.464 -42.016  26.352  1.00  0.00     0.000 C 
BRANCH   3   4
ATOM      4  C   UNL     1      18.361 -40.675  25.609  1.00  0.00     0.000 C 
BRANCH   4   5
ATOM      5  C   UNL     1      18.392 -39.459  26.554  1.00  0.00     0.006 C 
BRANCH   5   6
ATOM      6  C   UNL     1      18.810 -39.798  27.996  1.00  0.00     0.053 C 
BRANCH   6   7
ATOM      7  C   UNL     1      18.756 -38.608  28.905  1.00  0.00     0.041 C 
ATOM      8  O   UNL     1      17.796 -38.467  29.707  1.00  0.00    -0.550 OA
ATOM      9  O   UNL     1      19.750 -37.639  28.848  1.00  0.00    -0.550 OA
ENDBRANCH   6   7
ENDBRANCH   5   6
ENDBRANCH   4   5
ENDBRANCH   3   4
ENDBRANCH   2   3
ENDBRANCH   1   2
BRANCH   1  10
ATOM     10  C   UNL     1      16.500 -43.887  26.894  1.00  0.00     0.000 C 
BRANCH  10  11
ATOM     11  C   UNL     1      16.217 -44.880  28.039  1.00  0.00    -0.000 C 
BRANCH  11  12
ATOM     12  C   UNL     1      17.468 -45.517  28.680  1.00  0.00    -0.000 C 
BRANCH  12  13
ATOM     13  C   UNL     1      17.641 -45.236  30.185  1.00  0.00    -0.000 C 
BRANCH  13  14
ATOM     14  C   UNL     1      18.838 -44.335  30.542  1.00  0.00    -0.000 C 
BRANCH  14  15
ATOM     15  C   UNL     1      18.730 -42.903  29.973  1.00  0.00    -0.000 C 
BRANCH  15  16
ATOM     16  C   UNL     1      17.795 -42.011  30.802  1.00  0.00    -0.003 C 
ATOM     17  C   UNL     1      16.483 -41.754  30.066  1.00  0.00     0.004 C 
ENDBRANCH  15  16
ENDBRANCH  14  15
ENDBRANCH  13  14
ENDBRANCH  12  13
ENDBRANCH  11  12
ENDBRANCH  10  11
ENDBRANCH   1  10
TORSDOF 13
ENDMDL
MODEL 2
REMARK VINA RESULT:    -4.228      2.100      3.830
REMARK INTER + INTRA:          -9.292
REMARK INTER:                  -7.136
REMARK INTRA:                  -2.156
REMARK UNBOUND:                -1.851
REMARK SMILES CCCCCCCCCCCCCCC(=O)[O-]
REMARK SMILES IDX 9 1 10 2 11 3 12 4 13 5 14 6 15 7 16 8 17 9 8 10 7 11 6 12
REMARK SMILES IDX 5 13 4 14 3 15 2 16 1 17
REMARK H PARENT
REMARK Flexibility Score: inf
ROOT
ATOM      1  C   UNL     1      16.342 -45.050  29.966  1.00  0.00     0.000 C 
ENDROOT
BRANCH   1   2
ATOM      2  C   UNL     1      17.505 -45.490  29.060  1.00  0.00     0.000 C 
BRANCH   2   3
ATOM      3  C   UNL     1      17.151 -45.422  27.566  1.00  0.00     0.000 C 
BRANCH   3   4
ATOM      4  C   UNL     1      17.100 -43.979  27.038  1.00  0.00     0.000 C 
BRANCH   4   5
ATOM      5  C   UNL     1      17.836 -43.802  25.696  1.00  0.00     0.006 C 
BRANCH   5   6
ATOM      6  C   UNL     1      18.898 -42.688  25.707  1.00  0.00     0.053 C 
BRANCH   6   7
ATOM      7  C   UNL     1      18.309 -41.330  25.474  1.00  0.00     0.041 C 
ATOM      8  O   UNL     1      18.250 -40.495  26.414  1.00  0.00    -0.550 OA
ATOM      9  O   UNL     1      17.797 -40.995  24.226  1.00  0.00    -0.550 OA
ENDBRANCH   6   7
ENDBRANCH   5   6
ENDBRANCH   4   5
ENDBRANCH   3   4
ENDBRANCH   2   3
ENDBRANCH   1   2
BRANCH   1  10
ATOM     10  C   UNL     1      16.776 -44.829  31.426  1.00  0.00     0.000 C 
BRANCH  10  11
ATOM     11  C   UNL     1      18.277 -45.056  31.698  1.00  0.00    -0.000 C 
BRANCH  11  12
ATOM     12  C   UNL     1      18.941 -44.017  32.626  1.00  0.00    -0.000 C 
BRANCH  12  13
ATOM     13  C   UNL     1      19.749 -42.923  31.904  1.00  0.00    -0.000 C 
BRANCH  13  14
ATOM     14  C   UNL     1      19.942 -43.153  30.392  1.00  0.00    -0.000 C 
BRANCH  14  15
ATOM     15  C   UNL     1      19.306 -42.057  29.511  1.00  0.00    -0.000 C 
BRANCH  15  16
ATOM     16  C   UNL     1      18.204 -41.280  30.244  1.00  0.00    -0.003 C 
ATOM     17  C   UNL     1      16.868 -41.402  29.516  1.00  0.00     0.004 C 
ENDBRANCH  15  16
ENDBRANCH  14  15
ENDBRANCH  13  14
ENDBRANCH  12  13
ENDBRANCH  11  12
ENDBRANCH  10  11
ENDBRANCH   1  10
TORSDOF 13
ENDMDL
MODEL 3
REMARK VINA RESULT:    -4.218      2.672      5.278
REMARK INTER + INTRA:          -9.276
REMARK INTER:                  -7.475
REMARK INTRA:                  -1.800
REMARK UNBOUND:                -1.851
REMARK SMILES CCCCCCCCCCCCCCC(=O)[O-]
REMARK SMILES IDX 9 1 10 2 11 3 12 4 13 5 14 6 15 7 16 8 17 9 8 10 7 11 6 12
REMARK SMILES IDX 5 13 4 14 3 15 2 16 1 17
REMARK H PARENT
REMARK Flexibility Score: inf
ROOT
ATOM      1  C   UNL     1      16.796 -43.859  25.909  1.00  0.00     0.000 C 
ENDROOT
BRANCH   1   2
ATOM      2  C   UNL     1      16.755 -43.936  27.445  1.00  0.00     0.000 C 
BRANCH   2   3
ATOM      3  C   UNL     1      16.973 -45.364  27.973  1.00  0.00     0.000 C 
BRANCH   3   4
ATOM      4  C   UNL     1      17.527 -45.382  29.407  1.00  0.00     0.000 C 
BRANCH   4   5
ATOM      5  C   UNL     1      16.471 -45.007  30.464  1.00  0.00     0.006 C 
BRANCH   5   6
ATOM      6  C   UNL     1      16.921 -43.900  31.434  1.00  0.00     0.053 C 
BRANCH   6   7
ATOM      7  C   UNL     1      16.131 -43.892  32.706  1.00  0.00     0.041 C 
ATOM      8  O   UNL     1      15.337 -44.834  32.965  1.00  0.00    -0.550 OA
ATOM      9  O   UNL     1      16.246 -42.828  33.593  1.00  0.00    -0.550 OA
ENDBRANCH   6   7
ENDBRANCH   5   6
ENDBRANCH   4   5
ENDBRANCH   3   4
ENDBRANCH   2   3
ENDBRANCH   1   2
BRANCH   1  10
ATOM     10  C   UNL     1      18.229 -43.901  25.350  1.00  0.00     0.000 C 
BRANCH  10  11
ATOM     11  C   UNL     1      19.023 -42.587  25.498  1.00  0.00    -0.000 C 
BRANCH  11  12
ATOM     12  C   UNL     1      18.403 -41.363  24.793  1.00  0.00    -0.000 C 
BRANCH  12  13
ATOM     13  C   UNL     1      18.378 -40.073  25.634  1.00  0.00    -0.000 C 
BRANCH  13  14
ATOM     14  C   UNL     1      17.667 -40.201  26.995  1.00  0.00    -0.000 C 
BRANCH  14  15
ATOM     15  C   UNL     1      18.615 -40.068  28.206  1.00  0.00    -0.000 C 
BRANCH  15  16
ATOM     16  C   UNL     1      18.369 -41.150  29.267  1.00  0.00    -0.003 C 
ATOM     17  C   UNL     1      19.490 -42.184  29.269  1.00  0.00     0.004 C 
ENDBRANCH  15  16
ENDBRANCH  14  15
ENDBRANCH  13  14
ENDBRANCH  12  13
ENDBRANCH  11  12
ENDBRANCH  10  11
ENDBRANCH   1  10
TORSDOF 13
ENDMDL
MODEL 4
REMARK VINA RESULT:    -4.194      2.676      5.024
REMARK INTER + INTRA:          -9.233
REMARK INTER:                  -7.298
REMARK INTRA:                  -1.936
REMARK UNBOUND:                -1.851
REMARK SMILES CCCCCCCCCCCCCCC(=O)[O-]
REMARK SMILES IDX 9 1 10 2 11 3 12 4 13 5 14 6 15 7 16 8 17 9 8 10 7 11 6 12
REMARK SMILES IDX 5 13 4 14 3 15 2 16 1 17
REMARK H PARENT
REMARK Flexibility Score: inf
ROOT
ATOM      1  C   UNL     1      16.364 -44.112  27.253  1.00  0.00     0.000 C 
ENDROOT
BRANCH   1   2
ATOM      2  C   UNL     1      17.138 -45.384  27.638  1.00  0.00     0.000 C 
BRANCH   2   3
ATOM      3  C   UNL     1      17.557 -45.397  29.118  1.00  0.00     0.000 C 
BRANCH   3   4
ATOM      4  C   UNL     1      17.410 -44.019  29.784  1.00  0.00     0.000 C 
BRANCH   4   5
ATOM      5  C   UNL     1      18.764 -43.343  30.072  1.00  0.00     0.006 C 
BRANCH   5   6
ATOM      6  C   UNL     1      19.785 -44.259  30.771  1.00  0.00     0.053 C 
BRANCH   6   7
ATOM      7  C   UNL     1      19.533 -44.385  32.242  1.00  0.00     0.041 C 
ATOM      8  O   UNL     1      19.885 -45.424  32.859  1.00  0.00    -0.550 OA
ATOM      9  O   UNL     1      18.883 -43.366  32.929  1.00  0.00    -0.550 OA
ENDBRANCH   6   7
ENDBRANCH   5   6
ENDBRANCH   4   5
ENDBRANCH   3   4
ENDBRANCH   2   3
ENDBRANCH   1   2
BRANCH   1  10
ATOM     10  C   UNL     1      16.632 -43.669  25.803  1.00  0.00     0.000 C 
BRANCH  10  11
ATOM     11  C   UNL     1      18.089 -43.846  25.329  1.00  0.00    -0.000 C 
BRANCH  11  12
ATOM     12  C   UNL     1      18.988 -42.603  25.493  1.00  0.00    -0.000 C 
BRANCH  12  13
ATOM     13  C   UNL     1      18.421 -41.307  24.885  1.00  0.00    -0.000 C 
BRANCH  13  14
ATOM     14  C   UNL     1      18.200 -40.162  25.892  1.00  0.00    -0.000 C 
BRANCH  14  15
ATOM     15  C   UNL     1      18.382 -40.587  27.365  1.00  0.00    -0.000 C 
BRANCH  15  16
ATOM     16  C   UNL     1      17.068 -40.543  28.157  1.00  0.00    -0.003 C 
ATOM     17  C   UNL     1      15.915 -40.059  27.283  1.00  0.00     0.004 C 
ENDBRANCH  15  16
ENDBRANCH  14  15
ENDBRANCH  13  14
ENDBRANCH  12  13
ENDBRANCH  11  12
ENDBRANCH  10  11
ENDBRANCH   1  10
TORSDOF 13
ENDMDL
MODEL 5
REMARK VINA RESULT:    -4.191      3.060      6.094
REMARK INTER + INTRA:          -9.228
REMARK INTER:                  -7.264
REMARK INTRA:                  -1.964
REMARK UNBOUND:                -1.851
REMARK SMILES CCCCCCCCCCCCCCC(=O)[O-]
REMARK SMILES IDX 9 1 10 2 11 3 12 4 13 5 14 6 15 7 16 8 17 9 8 10 7 11 6 12
REMARK SMILES IDX 5 13 4 14 3 15 2 16 1 17
REMARK H PARENT
REMARK Flexibility Score: inf
ROOT
ATOM      1  C   UNL     1      19.652 -42.517  31.169  1.00  0.00     0.000 C 
ENDROOT
BRANCH   1   2
ATOM      2  C   UNL     1      19.249 -43.252  32.459  1.00  0.00     0.000 C 
BRANCH   2   3
ATOM      3  C   UNL     1      19.210 -44.779  32.285  1.00  0.00     0.000 C 
BRANCH   3   4
ATOM      4  C   UNL     1      17.876 -45.390  32.743  1.00  0.00     0.000 C 
BRANCH   4   5
ATOM      5  C   UNL     1      16.757 -44.342  32.901  1.00  0.00     0.006 C 
BRANCH   5   6
ATOM      6  C   UNL     1      15.351 -44.874  32.571  1.00  0.00     0.053 C 
BRANCH   6   7
ATOM      7  C   UNL     1      14.424 -43.796  32.097  1.00  0.00     0.041 C 
ATOM      8  O   UNL     1      14.613 -42.601  32.443  1.00  0.00    -0.550 OA
ATOM      9  O   UNL     1      13.334 -44.115  31.297  1.00  0.00    -0.550 OA
ENDBRANCH   6   7
ENDBRANCH   5   6
ENDBRANCH   4   5
ENDBRANCH   3   4
ENDBRANCH   2   3
ENDBRANCH   1   2
BRANCH   1  10
ATOM     10  C   UNL     1      18.901 -43.038  29.930  1.00  0.00     0.000 C 
BRANCH  10  11
ATOM     11  C   UNL     1      17.459 -42.516  29.778  1.00  0.00    -0.000 C 
BRANCH  11  12
ATOM     12  C   UNL     1      16.446 -43.537  29.221  1.00  0.00    -0.000 C 
BRANCH  12  13
ATOM     13  C   UNL     1      16.978 -44.977  29.096  1.00  0.00    -0.000 C 
BRANCH  13  14
ATOM     14  C   UNL     1      17.308 -45.423  27.658  1.00  0.00    -0.000 C 
BRANCH  14  15
ATOM     15  C   UNL     1      16.905 -44.393  26.581  1.00  0.00    -0.000 C 
BRANCH  15  16
ATOM     16  C   UNL     1      17.933 -44.299  25.445  1.00  0.00    -0.003 C 
ATOM     17  C   UNL     1      18.634 -42.944  25.448  1.00  0.00     0.004 C 
ENDBRANCH  15  16
ENDBRANCH  14  15
ENDBRANCH  13  14
ENDBRANCH  12  13
ENDBRANCH  11  12
ENDBRANCH  10  11
ENDBRANCH   1  10
TORSDOF 13
ENDMDL
MODEL 6
REMARK VINA RESULT:    -4.164      1.694      2.612
REMARK INTER + INTRA:          -9.180
REMARK INTER:                  -7.573
REMARK INTRA:                  -1.607
REMARK UNBOUND:                -1.851
REMARK SMILES CCCCCCCCCCCCCCC(=O)[O-]
REMARK SMILES IDX 9 1 10 2 11 3 12 4 13 5 14 6 15 7 16 8 17 9 8 10 7 11 6 12
REMARK SMILES IDX 5 13 4 14 3 15 2 16 1 17
REMARK H PARENT
REMARK Flexibility Score: inf
ROOT
ATOM      1  C   UNL     1      17.097 -44.101  26.650  1.00  0.00     0.000 C 
ENDROOT
BRANCH   1   2
ATOM      2  C   UNL     1      18.005 -44.013  25.411  1.00  0.00     0.000 C 
BRANCH   2   3
ATOM      3  C   UNL     1      18.941 -42.794  25.447  1.00  0.00     0.000 C 
BRANCH   3   4
ATOM      4  C   UNL     1      18.248 -41.506  24.974  1.00  0.00     0.000 C 
BRANCH   4   5
ATOM      5  C   UNL     1      18.340 -40.362  26.002  1.00  0.00     0.006 C 
BRANCH   5   6
ATOM      6  C   UNL     1      18.256 -40.827  27.466  1.00  0.00     0.053 C 
BRANCH   6   7
ATOM      7  C   UNL     1      18.888 -39.857  28.417  1.00  0.00     0.041 C 
ATOM      8  O   UNL     1      18.980 -38.639  28.110  1.00  0.00    -0.550 OA
ATOM      9  O   UNL     1      19.403 -40.300  29.628  1.00  0.00    -0.550 OA
ENDBRANCH   6   7
ENDBRANCH   5   6
ENDBRANCH   4   5
ENDBRANCH   3   4
ENDBRANCH   2   3
ENDBRANCH   1   2
BRANCH   1  10
ATOM     10  C   UNL     1      17.196 -45.460  27.365  1.00  0.00     0.000 C 
BRANCH  10  11
ATOM     11  C   UNL     1      17.571 -45.383  28.858  1.00  0.00    -0.000 C 
BRANCH  11  12
ATOM     12  C   UNL     1      17.513 -43.971  29.477  1.00  0.00    -0.000 C 
BRANCH  12  13
ATOM     13  C   UNL     1      16.701 -43.867  30.782  1.00  0.00    -0.000 C 
BRANCH  13  14
ATOM     14  C   UNL     1      15.182 -43.690  30.586  1.00  0.00    -0.000 C 
BRANCH  14  15
ATOM     15  C   UNL     1      14.398 -45.020  30.582  1.00  0.00    -0.000 C 
BRANCH  15  16
ATOM     16  C   UNL     1      13.892 -45.399  29.183  1.00  0.00    -0.003 C 
ATOM     17  C   UNL     1      13.773 -44.169  28.288  1.00  0.00     0.004 C 
ENDBRANCH  15  16
ENDBRANCH  14  15
ENDBRANCH  13  14
ENDBRANCH  12  13
ENDBRANCH  11  12
ENDBRANCH  10  11
ENDBRANCH   1  10
TORSDOF 13
ENDMDL
MODEL 7
REMARK VINA RESULT:    -4.160      2.759      5.113
REMARK INTER + INTRA:          -9.173
REMARK INTER:                  -7.369
REMARK INTRA:                  -1.804
REMARK UNBOUND:                -1.851
REMARK SMILES CCCCCCCCCCCCCCC(=O)[O-]
REMARK SMILES IDX 9 1 10 2 11 3 12 4 13 5 14 6 15 7 16 8 17 9 8 10 7 11 6 12
REMARK SMILES IDX 5 13 4 14 3 15 2 16 1 17
REMARK H PARENT
REMARK Flexibility Score: inf
ROOT
ATOM      1  C   UNL     1      18.993 -42.506  25.384  1.00  0.00     0.000 C 
ENDROOT
BRANCH   1   2
ATOM      2  C   UNL     1      18.169 -43.804  25.430  1.00  0.00     0.000 C 
BRANCH   2   3
ATOM      3  C   UNL     1      16.712 -43.568  25.861  1.00  0.00     0.000 C 
BRANCH   3   4
ATOM      4  C   UNL     1      16.512 -43.731  27.376  1.00  0.00     0.000 C 
BRANCH   4   5
ATOM      5  C   UNL     1      16.623 -45.195  27.843  1.00  0.00     0.006 C 
BRANCH   5   6
ATOM      6  C   UNL     1      17.537 -45.394  29.065  1.00  0.00     0.053 C 
BRANCH   6   7
ATOM      7  C   UNL     1      16.850 -45.071  30.357  1.00  0.00     0.041 C 
ATOM      8  O   UNL     1      17.524 -44.751  31.370  1.00  0.00    -0.550 OA
ATOM      9  O   UNL     1      15.466 -45.154  30.451  1.00  0.00    -0.550 OA
ENDBRANCH   6   7
ENDBRANCH   5   6
ENDBRANCH   4   5
ENDBRANCH   3   4
ENDBRANCH   2   3
ENDBRANCH   1   2
BRANCH   1  10
ATOM     10  C   UNL     1      18.244 -41.352  24.694  1.00  0.00     0.000 C 
BRANCH  10  11
ATOM     11  C   UNL     1      18.224 -40.027  25.483  1.00  0.00    -0.000 C 
BRANCH  11  12
ATOM     12  C   UNL     1      17.250 -39.989  26.678  1.00  0.00    -0.000 C 
BRANCH  12  13
ATOM     13  C   UNL     1      17.697 -39.100  27.853  1.00  0.00    -0.000 C 
BRANCH  13  14
ATOM     14  C   UNL     1      19.010 -39.536  28.532  1.00  0.00    -0.000 C 
BRANCH  14  15
ATOM     15  C   UNL     1      18.817 -40.606  29.628  1.00  0.00    -0.000 C 
BRANCH  15  16
ATOM     16  C   UNL     1      19.204 -42.012  29.150  1.00  0.00    -0.003 C 
ATOM     17  C   UNL     1      20.150 -42.688  30.139  1.00  0.00     0.004 C 
ENDBRANCH  15  16
ENDBRANCH  14  15
ENDBRANCH  13  14
ENDBRANCH  12  13
ENDBRANCH  11  12
ENDBRANCH  10  11
ENDBRANCH   1  10
TORSDOF 13
ENDMDL
MODEL 8
REMARK VINA RESULT:    -4.146      2.425      5.107
REMARK INTER + INTRA:          -9.148
REMARK INTER:                  -7.309
REMARK INTRA:                  -1.839
REMARK UNBOUND:                -1.851
REMARK SMILES CCCCCCCCCCCCCCC(=O)[O-]
REMARK SMILES IDX 9 1 10 2 11 3 12 4 13 5 14 6 15 7 16 8 17 9 8 10 7 11 6 12
REMARK SMILES IDX 5 13 4 14 3 15 2 16 1 17
REMARK H PARENT
REMARK Flexibility Score: inf
ROOT
ATOM      1  C   UNL     1      17.906 -44.266  25.529  1.00  0.00     0.000 C 
ENDROOT
BRANCH   1   2
ATOM      2  C   UNL     1      16.791 -44.204  26.587  1.00  0.00     0.000 C 
BRANCH   2   3
ATOM      3  C   UNL     1      16.970 -45.248  27.700  1.00  0.00     0.000 C 
BRANCH   3   4
ATOM      4  C   UNL     1      15.837 -45.201  28.739  1.00  0.00     0.000 C 
BRANCH   4   5
ATOM      5  C   UNL     1      16.354 -45.159  30.191  1.00  0.00     0.006 C 
BRANCH   5   6
ATOM      6  C   UNL     1      17.887 -45.198  30.310  1.00  0.00     0.053 C 
BRANCH   6   7
ATOM      7  C   UNL     1      18.393 -44.420  31.487  1.00  0.00     0.041 C 
ATOM      8  O   UNL     1      17.628 -43.632  32.102  1.00  0.00    -0.550 OA
ATOM      9  O   UNL     1      19.718 -44.542  31.888  1.00  0.00    -0.550 OA
ENDBRANCH   6   7
ENDBRANCH   5   6
ENDBRANCH   4   5
ENDBRANCH   3   4
ENDBRANCH   2   3
ENDBRANCH   1   2
BRANCH   1  10
ATOM     10  C   UNL     1      18.640 -42.924  25.360  1.00  0.00     0.000 C 
BRANCH  10  11
ATOM     11  C   UNL     1      17.721 -41.690  25.251  1.00  0.00    -0.000 C 
BRANCH  11  12
ATOM     12  C   UNL     1      18.430 -40.376  24.863  1.00  0.00    -0.000 C 
BRANCH  12  13
ATOM     13  C   UNL     1      18.434 -39.293  25.958  1.00  0.00    -0.000 C 
BRANCH  13  14
ATOM     14  C   UNL     1      17.809 -39.725  27.298  1.00  0.00    -0.000 C 
BRANCH  14  15
ATOM     15  C   UNL     1      18.846 -40.180  28.348  1.00  0.00    -0.000 C 
BRANCH  15  16
ATOM     16  C   UNL     1      18.502 -41.546  28.960  1.00  0.00    -0.003 C 
ATOM     17  C   UNL     1      17.022 -41.629  29.323  1.00  0.00     0.004 C 
ENDBRANCH  15  16
ENDBRANCH  14  15
ENDBRANCH  13  14
ENDBRANCH  12  13
ENDBRANCH  11  12
ENDBRANCH  10  11
ENDBRANCH   1  10
TORSDOF 13
ENDMDL
MODEL 9
REMARK VINA RESULT:    -4.141      2.874      5.569
REMARK INTER + INTRA:          -9.139
REMARK INTER:                  -7.555
REMARK INTRA:                  -1.584
REMARK UNBOUND:                -1.851
REMARK SMILES CCCCCCCCCCCCCCC(=O)[O-]
REMARK SMILES IDX 9 1 10 2 11 3 12 4 13 5 14 6 15 7 16 8 17 9 8 10 7 11 6 12
REMARK SMILES IDX 5 13 4 14 3 15 2 16 1 17
REMARK H PARENT
REMARK Flexibility Score: inf
ROOT
ATOM      1  C   UNL     1      15.285 -44.186  29.057  1.00  0.00     0.000 C 
ENDROOT
BRANCH   1   2
ATOM      2  C   UNL     1      16.012 -45.486  28.670  1.00  0.00     0.000 C 
BRANCH   2   3
ATOM      3  C   UNL     1      17.489 -45.489  29.096  1.00  0.00     0.000 C 
BRANCH   3   4
ATOM      4  C   UNL     1      17.904 -44.181  29.789  1.00  0.00     0.000 C 
BRANCH   4   5
ATOM      5  C   UNL     1      18.918 -44.400  30.929  1.00  0.00     0.006 C 
BRANCH   5   6
ATOM      6  C   UNL     1      18.339 -45.144  32.146  1.00  0.00     0.053 C 
BRANCH   6   7
ATOM      7  C   UNL     1      17.052 -44.548  32.626  1.00  0.00     0.041 C 
ATOM      8  O   UNL     1      17.042 -43.412  33.168  1.00  0.00    -0.550 OA
ATOM      9  O   UNL     1      15.864 -45.260  32.504  1.00  0.00    -0.550 OA
ENDBRANCH   6   7
ENDBRANCH   5   6
ENDBRANCH   4   5
ENDBRANCH   3   4
ENDBRANCH   2   3
ENDBRANCH   1   2
BRANCH   1  10
ATOM     10  C   UNL     1      14.731 -43.430  27.836  1.00  0.00     0.000 C 
BRANCH  10  11
ATOM     11  C   UNL     1      15.775 -42.610  27.051  1.00  0.00    -0.000 C 
BRANCH  11  12
ATOM     12  C   UNL     1      16.217 -43.226  25.707  1.00  0.00    -0.000 C 
BRANCH  12  13
ATOM     13  C   UNL     1      17.639 -43.818  25.701  1.00  0.00    -0.000 C 
BRANCH  13  14
ATOM     14  C   UNL     1      18.774 -42.776  25.678  1.00  0.00    -0.000 C 
BRANCH  14  15
ATOM     15  C   UNL     1      18.476 -41.552  24.785  1.00  0.00    -0.000 C 
BRANCH  15  16
ATOM     16  C   UNL     1      18.512 -40.231  25.567  1.00  0.00    -0.003 C 
ATOM     17  C   UNL     1      18.244 -39.042  24.650  1.00  0.00     0.004 C 
ENDBRANCH  15  16
ENDBRANCH  14  15
ENDBRANCH  13  14
ENDBRANCH  12  13
ENDBRANCH  11  12
ENDBRANCH  10  11
ENDBRANCH   1  10
TORSDOF 13
ENDMDL
