MODEL 1
REMARK VINA RESULT:    -8.157      0.000      0.000
REMARK INTER + INTRA:          -9.942
REMARK INTER:                  -9.826
REMARK INTRA:                  -0.116
REMARK UNBOUND:                -0.116
REMARK SMILES O=c1c(O)c(-c2ccc(O)cc2O)oc2cc(O)cc(O)c12
REMARK SMILES IDX 5 1 3 2 2 3 1 4 22 5 20 6 19 7 17 8 16 9 15 10 14 11 6 12
REMARK SMILES IDX 8 13 7 14 9 15 11 16 12 17 10 18 13 20 4 22 21 24 18 26
REMARK H PARENT 10 19 13 21 4 23 21 25 18 27
REMARK Flexibility Score: inf
ROOT
ATOM      1  C   UNL     1       3.356   2.785  17.258  1.00  0.00     0.184 A 
ATOM      2  C   UNL     1       2.993   2.390  15.961  1.00  0.00     0.208 A 
ATOM      3  C   UNL     1       3.411   1.136  15.489  1.00  0.00     0.238 A 
ATOM      4  O   UNL     1       3.021   0.757  14.354  1.00  0.00    -0.285 OA
ATOM      5  C   UNL     1       4.234   0.317  16.301  1.00  0.00     0.111 A 
ATOM      6  C   UNL     1       4.754  -0.955  15.909  1.00  0.00     0.134 A 
ATOM      7  C   UNL     1       5.469  -1.723  16.836  1.00  0.00     0.093 A 
ATOM      8  C   UNL     1       5.738  -1.243  18.116  1.00  0.00     0.123 A 
ATOM      9  C   UNL     1       5.283   0.021  18.492  1.00  0.00     0.094 A 
ATOM     10  C   UNL     1       4.534   0.796  17.604  1.00  0.00     0.146 A 
ATOM     11  O   UNL     1       4.101   1.985  18.010  1.00  0.00    -0.451 OA
ENDROOT
BRANCH   1  12
ATOM     12  C   UNL     1       2.942   4.088  17.817  1.00  0.00     0.063 A 
ATOM     13  C   UNL     1       2.713   6.492  17.532  1.00  0.00     0.047 A 
ATOM     14  C   UNL     1       3.088   5.242  17.032  1.00  0.00     0.020 A 
ATOM     15  C   UNL     1       2.200   6.604  18.830  1.00  0.00     0.119 A 
ATOM     16  C   UNL     1       2.073   5.463  19.628  1.00  0.00     0.093 A 
ATOM     17  C   UNL     1       2.453   4.206  19.135  1.00  0.00     0.130 A 
BRANCH  15  18
ATOM     18  O   UNL     1       1.819   7.844  19.338  1.00  0.00    -0.508 OA
ATOM     19  H   UNL     1       0.843   8.101  19.434  1.00  0.00     0.293 HD
ENDBRANCH  15  18
BRANCH  17  20
ATOM     20  O   UNL     1       2.367   3.083  19.959  1.00  0.00    -0.507 OA
ATOM     21  H   UNL     1       3.112   2.398  20.001  1.00  0.00     0.293 HD
ENDBRANCH  17  20
ENDBRANCH   1  12
BRANCH   2  22
ATOM     22  O   UNL     1       2.241   3.248  15.154  1.00  0.00    -0.502 OA
ATOM     23  H   UNL     1       2.166   3.123  14.151  1.00  0.00     0.293 HD
ENDBRANCH   2  22
BRANCH   6  24
ATOM     24  O   UNL     1       4.620  -1.494  14.627  1.00  0.00    -0.507 OA
ATOM     25  H   UNL     1       5.385  -1.704  14.005  1.00  0.00     0.293 HD
ENDBRANCH   6  24
BRANCH   8  26
ATOM     26  O   UNL     1       6.469  -2.028  19.006  1.00  0.00    -0.508 OA
ATOM     27  H   UNL     1       6.901  -2.897  18.714  1.00  0.00     0.293 HD
ENDBRANCH   8  26
TORSDOF 6
ENDMDL
MODEL 2
REMARK VINA RESULT:    -7.120      2.407      7.116
REMARK INTER + INTRA:          -8.693
REMARK INTER:                  -8.482
REMARK INTRA:                  -0.211
REMARK UNBOUND:                -0.116
REMARK SMILES O=c1c(O)c(-c2ccc(O)cc2O)oc2cc(O)cc(O)c12
REMARK SMILES IDX 5 1 3 2 2 3 1 4 22 5 20 6 19 7 17 8 16 9 15 10 14 11 6 12
REMARK SMILES IDX 8 13 7 14 9 15 11 16 12 17 10 18 13 20 4 22 21 24 18 26
REMARK H PARENT 10 19 13 21 4 23 21 25 18 27
REMARK Flexibility Score: inf
ROOT
ATOM      1  C   UNL     1       3.768   3.442  15.909  1.00  0.00     0.184 A 
ATOM      2  C   UNL     1       2.981   3.908  16.973  1.00  0.00     0.208 A 
ATOM      3  C   UNL     1       2.918   5.289  17.218  1.00  0.00     0.238 A 
ATOM      4  O   UNL     1       2.153   5.706  18.126  1.00  0.00    -0.285 OA
ATOM      5  C   UNL     1       3.688   6.180  16.430  1.00  0.00     0.111 A 
ATOM      6  C   UNL     1       3.735   7.595  16.616  1.00  0.00     0.134 A 
ATOM      7  C   UNL     1       4.450   8.388  15.709  1.00  0.00     0.093 A 
ATOM      8  C   UNL     1       5.168   7.814  14.661  1.00  0.00     0.123 A 
ATOM      9  C   UNL     1       5.174   6.428  14.502  1.00  0.00     0.094 A 
ATOM     10  C   UNL     1       4.440   5.613  15.367  1.00  0.00     0.146 A 
ATOM     11  O   UNL     1       4.455   4.300  15.166  1.00  0.00    -0.451 OA
ENDROOT
BRANCH   1  12
ATOM     12  C   UNL     1       3.872   2.002  15.593  1.00  0.00     0.063 A 
ATOM     13  C   UNL     1       5.271   0.035  15.303  1.00  0.00     0.047 A 
ATOM     14  C   UNL     1       5.137   1.393  15.603  1.00  0.00     0.020 A 
ATOM     15  C   UNL     1       4.144  -0.728  14.976  1.00  0.00     0.119 A 
ATOM     16  C   UNL     1       2.883  -0.124  14.940  1.00  0.00     0.093 A 
ATOM     17  C   UNL     1       2.740   1.240  15.234  1.00  0.00     0.130 A 
BRANCH  15  18
ATOM     18  O   UNL     1       4.265  -2.083  14.678  1.00  0.00    -0.508 OA
ATOM     19  H   UNL     1       3.594  -2.558  14.083  1.00  0.00     0.293 HD
ENDBRANCH  15  18
BRANCH  17  20
ATOM     20  O   UNL     1       1.484   1.841  15.148  1.00  0.00    -0.507 OA
ATOM     21  H   UNL     1       1.271   2.697  15.645  1.00  0.00     0.293 HD
ENDBRANCH  17  20
ENDBRANCH   1  12
BRANCH   2  22
ATOM     22  O   UNL     1       2.288   3.002  17.780  1.00  0.00    -0.502 OA
ATOM     23  H   UNL     1       1.344   3.175  18.104  1.00  0.00     0.293 HD
ENDBRANCH   2  22
BRANCH   6  24
ATOM     24  O   UNL     1       3.127   8.266  17.681  1.00  0.00    -0.507 OA
ATOM     25  H   UNL     1       2.778   9.211  17.645  1.00  0.00     0.293 HD
ENDBRANCH   6  24
BRANCH   8  26
ATOM     26  O   UNL     1       5.881   8.632  13.787  1.00  0.00    -0.508 OA
ATOM     27  H   UNL     1       5.519   9.529  13.487  1.00  0.00     0.293 HD
ENDBRANCH   8  26
TORSDOF 6
ENDMDL
MODEL 3
REMARK VINA RESULT:    -6.995      2.272      6.469
REMARK INTER + INTRA:          -8.542
REMARK INTER:                  -8.230
REMARK INTRA:                  -0.312
REMARK UNBOUND:                -0.116
REMARK SMILES O=c1c(O)c(-c2ccc(O)cc2O)oc2cc(O)cc(O)c12
REMARK SMILES IDX 5 1 3 2 2 3 1 4 22 5 20 6 19 7 17 8 16 9 15 10 14 11 6 12
REMARK SMILES IDX 8 13 7 14 9 15 11 16 12 17 10 18 13 20 4 22 21 24 18 26
REMARK H PARENT 10 19 13 21 4 23 21 25 18 27
REMARK Flexibility Score: inf
ROOT
ATOM      1  C   UNL     1       3.761   2.358  15.934  1.00  0.00     0.184 A 
ATOM      2  C   UNL     1       3.939   3.666  15.454  1.00  0.00     0.208 A 
ATOM      3  C   UNL     1       3.529   4.744  16.254  1.00  0.00     0.238 A 
ATOM      4  O   UNL     1       3.757   5.914  15.852  1.00  0.00    -0.285 OA
ATOM      5  C   UNL     1       2.896   4.498  17.498  1.00  0.00     0.111 A 
ATOM      6  C   UNL     1       2.400   5.513  18.372  1.00  0.00     0.134 A 
ATOM      7  C   UNL     1       1.888   5.156  19.625  1.00  0.00     0.093 A 
ATOM      8  C   UNL     1       1.795   3.820  20.011  1.00  0.00     0.123 A 
ATOM      9  C   UNL     1       2.226   2.816  19.144  1.00  0.00     0.094 A 
ATOM     10  C   UNL     1       2.776   3.142  17.902  1.00  0.00     0.146 A 
ATOM     11  O   UNL     1       3.195   2.157  17.116  1.00  0.00    -0.451 OA
ENDROOT
BRANCH   1  12
ATOM     12  C   UNL     1       4.178   1.180  15.145  1.00  0.00     0.063 A 
ATOM     13  C   UNL     1       5.949  -0.041  14.011  1.00  0.00     0.047 A 
ATOM     14  C   UNL     1       5.523   1.058  14.763  1.00  0.00     0.020 A 
ATOM     15  C   UNL     1       5.031  -1.024  13.622  1.00  0.00     0.119 A 
ATOM     16  C   UNL     1       3.686  -0.898  13.977  1.00  0.00     0.093 A 
ATOM     17  C   UNL     1       3.249   0.204  14.726  1.00  0.00     0.130 A 
BRANCH  15  18
ATOM     18  O   UNL     1       5.446  -2.125  12.875  1.00  0.00    -0.508 OA
ATOM     19  H   UNL     1       5.646  -2.048  11.884  1.00  0.00     0.293 HD
ENDBRANCH  15  18
BRANCH  17  20
ATOM     20  O   UNL     1       1.895   0.342  15.033  1.00  0.00    -0.507 OA
ATOM     21  H   UNL     1       1.584   0.577  15.968  1.00  0.00     0.293 HD
ENDBRANCH  17  20
ENDBRANCH   1  12
BRANCH   2  22
ATOM     22  O   UNL     1       4.500   3.878  14.193  1.00  0.00    -0.502 OA
ATOM     23  H   UNL     1       4.047   3.574  13.339  1.00  0.00     0.293 HD
ENDBRANCH   2  22
BRANCH   6  24
ATOM     24  O   UNL     1       2.363   6.873  18.051  1.00  0.00    -0.507 OA
ATOM     25  H   UNL     1       1.775   7.558  18.501  1.00  0.00     0.293 HD
ENDBRANCH   6  24
BRANCH   8  26
ATOM     26  O   UNL     1       1.264   3.500  21.260  1.00  0.00    -0.508 OA
ATOM     27  H   UNL     1       1.765   2.910  21.913  1.00  0.00     0.293 HD
ENDBRANCH   8  26
TORSDOF 6
ENDMDL
MODEL 4
REMARK VINA RESULT:    -6.819      2.040      3.975
REMARK INTER + INTRA:          -8.330
REMARK INTER:                  -8.454
REMARK INTRA:                   0.123
REMARK UNBOUND:                -0.116
REMARK SMILES O=c1c(O)c(-c2ccc(O)cc2O)oc2cc(O)cc(O)c12
REMARK SMILES IDX 5 1 3 2 2 3 1 4 22 5 20 6 19 7 17 8 16 9 15 10 14 11 6 12
REMARK SMILES IDX 8 13 7 14 9 15 11 16 12 17 10 18 13 20 4 22 21 24 18 26
REMARK H PARENT 10 19 13 21 4 23 21 25 18 27
REMARK Flexibility Score: inf
ROOT
ATOM      1  C   UNL     1       3.082   5.118  17.640  1.00  0.00     0.184 A 
ATOM      2  C   UNL     1       3.061   4.135  18.642  1.00  0.00     0.208 A 
ATOM      3  C   UNL     1       3.333   2.803  18.293  1.00  0.00     0.238 A 
ATOM      4  O   UNL     1       3.386   1.938  19.206  1.00  0.00    -0.285 OA
ATOM      5  C   UNL     1       3.566   2.463  16.937  1.00  0.00     0.111 A 
ATOM      6  C   UNL     1       3.808   1.138  16.462  1.00  0.00     0.134 A 
ATOM      7  C   UNL     1       4.131   0.936  15.114  1.00  0.00     0.093 A 
ATOM      8  C   UNL     1       4.159   1.999  14.213  1.00  0.00     0.123 A 
ATOM      9  C   UNL     1       3.869   3.291  14.654  1.00  0.00     0.094 A 
ATOM     10  C   UNL     1       3.581   3.530  16.000  1.00  0.00     0.146 A 
ATOM     11  O   UNL     1       3.334   4.778  16.383  1.00  0.00    -0.451 OA
ENDROOT
BRANCH   1  12
ATOM     12  C   UNL     1       2.812   6.539  17.942  1.00  0.00     0.063 A 
ATOM     13  C   UNL     1       1.607   8.191  19.257  1.00  0.00     0.047 A 
ATOM     14  C   UNL     1       1.890   6.857  18.951  1.00  0.00     0.020 A 
ATOM     15  C   UNL     1       2.232   9.223  18.548  1.00  0.00     0.119 A 
ATOM     16  C   UNL     1       3.134   8.915  17.525  1.00  0.00     0.093 A 
ATOM     17  C   UNL     1       3.419   7.580  17.207  1.00  0.00     0.130 A 
BRANCH  15  18
ATOM     18  O   UNL     1       1.960  10.556  18.847  1.00  0.00    -0.508 OA
ATOM     19  H   UNL     1       2.660  11.159  19.265  1.00  0.00     0.293 HD
ENDBRANCH  15  18
BRANCH  17  20
ATOM     20  O   UNL     1       4.284   7.286  16.152  1.00  0.00    -0.507 OA
ATOM     21  H   UNL     1       5.043   6.623  16.257  1.00  0.00     0.293 HD
ENDBRANCH  17  20
ENDBRANCH   1  12
BRANCH   2  22
ATOM     22  O   UNL     1       2.758   4.486  19.960  1.00  0.00    -0.502 OA
ATOM     23  H   UNL     1       2.373   3.824  20.623  1.00  0.00     0.293 HD
ENDBRANCH   2  22
BRANCH   6  24
ATOM     24  O   UNL     1       3.720  -0.008  17.258  1.00  0.00    -0.507 OA
ATOM     25  H   UNL     1       2.867  -0.502  17.467  1.00  0.00     0.293 HD
ENDBRANCH   6  24
BRANCH   8  26
ATOM     26  O   UNL     1       4.467   1.759  12.875  1.00  0.00    -0.508 OA
ATOM     27  H   UNL     1       4.210   2.413  12.146  1.00  0.00     0.293 HD
ENDBRANCH   8  26
TORSDOF 6
ENDMDL
MODEL 5
REMARK VINA RESULT:    -6.770      2.153      6.804
REMARK INTER + INTRA:          -8.271
REMARK INTER:                  -7.953
REMARK INTRA:                  -0.318
REMARK UNBOUND:                -0.116
REMARK SMILES O=c1c(O)c(-c2ccc(O)cc2O)oc2cc(O)cc(O)c12
REMARK SMILES IDX 5 1 3 2 2 3 1 4 22 5 20 6 19 7 17 8 16 9 15 10 14 11 6 12
REMARK SMILES IDX 8 13 7 14 9 15 11 16 12 17 10 18 13 20 4 22 21 24 18 26
REMARK H PARENT 10 19 13 21 4 23 21 25 18 27
REMARK Flexibility Score: inf
ROOT
ATOM      1  C   UNL     1       3.400   3.408  15.707  1.00  0.00     0.184 A 
ATOM      2  C   UNL     1       4.208   4.151  14.832  1.00  0.00     0.208 A 
ATOM      3  C   UNL     1       4.406   5.518  15.084  1.00  0.00     0.238 A 
ATOM      4  O   UNL     1       5.189   6.161  14.339  1.00  0.00    -0.285 OA
ATOM      5  C   UNL     1       3.748   6.135  16.176  1.00  0.00     0.111 A 
ATOM      6  C   UNL     1       3.840   7.523  16.501  1.00  0.00     0.134 A 
ATOM      7  C   UNL     1       3.230   8.001  17.668  1.00  0.00     0.093 A 
ATOM      8  C   UNL     1       2.480   7.158  18.486  1.00  0.00     0.123 A 
ATOM      9  C   UNL     1       2.337   5.812  18.149  1.00  0.00     0.094 A 
ATOM     10  C   UNL     1       2.964   5.297  17.013  1.00  0.00     0.146 A 
ATOM     11  O   UNL     1       2.821   4.004  16.741  1.00  0.00    -0.451 OA
ENDROOT
BRANCH   1  12
ATOM     12  C   UNL     1       3.158   1.965  15.503  1.00  0.00     0.063 A 
ATOM     13  C   UNL     1       1.609   0.180  14.931  1.00  0.00     0.047 A 
ATOM     14  C   UNL     1       1.875   1.538  15.126  1.00  0.00     0.020 A 
ATOM     15  C   UNL     1       2.621  -0.769  15.124  1.00  0.00     0.119 A 
ATOM     16  C   UNL     1       3.894  -0.354  15.524  1.00  0.00     0.093 A 
ATOM     17  C   UNL     1       4.168   1.006  15.727  1.00  0.00     0.130 A 
BRANCH  15  18
ATOM     18  O   UNL     1       2.368  -2.125  14.930  1.00  0.00    -0.508 OA
ATOM     19  H   UNL     1       1.435  -2.510  15.025  1.00  0.00     0.293 HD
ENDBRANCH  15  18
BRANCH  17  20
ATOM     20  O   UNL     1       5.430   1.402  16.172  1.00  0.00    -0.507 OA
ATOM     21  H   UNL     1       6.276   1.089  15.713  1.00  0.00     0.293 HD
ENDBRANCH  17  20
ENDBRANCH   1  12
BRANCH   2  22
ATOM     22  O   UNL     1       4.787   3.533  13.721  1.00  0.00    -0.502 OA
ATOM     23  H   UNL     1       5.051   4.048  12.889  1.00  0.00     0.293 HD
ENDBRANCH   2  22
BRANCH   6  24
ATOM     24  O   UNL     1       4.491   8.472  15.707  1.00  0.00    -0.507 OA
ATOM     25  H   UNL     1       4.037   9.233  15.227  1.00  0.00     0.293 HD
ENDBRANCH   6  24
BRANCH   8  26
ATOM     26  O   UNL     1       1.872   7.673  19.630  1.00  0.00    -0.508 OA
ATOM     27  H   UNL     1       0.993   8.173  19.583  1.00  0.00     0.293 HD
ENDBRANCH   8  26
TORSDOF 6
ENDMDL
MODEL 6
REMARK VINA RESULT:    -6.754      1.600      7.003
REMARK INTER + INTRA:          -8.252
REMARK INTER:                  -7.992
REMARK INTRA:                  -0.260
REMARK UNBOUND:                -0.116
REMARK SMILES O=c1c(O)c(-c2ccc(O)cc2O)oc2cc(O)cc(O)c12
REMARK SMILES IDX 5 1 3 2 2 3 1 4 22 5 20 6 19 7 17 8 16 9 15 10 14 11 6 12
REMARK SMILES IDX 8 13 7 14 9 15 11 16 12 17 10 18 13 20 4 22 21 24 18 26
REMARK H PARENT 10 19 13 21 4 23 21 25 18 27
REMARK Flexibility Score: inf
ROOT
ATOM      1  C   UNL     1       3.041   3.415  16.906  1.00  0.00     0.184 A 
ATOM      2  C   UNL     1       2.213   3.564  18.030  1.00  0.00     0.208 A 
ATOM      3  C   UNL     1       1.972   4.854  18.531  1.00  0.00     0.238 A 
ATOM      4  O   UNL     1       1.172   4.988  19.493  1.00  0.00    -0.285 OA
ATOM      5  C   UNL     1       2.609   5.971  17.936  1.00  0.00     0.111 A 
ATOM      6  C   UNL     1       2.473   7.319  18.388  1.00  0.00     0.134 A 
ATOM      7  C   UNL     1       3.065   8.355  17.656  1.00  0.00     0.093 A 
ATOM      8  C   UNL     1       3.839   8.090  16.527  1.00  0.00     0.123 A 
ATOM      9  C   UNL     1       4.024   6.772  16.108  1.00  0.00     0.094 A 
ATOM     10  C   UNL     1       3.415   5.719  16.794  1.00  0.00     0.146 A 
ATOM     11  O   UNL     1       3.599   4.482  16.349  1.00  0.00    -0.451 OA
ENDROOT
BRANCH   1  12
ATOM     12  C   UNL     1       3.328   2.088  16.325  1.00  0.00     0.063 A 
ATOM     13  C   UNL     1       3.088   0.538  14.467  1.00  0.00     0.047 A 
ATOM     14  C   UNL     1       2.841   1.787  15.044  1.00  0.00     0.020 A 
ATOM     15  C   UNL     1       3.815  -0.429  15.170  1.00  0.00     0.119 A 
ATOM     16  C   UNL     1       4.284  -0.146  16.457  1.00  0.00     0.093 A 
ATOM     17  C   UNL     1       4.034   1.102  17.045  1.00  0.00     0.130 A 
BRANCH  15  18
ATOM     18  O   UNL     1       4.071  -1.676  14.604  1.00  0.00    -0.508 OA
ATOM     19  H   UNL     1       3.646  -1.957  13.727  1.00  0.00     0.293 HD
ENDBRANCH  15  18
BRANCH  17  20
ATOM     20  O   UNL     1       4.466   1.354  18.348  1.00  0.00    -0.507 OA
ATOM     21  H   UNL     1       5.134   2.087  18.553  1.00  0.00     0.293 HD
ENDBRANCH  17  20
ENDBRANCH   1  12
BRANCH   2  22
ATOM     22  O   UNL     1       1.655   2.439  18.642  1.00  0.00    -0.502 OA
ATOM     23  H   UNL     1       2.204   1.620  18.876  1.00  0.00     0.293 HD
ENDBRANCH   2  22
BRANCH   6  24
ATOM     24  O   UNL     1       1.796   7.690  19.553  1.00  0.00    -0.507 OA
ATOM     25  H   UNL     1       1.525   8.632  19.789  1.00  0.00     0.293 HD
ENDBRANCH   6  24
BRANCH   8  26
ATOM     26  O   UNL     1       4.427   9.145  15.833  1.00  0.00    -0.508 OA
ATOM     27  H   UNL     1       4.454   9.164  14.820  1.00  0.00     0.293 HD
ENDBRANCH   8  26
TORSDOF 6
ENDMDL
MODEL 7
REMARK VINA RESULT:    -6.336      3.457      4.106
REMARK INTER + INTRA:          -7.748
REMARK INTER:                  -7.818
REMARK INTRA:                   0.070
REMARK UNBOUND:                -0.116
REMARK SMILES O=c1c(O)c(-c2ccc(O)cc2O)oc2cc(O)cc(O)c12
REMARK SMILES IDX 5 1 3 2 2 3 1 4 22 5 20 6 19 7 17 8 16 9 15 10 14 11 6 12
REMARK SMILES IDX 8 13 7 14 9 15 11 16 12 17 10 18 13 20 4 22 21 24 18 26
REMARK H PARENT 10 19 13 21 4 23 21 25 18 27
REMARK Flexibility Score: inf
ROOT
ATOM      1  C   UNL     1       4.145   3.494  14.255  1.00  0.00     0.184 A 
ATOM      2  C   UNL     1       2.925   3.022  14.765  1.00  0.00     0.208 A 
ATOM      3  C   UNL     1       2.693   1.638  14.802  1.00  0.00     0.238 A 
ATOM      4  O   UNL     1       1.629   1.219  15.327  1.00  0.00    -0.285 OA
ATOM      5  C   UNL     1       3.662   0.748  14.277  1.00  0.00     0.111 A 
ATOM      6  C   UNL     1       3.515  -0.672  14.223  1.00  0.00     0.134 A 
ATOM      7  C   UNL     1       4.584  -1.461  13.780  1.00  0.00     0.093 A 
ATOM      8  C   UNL     1       5.769  -0.881  13.331  1.00  0.00     0.123 A 
ATOM      9  C   UNL     1       5.904   0.508  13.327  1.00  0.00     0.094 A 
ATOM     10  C   UNL     1       4.871   1.320  13.799  1.00  0.00     0.146 A 
ATOM     11  O   UNL     1       5.048   2.636  13.800  1.00  0.00    -0.451 OA
ENDROOT
BRANCH   1  12
ATOM     12  C   UNL     1       4.455   4.937  14.195  1.00  0.00     0.063 A 
ATOM     13  C   UNL     1       5.252   6.838  12.905  1.00  0.00     0.047 A 
ATOM     14  C   UNL     1       4.942   5.478  12.995  1.00  0.00     0.020 A 
ATOM     15  C   UNL     1       5.089   7.671  14.019  1.00  0.00     0.119 A 
ATOM     16  C   UNL     1       4.626   7.136  15.224  1.00  0.00     0.093 A 
ATOM     17  C   UNL     1       4.320   5.771  15.325  1.00  0.00     0.130 A 
BRANCH  15  18
ATOM     18  O   UNL     1       5.391   9.029  13.940  1.00  0.00    -0.508 OA
ATOM     19  H   UNL     1       4.688   9.739  14.115  1.00  0.00     0.293 HD
ENDBRANCH  15  18
BRANCH  17  20
ATOM     20  O   UNL     1       3.905   5.241  16.547  1.00  0.00    -0.507 OA
ATOM     21  H   UNL     1       4.196   4.320  16.852  1.00  0.00     0.293 HD
ENDBRANCH  17  20
ENDBRANCH   1  12
BRANCH   2  22
ATOM     22  O   UNL     1       1.957   3.926  15.209  1.00  0.00    -0.502 OA
ATOM     23  H   UNL     1       2.134   4.589  15.954  1.00  0.00     0.293 HD
ENDBRANCH   2  22
BRANCH   6  24
ATOM     24  O   UNL     1       2.342  -1.352  14.565  1.00  0.00    -0.507 OA
ATOM     25  H   UNL     1       1.555  -1.492  13.950  1.00  0.00     0.293 HD
ENDBRANCH   6  24
BRANCH   8  26
ATOM     26  O   UNL     1       6.806  -1.696  12.880  1.00  0.00    -0.508 OA
ATOM     27  H   UNL     1       7.213  -1.576  11.961  1.00  0.00     0.293 HD
ENDBRANCH   8  26
TORSDOF 6
ENDMDL
MODEL 8
REMARK VINA RESULT:    -6.312      2.290      7.293
REMARK INTER + INTRA:          -7.720
REMARK INTER:                  -7.633
REMARK INTRA:                  -0.087
REMARK UNBOUND:                -0.116
REMARK SMILES O=c1c(O)c(-c2ccc(O)cc2O)oc2cc(O)cc(O)c12
REMARK SMILES IDX 5 1 3 2 2 3 1 4 22 5 20 6 19 7 17 8 16 9 15 10 14 11 6 12
REMARK SMILES IDX 8 13 7 14 9 15 11 16 12 17 10 18 13 20 4 22 21 24 18 26
REMARK H PARENT 10 19 13 21 4 23 21 25 18 27
REMARK Flexibility Score: inf
ROOT
ATOM      1  C   UNL     1       3.870   3.645  15.964  1.00  0.00     0.184 A 
ATOM      2  C   UNL     1       3.016   3.402  17.051  1.00  0.00     0.208 A 
ATOM      3  C   UNL     1       2.531   4.492  17.791  1.00  0.00     0.238 A 
ATOM      4  O   UNL     1       1.708   4.273  18.718  1.00  0.00    -0.285 OA
ATOM      5  C   UNL     1       2.952   5.805  17.469  1.00  0.00     0.111 A 
ATOM      6  C   UNL     1       2.559   6.982  18.178  1.00  0.00     0.134 A 
ATOM      7  C   UNL     1       2.954   8.238  17.703  1.00  0.00     0.093 A 
ATOM      8  C   UNL     1       3.777   8.360  16.585  1.00  0.00     0.123 A 
ATOM      9  C   UNL     1       4.212   7.216  15.916  1.00  0.00     0.094 A 
ATOM     10  C   UNL     1       3.805   5.950  16.342  1.00  0.00     0.146 A 
ATOM     11  O   UNL     1       4.224   4.887  15.664  1.00  0.00    -0.451 OA
ENDROOT
BRANCH   1  12
ATOM     12  C   UNL     1       4.410   2.543  15.140  1.00  0.00     0.063 A 
ATOM     13  C   UNL     1       5.441   0.344  15.030  1.00  0.00     0.047 A 
ATOM     14  C   UNL     1       4.917   1.402  15.779  1.00  0.00     0.020 A 
ATOM     15  C   UNL     1       5.475   0.422  13.632  1.00  0.00     0.119 A 
ATOM     16  C   UNL     1       4.994   1.566  12.989  1.00  0.00     0.093 A 
ATOM     17  C   UNL     1       4.472   2.634  13.733  1.00  0.00     0.130 A 
BRANCH  15  18
ATOM     18  O   UNL     1       5.992  -0.627  12.875  1.00  0.00    -0.508 OA
ATOM     19  H   UNL     1       6.948  -0.616  12.537  1.00  0.00     0.293 HD
ENDBRANCH  15  18
BRANCH  17  20
ATOM     20  O   UNL     1       4.039   3.789  13.081  1.00  0.00    -0.507 OA
ATOM     21  H   UNL     1       4.339   4.011  12.139  1.00  0.00     0.293 HD
ENDBRANCH  17  20
ENDBRANCH   1  12
BRANCH   2  22
ATOM     22  O   UNL     1       2.674   2.091  17.392  1.00  0.00    -0.502 OA
ATOM     23  H   UNL     1       1.793   1.858  17.834  1.00  0.00     0.293 HD
ENDBRANCH   2  22
BRANCH   6  24
ATOM     24  O   UNL     1       1.810   6.971  19.359  1.00  0.00    -0.507 OA
ATOM     25  H   UNL     1       1.025   6.364  19.539  1.00  0.00     0.293 HD
ENDBRANCH   6  24
BRANCH   8  26
ATOM     26  O   UNL     1       4.164   9.627  16.151  1.00  0.00    -0.508 OA
ATOM     27  H   UNL     1       3.566  10.189  15.557  1.00  0.00     0.293 HD
ENDBRANCH   8  26
TORSDOF 6
ENDMDL
