MODEL 1
REMARK VINA RESULT:    70.488      0.000      0.000
REMARK INTER + INTRA:          89.049
REMARK INTER:                  89.031
REMARK INTRA:                   0.017
REMARK UNBOUND:                 0.017
REMARK SMILES CC(C)[C@H](C)C=C[C@H](C)[C@@H]1CC[C@@H]2C3=CC=C4C[C@H](O)CC[C@@]4(C)[C@H]3CC[C@]21C
REMARK SMILES IDX 8 1 9 2 7 3 6 4 4 5 5 6 2 7 1 8 3 9 10 10 11 11 28 12 12 13
REMARK SMILES IDX 13 14 27 15 29 16 14 17 26 18 25 19 15 20 23 21 16 22 17 23
REMARK SMILES IDX 22 24 24 25 18 26 21 27 19 28 20 29
REMARK H PARENT 20 30
REMARK Flexibility Score: inf
ROOT
ATOM      1  C   UNL     1     -19.560  25.351  -5.847  1.00  0.00     0.012 C 
ATOM      2  C   UNL     1     -20.205  25.539  -4.454  1.00  0.00     0.012 C 
ENDROOT
BRANCH   1   3
ATOM      3  C   UNL     1     -19.531  23.900  -6.270  1.00  0.00    -0.028 C 
ATOM      4  C   UNL     1     -19.134  23.470  -7.484  1.00  0.00    -0.028 C 
BRANCH   4   5
ATOM      5  C   UNL     1     -19.290  22.041  -7.993  1.00  0.00     0.011 C 
ATOM      6  C   UNL     1     -18.877  20.962  -6.976  1.00  0.00     0.012 C 
BRANCH   5   7
ATOM      7  C   UNL     1     -20.738  21.777  -8.516  1.00  0.00    -0.011 C 
ATOM      8  C   UNL     1     -20.925  20.360  -9.089  1.00  0.00     0.008 C 
ATOM      9  C   UNL     1     -21.783  22.059  -7.430  1.00  0.00     0.008 C 
ENDBRANCH   5   7
ENDBRANCH   4   5
ENDBRANCH   1   3
BRANCH   1  10
ATOM     10  C   UNL     1     -19.987  26.418  -6.929  1.00  0.00     0.002 C 
ATOM     11  C   UNL     1     -18.897  27.412  -7.392  1.00  0.00     0.005 C 
ATOM     12  C   UNL     1     -21.253  27.302  -6.748  1.00  0.00    -0.023 C 
ATOM     13  C   UNL     1     -19.647  28.597  -8.021  1.00  0.00     0.009 C 
ATOM     14  C   UNL     1     -21.112  28.182  -8.004  1.00  0.00     0.021 C 
ATOM     15  C   UNL     1     -22.609  26.526  -6.803  1.00  0.00     0.008 C 
ATOM     16  C   UNL     1     -21.172  28.178  -5.445  1.00  0.00     0.012 C 
ATOM     17  C   UNL     1     -22.193  29.231  -8.060  1.00  0.00    -0.063 C 
ATOM     18  C   UNL     1     -23.710  27.248  -7.637  1.00  0.00     0.009 C 
ATOM     19  C   UNL     1     -23.587  28.803  -7.644  1.00  0.00     0.025 C 
ATOM     20  C   UNL     1     -21.961  30.489  -8.428  1.00  0.00    -0.000 C 
ATOM     21  C   UNL     1     -24.721  29.548  -8.459  1.00  0.00    -0.005 C 
ATOM     22  C   UNL     1     -23.070  31.431  -8.637  1.00  0.00    -0.000 C 
ATOM     23  C   UNL     1     -24.352  31.021  -8.682  1.00  0.00    -0.061 C 
ATOM     24  C   UNL     1     -24.945  28.932  -9.873  1.00  0.00     0.014 C 
ATOM     25  C   UNL     1     -26.032  29.441  -7.630  1.00  0.00     0.017 C 
ATOM     26  C   UNL     1     -25.328  31.874  -9.459  1.00  0.00     0.063 C 
ATOM     27  C   UNL     1     -25.938  29.754 -10.729  1.00  0.00     0.033 C 
ATOM     28  C   UNL     1     -25.530  31.241 -10.840  1.00  0.00     0.118 C 
BRANCH  28  29
ATOM     29  O   UNL     1     -26.520  31.954 -11.536  1.00  0.00    -0.393 OA
ATOM     30  H   UNL     1     -27.286  31.331 -11.672  1.00  0.00     0.210 HD
ENDBRANCH  28  29
ENDBRANCH   1  10
TORSDOF 5
ENDMDL
MODEL 2
REMARK VINA RESULT:    70.683      3.079      8.791
REMARK INTER + INTRA:          89.294
REMARK INTER:                  90.132
REMARK INTRA:                  -0.837
REMARK UNBOUND:                 0.017
REMARK SMILES CC(C)[C@H](C)C=C[C@H](C)[C@@H]1CC[C@@H]2C3=CC=C4C[C@H](O)CC[C@@]4(C)[C@H]3CC[C@]21C
REMARK SMILES IDX 8 1 9 2 7 3 6 4 4 5 5 6 2 7 1 8 3 9 10 10 11 11 28 12 12 13
REMARK SMILES IDX 13 14 27 15 29 16 14 17 26 18 25 19 15 20 23 21 16 22 17 23
REMARK SMILES IDX 22 24 24 25 18 26 21 27 19 28 20 29
REMARK H PARENT 20 30
REMARK Flexibility Score: inf
ROOT
ATOM      1  C   UNL     1     -25.124  30.995  -9.100  1.00  0.00     0.012 C 
ATOM      2  C   UNL     1     -26.212  31.704  -8.260  1.00  0.00     0.012 C 
ENDROOT
BRANCH   1   3
ATOM      3  C   UNL     1     -23.945  31.898  -9.383  1.00  0.00    -0.028 C 
ATOM      4  C   UNL     1     -23.462  32.812  -8.517  1.00  0.00    -0.028 C 
BRANCH   4   5
ATOM      5  C   UNL     1     -22.412  33.863  -8.860  1.00  0.00     0.011 C 
ATOM      6  C   UNL     1     -21.544  33.511 -10.081  1.00  0.00     0.012 C 
BRANCH   5   7
ATOM      7  C   UNL     1     -23.055  35.275  -9.033  1.00  0.00    -0.011 C 
ATOM      8  C   UNL     1     -23.904  35.401 -10.311  1.00  0.00     0.008 C 
ATOM      9  C   UNL     1     -23.878  35.668  -7.801  1.00  0.00     0.008 C 
ENDBRANCH   5   7
ENDBRANCH   4   5
ENDBRANCH   1   3
BRANCH   1  10
ATOM     10  C   UNL     1     -24.817  29.507  -8.676  1.00  0.00     0.002 C 
ATOM     11  C   UNL     1     -25.990  28.700  -8.072  1.00  0.00     0.005 C 
ATOM     12  C   UNL     1     -23.607  29.150  -7.768  1.00  0.00    -0.023 C 
ATOM     13  C   UNL     1     -25.349  27.528  -7.313  1.00  0.00     0.009 C 
ATOM     14  C   UNL     1     -23.860  27.639  -7.612  1.00  0.00     0.021 C 
ATOM     15  C   UNL     1     -22.205  29.380  -8.422  1.00  0.00     0.008 C 
ATOM     16  C   UNL     1     -23.688  29.874  -6.375  1.00  0.00     0.012 C 
ATOM     17  C   UNL     1     -22.855  27.009  -6.683  1.00  0.00    -0.063 C 
ATOM     18  C   UNL     1     -21.192  28.227  -8.154  1.00  0.00     0.009 C 
ATOM     19  C   UNL     1     -21.419  27.481  -6.803  1.00  0.00     0.025 C 
ATOM     20  C   UNL     1     -23.186  26.099  -5.770  1.00  0.00    -0.000 C 
ATOM     21  C   UNL     1     -20.373  26.331  -6.504  1.00  0.00    -0.005 C 
ATOM     22  C   UNL     1     -22.153  25.385  -5.006  1.00  0.00    -0.000 C 
ATOM     23  C   UNL     1     -20.849  25.453  -5.339  1.00  0.00    -0.061 C 
ATOM     24  C   UNL     1     -20.170  25.376  -7.719  1.00  0.00     0.014 C 
ATOM     25  C   UNL     1     -19.023  27.014  -6.147  1.00  0.00     0.017 C 
ATOM     26  C   UNL     1     -19.967  24.295  -4.932  1.00  0.00     0.063 C 
ATOM     27  C   UNL     1     -19.273  24.162  -7.378  1.00  0.00     0.033 C 
ATOM     28  C   UNL     1     -19.783  23.378  -6.147  1.00  0.00     0.118 C 
BRANCH  28  29
ATOM     29  O   UNL     1     -18.875  22.357  -5.824  1.00  0.00    -0.393 OA
ATOM     30  H   UNL     1     -18.844  21.738  -6.605  1.00  0.00     0.210 HD
ENDBRANCH  28  29
ENDBRANCH   1  10
TORSDOF 5
ENDMDL
MODEL 3
REMARK VINA RESULT:    71.601      6.235     10.658
REMARK INTER + INTRA:          90.454
REMARK INTER:                  89.410
REMARK INTRA:                   1.044
REMARK UNBOUND:                 0.017
REMARK SMILES CC(C)[C@H](C)C=C[C@H](C)[C@@H]1CC[C@@H]2C3=CC=C4C[C@H](O)CC[C@@]4(C)[C@H]3CC[C@]21C
REMARK SMILES IDX 8 1 9 2 7 3 6 4 4 5 5 6 2 7 1 8 3 9 10 10 11 11 28 12 12 13
REMARK SMILES IDX 13 14 27 15 29 16 14 17 26 18 25 19 15 20 23 21 16 22 17 23
REMARK SMILES IDX 22 24 24 25 18 26 21 27 19 28 20 29
REMARK H PARENT 20 30
REMARK Flexibility Score: inf
ROOT
ATOM      1  C   UNL     1     -30.048  31.456  -0.727  1.00  0.00     0.012 C 
ATOM      2  C   UNL     1     -30.551  32.453   0.343  1.00  0.00     0.012 C 
ENDROOT
BRANCH   1   3
ATOM      3  C   UNL     1     -31.121  30.475  -1.139  1.00  0.00    -0.028 C 
ATOM      4  C   UNL     1     -31.987  30.676  -2.152  1.00  0.00    -0.028 C 
BRANCH   4   5
ATOM      5  C   UNL     1     -33.197  29.795  -2.449  1.00  0.00     0.011 C 
ATOM      6  C   UNL     1     -33.712  29.004  -1.233  1.00  0.00     0.012 C 
BRANCH   5   7
ATOM      7  C   UNL     1     -34.354  30.616  -3.100  1.00  0.00    -0.011 C 
ATOM      8  C   UNL     1     -34.602  30.247  -4.573  1.00  0.00     0.008 C 
ATOM      9  C   UNL     1     -35.650  30.493  -2.289  1.00  0.00     0.008 C 
ENDBRANCH   5   7
ENDBRANCH   4   5
ENDBRANCH   1   3
BRANCH   1  10
ATOM     10  C   UNL     1     -29.164  32.093  -1.869  1.00  0.00     0.002 C 
ATOM     11  C   UNL     1     -29.452  33.568  -2.231  1.00  0.00     0.005 C 
ATOM     12  C   UNL     1     -28.985  31.395  -3.247  1.00  0.00    -0.023 C 
ATOM     13  C   UNL     1     -28.854  33.785  -3.629  1.00  0.00     0.009 C 
ATOM     14  C   UNL     1     -28.149  32.475  -3.957  1.00  0.00     0.021 C 
ATOM     15  C   UNL     1     -28.181  30.055  -3.205  1.00  0.00     0.008 C 
ATOM     16  C   UNL     1     -30.361  31.187  -3.980  1.00  0.00     0.012 C 
ATOM     17  C   UNL     1     -27.879  32.103  -5.392  1.00  0.00    -0.063 C 
ATOM     18  C   UNL     1     -27.147  29.909  -4.362  1.00  0.00     0.009 C 
ATOM     19  C   UNL     1     -27.551  30.650  -5.674  1.00  0.00     0.025 C 
ATOM     20  C   UNL     1     -27.945  32.981  -6.391  1.00  0.00    -0.000 C 
ATOM     21  C   UNL     1     -26.525  30.478  -6.867  1.00  0.00    -0.005 C 
ATOM     22  C   UNL     1     -27.506  32.616  -7.746  1.00  0.00    -0.000 C 
ATOM     23  C   UNL     1     -26.824  31.480  -7.991  1.00  0.00    -0.061 C 
ATOM     24  C   UNL     1     -25.050  30.736  -6.431  1.00  0.00     0.014 C 
ATOM     25  C   UNL     1     -26.665  29.022  -7.393  1.00  0.00     0.017 C 
ATOM     26  C   UNL     1     -25.924  31.456  -9.205  1.00  0.00     0.063 C 
ATOM     27  C   UNL     1     -24.066  30.725  -7.626  1.00  0.00     0.033 C 
ATOM     28  C   UNL     1     -24.484  31.708  -8.743  1.00  0.00     0.118 C 
BRANCH  28  29
ATOM     29  O   UNL     1     -23.617  31.577  -9.839  1.00  0.00    -0.393 OA
ATOM     30  H   UNL     1     -24.188  31.451 -10.647  1.00  0.00     0.210 HD
ENDBRANCH  28  29
ENDBRANCH   1  10
TORSDOF 5
ENDMDL
MODEL 4
REMARK VINA RESULT:    72.264      3.282      8.748
REMARK INTER + INTRA:          91.292
REMARK INTER:                  92.089
REMARK INTRA:                  -0.797
REMARK UNBOUND:                 0.017
REMARK SMILES CC(C)[C@H](C)C=C[C@H](C)[C@@H]1CC[C@@H]2C3=CC=C4C[C@H](O)CC[C@@]4(C)[C@H]3CC[C@]21C
REMARK SMILES IDX 8 1 9 2 7 3 6 4 4 5 5 6 2 7 1 8 3 9 10 10 11 11 28 12 12 13
REMARK SMILES IDX 13 14 27 15 29 16 14 17 26 18 25 19 15 20 23 21 16 22 17 23
REMARK SMILES IDX 22 24 24 25 18 26 21 27 19 28 20 29
REMARK H PARENT 20 30
REMARK Flexibility Score: inf
ROOT
ATOM      1  C   UNL     1     -24.171  31.072  -8.405  1.00  0.00     0.012 C 
ATOM      2  C   UNL     1     -23.770  31.785  -9.717  1.00  0.00     0.012 C 
ENDROOT
BRANCH   1   3
ATOM      3  C   UNL     1     -25.465  31.610  -7.838  1.00  0.00    -0.028 C 
ATOM      4  C   UNL     1     -25.961  31.278  -6.629  1.00  0.00    -0.028 C 
BRANCH   4   5
ATOM      5  C   UNL     1     -27.354  31.650  -6.130  1.00  0.00     0.011 C 
ATOM      6  C   UNL     1     -28.379  30.505  -6.216  1.00  0.00     0.012 C 
BRANCH   5   7
ATOM      7  C   UNL     1     -27.304  32.234  -4.683  1.00  0.00    -0.011 C 
ATOM      8  C   UNL     1     -26.172  31.636  -3.828  1.00  0.00     0.008 C 
ATOM      9  C   UNL     1     -27.210  33.765  -4.702  1.00  0.00     0.008 C 
ENDBRANCH   5   7
ENDBRANCH   4   5
ENDBRANCH   1   3
BRANCH   1  10
ATOM     10  C   UNL     1     -23.971  29.507  -8.407  1.00  0.00     0.002 C 
ATOM     11  C   UNL     1     -25.252  28.642  -8.377  1.00  0.00     0.005 C 
ATOM     12  C   UNL     1     -23.018  28.804  -7.399  1.00  0.00    -0.023 C 
ATOM     13  C   UNL     1     -24.811  27.251  -7.894  1.00  0.00     0.009 C 
ATOM     14  C   UNL     1     -23.295  27.340  -7.787  1.00  0.00     0.021 C 
ATOM     15  C   UNL     1     -21.500  29.121  -7.602  1.00  0.00     0.008 C 
ATOM     16  C   UNL     1     -23.442  29.074  -5.909  1.00  0.00     0.012 C 
ATOM     17  C   UNL     1     -22.545  26.387  -6.893  1.00  0.00    -0.063 C 
ATOM     18  C   UNL     1     -20.578  27.870  -7.478  1.00  0.00     0.009 C 
ATOM     19  C   UNL     1     -21.126  26.768  -6.520  1.00  0.00     0.025 C 
ATOM     20  C   UNL     1     -23.086  25.269  -6.414  1.00  0.00    -0.000 C 
ATOM     21  C   UNL     1     -20.180  25.509  -6.359  1.00  0.00    -0.005 C 
ATOM     22  C   UNL     1     -22.267  24.284  -5.691  1.00  0.00    -0.000 C 
ATOM     23  C   UNL     1     -20.922  24.354  -5.672  1.00  0.00    -0.061 C 
ATOM     24  C   UNL     1     -19.681  24.956  -7.729  1.00  0.00     0.014 C 
ATOM     25  C   UNL     1     -18.961  25.951  -5.502  1.00  0.00     0.017 C 
ATOM     26  C   UNL     1     -20.161  23.067  -5.453  1.00  0.00     0.063 C 
ATOM     27  C   UNL     1     -18.889  23.634  -7.584  1.00  0.00     0.033 C 
ATOM     28  C   UNL     1     -19.681  22.553  -6.815  1.00  0.00     0.118 C 
BRANCH  28  29
ATOM     29  O   UNL     1     -18.875  21.419  -6.624  1.00  0.00    -0.393 OA
ATOM     30  H   UNL     1     -18.861  21.234  -5.644  1.00  0.00     0.210 HD
ENDBRANCH  28  29
ENDBRANCH   1  10
TORSDOF 5
ENDMDL
MODEL 5
REMARK VINA RESULT:    72.586      4.994      9.541
REMARK INTER + INTRA:          91.698
REMARK INTER:                  92.202
REMARK INTRA:                  -0.504
REMARK UNBOUND:                 0.017
REMARK SMILES CC(C)[C@H](C)C=C[C@H](C)[C@@H]1CC[C@@H]2C3=CC=C4C[C@H](O)CC[C@@]4(C)[C@H]3CC[C@]21C
REMARK SMILES IDX 8 1 9 2 7 3 6 4 4 5 5 6 2 7 1 8 3 9 10 10 11 11 28 12 12 13
REMARK SMILES IDX 13 14 27 15 29 16 14 17 26 18 25 19 15 20 23 21 16 22 17 23
REMARK SMILES IDX 22 24 24 25 18 26 21 27 19 28 20 29
REMARK H PARENT 20 30
REMARK Flexibility Score: inf
ROOT
ATOM      1  C   UNL     1     -31.213  26.725  -5.952  1.00  0.00     0.012 C 
ATOM      2  C   UNL     1     -31.355  25.316  -5.330  1.00  0.00     0.012 C 
ENDROOT
BRANCH   1   3
ATOM      3  C   UNL     1     -31.539  27.819  -4.962  1.00  0.00    -0.028 C 
ATOM      4  C   UNL     1     -32.737  28.430  -4.870  1.00  0.00    -0.028 C 
BRANCH   4   5
ATOM      5  C   UNL     1     -33.019  29.667  -4.023  1.00  0.00     0.011 C 
ATOM      6  C   UNL     1     -34.262  30.461  -4.462  1.00  0.00     0.012 C 
BRANCH   5   7
ATOM      7  C   UNL     1     -33.103  29.310  -2.505  1.00  0.00    -0.011 C 
ATOM      8  C   UNL     1     -32.199  30.193  -1.626  1.00  0.00     0.008 C 
ATOM      9  C   UNL     1     -34.551  29.354  -2.001  1.00  0.00     0.008 C 
ENDBRANCH   5   7
ENDBRANCH   4   5
ENDBRANCH   1   3
BRANCH   1  10
ATOM     10  C   UNL     1     -29.946  26.924  -6.870  1.00  0.00     0.002 C 
ATOM     11  C   UNL     1     -29.191  25.646  -7.301  1.00  0.00     0.005 C 
ATOM     12  C   UNL     1     -28.813  27.921  -6.493  1.00  0.00    -0.023 C 
ATOM     13  C   UNL     1     -27.790  26.107  -7.731  1.00  0.00     0.009 C 
ATOM     14  C   UNL     1     -27.839  27.627  -7.647  1.00  0.00     0.021 C 
ATOM     15  C   UNL     1     -29.227  29.428  -6.529  1.00  0.00     0.008 C 
ATOM     16  C   UNL     1     -28.158  27.564  -5.108  1.00  0.00     0.012 C 
ATOM     17  C   UNL     1     -26.563  28.415  -7.501  1.00  0.00    -0.063 C 
ATOM     18  C   UNL     1     -28.161  30.354  -7.187  1.00  0.00     0.009 C 
ATOM     19  C   UNL     1     -26.693  29.850  -7.028  1.00  0.00     0.025 C 
ATOM     20  C   UNL     1     -25.361  27.896  -7.741  1.00  0.00    -0.000 C 
ATOM     21  C   UNL     1     -25.599  30.802  -7.663  1.00  0.00    -0.005 C 
ATOM     22  C   UNL     1     -24.161  28.745  -7.755  1.00  0.00    -0.000 C 
ATOM     23  C   UNL     1     -24.242  30.090  -7.747  1.00  0.00    -0.061 C 
ATOM     24  C   UNL     1     -25.956  31.239  -9.116  1.00  0.00     0.014 C 
ATOM     25  C   UNL     1     -25.493  32.057  -6.752  1.00  0.00     0.017 C 
ATOM     26  C   UNL     1     -23.086  30.860  -8.343  1.00  0.00     0.063 C 
ATOM     27  C   UNL     1     -24.816  32.036  -9.794  1.00  0.00     0.033 C 
ATOM     28  C   UNL     1     -23.469  31.278  -9.768  1.00  0.00     0.118 C 
BRANCH  28  29
ATOM     29  O   UNL     1     -22.456  32.092 -10.299  1.00  0.00    -0.393 OA
ATOM     30  H   UNL     1     -22.477  32.950  -9.793  1.00  0.00     0.210 HD
ENDBRANCH  28  29
ENDBRANCH   1  10
TORSDOF 5
ENDMDL
