MODEL 1
REMARK VINA RESULT:    -3.660      0.000      0.000
REMARK INTER + INTRA:          -4.981
REMARK INTER:                  -5.372
REMARK INTRA:                   0.390
REMARK UNBOUND:                 0.390
REMARK SMILES C=C1CC=CC(C)(C)CC=C(C)CCC1
REMARK SMILES IDX 2 1 1 2 15 3 14 4 13 5 11 6 12 7 10 8 3 10 4 11 5 12 6 13
REMARK SMILES IDX 7 14 8 15 9 16
REMARK H PARENT
REMARK Flexibility Score: 60.00
ROOT
ATOM      1  C   UNL     1     168.456 162.858 199.724  1.00  0.00    -0.074 C 
ATOM      2  C   UNL     1     169.036 162.703 198.522  1.00  0.00     0.008 C 
ENDROOT
BRANCH   1   3
ATOM      3  C   UNL     1     167.364 161.892 200.146  1.00  0.00     0.031 C 
BRANCH   3   4
ATOM      4  C   UNL     1     165.948 162.396 199.784  1.00  0.00     0.009 C 
BRANCH   4   5
ATOM      5  C   UNL     1     165.428 163.449 200.785  1.00  0.00     0.030 C 
BRANCH   5   6
ATOM      6  C   UNL     1     165.316 164.855 200.221  1.00  0.00    -0.077 C 
ATOM      7  C   UNL     1     164.467 165.070 198.991  1.00  0.00     0.039 C 
ATOM      8  C   UNL     1     165.864 165.954 200.800  1.00  0.00    -0.027 CG0
ATOM      9  G   UNL     1     166.846 165.989 201.954  1.00  0.00     0.000 G0
ENDBRANCH   5   6
ENDBRANCH   4   5
ENDBRANCH   3   4
ENDBRANCH   1   3
BRANCH   1  10
ATOM     10  C   UNL     1     169.032 163.866 200.700  1.00  0.00     0.057 C 
BRANCH  10  11
ATOM     11  C   UNL     1     169.302 165.221 200.093  1.00  0.00    -0.026 C 
ATOM     12  C   UNL     1     168.926 166.446 200.541  1.00  0.00    -0.024 C 
BRANCH  12  13
ATOM     13  C   UNL     1     168.137 166.830 201.798  1.00  0.00    -0.014 C 
ATOM     14  C   UNL     1     169.055 166.601 203.026  1.00  0.00     0.016 C 
ATOM     15  C   UNL     1     167.769 168.332 201.781  1.00  0.00     0.016 C 
BRANCH  13  16
ATOM     16  C   UNL     1     166.839 165.987 201.970  1.00  0.00     0.038 CG0
ATOM     17  G   UNL     1     165.884 165.960 200.792  1.00  0.00     0.000 G0
ENDBRANCH  13  16
ENDBRANCH  12  13
ENDBRANCH  10  11
ENDBRANCH   1  10
TORSDOF 0
ENDMDL
MODEL 2
REMARK VINA RESULT:    -3.656      1.457      4.046
REMARK INTER + INTRA:          -4.976
REMARK INTER:                  -5.489
REMARK INTRA:                   0.513
REMARK UNBOUND:                 0.390
REMARK SMILES C=C1CC=CC(C)(C)CC=C(C)CCC1
REMARK SMILES IDX 2 1 1 2 15 3 14 4 13 5 11 6 12 7 10 8 3 10 4 11 5 12 6 13
REMARK SMILES IDX 7 14 8 15 9 16
REMARK H PARENT
REMARK Flexibility Score: 60.00
ROOT
ATOM      1  C   UNL     1     168.785 163.801 200.643  1.00  0.00    -0.074 C 
ATOM      2  C   UNL     1     169.590 163.584 199.589  1.00  0.00     0.008 C 
ENDROOT
BRANCH   1   3
ATOM      3  C   UNL     1     168.668 165.206 201.205  1.00  0.00     0.031 C 
BRANCH   3   4
ATOM      4  C   UNL     1     169.033 166.295 200.171  1.00  0.00     0.009 C 
BRANCH   4   5
ATOM      5  C   UNL     1     167.862 166.617 199.220  1.00  0.00     0.030 C 
BRANCH   5   6
ATOM      6  C   UNL     1     166.501 166.675 199.893  1.00  0.00    -0.077 C 
ATOM      7  C   UNL     1     166.222 167.808 200.851  1.00  0.00     0.039 C 
ATOM      8  C   UNL     1     165.482 165.819 199.625  1.00  0.00    -0.027 CG0
ATOM      9  G   UNL     1     165.545 164.545 198.806  1.00  0.00     0.000 G0
ENDBRANCH   5   6
ENDBRANCH   4   5
ENDBRANCH   3   4
ENDBRANCH   1   3
BRANCH   1  10
ATOM     10  C   UNL     1     167.877 162.686 201.123  1.00  0.00     0.057 C 
BRANCH  10  11
ATOM     11  C   UNL     1     167.258 161.876 200.009  1.00  0.00    -0.026 C 
ATOM     12  C   UNL     1     166.096 162.090 199.343  1.00  0.00    -0.024 C 
BRANCH  12  13
ATOM     13  C   UNL     1     165.071 163.220 199.498  1.00  0.00    -0.014 C 
ATOM     14  C   UNL     1     163.743 162.751 198.852  1.00  0.00     0.016 C 
ATOM     15  C   UNL     1     164.776 163.497 200.991  1.00  0.00     0.016 C 
BRANCH  13  16
ATOM     16  C   UNL     1     165.531 164.541 198.814  1.00  0.00     0.038 CG0
ATOM     17  G   UNL     1     165.470 165.801 199.655  1.00  0.00     0.000 G0
ENDBRANCH  13  16
ENDBRANCH  12  13
ENDBRANCH  10  11
ENDBRANCH   1  10
TORSDOF 0
ENDMDL
MODEL 3
REMARK VINA RESULT:    -3.644      2.630      5.155
REMARK INTER + INTRA:          -4.958
REMARK INTER:                  -5.212
REMARK INTRA:                   0.255
REMARK UNBOUND:                 0.390
REMARK SMILES C=C1CC=CC(C)(C)CC=C(C)CCC1
REMARK SMILES IDX 2 1 1 2 15 3 14 4 13 5 11 6 12 7 10 8 3 10 4 11 5 12 6 13
REMARK SMILES IDX 7 14 8 15 9 16
REMARK H PARENT
REMARK Flexibility Score: 60.00
ROOT
ATOM      1  C   UNL     1     167.859 169.185 199.412  1.00  0.00    -0.074 C 
ATOM      2  C   UNL     1     168.871 169.103 198.532  1.00  0.00     0.008 C 
ENDROOT
BRANCH   1   3
ATOM      3  C   UNL     1     168.032 168.584 200.795  1.00  0.00     0.031 C 
BRANCH   3   4
ATOM      4  C   UNL     1     168.407 167.084 200.751  1.00  0.00     0.009 C 
BRANCH   4   5
ATOM      5  C   UNL     1     167.353 166.239 200.006  1.00  0.00     0.030 C 
BRANCH   5   6
ATOM      6  C   UNL     1     166.077 165.985 200.790  1.00  0.00    -0.077 C 
ATOM      7  C   UNL     1     166.182 165.281 202.121  1.00  0.00     0.039 C 
ATOM      8  C   UNL     1     164.850 166.424 200.411  1.00  0.00    -0.027 CG0
ATOM      9  G   UNL     1     164.467 167.039 199.079  1.00  0.00     0.000 G0
ENDBRANCH   5   6
ENDBRANCH   4   5
ENDBRANCH   3   4
ENDBRANCH   1   3
BRANCH   1  10
ATOM     10  C   UNL     1     166.649 170.034 199.072  1.00  0.00     0.057 C 
BRANCH  10  11
ATOM     11  C   UNL     1     165.583 170.040 200.141  1.00  0.00    -0.026 C 
ATOM     12  C   UNL     1     164.391 169.394 200.160  1.00  0.00    -0.024 C 
BRANCH  12  13
ATOM     13  C   UNL     1     163.771 168.451 199.122  1.00  0.00    -0.014 C 
ATOM     14  C   UNL     1     162.280 168.249 199.493  1.00  0.00     0.016 C 
ATOM     15  C   UNL     1     163.805 169.083 197.711  1.00  0.00     0.016 C 
BRANCH  13  16
ATOM     16  C   UNL     1     164.477 167.063 199.079  1.00  0.00     0.038 CG0
ATOM     17  G   UNL     1     164.817 166.431 200.414  1.00  0.00     0.000 G0
ENDBRANCH  13  16
ENDBRANCH  12  13
ENDBRANCH  10  11
ENDBRANCH   1  10
TORSDOF 0
ENDMDL
MODEL 4
REMARK VINA RESULT:    -3.621      2.393      4.671
REMARK INTER + INTRA:          -4.924
REMARK INTER:                  -5.154
REMARK INTRA:                   0.230
REMARK UNBOUND:                 0.390
REMARK SMILES C=C1CC=CC(C)(C)CC=C(C)CCC1
REMARK SMILES IDX 2 1 1 2 15 3 14 4 13 5 11 6 12 7 10 8 3 10 4 11 5 12 6 13
REMARK SMILES IDX 7 14 8 15 9 16
REMARK H PARENT
REMARK Flexibility Score: 60.00
ROOT
ATOM      1  C   UNL     1     163.087 164.423 201.557  1.00  0.00    -0.074 C 
ATOM      2  C   UNL     1     162.645 164.971 202.701  1.00  0.00     0.008 C 
ENDROOT
BRANCH   1   3
ATOM      3  C   UNL     1     162.551 164.940 200.235  1.00  0.00     0.031 C 
BRANCH   3   4
ATOM      4  C   UNL     1     162.768 166.460 200.056  1.00  0.00     0.009 C 
BRANCH   4   5
ATOM      5  C   UNL     1     164.263 166.832 199.975  1.00  0.00     0.030 C 
BRANCH   5   6
ATOM      6  C   UNL     1     164.947 166.421 198.682  1.00  0.00    -0.077 C 
ATOM      7  C   UNL     1     164.455 167.022 197.388  1.00  0.00     0.039 C 
ATOM      8  C   UNL     1     166.032 165.608 198.619  1.00  0.00    -0.027 CG0
ATOM      9  G   UNL     1     166.634 164.792 199.747  1.00  0.00     0.000 G0
ENDBRANCH   5   6
ENDBRANCH   4   5
ENDBRANCH   3   4
ENDBRANCH   1   3
BRANCH   1  10
ATOM     10  C   UNL     1     164.241 163.440 201.604  1.00  0.00     0.057 C 
BRANCH  10  11
ATOM     11  C   UNL     1     164.396 162.614 200.350  1.00  0.00    -0.026 C 
ATOM     12  C   UNL     1     165.450 162.547 199.499  1.00  0.00    -0.024 C 
BRANCH  12  13
ATOM     13  C   UNL     1     166.803 163.265 199.556  1.00  0.00    -0.014 C 
ATOM     14  C   UNL     1     167.606 162.674 200.742  1.00  0.00     0.016 C 
ATOM     15  C   UNL     1     167.625 162.995 198.273  1.00  0.00     0.016 C 
BRANCH  13  16
ATOM     16  C   UNL     1     166.656 164.802 199.756  1.00  0.00     0.038 CG0
ATOM     17  G   UNL     1     166.034 165.581 198.614  1.00  0.00     0.000 G0
ENDBRANCH  13  16
ENDBRANCH  12  13
ENDBRANCH  10  11
ENDBRANCH   1  10
TORSDOF 0
ENDMDL
MODEL 5
REMARK VINA RESULT:    -3.601      1.751      4.081
REMARK INTER + INTRA:          -4.895
REMARK INTER:                  -5.301
REMARK INTRA:                   0.406
REMARK UNBOUND:                 0.390
REMARK SMILES C=C1CC=CC(C)(C)CC=C(C)CCC1
REMARK SMILES IDX 2 1 1 2 15 3 14 4 13 5 11 6 12 7 10 8 3 10 4 11 5 12 6 13
REMARK SMILES IDX 7 14 8 15 9 16
REMARK H PARENT
REMARK Flexibility Score: 60.00
ROOT
ATOM      1  C   UNL     1     167.805 163.143 197.973  1.00  0.00    -0.074 C 
ATOM      2  C   UNL     1     168.500 163.971 197.174  1.00  0.00     0.008 C 
ENDROOT
BRANCH   1   3
ATOM      3  C   UNL     1     168.472 162.588 199.219  1.00  0.00     0.031 C 
BRANCH   3   4
ATOM      4  C   UNL     1     169.515 163.558 199.820  1.00  0.00     0.009 C 
BRANCH   4   5
ATOM      5  C   UNL     1     168.864 164.652 200.691  1.00  0.00     0.030 C 
BRANCH   5   6
ATOM      6  C   UNL     1     167.949 164.128 201.784  1.00  0.00    -0.077 C 
ATOM      7  C   UNL     1     168.575 163.474 202.992  1.00  0.00     0.039 C 
ATOM      8  C   UNL     1     166.600 164.283 201.788  1.00  0.00    -0.027 CG0
ATOM      9  G   UNL     1     165.732 164.789 200.653  1.00  0.00     0.000 G0
ENDBRANCH   5   6
ENDBRANCH   4   5
ENDBRANCH   3   4
ENDBRANCH   1   3
BRANCH   1  10
ATOM     10  C   UNL     1     166.325 162.935 197.717  1.00  0.00     0.057 C 
BRANCH  10  11
ATOM     11  C   UNL     1     165.631 162.102 198.768  1.00  0.00    -0.026 C 
ATOM     12  C   UNL     1     164.890 162.512 199.827  1.00  0.00    -0.024 C 
BRANCH  12  13
ATOM     13  C   UNL     1     164.513 163.930 200.271  1.00  0.00    -0.014 C 
ATOM     14  C   UNL     1     163.763 164.613 199.099  1.00  0.00     0.016 C 
ATOM     15  C   UNL     1     163.539 163.894 201.472  1.00  0.00     0.016 C 
BRANCH  13  16
ATOM     16  C   UNL     1     165.757 164.789 200.646  1.00  0.00     0.038 CG0
ATOM     17  G   UNL     1     166.603 164.292 201.802  1.00  0.00     0.000 G0
ENDBRANCH  13  16
ENDBRANCH  12  13
ENDBRANCH  10  11
ENDBRANCH   1  10
TORSDOF 0
ENDMDL
MODEL 6
REMARK VINA RESULT:    -3.544      1.444      3.617
REMARK INTER + INTRA:          -4.811
REMARK INTER:                  -5.101
REMARK INTRA:                   0.291
REMARK UNBOUND:                 0.390
REMARK SMILES C=C1CC=CC(C)(C)CC=C(C)CCC1
REMARK SMILES IDX 2 1 1 2 15 3 14 4 13 5 11 6 12 7 10 8 3 10 4 11 5 12 6 13
REMARK SMILES IDX 7 14 8 15 9 16
REMARK H PARENT
REMARK Flexibility Score: 60.00
ROOT
ATOM      1  C   UNL     1     167.835 162.724 199.205  1.00  0.00    -0.074 C 
ATOM      2  C   UNL     1     167.655 163.006 197.903  1.00  0.00     0.008 C 
ENDROOT
BRANCH   1   3
ATOM      3  C   UNL     1     169.131 163.138 199.877  1.00  0.00     0.031 C 
BRANCH   3   4
ATOM      4  C   UNL     1     169.461 164.634 199.666  1.00  0.00     0.009 C 
BRANCH   4   5
ATOM      5  C   UNL     1     168.720 165.543 200.668  1.00  0.00     0.030 C 
BRANCH   5   6
ATOM      6  C   UNL     1     167.448 166.174 200.127  1.00  0.00    -0.077 C 
ATOM      7  C   UNL     1     167.562 167.147 198.979  1.00  0.00     0.039 C 
ATOM      8  C   UNL     1     166.199 165.856 200.553  1.00  0.00    -0.027 CG0
ATOM      9  G   UNL     1     165.828 165.011 201.756  1.00  0.00     0.000 G0
ENDBRANCH   5   6
ENDBRANCH   4   5
ENDBRANCH   3   4
ENDBRANCH   1   3
BRANCH   1  10
ATOM     10  C   UNL     1     166.674 162.175 200.011  1.00  0.00     0.057 C 
BRANCH  10  11
ATOM     11  C   UNL     1     165.323 162.676 199.561  1.00  0.00    -0.026 C 
ATOM     12  C   UNL     1     164.443 163.467 200.226  1.00  0.00    -0.024 C 
BRANCH  12  13
ATOM     13  C   UNL     1     164.555 164.106 201.615  1.00  0.00    -0.014 C 
ATOM     14  C   UNL     1     163.280 164.955 201.852  1.00  0.00     0.016 C 
ATOM     15  C   UNL     1     164.591 163.024 202.720  1.00  0.00     0.016 C 
BRANCH  13  16
ATOM     16  C   UNL     1     165.808 165.021 201.752  1.00  0.00     0.038 CG0
ATOM     17  G   UNL     1     166.172 165.862 200.545  1.00  0.00     0.000 G0
ENDBRANCH  13  16
ENDBRANCH  12  13
ENDBRANCH  10  11
ENDBRANCH   1  10
TORSDOF 0
ENDMDL
MODEL 7
REMARK VINA RESULT:    -3.517      2.794      4.533
REMARK INTER + INTRA:          -4.772
REMARK INTER:                  -5.046
REMARK INTRA:                   0.274
REMARK UNBOUND:                 0.390
REMARK SMILES C=C1CC=CC(C)(C)CC=C(C)CCC1
REMARK SMILES IDX 2 1 1 2 15 3 14 4 13 5 11 6 12 7 10 8 3 10 4 11 5 12 6 13
REMARK SMILES IDX 7 14 8 15 9 16
REMARK H PARENT
REMARK Flexibility Score: 60.00
ROOT
ATOM      1  C   UNL     1     163.434 168.225 200.773  1.00  0.00    -0.074 C 
ATOM      2  C   UNL     1     162.607 168.431 199.734  1.00  0.00     0.008 C 
ENDROOT
BRANCH   1   3
ATOM      3  C   UNL     1     163.410 166.882 201.480  1.00  0.00     0.031 C 
BRANCH   3   4
ATOM      4  C   UNL     1     163.058 165.714 200.531  1.00  0.00     0.009 C 
BRANCH   4   5
ATOM      5  C   UNL     1     164.308 164.930 200.079  1.00  0.00     0.030 C 
BRANCH   5   6
ATOM      6  C   UNL     1     164.970 165.469 198.822  1.00  0.00    -0.077 C 
ATOM      7  C   UNL     1     164.447 165.012 197.483  1.00  0.00     0.039 C 
ATOM      8  C   UNL     1     165.954 166.404 198.822  1.00  0.00    -0.027 CG0
ATOM      9  G   UNL     1     166.725 166.926 200.019  1.00  0.00     0.000 G0
ENDBRANCH   5   6
ENDBRANCH   4   5
ENDBRANCH   3   4
ENDBRANCH   1   3
BRANCH   1  10
ATOM     10  C   UNL     1     164.495 169.260 201.090  1.00  0.00     0.057 C 
BRANCH  10  11
ATOM     11  C   UNL     1     165.233 169.775 199.878  1.00  0.00    -0.026 C 
ATOM     12  C   UNL     1     166.441 169.395 199.390  1.00  0.00    -0.024 C 
BRANCH  12  13
ATOM     13  C   UNL     1     167.411 168.324 199.901  1.00  0.00    -0.014 C 
ATOM     14  C   UNL     1     168.592 168.236 198.901  1.00  0.00     0.016 C 
ATOM     15  C   UNL     1     168.006 168.725 201.271  1.00  0.00     0.016 C 
BRANCH  13  16
ATOM     16  C   UNL     1     166.743 166.922 200.023  1.00  0.00     0.038 CG0
ATOM     17  G   UNL     1     165.961 166.434 198.820  1.00  0.00     0.000 G0
ENDBRANCH  13  16
ENDBRANCH  12  13
ENDBRANCH  10  11
ENDBRANCH   1  10
TORSDOF 0
ENDMDL
MODEL 8
REMARK VINA RESULT:    -3.469      2.315      4.339
REMARK INTER + INTRA:          -4.701
REMARK INTER:                  -4.986
REMARK INTRA:                   0.286
REMARK UNBOUND:                 0.390
REMARK SMILES C=C1CC=CC(C)(C)CC=C(C)CCC1
REMARK SMILES IDX 2 1 1 2 15 3 14 4 13 5 11 6 12 7 10 8 3 10 4 11 5 12 6 13
REMARK SMILES IDX 7 14 8 15 9 16
REMARK H PARENT
REMARK Flexibility Score: 60.00
ROOT
ATOM      1  C   UNL     1     168.717 167.758 201.369  1.00  0.00    -0.074 C 
ATOM      2  C   UNL     1     168.892 167.080 202.516  1.00  0.00     0.008 C 
ENDROOT
BRANCH   1   3
ATOM      3  C   UNL     1     169.337 167.222 200.093  1.00  0.00     0.031 C 
BRANCH   3   4
ATOM      4  C   UNL     1     169.250 165.682 199.987  1.00  0.00     0.009 C 
BRANCH   4   5
ATOM      5  C   UNL     1     167.804 165.192 199.767  1.00  0.00     0.030 C 
BRANCH   5   6
ATOM      6  C   UNL     1     167.170 165.659 198.467  1.00  0.00    -0.077 C 
ATOM      7  C   UNL     1     167.784 165.204 197.165  1.00  0.00     0.039 C 
ATOM      8  C   UNL     1     166.031 166.395 198.397  1.00  0.00    -0.027 CG0
ATOM      9  G   UNL     1     165.302 167.068 199.542  1.00  0.00     0.000 G0
ENDBRANCH   5   6
ENDBRANCH   4   5
ENDBRANCH   3   4
ENDBRANCH   1   3
BRANCH   1  10
ATOM     10  C   UNL     1     167.754 168.930 201.342  1.00  0.00     0.057 C 
BRANCH  10  11
ATOM     11  C   UNL     1     167.509 169.490 199.962  1.00  0.00    -0.026 C 
ATOM     12  C   UNL     1     166.417 169.353 199.169  1.00  0.00    -0.024 C 
BRANCH  12  13
ATOM     13  C   UNL     1     165.100 168.614 199.432  1.00  0.00    -0.014 C 
ATOM     14  C   UNL     1     164.518 169.139 200.769  1.00  0.00     0.016 C 
ATOM     15  C   UNL     1     164.060 168.929 198.331  1.00  0.00     0.016 C 
BRANCH  13  16
ATOM     16  C   UNL     1     165.290 167.072 199.531  1.00  0.00     0.038 CG0
ATOM     17  G   UNL     1     166.011 166.400 198.379  1.00  0.00     0.000 G0
ENDBRANCH  13  16
ENDBRANCH  12  13
ENDBRANCH  10  11
ENDBRANCH   1  10
TORSDOF 0
ENDMDL
MODEL 9
REMARK VINA RESULT:    -3.415      1.696      4.054
REMARK INTER + INTRA:          -4.622
REMARK INTER:                  -5.107
REMARK INTRA:                   0.485
REMARK UNBOUND:                 0.390
REMARK SMILES C=C1CC=CC(C)(C)CC=C(C)CCC1
REMARK SMILES IDX 2 1 1 2 15 3 14 4 13 5 11 6 12 7 10 8 3 10 4 11 5 12 6 13
REMARK SMILES IDX 7 14 8 15 9 16
REMARK H PARENT
REMARK Flexibility Score: 60.00
ROOT
ATOM      1  C   UNL     1     165.059 162.296 198.817  1.00  0.00    -0.074 C 
ATOM      2  C   UNL     1     165.126 162.409 197.480  1.00  0.00     0.008 C 
ENDROOT
BRANCH   1   3
ATOM      3  C   UNL     1     166.341 162.111 199.608  1.00  0.00     0.031 C 
BRANCH   3   4
ATOM      4  C   UNL     1     167.563 162.767 198.926  1.00  0.00     0.009 C 
BRANCH   4   5
ATOM      5  C   UNL     1     167.386 164.289 198.746  1.00  0.00     0.030 C 
BRANCH   5   6
ATOM      6  C   UNL     1     167.364 165.080 200.043  1.00  0.00    -0.077 C 
ATOM      7  C   UNL     1     168.614 165.108 200.888  1.00  0.00     0.039 C 
ATOM      8  C   UNL     1     166.315 165.837 200.455  1.00  0.00    -0.027 CG0
ATOM      9  G   UNL     1     164.923 165.879 199.856  1.00  0.00     0.000 G0
ENDBRANCH   5   6
ENDBRANCH   4   5
ENDBRANCH   3   4
ENDBRANCH   1   3
BRANCH   1  10
ATOM     10  C   UNL     1     163.736 162.546 199.516  1.00  0.00     0.057 C 
BRANCH  10  11
ATOM     11  C   UNL     1     163.873 162.963 200.960  1.00  0.00    -0.026 C 
ATOM     12  C   UNL     1     163.877 164.212 201.489  1.00  0.00    -0.024 C 
BRANCH  12  13
ATOM     13  C   UNL     1     163.725 165.571 200.796  1.00  0.00    -0.014 C 
ATOM     14  C   UNL     1     162.413 165.541 199.971  1.00  0.00     0.016 C 
ATOM     15  C   UNL     1     163.581 166.708 201.836  1.00  0.00     0.016 C 
BRANCH  13  16
ATOM     16  C   UNL     1     164.916 165.894 199.846  1.00  0.00     0.038 CG0
ATOM     17  G   UNL     1     166.304 165.850 200.455  1.00  0.00     0.000 G0
ENDBRANCH  13  16
ENDBRANCH  12  13
ENDBRANCH  10  11
ENDBRANCH   1  10
TORSDOF 0
ENDMDL
