MODEL 1
REMARK VINA RESULT:    -5.625      0.000      0.000
REMARK INTER + INTRA:          -8.081
REMARK INTER:                  -6.940
REMARK INTRA:                  -1.141
REMARK UNBOUND:                -1.141
REMARK SMILES CC(C)=CCC[C@H](C)c1ccc(C)cc1
REMARK SMILES IDX 6 1 7 2 8 3 9 4 13 5 12 6 11 7 14 8 10 9 15 10 5 11 4 12
REMARK SMILES IDX 2 13 1 14 3 15
REMARK H PARENT
REMARK Flexibility Score: inf
ROOT
ATOM      1  C   UNL     1     -28.329  -9.291  21.206  1.00  0.00     0.012 C 
ENDROOT
BRANCH   1   2
ATOM      2  C   UNL     1     -27.983  -9.628  22.677  1.00  0.00     0.016 C 
ATOM      3  C   UNL     1     -28.057  -8.397  23.594  1.00  0.00     0.013 C 
BRANCH   2   4
ATOM      4  C   UNL     1     -26.606 -10.266  22.757  1.00  0.00    -0.045 A 
ATOM      5  C   UNL     1     -22.707 -12.107  23.007  1.00  0.00     0.044 C 
ATOM      6  C   UNL     1     -24.067 -11.485  22.895  1.00  0.00    -0.051 A 
ATOM      7  C   UNL     1     -24.244 -10.298  22.169  1.00  0.00     0.004 A 
ATOM      8  C   UNL     1     -25.160 -12.048  23.569  1.00  0.00     0.004 A 
ATOM      9  C   UNL     1     -25.503  -9.697  22.094  1.00  0.00     0.004 A 
ATOM     10  C   UNL     1     -26.420 -11.448  23.496  1.00  0.00     0.004 A 
ENDBRANCH   2   4
ENDBRANCH   1   2
BRANCH   1  11
ATOM     11  C   UNL     1     -28.447  -7.784  20.914  1.00  0.00     0.028 C 
BRANCH  11  12
ATOM     12  C   UNL     1     -27.395  -7.303  19.943  1.00  0.00    -0.028 C 
ATOM     13  C   UNL     1     -26.333  -6.536  20.277  1.00  0.00    -0.080 C 
ATOM     14  C   UNL     1     -26.124  -6.022  21.682  1.00  0.00     0.039 C 
ATOM     15  C   UNL     1     -25.347  -6.168  19.199  1.00  0.00     0.039 C 
ENDBRANCH  11  12
ENDBRANCH   1  11
TORSDOF 4
ENDMDL
MODEL 2
REMARK VINA RESULT:    -5.612      0.189      1.265
REMARK INTER + INTRA:          -8.065
REMARK INTER:                  -7.014
REMARK INTRA:                  -1.051
REMARK UNBOUND:                -1.141
REMARK SMILES CC(C)=CCC[C@H](C)c1ccc(C)cc1
REMARK SMILES IDX 6 1 7 2 8 3 9 4 13 5 12 6 11 7 14 8 10 9 15 10 5 11 4 12
REMARK SMILES IDX 2 13 1 14 3 15
REMARK H PARENT
REMARK Flexibility Score: inf
ROOT
ATOM      1  C   UNL     1     -28.369  -9.374  21.234  1.00  0.00     0.012 C 
ENDROOT
BRANCH   1   2
ATOM      2  C   UNL     1     -27.961  -9.594  22.711  1.00  0.00     0.016 C 
ATOM      3  C   UNL     1     -27.962  -8.287  23.521  1.00  0.00     0.013 C 
BRANCH   2   4
ATOM      4  C   UNL     1     -26.598 -10.261  22.784  1.00  0.00    -0.045 A 
ATOM      5  C   UNL     1     -22.708 -12.130  22.968  1.00  0.00     0.044 C 
ATOM      6  C   UNL     1     -24.051 -11.464  22.929  1.00  0.00    -0.051 A 
ATOM      7  C   UNL     1     -25.145 -12.040  23.593  1.00  0.00     0.004 A 
ATOM      8  C   UNL     1     -24.241 -10.297  22.175  1.00  0.00     0.004 A 
ATOM      9  C   UNL     1     -26.405 -11.440  23.528  1.00  0.00     0.004 A 
ATOM     10  C   UNL     1     -25.500  -9.697  22.108  1.00  0.00     0.004 A 
ENDBRANCH   2   4
ENDBRANCH   1   2
BRANCH   1  11
ATOM     11  C   UNL     1     -28.485  -7.895  20.824  1.00  0.00     0.028 C 
BRANCH  11  12
ATOM     12  C   UNL     1     -27.355  -7.457  19.924  1.00  0.00    -0.028 C 
ATOM     13  C   UNL     1     -26.481  -6.466  20.213  1.00  0.00    -0.080 C 
ATOM     14  C   UNL     1     -26.593  -5.639  21.472  1.00  0.00     0.039 C 
ATOM     15  C   UNL     1     -25.381  -6.171  19.228  1.00  0.00     0.039 C 
ENDBRANCH  11  12
ENDBRANCH   1  11
TORSDOF 4
ENDMDL
MODEL 3
REMARK VINA RESULT:    -5.610     11.280     14.259
REMARK INTER + INTRA:          -8.062
REMARK INTER:                  -7.228
REMARK INTRA:                  -0.835
REMARK UNBOUND:                -1.141
REMARK SMILES CC(C)=CCC[C@H](C)c1ccc(C)cc1
REMARK SMILES IDX 6 1 7 2 8 3 9 4 13 5 12 6 11 7 14 8 10 9 15 10 5 11 4 12
REMARK SMILES IDX 2 13 1 14 3 15
REMARK H PARENT
REMARK Flexibility Score: inf
ROOT
ATOM      1  C   UNL     1     -36.526  -0.739  15.360  1.00  0.00     0.012 C 
ENDROOT
BRANCH   1   2
ATOM      2  C   UNL     1     -36.510   0.046  16.695  1.00  0.00     0.016 C 
ATOM      3  C   UNL     1     -36.807   1.542  16.499  1.00  0.00     0.013 C 
BRANCH   2   4
ATOM      4  C   UNL     1     -35.175  -0.141  17.395  1.00  0.00    -0.045 A 
ATOM      5  C   UNL     1     -31.363  -0.677  19.355  1.00  0.00     0.044 C 
ATOM      6  C   UNL     1     -32.682  -0.460  18.674  1.00  0.00    -0.051 A 
ATOM      7  C   UNL     1     -33.852  -0.311  19.433  1.00  0.00     0.004 A 
ATOM      8  C   UNL     1     -32.766  -0.471  17.275  1.00  0.00     0.004 A 
ATOM      9  C   UNL     1     -35.087  -0.145  18.800  1.00  0.00     0.004 A 
ATOM     10  C   UNL     1     -34.000  -0.306  16.640  1.00  0.00     0.004 A 
ENDBRANCH   2   4
ENDBRANCH   1   2
BRANCH   1  11
ATOM     11  C   UNL     1     -37.361  -2.032  15.398  1.00  0.00     0.028 C 
BRANCH  11  12
ATOM     12  C   UNL     1     -38.786  -1.784  15.831  1.00  0.00    -0.028 C 
ATOM     13  C   UNL     1     -39.353  -2.300  16.944  1.00  0.00    -0.080 C 
ATOM     14  C   UNL     1     -38.611  -3.250  17.855  1.00  0.00     0.039 C 
ATOM     15  C   UNL     1     -40.778  -1.928  17.262  1.00  0.00     0.039 C 
ENDBRANCH  11  12
ENDBRANCH   1  11
TORSDOF 4
ENDMDL
MODEL 4
REMARK VINA RESULT:    -5.531      1.514      3.067
REMARK INTER + INTRA:          -7.966
REMARK INTER:                  -6.844
REMARK INTRA:                  -1.122
REMARK UNBOUND:                -1.141
REMARK SMILES CC(C)=CCC[C@H](C)c1ccc(C)cc1
REMARK SMILES IDX 6 1 7 2 8 3 9 4 13 5 12 6 11 7 14 8 10 9 15 10 5 11 4 12
REMARK SMILES IDX 2 13 1 14 3 15
REMARK H PARENT
REMARK Flexibility Score: inf
ROOT
ATOM      1  C   UNL     1     -25.767  -7.974  20.637  1.00  0.00     0.012 C 
ENDROOT
BRANCH   1   2
ATOM      2  C   UNL     1     -25.681  -7.845  22.178  1.00  0.00     0.016 C 
ATOM      3  C   UNL     1     -24.919  -6.585  22.619  1.00  0.00     0.013 C 
BRANCH   2   4
ATOM      4  C   UNL     1     -25.040  -9.087  22.772  1.00  0.00    -0.045 A 
ATOM      5  C   UNL     1     -23.228 -12.609  24.496  1.00  0.00     0.044 C 
ATOM      6  C   UNL     1     -23.884 -11.402  23.894  1.00  0.00    -0.051 A 
ATOM      7  C   UNL     1     -23.793 -11.163  22.514  1.00  0.00     0.004 A 
ATOM      8  C   UNL     1     -24.535 -10.468  24.712  1.00  0.00     0.004 A 
ATOM      9  C   UNL     1     -24.372 -10.020  21.957  1.00  0.00     0.004 A 
ATOM     10  C   UNL     1     -25.115  -9.325  24.157  1.00  0.00     0.004 A 
ENDBRANCH   2   4
ENDBRANCH   1   2
BRANCH   1  11
ATOM     11  C   UNL     1     -27.135  -8.450  20.118  1.00  0.00     0.028 C 
BRANCH  11  12
ATOM     12  C   UNL     1     -28.242  -8.219  21.118  1.00  0.00    -0.028 C 
ATOM     13  C   UNL     1     -28.805  -9.184  21.880  1.00  0.00    -0.080 C 
ATOM     14  C   UNL     1     -28.409 -10.637  21.755  1.00  0.00     0.039 C 
ATOM     15  C   UNL     1     -29.876  -8.789  22.863  1.00  0.00     0.039 C 
ENDBRANCH  11  12
ENDBRANCH   1  11
TORSDOF 4
ENDMDL
MODEL 5
REMARK VINA RESULT:    -5.461     10.262     13.497
REMARK INTER + INTRA:          -7.880
REMARK INTER:                  -6.802
REMARK INTRA:                  -1.078
REMARK UNBOUND:                -1.141
REMARK SMILES CC(C)=CCC[C@H](C)c1ccc(C)cc1
REMARK SMILES IDX 6 1 7 2 8 3 9 4 13 5 12 6 11 7 14 8 10 9 15 10 5 11 4 12
REMARK SMILES IDX 2 13 1 14 3 15
REMARK H PARENT
REMARK Flexibility Score: inf
ROOT
ATOM      1  C   UNL     1     -35.353   0.333  19.853  1.00  0.00     0.012 C 
ENDROOT
BRANCH   1   2
ATOM      2  C   UNL     1     -35.172   1.197  18.580  1.00  0.00     0.016 C 
ATOM      3  C   UNL     1     -36.236   2.300  18.464  1.00  0.00     0.013 C 
BRANCH   2   4
ATOM      4  C   UNL     1     -35.185   0.315  17.343  1.00  0.00    -0.045 A 
ATOM      5  C   UNL     1     -35.184  -2.193  13.827  1.00  0.00     0.044 C 
ATOM      6  C   UNL     1     -35.186  -1.348  15.066  1.00  0.00    -0.051 A 
ATOM      7  C   UNL     1     -36.395  -0.867  15.591  1.00  0.00     0.004 A 
ATOM      8  C   UNL     1     -33.977  -0.976  15.670  1.00  0.00     0.004 A 
ATOM      9  C   UNL     1     -36.395  -0.049  16.724  1.00  0.00     0.004 A 
ATOM     10  C   UNL     1     -33.976  -0.158  16.802  1.00  0.00     0.004 A 
ENDBRANCH   2   4
ENDBRANCH   1   2
BRANCH   1  11
ATOM     11  C   UNL     1     -34.046   0.046  20.613  1.00  0.00     0.028 C 
BRANCH  11  12
ATOM     12  C   UNL     1     -33.537  -1.355  20.372  1.00  0.00    -0.028 C 
ATOM     13  C   UNL     1     -32.339  -1.654  19.822  1.00  0.00    -0.080 C 
ATOM     14  C   UNL     1     -31.393  -0.584  19.328  1.00  0.00     0.039 C 
ATOM     15  C   UNL     1     -31.956  -3.104  19.681  1.00  0.00     0.039 C 
ENDBRANCH  11  12
ENDBRANCH   1  11
TORSDOF 4
ENDMDL
MODEL 6
REMARK VINA RESULT:    -5.421     10.051     12.899
REMARK INTER + INTRA:          -7.830
REMARK INTER:                  -7.077
REMARK INTRA:                  -0.753
REMARK UNBOUND:                -1.141
REMARK SMILES CC(C)=CCC[C@H](C)c1ccc(C)cc1
REMARK SMILES IDX 6 1 7 2 8 3 9 4 13 5 12 6 11 7 14 8 10 9 15 10 5 11 4 12
REMARK SMILES IDX 2 13 1 14 3 15
REMARK H PARENT
REMARK Flexibility Score: inf
ROOT
ATOM      1  C   UNL     1     -35.155   0.696  17.265  1.00  0.00     0.012 C 
ENDROOT
BRANCH   1   2
ATOM      2  C   UNL     1     -33.747   0.165  16.898  1.00  0.00     0.016 C 
ATOM      3  C   UNL     1     -33.801  -0.981  15.875  1.00  0.00     0.013 C 
BRANCH   2   4
ATOM      4  C   UNL     1     -33.012  -0.279  18.151  1.00  0.00    -0.045 A 
ATOM      5  C   UNL     1     -30.955  -1.545  21.732  1.00  0.00     0.044 C 
ATOM      6  C   UNL     1     -31.670  -1.136  20.479  1.00  0.00    -0.051 A 
ATOM      7  C   UNL     1     -30.942  -0.765  19.338  1.00  0.00     0.004 A 
ATOM      8  C   UNL     1     -33.070  -1.056  20.458  1.00  0.00     0.004 A 
ATOM      9  C   UNL     1     -31.607  -0.347  18.182  1.00  0.00     0.004 A 
ATOM     10  C   UNL     1     -33.736  -0.638  19.303  1.00  0.00     0.004 A 
ENDBRANCH   2   4
ENDBRANCH   1   2
BRANCH   1  11
ATOM     11  C   UNL     1     -36.253   0.327  16.252  1.00  0.00     0.028 C 
BRANCH  11  12
ATOM     12  C   UNL     1     -37.285  -0.607  16.837  1.00  0.00    -0.028 C 
ATOM     13  C   UNL     1     -37.676  -1.772  16.273  1.00  0.00    -0.080 C 
ATOM     14  C   UNL     1     -37.146  -2.233  14.935  1.00  0.00     0.039 C 
ATOM     15  C   UNL     1     -38.691  -2.615  16.999  1.00  0.00     0.039 C 
ENDBRANCH  11  12
ENDBRANCH   1  11
TORSDOF 4
ENDMDL
MODEL 7
REMARK VINA RESULT:    -5.398      1.160      5.358
REMARK INTER + INTRA:          -7.801
REMARK INTER:                  -7.112
REMARK INTRA:                  -0.689
REMARK UNBOUND:                -1.141
REMARK SMILES CC(C)=CCC[C@H](C)c1ccc(C)cc1
REMARK SMILES IDX 6 1 7 2 8 3 9 4 13 5 12 6 11 7 14 8 10 9 15 10 5 11 4 12
REMARK SMILES IDX 2 13 1 14 3 15
REMARK H PARENT
REMARK Flexibility Score: inf
ROOT
ATOM      1  C   UNL     1     -26.817 -10.120  23.713  1.00  0.00     0.012 C 
ENDROOT
BRANCH   1   2
ATOM      2  C   UNL     1     -27.761  -9.611  22.596  1.00  0.00     0.016 C 
ATOM      3  C   UNL     1     -28.326 -10.756  21.740  1.00  0.00     0.013 C 
BRANCH   2   4
ATOM      4  C   UNL     1     -27.038  -8.602  21.720  1.00  0.00    -0.045 A 
ATOM      5  C   UNL     1     -24.952  -5.738  19.250  1.00  0.00     0.044 C 
ATOM      6  C   UNL     1     -25.668  -6.755  20.088  1.00  0.00    -0.051 A 
ATOM      7  C   UNL     1     -27.025  -7.029  19.862  1.00  0.00     0.004 A 
ATOM      8  C   UNL     1     -25.005  -7.392  21.147  1.00  0.00     0.004 A 
ATOM      9  C   UNL     1     -27.703  -7.949  20.665  1.00  0.00     0.004 A 
ATOM     10  C   UNL     1     -25.681  -8.312  21.952  1.00  0.00     0.004 A 
ENDBRANCH   2   4
ENDBRANCH   1   2
BRANCH   1  11
ATOM     11  C   UNL     1     -26.190 -11.497  23.432  1.00  0.00     0.028 C 
BRANCH  11  12
ATOM     12  C   UNL     1     -25.070 -11.826  24.391  1.00  0.00    -0.028 C 
ATOM     13  C   UNL     1     -23.769 -11.939  24.044  1.00  0.00    -0.080 C 
ATOM     14  C   UNL     1     -23.305 -11.803  22.613  1.00  0.00     0.039 C 
ATOM     15  C   UNL     1     -22.762 -12.235  25.125  1.00  0.00     0.039 C 
ENDBRANCH  11  12
ENDBRANCH   1  11
TORSDOF 4
ENDMDL
MODEL 8
REMARK VINA RESULT:    -5.335     10.739     13.137
REMARK INTER + INTRA:          -7.723
REMARK INTER:                  -6.735
REMARK INTRA:                  -0.989
REMARK UNBOUND:                -1.141
REMARK SMILES CC(C)=CCC[C@H](C)c1ccc(C)cc1
REMARK SMILES IDX 6 1 7 2 8 3 9 4 13 5 12 6 11 7 14 8 10 9 15 10 5 11 4 12
REMARK SMILES IDX 2 13 1 14 3 15
REMARK H PARENT
REMARK Flexibility Score: inf
ROOT
ATOM      1  C   UNL     1     -29.132 -10.021   8.703  1.00  0.00     0.012 C 
ENDROOT
BRANCH   1   2
ATOM      2  C   UNL     1     -27.762  -9.339   8.463  1.00  0.00     0.016 C 
ATOM      3  C   UNL     1     -26.719 -10.308   7.884  1.00  0.00     0.013 C 
BRANCH   2   4
ATOM      4  C   UNL     1     -27.252  -8.722   9.754  1.00  0.00    -0.045 A 
ATOM      5  C   UNL     1     -25.767  -6.964  13.409  1.00  0.00     0.044 C 
ATOM      6  C   UNL     1     -26.289  -7.546  12.130  1.00  0.00    -0.051 A 
ATOM      7  C   UNL     1     -27.633  -7.934  12.026  1.00  0.00     0.004 A 
ATOM      8  C   UNL     1     -25.424  -7.768  11.049  1.00  0.00     0.004 A 
ATOM      9  C   UNL     1     -28.113  -8.510  10.847  1.00  0.00     0.004 A 
ATOM     10  C   UNL     1     -25.901  -8.344   9.869  1.00  0.00     0.004 A 
ENDBRANCH   2   4
ENDBRANCH   1   2
BRANCH   1  11
ATOM     11  C   UNL     1     -30.284  -9.432   7.869  1.00  0.00     0.028 C 
BRANCH  11  12
ATOM     12  C   UNL     1     -29.854  -8.232   7.061  1.00  0.00    -0.028 C 
ATOM     13  C   UNL     1     -30.224  -6.957   7.319  1.00  0.00    -0.080 C 
ATOM     14  C   UNL     1     -31.177  -6.610   8.438  1.00  0.00     0.039 C 
ATOM     15  C   UNL     1     -29.680  -5.861   6.441  1.00  0.00     0.039 C 
ENDBRANCH  11  12
ENDBRANCH   1  11
TORSDOF 4
ENDMDL
MODEL 9
REMARK VINA RESULT:    -5.271     12.479     14.998
REMARK INTER + INTRA:          -7.644
REMARK INTER:                  -7.031
REMARK INTRA:                  -0.614
REMARK UNBOUND:                -1.141
REMARK SMILES CC(C)=CCC[C@H](C)c1ccc(C)cc1
REMARK SMILES IDX 6 1 7 2 8 3 9 4 13 5 12 6 11 7 14 8 10 9 15 10 5 11 4 12
REMARK SMILES IDX 2 13 1 14 3 15
REMARK H PARENT
REMARK Flexibility Score: inf
ROOT
ATOM      1  C   UNL     1     -36.319   2.342  17.593  1.00  0.00     0.012 C 
ENDROOT
BRANCH   1   2
ATOM      2  C   UNL     1     -36.142   0.848  17.228  1.00  0.00     0.016 C 
ATOM      3  C   UNL     1     -37.322  -0.015  17.702  1.00  0.00     0.013 C 
BRANCH   2   4
ATOM      4  C   UNL     1     -34.837   0.320  17.799  1.00  0.00    -0.045 A 
ATOM      5  C   UNL     1     -31.142  -1.180  19.458  1.00  0.00     0.044 C 
ATOM      6  C   UNL     1     -32.435  -0.689  18.877  1.00  0.00    -0.051 A 
ATOM      7  C   UNL     1     -32.531  -0.405  17.506  1.00  0.00     0.004 A 
ATOM      8  C   UNL     1     -33.536  -0.446  19.709  1.00  0.00     0.004 A 
ATOM      9  C   UNL     1     -33.723   0.088  16.970  1.00  0.00     0.004 A 
ATOM     10  C   UNL     1     -34.729   0.048  19.175  1.00  0.00     0.004 A 
ENDBRANCH   2   4
ENDBRANCH   1   2
BRANCH   1  11
ATOM     11  C   UNL     1     -36.701   3.243  16.405  1.00  0.00     0.028 C 
BRANCH  11  12
ATOM     12  C   UNL     1     -37.978   2.797  15.734  1.00  0.00    -0.028 C 
ATOM     13  C   UNL     1     -39.220   3.175  16.114  1.00  0.00    -0.080 C 
ATOM     14  C   UNL     1     -39.457   4.056  17.317  1.00  0.00     0.039 C 
ATOM     15  C   UNL     1     -40.396   2.674  15.317  1.00  0.00     0.039 C 
ENDBRANCH  11  12
ENDBRANCH   1  11
TORSDOF 4
ENDMDL
