MODEL 1
REMARK VINA RESULT:    -6.737      0.000      0.000
REMARK INTER + INTRA:          -8.414
REMARK INTER:                  -8.115
REMARK INTRA:                  -0.299
REMARK UNBOUND:                -0.299
REMARK SMILES Oc1cc(O)c2c(c1)O[C@H](c1ccc(O)c(O)c1)[C@@H](O)C2
REMARK SMILES IDX 21 1 19 2 10 3 9 4 7 5 8 6 2 7 3 8 4 9 6 10 20 11 11 13
REMARK SMILES IDX 18 14 12 15 16 16 13 17 14 18 17 19 15 21 5 23 1 25
REMARK H PARENT 20 12 17 20 15 22 5 24 1 26
REMARK Flexibility Score: inf
ROOT
ATOM      1  C   UNL     1      -0.165 -29.384  -9.325  1.00  0.00     0.079 C 
ATOM      2  C   UNL     1      -0.512 -29.277 -10.822  1.00  0.00     0.164 C 
ATOM      3  C   UNL     1       0.263 -30.341 -11.616  1.00  0.00     0.232 C 
ATOM      4  O   UNL     1       1.663 -30.192 -11.385  1.00  0.00    -0.482 OA
ATOM      5  C   UNL     1       2.183 -29.863 -10.130  1.00  0.00     0.131 A 
ATOM      6  C   UNL     1       3.565 -29.920  -9.931  1.00  0.00     0.093 A 
ATOM      7  C   UNL     1       4.111 -29.610  -8.680  1.00  0.00     0.122 A 
ATOM      8  C   UNL     1       3.268 -29.255  -7.625  1.00  0.00     0.092 A 
ATOM      9  C   UNL     1       1.881 -29.194  -7.805  1.00  0.00     0.126 A 
ATOM     10  C   UNL     1       1.328 -29.461  -9.079  1.00  0.00     0.039 A 
ENDROOT
BRANCH   2  11
ATOM     11  O   UNL     1      -1.893 -29.460 -11.004  1.00  0.00    -0.389 OA
ATOM     12  H   UNL     1      -2.278 -29.639 -10.107  1.00  0.00     0.211 HD
ENDBRANCH   2  11
BRANCH   3  13
ATOM     13  C   UNL     1      -0.022 -30.232 -13.096  1.00  0.00    -0.001 A 
ATOM     14  C   UNL     1      -0.251 -31.385 -13.867  1.00  0.00     0.057 A 
ATOM     15  C   UNL     1      -0.015 -28.978 -13.727  1.00  0.00     0.012 A 
ATOM     16  C   UNL     1      -0.488 -31.288 -15.243  1.00  0.00     0.157 A 
ATOM     17  C   UNL     1      -0.251 -28.877 -15.100  1.00  0.00     0.050 A 
ATOM     18  C   UNL     1      -0.490 -30.028 -15.864  1.00  0.00     0.157 A 
BRANCH  16  19
ATOM     19  O   UNL     1      -0.716 -32.453 -15.975  1.00  0.00    -0.504 OA
ATOM     20  H   UNL     1      -1.649 -32.754 -16.229  1.00  0.00     0.293 HD
ENDBRANCH  16  19
BRANCH  18  21
ATOM     21  O   UNL     1      -0.727 -29.923 -17.233  1.00  0.00    -0.504 OA
ATOM     22  H   UNL     1      -1.408 -30.510 -17.701  1.00  0.00     0.293 HD
ENDBRANCH  18  21
ENDBRANCH   3  13
BRANCH   9  23
ATOM     23  O   UNL     1       1.090 -28.875  -6.700  1.00  0.00    -0.507 OA
ATOM     24  H   UNL     1       0.691 -27.958  -6.548  1.00  0.00     0.293 HD
ENDBRANCH   9  23
BRANCH   7  25
ATOM     25  O   UNL     1       5.488 -29.663  -8.474  1.00  0.00    -0.508 OA
ATOM     26  H   UNL     1       5.888 -30.181  -7.700  1.00  0.00     0.293 HD
ENDBRANCH   7  25
TORSDOF 6
ENDMDL
MODEL 2
REMARK VINA RESULT:    -5.465     13.813     15.929
REMARK INTER + INTRA:          -6.882
REMARK INTER:                  -6.524
REMARK INTRA:                  -0.359
REMARK UNBOUND:                -0.299
REMARK SMILES Oc1cc(O)c2c(c1)O[C@H](c1ccc(O)c(O)c1)[C@@H](O)C2
REMARK SMILES IDX 21 1 19 2 10 3 9 4 7 5 8 6 2 7 3 8 4 9 6 10 20 11 11 13
REMARK SMILES IDX 18 14 12 15 16 16 13 17 14 18 17 19 15 21 5 23 1 25
REMARK H PARENT 20 12 17 20 15 22 5 24 1 26
REMARK Flexibility Score: inf
ROOT
ATOM      1  C   UNL     1      10.461 -37.250 -21.901  1.00  0.00     0.079 C 
ATOM      2  C   UNL     1       9.092 -37.716 -21.370  1.00  0.00     0.164 C 
ATOM      3  C   UNL     1       9.198 -38.051 -19.873  1.00  0.00     0.232 C 
ATOM      4  O   UNL     1      10.208 -39.037 -19.669  1.00  0.00    -0.482 OA
ATOM      5  C   UNL     1      11.410 -39.037 -20.385  1.00  0.00     0.131 A 
ATOM      6  C   UNL     1      12.429 -39.913 -20.003  1.00  0.00     0.093 A 
ATOM      7  C   UNL     1      13.646 -39.922 -20.693  1.00  0.00     0.122 A 
ATOM      8  C   UNL     1      13.846 -39.043 -21.759  1.00  0.00     0.092 A 
ATOM      9  C   UNL     1      12.837 -38.156 -22.155  1.00  0.00     0.126 A 
ATOM     10  C   UNL     1      11.588 -38.175 -21.491  1.00  0.00     0.039 A 
ENDROOT
BRANCH   2  11
ATOM     11  O   UNL     1       8.137 -36.704 -21.564  1.00  0.00    -0.389 OA
ATOM     12  H   UNL     1       7.508 -36.754 -20.799  1.00  0.00     0.211 HD
ENDBRANCH   2  11
BRANCH   3  13
ATOM     13  C   UNL     1       7.880 -38.556 -19.333  1.00  0.00    -0.001 A 
ATOM     14  C   UNL     1       7.356 -39.788 -19.760  1.00  0.00     0.057 A 
ATOM     15  C   UNL     1       7.140 -37.775 -18.429  1.00  0.00     0.012 A 
ATOM     16  C   UNL     1       6.123 -40.244 -19.280  1.00  0.00     0.157 A 
ATOM     17  C   UNL     1       5.910 -38.226 -17.948  1.00  0.00     0.050 A 
ATOM     18  C   UNL     1       5.396 -39.461 -18.368  1.00  0.00     0.157 A 
BRANCH  16  19
ATOM     19  O   UNL     1       5.637 -41.474 -19.723  1.00  0.00    -0.504 OA
ATOM     20  H   UNL     1       5.275 -42.171 -19.083  1.00  0.00     0.293 HD
ENDBRANCH  16  19
BRANCH  18  21
ATOM     21  O   UNL     1       4.168 -39.909 -17.885  1.00  0.00    -0.504 OA
ATOM     22  H   UNL     1       3.294 -39.506 -18.201  1.00  0.00     0.293 HD
ENDBRANCH  18  21
ENDBRANCH   3  13
BRANCH   9  23
ATOM     23  O   UNL     1      13.113 -37.272 -23.199  1.00  0.00    -0.507 OA
ATOM     24  H   UNL     1      13.624 -37.536 -24.031  1.00  0.00     0.293 HD
ENDBRANCH   9  23
BRANCH   7  25
ATOM     25  O   UNL     1      14.667 -40.794 -20.319  1.00  0.00    -0.508 OA
ATOM     26  H   UNL     1      14.467 -41.730 -19.984  1.00  0.00     0.293 HD
ENDBRANCH   7  25
TORSDOF 6
ENDMDL
MODEL 3
REMARK VINA RESULT:    -5.404      1.551      7.136
REMARK INTER + INTRA:          -6.808
REMARK INTER:                  -6.465
REMARK INTRA:                  -0.343
REMARK UNBOUND:                -0.299
REMARK SMILES Oc1cc(O)c2c(c1)O[C@H](c1ccc(O)c(O)c1)[C@@H](O)C2
REMARK SMILES IDX 21 1 19 2 10 3 9 4 7 5 8 6 2 7 3 8 4 9 6 10 20 11 11 13
REMARK SMILES IDX 18 14 12 15 16 16 13 17 14 18 17 19 15 21 5 23 1 25
REMARK H PARENT 20 12 17 20 15 22 5 24 1 26
REMARK Flexibility Score: inf
ROOT
ATOM      1  C   UNL     1       0.387 -33.321 -12.779  1.00  0.00     0.079 C 
ATOM      2  C   UNL     1       1.189 -32.669 -11.636  1.00  0.00     0.164 C 
ATOM      3  C   UNL     1       0.462 -31.407 -11.142  1.00  0.00     0.232 C 
ATOM      4  O   UNL     1       0.264 -30.507 -12.231  1.00  0.00    -0.482 OA
ATOM      5  C   UNL     1      -0.074 -30.947 -13.514  1.00  0.00     0.131 A 
ATOM      6  C   UNL     1      -0.439 -30.007 -14.482  1.00  0.00     0.093 A 
ATOM      7  C   UNL     1      -0.797 -30.422 -15.769  1.00  0.00     0.122 A 
ATOM      8  C   UNL     1      -0.801 -31.783 -16.083  1.00  0.00     0.092 A 
ATOM      9  C   UNL     1      -0.441 -32.739 -15.126  1.00  0.00     0.126 A 
ATOM     10  C   UNL     1      -0.034 -32.323 -13.837  1.00  0.00     0.039 A 
ENDROOT
BRANCH   2  11
ATOM     11  O   UNL     1       1.332 -33.580 -10.576  1.00  0.00    -0.389 OA
ATOM     12  H   UNL     1       1.424 -33.042  -9.748  1.00  0.00     0.211 HD
ENDBRANCH   2  11
BRANCH   3  13
ATOM     13  C   UNL     1       1.247 -30.718 -10.051  1.00  0.00    -0.001 A 
ATOM     14  C   UNL     1       2.606 -30.407 -10.234  1.00  0.00     0.057 A 
ATOM     15  C   UNL     1       0.638 -30.422  -8.820  1.00  0.00     0.012 A 
ATOM     16  C   UNL     1       3.341 -29.793  -9.214  1.00  0.00     0.157 A 
ATOM     17  C   UNL     1       1.369 -29.809  -7.800  1.00  0.00     0.050 A 
ATOM     18  C   UNL     1       2.720 -29.490  -7.991  1.00  0.00     0.157 A 
BRANCH  16  19
ATOM     19  O   UNL     1       4.686 -29.494  -9.433  1.00  0.00    -0.504 OA
ATOM     20  H   UNL     1       4.986 -28.594  -9.788  1.00  0.00     0.293 HD
ENDBRANCH  16  19
BRANCH  18  21
ATOM     21  O   UNL     1       3.446 -28.878  -6.970  1.00  0.00    -0.504 OA
ATOM     22  H   UNL     1       4.457 -28.823  -6.997  1.00  0.00     0.293 HD
ENDBRANCH  18  21
ENDBRANCH   3  13
BRANCH   9  23
ATOM     23  O   UNL     1      -0.507 -34.086 -15.487  1.00  0.00    -0.507 OA
ATOM     24  H   UNL     1      -1.368 -34.551 -15.743  1.00  0.00     0.293 HD
ENDBRANCH   9  23
BRANCH   7  25
ATOM     25  O   UNL     1      -1.160 -29.491 -16.739  1.00  0.00    -0.508 OA
ATOM     26  H   UNL     1      -0.800 -28.543 -16.724  1.00  0.00     0.293 HD
ENDBRANCH   7  25
TORSDOF 6
ENDMDL
MODEL 4
REMARK VINA RESULT:    -5.386     13.411     15.639
REMARK INTER + INTRA:          -6.787
REMARK INTER:                  -6.419
REMARK INTRA:                  -0.368
REMARK UNBOUND:                -0.299
REMARK SMILES Oc1cc(O)c2c(c1)O[C@H](c1ccc(O)c(O)c1)[C@@H](O)C2
REMARK SMILES IDX 21 1 19 2 10 3 9 4 7 5 8 6 2 7 3 8 4 9 6 10 20 11 11 13
REMARK SMILES IDX 18 14 12 15 16 16 13 17 14 18 17 19 15 21 5 23 1 25
REMARK H PARENT 20 12 17 20 15 22 5 24 1 26
REMARK Flexibility Score: inf
ROOT
ATOM      1  C   UNL     1      14.002 -32.993 -13.480  1.00  0.00     0.079 C 
ATOM      2  C   UNL     1      14.229 -34.401 -14.061  1.00  0.00     0.164 C 
ATOM      3  C   UNL     1      15.187 -34.323 -15.261  1.00  0.00     0.232 C 
ATOM      4  O   UNL     1      14.665 -33.425 -16.239  1.00  0.00    -0.482 OA
ATOM      5  C   UNL     1      14.017 -32.235 -15.892  1.00  0.00     0.131 A 
ATOM      6  C   UNL     1      13.702 -31.315 -16.895  1.00  0.00     0.093 A 
ATOM      7  C   UNL     1      13.068 -30.110 -16.573  1.00  0.00     0.122 A 
ATOM      8  C   UNL     1      12.762 -29.822 -15.241  1.00  0.00     0.092 A 
ATOM      9  C   UNL     1      13.072 -30.730 -14.223  1.00  0.00     0.126 A 
ATOM     10  C   UNL     1      13.671 -31.970 -14.548  1.00  0.00     0.039 A 
ENDROOT
BRANCH   2  11
ATOM     11  O   UNL     1      14.772 -35.241 -13.074  1.00  0.00    -0.389 OA
ATOM     12  H   UNL     1      14.420 -36.152 -13.249  1.00  0.00     0.211 HD
ENDBRANCH   2  11
BRANCH   3  13
ATOM     13  C   UNL     1      15.394 -35.685 -15.883  1.00  0.00    -0.001 A 
ATOM     14  C   UNL     1      16.657 -36.302 -15.850  1.00  0.00     0.057 A 
ATOM     15  C   UNL     1      14.335 -36.330 -16.543  1.00  0.00     0.012 A 
ATOM     16  C   UNL     1      16.856 -37.551 -16.449  1.00  0.00     0.157 A 
ATOM     17  C   UNL     1      14.530 -37.577 -17.141  1.00  0.00     0.050 A 
ATOM     18  C   UNL     1      15.789 -38.194 -17.096  1.00  0.00     0.157 A 
BRANCH  16  19
ATOM     19  O   UNL     1      18.122 -38.134 -16.392  1.00  0.00    -0.504 OA
ATOM     20  H   UNL     1      18.680 -38.128 -15.546  1.00  0.00     0.293 HD
ENDBRANCH  16  19
BRANCH  18  21
ATOM     21  O   UNL     1      15.980 -39.438 -17.694  1.00  0.00    -0.504 OA
ATOM     22  H   UNL     1      16.907 -39.793 -17.896  1.00  0.00     0.293 HD
ENDBRANCH  18  21
ENDBRANCH   3  13
BRANCH   9  23
ATOM     23  O   UNL     1      12.781 -30.366 -12.907  1.00  0.00    -0.507 OA
ATOM     24  H   UNL     1      11.839 -30.225 -12.565  1.00  0.00     0.293 HD
ENDBRANCH   9  23
BRANCH   7  25
ATOM     25  O   UNL     1      12.749 -29.189 -17.568  1.00  0.00    -0.508 OA
ATOM     26  H   UNL     1      12.942 -28.200 -17.456  1.00  0.00     0.293 HD
ENDBRANCH   7  25
TORSDOF 6
ENDMDL
MODEL 5
REMARK VINA RESULT:    -5.367      5.559      8.106
REMARK INTER + INTRA:          -6.764
REMARK INTER:                  -6.651
REMARK INTRA:                  -0.113
REMARK UNBOUND:                -0.299
REMARK SMILES Oc1cc(O)c2c(c1)O[C@H](c1ccc(O)c(O)c1)[C@@H](O)C2
REMARK SMILES IDX 21 1 19 2 10 3 9 4 7 5 8 6 2 7 3 8 4 9 6 10 20 11 11 13
REMARK SMILES IDX 18 14 12 15 16 16 13 17 14 18 17 19 15 21 5 23 1 25
REMARK H PARENT 20 12 17 20 15 22 5 24 1 26
REMARK Flexibility Score: inf
ROOT
ATOM      1  C   UNL     1      -0.639 -37.584 -12.925  1.00  0.00     0.079 C 
ATOM      2  C   UNL     1      -0.578 -36.045 -12.872  1.00  0.00     0.164 C 
ATOM      3  C   UNL     1      -0.424 -35.479 -14.293  1.00  0.00     0.232 C 
ATOM      4  O   UNL     1       0.735 -36.034 -14.912  1.00  0.00    -0.482 OA
ATOM      5  C   UNL     1       1.107 -37.371 -14.740  1.00  0.00     0.131 A 
ATOM      6  C   UNL     1       2.140 -37.895 -15.523  1.00  0.00     0.093 A 
ATOM      7  C   UNL     1       2.521 -39.234 -15.382  1.00  0.00     0.122 A 
ATOM      8  C   UNL     1       1.858 -40.051 -14.464  1.00  0.00     0.092 A 
ATOM      9  C   UNL     1       0.820 -39.544 -13.673  1.00  0.00     0.126 A 
ATOM     10  C   UNL     1       0.461 -38.180 -13.779  1.00  0.00     0.039 A 
ENDROOT
BRANCH   2  11
ATOM     11  O   UNL     1      -1.751 -35.543 -12.285  1.00  0.00    -0.389 OA
ATOM     12  H   UNL     1      -2.287 -35.140 -13.017  1.00  0.00     0.211 HD
ENDBRANCH   2  11
BRANCH   3  13
ATOM     13  C   UNL     1      -0.315 -33.972 -14.271  1.00  0.00    -0.001 A 
ATOM     14  C   UNL     1      -0.684 -33.211 -15.394  1.00  0.00     0.057 A 
ATOM     15  C   UNL     1       0.203 -33.317 -13.141  1.00  0.00     0.012 A 
ATOM     16  C   UNL     1      -0.558 -31.817 -15.384  1.00  0.00     0.157 A 
ATOM     17  C   UNL     1       0.330 -31.926 -13.128  1.00  0.00     0.050 A 
ATOM     18  C   UNL     1      -0.050 -31.170 -14.246  1.00  0.00     0.157 A 
BRANCH  16  19
ATOM     19  O   UNL     1      -0.939 -31.095 -16.514  1.00  0.00    -0.504 OA
ATOM     20  H   UNL     1      -1.021 -31.527 -17.427  1.00  0.00     0.293 HD
ENDBRANCH  16  19
BRANCH  18  21
ATOM     21  O   UNL     1       0.077 -29.782 -14.228  1.00  0.00    -0.504 OA
ATOM     22  H   UNL     1      -0.264 -29.208 -14.990  1.00  0.00     0.293 HD
ENDBRANCH  18  21
ENDBRANCH   3  13
BRANCH   9  23
ATOM     23  O   UNL     1       0.167 -40.422 -12.806  1.00  0.00    -0.507 OA
ATOM     24  H   UNL     1      -0.593 -41.025 -13.094  1.00  0.00     0.293 HD
ENDBRANCH   9  23
BRANCH   7  25
ATOM     25  O   UNL     1       3.551 -39.763 -16.157  1.00  0.00    -0.508 OA
ATOM     26  H   UNL     1       3.900 -39.278 -16.976  1.00  0.00     0.293 HD
ENDBRANCH   7  25
TORSDOF 6
ENDMDL
MODEL 6
REMARK VINA RESULT:    -5.275      9.843     12.083
REMARK INTER + INTRA:          -6.653
REMARK INTER:                  -6.298
REMARK INTRA:                  -0.355
REMARK UNBOUND:                -0.299
REMARK SMILES Oc1cc(O)c2c(c1)O[C@H](c1ccc(O)c(O)c1)[C@@H](O)C2
REMARK SMILES IDX 21 1 19 2 10 3 9 4 7 5 8 6 2 7 3 8 4 9 6 10 20 11 11 13
REMARK SMILES IDX 18 14 12 15 16 16 13 17 14 18 17 19 15 21 5 23 1 25
REMARK H PARENT 20 12 17 20 15 22 5 24 1 26
REMARK Flexibility Score: inf
ROOT
ATOM      1  C   UNL     1       2.839 -38.905 -17.234  1.00  0.00     0.079 C 
ATOM      2  C   UNL     1       2.591 -40.201 -16.439  1.00  0.00     0.164 C 
ATOM      3  C   UNL     1       2.520 -39.887 -14.936  1.00  0.00     0.232 C 
ATOM      4  O   UNL     1       3.719 -39.234 -14.522  1.00  0.00    -0.482 OA
ATOM      5  C   UNL     1       4.367 -38.283 -15.318  1.00  0.00     0.131 A 
ATOM      6  C   UNL     1       5.423 -37.548 -14.775  1.00  0.00     0.093 A 
ATOM      7  C   UNL     1       6.078 -36.580 -15.544  1.00  0.00     0.122 A 
ATOM      8  C   UNL     1       5.664 -36.342 -16.857  1.00  0.00     0.092 A 
ATOM      9  C   UNL     1       4.607 -37.067 -17.417  1.00  0.00     0.126 A 
ATOM     10  C   UNL     1       3.971 -38.079 -16.659  1.00  0.00     0.039 A 
ENDROOT
BRANCH   2  11
ATOM     11  O   UNL     1       1.387 -40.791 -16.858  1.00  0.00    -0.389 OA
ATOM     12  H   UNL     1       0.708 -40.068 -16.885  1.00  0.00     0.211 HD
ENDBRANCH   2  11
BRANCH   3  13
ATOM     13  C   UNL     1       2.323 -41.146 -14.124  1.00  0.00    -0.001 A 
ATOM     14  C   UNL     1       1.105 -41.389 -13.465  1.00  0.00     0.057 A 
ATOM     15  C   UNL     1       3.373 -42.068 -13.982  1.00  0.00     0.012 A 
ATOM     16  C   UNL     1       0.930 -42.541 -12.691  1.00  0.00     0.157 A 
ATOM     17  C   UNL     1       3.202 -43.220 -13.211  1.00  0.00     0.050 A 
ATOM     18  C   UNL     1       1.982 -43.464 -12.564  1.00  0.00     0.157 A 
BRANCH  16  19
ATOM     19  O   UNL     1      -0.293 -42.751 -12.055  1.00  0.00    -0.504 OA
ATOM     20  H   UNL     1      -1.160 -42.842 -12.573  1.00  0.00     0.293 HD
ENDBRANCH  16  19
BRANCH  18  21
ATOM     21  O   UNL     1       1.815 -44.615 -11.796  1.00  0.00    -0.504 OA
ATOM     22  H   UNL     1       1.441 -45.468 -12.194  1.00  0.00     0.293 HD
ENDBRANCH  18  21
ENDBRANCH   3  13
BRANCH   9  23
ATOM     23  O   UNL     1       4.212 -36.752 -18.718  1.00  0.00    -0.507 OA
ATOM     24  H   UNL     1       4.074 -35.804 -19.043  1.00  0.00     0.293 HD
ENDBRANCH   9  23
BRANCH   7  25
ATOM     25  O   UNL     1       7.133 -35.844 -15.010  1.00  0.00    -0.508 OA
ATOM     26  H   UNL     1       7.710 -35.247 -15.592  1.00  0.00     0.293 HD
ENDBRANCH   7  25
TORSDOF 6
ENDMDL
MODEL 7
REMARK VINA RESULT:    -5.269     10.169     12.969
REMARK INTER + INTRA:          -6.646
REMARK INTER:                  -6.399
REMARK INTRA:                  -0.248
REMARK UNBOUND:                -0.299
REMARK SMILES Oc1cc(O)c2c(c1)O[C@H](c1ccc(O)c(O)c1)[C@@H](O)C2
REMARK SMILES IDX 21 1 19 2 10 3 9 4 7 5 8 6 2 7 3 8 4 9 6 10 20 11 11 13
REMARK SMILES IDX 18 14 12 15 16 16 13 17 14 18 17 19 15 21 5 23 1 25
REMARK H PARENT 20 12 17 20 15 22 5 24 1 26
REMARK Flexibility Score: inf
ROOT
ATOM      1  C   UNL     1       6.057 -37.133 -18.684  1.00  0.00     0.079 C 
ATOM      2  C   UNL     1       4.673 -37.422 -18.072  1.00  0.00     0.164 C 
ATOM      3  C   UNL     1       4.771 -38.603 -17.093  1.00  0.00     0.232 C 
ATOM      4  O   UNL     1       5.302 -39.745 -17.764  1.00  0.00    -0.482 OA
ATOM      5  C   UNL     1       6.326 -39.646 -18.712  1.00  0.00     0.131 A 
ATOM      6  C   UNL     1       6.927 -40.814 -19.187  1.00  0.00     0.093 A 
ATOM      7  C   UNL     1       7.964 -40.743 -20.124  1.00  0.00     0.122 A 
ATOM      8  C   UNL     1       8.407 -39.498 -20.575  1.00  0.00     0.092 A 
ATOM      9  C   UNL     1       7.818 -38.317 -20.108  1.00  0.00     0.126 A 
ATOM     10  C   UNL     1       6.739 -38.384 -19.196  1.00  0.00     0.039 A 
ENDROOT
BRANCH   2  11
ATOM     11  O   UNL     1       4.204 -36.283 -17.397  1.00  0.00    -0.389 OA
ATOM     12  H   UNL     1       3.472 -35.904 -17.949  1.00  0.00     0.211 HD
ENDBRANCH   2  11
BRANCH   3  13
ATOM     13  C   UNL     1       3.418 -38.942 -16.510  1.00  0.00    -0.001 A 
ATOM     14  C   UNL     1       2.520 -39.761 -17.215  1.00  0.00     0.057 A 
ATOM     15  C   UNL     1       3.026 -38.402 -15.274  1.00  0.00     0.012 A 
ATOM     16  C   UNL     1       1.257 -40.053 -16.689  1.00  0.00     0.157 A 
ATOM     17  C   UNL     1       1.766 -38.692 -14.745  1.00  0.00     0.050 A 
ATOM     18  C   UNL     1       0.877 -39.518 -15.447  1.00  0.00     0.157 A 
BRANCH  16  19
ATOM     19  O   UNL     1       0.394 -40.874 -17.414  1.00  0.00    -0.504 OA
ATOM     20  H   UNL     1       0.733 -41.547 -18.092  1.00  0.00     0.293 HD
ENDBRANCH  16  19
BRANCH  18  21
ATOM     21  O   UNL     1      -0.379 -39.806 -14.915  1.00  0.00    -0.504 OA
ATOM     22  H   UNL     1      -0.535 -39.849 -13.915  1.00  0.00     0.293 HD
ENDBRANCH  18  21
ENDBRANCH   3  13
BRANCH   9  23
ATOM     23  O   UNL     1       8.335 -37.102 -20.563  1.00  0.00    -0.507 OA
ATOM     24  H   UNL     1       9.294 -36.817 -20.418  1.00  0.00     0.293 HD
ENDBRANCH   9  23
BRANCH   7  25
ATOM     25  O   UNL     1       8.567 -41.904 -20.604  1.00  0.00    -0.508 OA
ATOM     26  H   UNL     1       9.484 -41.885 -21.035  1.00  0.00     0.293 HD
ENDBRANCH   7  25
TORSDOF 6
ENDMDL
MODEL 8
REMARK VINA RESULT:    -5.158     15.255     17.845
REMARK INTER + INTRA:          -6.512
REMARK INTER:                  -6.157
REMARK INTRA:                  -0.355
REMARK UNBOUND:                -0.299
REMARK SMILES Oc1cc(O)c2c(c1)O[C@H](c1ccc(O)c(O)c1)[C@@H](O)C2
REMARK SMILES IDX 21 1 19 2 10 3 9 4 7 5 8 6 2 7 3 8 4 9 6 10 20 11 11 13
REMARK SMILES IDX 18 14 12 15 16 16 13 17 14 18 17 19 15 21 5 23 1 25
REMARK H PARENT 20 12 17 20 15 22 5 24 1 26
REMARK Flexibility Score: inf
ROOT
ATOM      1  C   UNL     1       8.552 -44.971 -18.229  1.00  0.00     0.079 C 
ATOM      2  C   UNL     1       8.352 -43.444 -18.166  1.00  0.00     0.164 C 
ATOM      3  C   UNL     1       7.220 -43.026 -19.118  1.00  0.00     0.232 C 
ATOM      4  O   UNL     1       7.514 -43.468 -20.443  1.00  0.00    -0.482 OA
ATOM      5  C   UNL     1       8.109 -44.706 -20.703  1.00  0.00     0.131 A 
ATOM      6  C   UNL     1       8.194 -45.155 -22.024  1.00  0.00     0.093 A 
ATOM      7  C   UNL     1       8.771 -46.397 -22.311  1.00  0.00     0.122 A 
ATOM      8  C   UNL     1       9.252 -47.195 -21.271  1.00  0.00     0.092 A 
ATOM      9  C   UNL     1       9.174 -46.763 -19.942  1.00  0.00     0.126 A 
ATOM     10  C   UNL     1       8.633 -45.488 -19.650  1.00  0.00     0.039 A 
ENDROOT
BRANCH   2  11
ATOM     11  O   UNL     1       8.035 -43.060 -16.853  1.00  0.00    -0.389 OA
ATOM     12  H   UNL     1       7.052 -43.158 -16.756  1.00  0.00     0.211 HD
ENDBRANCH   2  11
BRANCH   3  13
ATOM     13  C   UNL     1       7.030 -41.527 -19.114  1.00  0.00    -0.001 A 
ATOM     14  C   UNL     1       5.879 -40.953 -18.546  1.00  0.00     0.057 A 
ATOM     15  C   UNL     1       7.982 -40.691 -19.721  1.00  0.00     0.012 A 
ATOM     16  C   UNL     1       5.690 -39.567 -18.566  1.00  0.00     0.157 A 
ATOM     17  C   UNL     1       7.796 -39.307 -19.743  1.00  0.00     0.050 A 
ATOM     18  C   UNL     1       6.653 -38.738 -19.165  1.00  0.00     0.157 A 
BRANCH  16  19
ATOM     19  O   UNL     1       4.538 -39.032 -17.988  1.00  0.00    -0.504 OA
ATOM     20  H   UNL     1       3.964 -39.562 -17.343  1.00  0.00     0.293 HD
ENDBRANCH  16  19
BRANCH  18  21
ATOM     21  O   UNL     1       6.471 -37.357 -19.187  1.00  0.00    -0.504 OA
ATOM     22  H   UNL     1       5.958 -36.877 -18.457  1.00  0.00     0.293 HD
ENDBRANCH  18  21
ENDBRANCH   3  13
BRANCH   9  23
ATOM     23  O   UNL     1       9.632 -47.624 -18.944  1.00  0.00    -0.507 OA
ATOM     24  H   UNL     1       9.965 -47.305 -18.043  1.00  0.00     0.293 HD
ENDBRANCH   9  23
BRANCH   7  25
ATOM     25  O   UNL     1       8.861 -46.850 -23.625  1.00  0.00    -0.508 OA
ATOM     26  H   UNL     1       8.843 -47.839 -23.847  1.00  0.00     0.293 HD
ENDBRANCH   7  25
TORSDOF 6
ENDMDL
