MODEL 1
REMARK VINA RESULT:    -3.445      0.000      0.000
REMARK INTER + INTRA:          -3.867
REMARK INTER:                  -3.848
REMARK INTRA:                  -0.020
REMARK UNBOUND:                -0.020
REMARK SMILES CCCC(=O)[O-]
REMARK SMILES IDX 3 1 4 2 5 3 6 4 2 5 1 6
REMARK H PARENT
REMARK Flexibility Score: inf
ROOT
ATOM      1  C   UNL     1      12.011   2.255 -34.923  1.00  0.00     0.052 C 
ENDROOT
BRANCH   1   2
ATOM      2  C   UNL     1      10.828   1.566 -34.316  1.00  0.00     0.041 C 
ATOM      3  O   UNL     1       9.836   1.264 -35.030  1.00  0.00    -0.550 OA
ATOM      4  O   UNL     1      10.835   1.230 -32.968  1.00  0.00    -0.550 OA
ENDBRANCH   1   2
BRANCH   1   5
ATOM      5  C   UNL     1      13.328   1.563 -34.546  1.00  0.00     0.003 C 
ATOM      6  C   UNL     1      14.089   2.316 -33.454  1.00  0.00     0.004 C 
ENDBRANCH   1   5
TORSDOF 2
ENDMDL
MODEL 2
REMARK VINA RESULT:    -3.429      0.120      1.328
REMARK INTER + INTRA:          -3.850
REMARK INTER:                  -3.820
REMARK INTRA:                  -0.030
REMARK UNBOUND:                -0.020
REMARK SMILES CCCC(=O)[O-]
REMARK SMILES IDX 3 1 4 2 5 3 6 4 2 5 1 6
REMARK H PARENT
REMARK Flexibility Score: inf
ROOT
ATOM      1  C   UNL     1      12.035   2.208 -34.833  1.00  0.00     0.052 C 
ENDROOT
BRANCH   1   2
ATOM      2  C   UNL     1      10.817   1.551 -34.260  1.00  0.00     0.041 C 
ATOM      3  O   UNL     1      10.770   1.261 -33.036  1.00  0.00    -0.550 OA
ATOM      4  O   UNL     1       9.721   1.289 -35.073  1.00  0.00    -0.550 OA
ENDBRANCH   1   2
BRANCH   1   5
ATOM      5  C   UNL     1      13.325   1.517 -34.369  1.00  0.00     0.003 C 
ATOM      6  C   UNL     1      14.092   2.348 -33.341  1.00  0.00     0.004 C 
ENDBRANCH   1   5
TORSDOF 2
ENDMDL
MODEL 3
REMARK VINA RESULT:    -3.411      4.126      4.962
REMARK INTER + INTRA:          -3.830
REMARK INTER:                  -3.790
REMARK INTRA:                  -0.040
REMARK UNBOUND:                -0.020
REMARK SMILES CCCC(=O)[O-]
REMARK SMILES IDX 3 1 4 2 5 3 6 4 2 5 1 6
REMARK H PARENT
REMARK Flexibility Score: inf
ROOT
ATOM      1  C   UNL     1       8.031   1.392 -37.674  1.00  0.00     0.052 C 
ENDROOT
BRANCH   1   2
ATOM      2  C   UNL     1       8.509   1.812 -36.318  1.00  0.00     0.041 C 
ATOM      3  O   UNL     1       7.680   2.075 -35.407  1.00  0.00    -0.550 OA
ATOM      4  O   UNL     1       9.870   1.881 -36.051  1.00  0.00    -0.550 OA
ENDBRANCH   1   2
BRANCH   1   5
ATOM      5  C   UNL     1       8.988   0.388 -38.329  1.00  0.00     0.003 C 
ATOM      6  C   UNL     1       8.569  -1.062 -38.080  1.00  0.00     0.004 C 
ENDBRANCH   1   5
TORSDOF 2
ENDMDL
MODEL 4
REMARK VINA RESULT:    -3.391      1.088      1.773
REMARK INTER + INTRA:          -3.807
REMARK INTER:                  -3.797
REMARK INTRA:                  -0.010
REMARK UNBOUND:                -0.020
REMARK SMILES CCCC(=O)[O-]
REMARK SMILES IDX 3 1 4 2 5 3 6 4 2 5 1 6
REMARK H PARENT
REMARK Flexibility Score: inf
ROOT
ATOM      1  C   UNL     1      11.587   1.614 -33.923  1.00  0.00     0.052 C 
ENDROOT
BRANCH   1   2
ATOM      2  C   UNL     1      10.112   1.421 -34.090  1.00  0.00     0.041 C 
ATOM      3  O   UNL     1       9.358   1.390 -33.081  1.00  0.00    -0.550 OA
ATOM      4  O   UNL     1       9.565   1.306 -35.362  1.00  0.00    -0.550 OA
ENDBRANCH   1   2
BRANCH   1   5
ATOM      5  C   UNL     1      12.192   2.411 -35.087  1.00  0.00     0.003 C 
ATOM      6  C   UNL     1      13.716   2.295 -35.141  1.00  0.00     0.004 C 
ENDBRANCH   1   5
TORSDOF 2
ENDMDL
MODEL 5
REMARK VINA RESULT:    -3.285      1.582      2.098
REMARK INTER + INTRA:          -3.688
REMARK INTER:                  -3.650
REMARK INTRA:                  -0.039
REMARK UNBOUND:                -0.020
REMARK SMILES CCCC(=O)[O-]
REMARK SMILES IDX 3 1 4 2 5 3 6 4 2 5 1 6
REMARK H PARENT
REMARK Flexibility Score: inf
ROOT
ATOM      1  C   UNL     1      11.630   1.428 -33.969  1.00  0.00     0.052 C 
ENDROOT
BRANCH   1   2
ATOM      2  C   UNL     1      11.190   2.051 -32.680  1.00  0.00     0.041 C 
ATOM      3  O   UNL     1      11.914   2.912 -32.113  1.00  0.00    -0.550 OA
ATOM      4  O   UNL     1       9.966   1.705 -32.122  1.00  0.00    -0.550 OA
ENDBRANCH   1   2
BRANCH   1   5
ATOM      5  C   UNL     1      13.130   1.632 -34.217  1.00  0.00     0.003 C 
ATOM      6  C   UNL     1      13.403   2.591 -35.375  1.00  0.00     0.004 C 
ENDBRANCH   1   5
TORSDOF 2
ENDMDL
MODEL 6
REMARK VINA RESULT:    -3.257      4.141      4.966
REMARK INTER + INTRA:          -3.657
REMARK INTER:                  -3.609
REMARK INTRA:                  -0.049
REMARK UNBOUND:                -0.020
REMARK SMILES CCCC(=O)[O-]
REMARK SMILES IDX 3 1 4 2 5 3 6 4 2 5 1 6
REMARK H PARENT
REMARK Flexibility Score: inf
ROOT
ATOM      1  C   UNL     1       7.594   1.254 -37.274  1.00  0.00     0.052 C 
ENDROOT
BRANCH   1   2
ATOM      2  C   UNL     1       8.413   0.121 -37.809  1.00  0.00     0.041 C 
ATOM      3  O   UNL     1       9.333   0.342 -38.640  1.00  0.00    -0.550 OA
ATOM      4  O   UNL     1       8.183  -1.175 -37.364  1.00  0.00    -0.550 OA
ENDBRANCH   1   2
BRANCH   1   5
ATOM      5  C   UNL     1       8.441   2.227 -36.442  1.00  0.00     0.003 C 
ATOM      6  C   UNL     1       9.267   1.511 -35.374  1.00  0.00     0.004 C 
ENDBRANCH   1   5
TORSDOF 2
ENDMDL
MODEL 7
REMARK VINA RESULT:    -3.211      2.111      3.575
REMARK INTER + INTRA:          -3.606
REMARK INTER:                  -3.588
REMARK INTRA:                  -0.019
REMARK UNBOUND:                -0.020
REMARK SMILES CCCC(=O)[O-]
REMARK SMILES IDX 3 1 4 2 5 3 6 4 2 5 1 6
REMARK H PARENT
REMARK Flexibility Score: inf
ROOT
ATOM      1  C   UNL     1      10.371   1.861 -35.522  1.00  0.00     0.052 C 
ENDROOT
BRANCH   1   2
ATOM      2  C   UNL     1      10.759   1.445 -34.137  1.00  0.00     0.041 C 
ATOM      3  O   UNL     1      11.957   1.159 -33.874  1.00  0.00    -0.550 OA
ATOM      4  O   UNL     1       9.804   1.405 -33.129  1.00  0.00    -0.550 OA
ENDBRANCH   1   2
BRANCH   1   5
ATOM      5  C   UNL     1       9.008   1.285 -35.928  1.00  0.00     0.003 C 
ATOM      6  C   UNL     1       8.181   2.272 -36.752  1.00  0.00     0.004 C 
ENDBRANCH   1   5
TORSDOF 2
ENDMDL
MODEL 8
REMARK VINA RESULT:    -3.200      4.678      5.212
REMARK INTER + INTRA:          -3.594
REMARK INTER:                  -3.528
REMARK INTRA:                  -0.066
REMARK UNBOUND:                -0.020
REMARK SMILES CCCC(=O)[O-]
REMARK SMILES IDX 3 1 4 2 5 3 6 4 2 5 1 6
REMARK H PARENT
REMARK Flexibility Score: inf
ROOT
ATOM      1  C   UNL     1       7.652   1.446 -37.339  1.00  0.00     0.052 C 
ENDROOT
BRANCH   1   2
ATOM      2  C   UNL     1       7.502   1.088 -35.893  1.00  0.00     0.041 C 
ATOM      3  O   UNL     1       8.398   1.402 -35.066  1.00  0.00    -0.550 OA
ATOM      4  O   UNL     1       6.356   0.436 -35.453  1.00  0.00    -0.550 OA
ENDBRANCH   1   2
BRANCH   1   5
ATOM      5  C   UNL     1       8.841   0.720 -37.984  1.00  0.00     0.003 C 
ATOM      6  C   UNL     1       8.581  -0.776 -38.163  1.00  0.00     0.004 C 
ENDBRANCH   1   5
TORSDOF 2
ENDMDL
MODEL 9
REMARK VINA RESULT:    -3.115      2.405      2.976
REMARK INTER + INTRA:          -3.499
REMARK INTER:                  -3.470
REMARK INTRA:                  -0.029
REMARK UNBOUND:                -0.020
REMARK SMILES CCCC(=O)[O-]
REMARK SMILES IDX 3 1 4 2 5 3 6 4 2 5 1 6
REMARK H PARENT
REMARK Flexibility Score: inf
ROOT
ATOM      1  C   UNL     1      11.413   1.877 -34.515  1.00  0.00     0.052 C 
ENDROOT
BRANCH   1   2
ATOM      2  C   UNL     1      12.885   1.995 -34.761  1.00  0.00     0.041 C 
ATOM      3  O   UNL     1      13.682   1.161 -34.255  1.00  0.00    -0.550 OA
ATOM      4  O   UNL     1      13.375   3.008 -35.577  1.00  0.00    -0.550 OA
ENDBRANCH   1   2
BRANCH   1   5
ATOM      5  C   UNL     1      11.108   1.503 -33.058  1.00  0.00     0.003 C 
ATOM      6  C   UNL     1      11.457   2.627 -32.084  1.00  0.00     0.004 C 
ENDBRANCH   1   5
TORSDOF 2
ENDMDL
