MODEL 1
REMARK VINA RESULT:    -7.454      0.000      0.000
REMARK INTER + INTRA:         -11.141
REMARK INTER:                 -10.068
REMARK INTRA:                  -1.073
REMARK UNBOUND:                -1.073
REMARK SMILES O=c1c(-c2ccc(O)cc2)coc2c([C@H]3O[C@@H](CO)[C@@H](O)[C@H](O)[C@@H]3O)c(O)ccc12
REMARK SMILES IDX 3 1 11 2 12 3 13 4 30 5 2 6 1 7 29 8 28 9 26 10 14 11 4 12
REMARK SMILES IDX 5 13 6 14 7 15 10 16 9 17 8 18 15 20 24 21 16 22 22 23 17 24
REMARK SMILES IDX 20 25 25 26 23 28 18 30 19 31 21 33 27 35
REMARK H PARENT 8 19 25 27 23 29 19 32 21 34 27 36
REMARK Flexibility Score: inf
ROOT
ATOM      1  C   UNL     1       4.553 -18.031   6.576  1.00  0.00     0.065 A 
ATOM      2  C   UNL     1       5.232 -17.024   7.277  1.00  0.00     0.208 A 
ATOM      3  O   UNL     1       5.138 -15.753   6.908  1.00  0.00    -0.463 OA
ATOM      4  C   UNL     1       4.426 -15.345   5.859  1.00  0.00     0.147 A 
ATOM      5  C   UNL     1       3.719 -16.298   5.088  1.00  0.00     0.066 A 
ATOM      6  C   UNL     1       3.768 -17.652   5.472  1.00  0.00     0.200 A 
ATOM      7  O   UNL     1       3.093 -18.515   4.844  1.00  0.00    -0.288 OA
ATOM      8  C   UNL     1       2.978 -15.879   3.978  1.00  0.00     0.020 A 
ATOM      9  C   UNL     1       2.943 -14.532   3.630  1.00  0.00     0.047 A 
ATOM     10  C   UNL     1       3.620 -13.572   4.383  1.00  0.00     0.125 A 
ATOM     11  C   UNL     1       4.375 -13.964   5.526  1.00  0.00     0.069 A 
ENDROOT
BRANCH   1  12
ATOM     12  C   UNL     1       4.686 -19.450   6.999  1.00  0.00    -0.011 A 
ATOM     13  C   UNL     1       3.733 -20.038   7.849  1.00  0.00     0.013 A 
ATOM     14  C   UNL     1       3.836 -21.386   8.205  1.00  0.00     0.047 A 
ATOM     15  C   UNL     1       4.897 -22.164   7.720  1.00  0.00     0.115 A 
ATOM     16  C   UNL     1       5.748 -20.239   6.515  1.00  0.00     0.013 A 
ATOM     17  C   UNL     1       5.854 -21.586   6.883  1.00  0.00     0.047 A 
BRANCH  15  18
ATOM     18  O   UNL     1       5.010 -23.506   8.071  1.00  0.00    -0.508 OA
ATOM     19  H   UNL     1       5.035 -23.798   9.041  1.00  0.00     0.293 HD
ENDBRANCH  15  18
ENDBRANCH   1  12
BRANCH  11  20
ATOM     20  C   UNL     1       5.016 -12.948   6.477  1.00  0.00     0.188 C 
ATOM     21  C   UNL     1       4.055 -12.623   7.670  1.00  0.00     0.179 C 
ATOM     22  O   UNL     1       5.430 -11.794   5.762  1.00  0.00    -0.362 OA
ATOM     23  C   UNL     1       3.659 -11.127   7.707  1.00  0.00     0.177 C 
ATOM     24  C   UNL     1       5.981 -10.831   6.643  1.00  0.00     0.176 C 
ATOM     25  C   UNL     1       4.860 -10.170   7.500  1.00  0.00     0.177 C 
BRANCH  21  26
ATOM     26  O   UNL     1       4.623 -13.027   8.892  1.00  0.00    -0.387 OA
ATOM     27  H   UNL     1       5.324 -13.705   8.695  1.00  0.00     0.211 HD
ENDBRANCH  21  26
BRANCH  23  28
ATOM     28  O   UNL     1       2.944 -10.807   8.876  1.00  0.00    -0.387 OA
ATOM     29  H   UNL     1       2.404 -11.599   9.134  1.00  0.00     0.211 HD
ENDBRANCH  23  28
BRANCH  24  30
ATOM     30  C   UNL     1       6.792  -9.824   5.813  1.00  0.00     0.191 C 
BRANCH  30  31
ATOM     31  O   UNL     1       7.086 -10.346   4.543  1.00  0.00    -0.394 OA
ATOM     32  H   UNL     1       6.222 -10.482   4.075  1.00  0.00     0.210 HD
ENDBRANCH  30  31
ENDBRANCH  24  30
BRANCH  25  33
ATOM     33  O   UNL     1       4.392  -8.990   6.893  1.00  0.00    -0.388 OA
ATOM     34  H   UNL     1       3.402  -9.049   6.877  1.00  0.00     0.211 HD
ENDBRANCH  25  33
ENDBRANCH  11  20
BRANCH  10  35
ATOM     35  O   UNL     1       3.494 -12.251   3.952  1.00  0.00    -0.507 OA
ATOM     36  H   UNL     1       4.081 -11.811   3.261  1.00  0.00     0.293 HD
ENDBRANCH  10  35
TORSDOF 9
ENDMDL
MODEL 2
REMARK VINA RESULT:    -7.093      2.819      4.003
REMARK INTER + INTRA:         -10.655
REMARK INTER:                  -9.387
REMARK INTRA:                  -1.267
REMARK UNBOUND:                -1.073
REMARK SMILES O=c1c(-c2ccc(O)cc2)coc2c([C@H]3O[C@@H](CO)[C@@H](O)[C@H](O)[C@@H]3O)c(O)ccc12
REMARK SMILES IDX 3 1 11 2 12 3 13 4 30 5 2 6 1 7 29 8 28 9 26 10 14 11 4 12
REMARK SMILES IDX 5 13 6 14 7 15 10 16 9 17 8 18 15 20 24 21 16 22 22 23 17 24
REMARK SMILES IDX 20 25 25 26 23 28 18 30 19 31 21 33 27 35
REMARK H PARENT 8 19 25 27 23 29 19 32 21 34 27 36
REMARK Flexibility Score: inf
ROOT
ATOM      1  C   UNL     1       3.456 -19.247   7.816  1.00  0.00     0.065 A 
ATOM      2  C   UNL     1       2.287 -18.471   7.828  1.00  0.00     0.208 A 
ATOM      3  O   UNL     1       2.346 -17.148   7.895  1.00  0.00    -0.463 OA
ATOM      4  C   UNL     1       3.488 -16.468   7.974  1.00  0.00     0.147 A 
ATOM      5  C   UNL     1       4.715 -17.173   7.981  1.00  0.00     0.066 A 
ATOM      6  C   UNL     1       4.691 -18.577   7.876  1.00  0.00     0.200 A 
ATOM      7  O   UNL     1       5.772 -19.228   7.811  1.00  0.00    -0.288 OA
ATOM      8  C   UNL     1       5.919 -16.467   8.076  1.00  0.00     0.020 A 
ATOM      9  C   UNL     1       5.909 -15.079   8.169  1.00  0.00     0.047 A 
ATOM     10  C   UNL     1       4.713 -14.361   8.149  1.00  0.00     0.125 A 
ATOM     11  C   UNL     1       3.469 -15.048   8.044  1.00  0.00     0.069 A 
ENDROOT
BRANCH   1  12
ATOM     12  C   UNL     1       3.364 -20.729   7.757  1.00  0.00    -0.011 A 
ATOM     13  C   UNL     1       3.160 -21.387   6.531  1.00  0.00     0.013 A 
ATOM     14  C   UNL     1       3.122 -22.783   6.473  1.00  0.00     0.047 A 
ATOM     15  C   UNL     1       3.284 -23.541   7.641  1.00  0.00     0.115 A 
ATOM     16  C   UNL     1       3.526 -21.498   8.925  1.00  0.00     0.013 A 
ATOM     17  C   UNL     1       3.477 -22.896   8.865  1.00  0.00     0.047 A 
BRANCH  15  18
ATOM     18  O   UNL     1       3.245 -24.932   7.594  1.00  0.00    -0.508 OA
ATOM     19  H   UNL     1       2.853 -25.423   6.799  1.00  0.00     0.293 HD
ENDBRANCH  15  18
ENDBRANCH   1  12
BRANCH  11  20
ATOM     20  C   UNL     1       2.136 -14.315   7.868  1.00  0.00     0.188 C 
ATOM     21  C   UNL     1       1.792 -14.147   6.348  1.00  0.00     0.179 C 
ATOM     22  O   UNL     1       2.149 -13.086   8.577  1.00  0.00    -0.362 OA
ATOM     23  C   UNL     1       1.689 -12.658   5.937  1.00  0.00     0.177 C 
ATOM     24  C   UNL     1       0.936 -12.381   8.380  1.00  0.00     0.176 C 
ATOM     25  C   UNL     1       0.870 -11.802   6.934  1.00  0.00     0.177 C 
BRANCH  21  26
ATOM     26  O   UNL     1       0.615 -14.845   6.024  1.00  0.00    -0.387 OA
ATOM     27  H   UNL     1       0.706 -15.775   6.366  1.00  0.00     0.211 HD
ENDBRANCH  21  26
BRANCH  23  28
ATOM     28  O   UNL     1       1.209 -12.515   4.622  1.00  0.00    -0.387 OA
ATOM     29  H   UNL     1       0.295 -12.131   4.667  1.00  0.00     0.211 HD
ENDBRANCH  23  28
BRANCH  24  30
ATOM     30  C   UNL     1       0.815 -11.311   9.475  1.00  0.00     0.191 C 
BRANCH  30  31
ATOM     31  O   UNL     1       2.027 -10.620   9.634  1.00  0.00    -0.394 OA
ATOM     32  H   UNL     1       2.023  -9.868   8.986  1.00  0.00     0.210 HD
ENDBRANCH  30  31
ENDBRANCH  24  30
BRANCH  25  33
ATOM     33  O   UNL     1       1.359 -10.483   6.898  1.00  0.00    -0.388 OA
ATOM     34  H   UNL     1       1.335 -10.143   7.830  1.00  0.00     0.211 HD
ENDBRANCH  25  33
ENDBRANCH  11  20
BRANCH  10  35
ATOM     35  O   UNL     1       4.828 -12.972   8.227  1.00  0.00    -0.507 OA
ATOM     36  H   UNL     1       5.689 -12.458   8.130  1.00  0.00     0.293 HD
ENDBRANCH  10  35
TORSDOF 9
ENDMDL
MODEL 3
REMARK VINA RESULT:    -6.895      1.850      8.817
REMARK INTER + INTRA:         -10.386
REMARK INTER:                  -9.215
REMARK INTRA:                  -1.172
REMARK UNBOUND:                -1.073
REMARK SMILES O=c1c(-c2ccc(O)cc2)coc2c([C@H]3O[C@@H](CO)[C@@H](O)[C@H](O)[C@@H]3O)c(O)ccc12
REMARK SMILES IDX 3 1 11 2 12 3 13 4 30 5 2 6 1 7 29 8 28 9 26 10 14 11 4 12
REMARK SMILES IDX 5 13 6 14 7 15 10 16 9 17 8 18 15 20 24 21 16 22 22 23 17 24
REMARK SMILES IDX 20 25 25 26 23 28 18 30 19 31 21 33 27 35
REMARK H PARENT 8 19 25 27 23 29 19 32 21 34 27 36
REMARK Flexibility Score: inf
ROOT
ATOM      1  C   UNL     1       4.060 -14.364   6.756  1.00  0.00     0.065 A 
ATOM      2  C   UNL     1       4.693 -15.378   7.491  1.00  0.00     0.208 A 
ATOM      3  O   UNL     1       4.323 -16.646   7.365  1.00  0.00    -0.463 OA
ATOM      4  C   UNL     1       3.334 -17.045   6.567  1.00  0.00     0.147 A 
ATOM      5  C   UNL     1       2.634 -16.085   5.798  1.00  0.00     0.066 A 
ATOM      6  C   UNL     1       3.023 -14.734   5.880  1.00  0.00     0.200 A 
ATOM      7  O   UNL     1       2.462 -13.866   5.156  1.00  0.00    -0.288 OA
ATOM      8  C   UNL     1       1.586 -16.495   4.966  1.00  0.00     0.020 A 
ATOM      9  C   UNL     1       1.232 -17.839   4.899  1.00  0.00     0.047 A 
ATOM     10  C   UNL     1       1.917 -18.805   5.637  1.00  0.00     0.125 A 
ATOM     11  C   UNL     1       2.995 -18.423   6.487  1.00  0.00     0.069 A 
ENDROOT
BRANCH   1  12
ATOM     12  C   UNL     1       4.481 -12.949   6.926  1.00  0.00    -0.011 A 
ATOM     13  C   UNL     1       5.144 -12.269   5.888  1.00  0.00     0.013 A 
ATOM     14  C   UNL     1       5.496 -10.924   6.035  1.00  0.00     0.047 A 
ATOM     15  C   UNL     1       5.194 -10.241   7.221  1.00  0.00     0.115 A 
ATOM     16  C   UNL     1       4.182 -12.256   8.114  1.00  0.00     0.013 A 
ATOM     17  C   UNL     1       4.545 -10.912   8.261  1.00  0.00     0.047 A 
BRANCH  15  18
ATOM     18  O   UNL     1       5.543  -8.903   7.378  1.00  0.00    -0.508 OA
ATOM     19  H   UNL     1       6.117  -8.422   6.694  1.00  0.00     0.293 HD
ENDBRANCH  15  18
ENDBRANCH   1  12
BRANCH  11  20
ATOM     20  C   UNL     1       3.880 -19.447   7.205  1.00  0.00     0.188 C 
ATOM     21  C   UNL     1       5.011 -19.966   6.252  1.00  0.00     0.179 C 
ATOM     22  O   UNL     1       3.087 -20.489   7.751  1.00  0.00    -0.362 OA
ATOM     23  C   UNL     1       4.912 -21.492   6.010  1.00  0.00     0.177 C 
ATOM     24  C   UNL     1       3.904 -21.464   8.376  1.00  0.00     0.176 C 
ATOM     25  C   UNL     1       4.667 -22.304   7.307  1.00  0.00     0.177 C 
BRANCH  21  26
ATOM     26  O   UNL     1       6.279 -19.612   6.747  1.00  0.00    -0.387 OA
ATOM     27  H   UNL     1       6.957 -20.180   6.291  1.00  0.00     0.211 HD
ENDBRANCH  21  26
BRANCH  23  28
ATOM     28  O   UNL     1       6.027 -21.979   5.303  1.00  0.00    -0.387 OA
ATOM     29  H   UNL     1       5.700 -22.582   4.587  1.00  0.00     0.211 HD
ENDBRANCH  23  28
BRANCH  24  30
ATOM     30  C   UNL     1       3.021 -22.311   9.305  1.00  0.00     0.191 C 
BRANCH  30  31
ATOM     31  O   UNL     1       3.695 -23.475   9.709  1.00  0.00    -0.394 OA
ATOM     32  H   UNL     1       3.620 -24.129   8.966  1.00  0.00     0.210 HD
ENDBRANCH  30  31
ENDBRANCH  24  30
BRANCH  25  33
ATOM     33  O   UNL     1       3.950 -23.468   6.977  1.00  0.00    -0.388 OA
ATOM     34  H   UNL     1       3.046 -23.177   6.692  1.00  0.00     0.211 HD
ENDBRANCH  25  33
ENDBRANCH  11  20
BRANCH  10  35
ATOM     35  O   UNL     1       1.487 -20.123   5.474  1.00  0.00    -0.507 OA
ATOM     36  H   UNL     1       0.537 -20.439   5.590  1.00  0.00     0.293 HD
ENDBRANCH  10  35
TORSDOF 9
ENDMDL
MODEL 4
REMARK VINA RESULT:    -6.876      1.989      2.838
REMARK INTER + INTRA:         -10.361
REMARK INTER:                  -9.161
REMARK INTRA:                  -1.200
REMARK UNBOUND:                -1.073
REMARK SMILES O=c1c(-c2ccc(O)cc2)coc2c([C@H]3O[C@@H](CO)[C@@H](O)[C@H](O)[C@@H]3O)c(O)ccc12
REMARK SMILES IDX 3 1 11 2 12 3 13 4 30 5 2 6 1 7 29 8 28 9 26 10 14 11 4 12
REMARK SMILES IDX 5 13 6 14 7 15 10 16 9 17 8 18 15 20 24 21 16 22 22 23 17 24
REMARK SMILES IDX 20 25 25 26 23 28 18 30 19 31 21 33 27 35
REMARK H PARENT 8 19 25 27 23 29 19 32 21 34 27 36
REMARK Flexibility Score: inf
ROOT
ATOM      1  C   UNL     1       4.334 -19.452   5.956  1.00  0.00     0.065 A 
ATOM      2  C   UNL     1       3.809 -18.340   6.631  1.00  0.00     0.208 A 
ATOM      3  O   UNL     1       4.034 -17.107   6.195  1.00  0.00    -0.463 OA
ATOM      4  C   UNL     1       4.774 -16.833   5.122  1.00  0.00     0.147 A 
ATOM      5  C   UNL     1       5.353 -17.897   4.389  1.00  0.00     0.066 A 
ATOM      6  C   UNL     1       5.105 -19.220   4.803  1.00  0.00     0.200 A 
ATOM      7  O   UNL     1       5.552 -20.190   4.130  1.00  0.00    -0.288 OA
ATOM      8  C   UNL     1       6.141 -17.617   3.267  1.00  0.00     0.020 A 
ATOM      9  C   UNL     1       6.360 -16.299   2.879  1.00  0.00     0.047 A 
ATOM     10  C   UNL     1       5.788 -15.234   3.577  1.00  0.00     0.125 A 
ATOM     11  C   UNL     1       4.971 -15.485   4.718  1.00  0.00     0.069 A 
ENDROOT
BRANCH   1  12
ATOM     12  C   UNL     1       4.081 -20.822   6.473  1.00  0.00    -0.011 A 
ATOM     13  C   UNL     1       3.086 -21.633   5.898  1.00  0.00     0.013 A 
ATOM     14  C   UNL     1       2.884 -22.939   6.355  1.00  0.00     0.047 A 
ATOM     15  C   UNL     1       3.670 -23.451   7.397  1.00  0.00     0.115 A 
ATOM     16  C   UNL     1       4.866 -21.345   7.518  1.00  0.00     0.013 A 
ATOM     17  C   UNL     1       4.654 -22.649   7.980  1.00  0.00     0.047 A 
BRANCH  15  18
ATOM     18  O   UNL     1       3.474 -24.748   7.861  1.00  0.00    -0.508 OA
ATOM     19  H   UNL     1       3.124 -25.480   7.253  1.00  0.00     0.293 HD
ENDBRANCH  15  18
ENDBRANCH   1  12
BRANCH  11  20
ATOM     20  C   UNL     1       4.197 -14.375   5.436  1.00  0.00     0.188 C 
ATOM     21  C   UNL     1       3.010 -13.865   4.549  1.00  0.00     0.179 C 
ATOM     22  O   UNL     1       5.079 -13.339   5.840  1.00  0.00    -0.362 OA
ATOM     23  C   UNL     1       3.152 -12.365   4.195  1.00  0.00     0.177 C 
ATOM     24  C   UNL     1       4.361 -12.288   6.463  1.00  0.00     0.176 C 
ATOM     25  C   UNL     1       3.544 -11.483   5.407  1.00  0.00     0.177 C 
BRANCH  21  26
ATOM     26  O   UNL     1       1.776 -14.125   5.172  1.00  0.00    -0.387 OA
ATOM     27  H   UNL     1       1.095 -14.263   4.460  1.00  0.00     0.211 HD
ENDBRANCH  21  26
BRANCH  23  28
ATOM     28  O   UNL     1       2.002 -11.872   3.553  1.00  0.00    -0.387 OA
ATOM     29  H   UNL     1       1.207 -12.277   3.988  1.00  0.00     0.211 HD
ENDBRANCH  23  28
BRANCH  24  30
ATOM     30  C   UNL     1       5.357 -11.425   7.254  1.00  0.00     0.191 C 
BRANCH  30  31
ATOM     31  O   UNL     1       4.701 -10.355   7.882  1.00  0.00    -0.394 OA
ATOM     32  H   UNL     1       4.551 -10.618   8.827  1.00  0.00     0.210 HD
ENDBRANCH  30  31
ENDBRANCH  24  30
BRANCH  25  33
ATOM     33  O   UNL     1       4.278 -10.378   4.938  1.00  0.00    -0.388 OA
ATOM     34  H   UNL     1       4.669 -10.643   4.066  1.00  0.00     0.211 HD
ENDBRANCH  25  33
ENDBRANCH  11  20
BRANCH  10  35
ATOM     35  O   UNL     1       6.059 -13.958   3.082  1.00  0.00    -0.507 OA
ATOM     36  H   UNL     1       5.508 -13.480   2.386  1.00  0.00     0.293 HD
ENDBRANCH  10  35
TORSDOF 9
ENDMDL
MODEL 5
REMARK VINA RESULT:    -6.850      2.278      8.649
REMARK INTER + INTRA:         -10.326
REMARK INTER:                  -9.222
REMARK INTRA:                  -1.104
REMARK UNBOUND:                -1.073
REMARK SMILES O=c1c(-c2ccc(O)cc2)coc2c([C@H]3O[C@@H](CO)[C@@H](O)[C@H](O)[C@@H]3O)c(O)ccc12
REMARK SMILES IDX 3 1 11 2 12 3 13 4 30 5 2 6 1 7 29 8 28 9 26 10 14 11 4 12
REMARK SMILES IDX 5 13 6 14 7 15 10 16 9 17 8 18 15 20 24 21 16 22 22 23 17 24
REMARK SMILES IDX 20 25 25 26 23 28 18 30 19 31 21 33 27 35
REMARK H PARENT 8 19 25 27 23 29 19 32 21 34 27 36
REMARK Flexibility Score: inf
ROOT
ATOM      1  C   UNL     1       3.192 -14.103   6.645  1.00  0.00     0.065 A 
ATOM      2  C   UNL     1       2.822 -15.332   7.210  1.00  0.00     0.208 A 
ATOM      3  O   UNL     1       3.282 -16.476   6.720  1.00  0.00    -0.463 OA
ATOM      4  C   UNL     1       4.096 -16.547   5.668  1.00  0.00     0.147 A 
ATOM      5  C   UNL     1       4.510 -15.355   5.029  1.00  0.00     0.066 A 
ATOM      6  C   UNL     1       4.068 -14.120   5.545  1.00  0.00     0.200 A 
ATOM      7  O   UNL     1       4.475 -13.038   5.037  1.00  0.00    -0.288 OA
ATOM      8  C   UNL     1       5.356 -15.422   3.917  1.00  0.00     0.020 A 
ATOM      9  C   UNL     1       5.782 -16.657   3.437  1.00  0.00     0.047 A 
ATOM     10  C   UNL     1       5.398 -17.846   4.059  1.00  0.00     0.125 A 
ATOM     11  C   UNL     1       4.546 -17.812   5.201  1.00  0.00     0.069 A 
ENDROOT
BRANCH   1  12
ATOM     12  C   UNL     1       2.651 -12.836   7.201  1.00  0.00    -0.011 A 
ATOM     13  C   UNL     1       1.562 -12.191   6.588  1.00  0.00     0.013 A 
ATOM     14  C   UNL     1       1.025 -11.025   7.141  1.00  0.00     0.047 A 
ATOM     15  C   UNL     1       1.572 -10.484   8.314  1.00  0.00     0.115 A 
ATOM     16  C   UNL     1       3.194 -12.286   8.378  1.00  0.00     0.013 A 
ATOM     17  C   UNL     1       2.660 -11.112   8.924  1.00  0.00     0.047 A 
BRANCH  15  18
ATOM     18  O   UNL     1       1.046  -9.322   8.871  1.00  0.00    -0.508 OA
ATOM     19  H   UNL     1       0.241  -8.858   8.466  1.00  0.00     0.293 HD
ENDBRANCH  15  18
ENDBRANCH   1  12
BRANCH  11  20
ATOM     20  C   UNL     1       4.211 -19.066   6.015  1.00  0.00     0.188 C 
ATOM     21  C   UNL     1       5.491 -19.622   6.727  1.00  0.00     0.179 C 
ATOM     22  O   UNL     1       3.563 -20.028   5.198  1.00  0.00    -0.362 OA
ATOM     23  C   UNL     1       5.839 -21.056   6.260  1.00  0.00     0.177 C 
ATOM     24  C   UNL     1       3.293 -21.208   5.934  1.00  0.00     0.176 C 
ATOM     25  C   UNL     1       4.610 -21.998   6.203  1.00  0.00     0.177 C 
BRANCH  21  26
ATOM     26  O   UNL     1       5.347 -19.565   8.126  1.00  0.00    -0.387 OA
ATOM     27  H   UNL     1       6.232 -19.336   8.517  1.00  0.00     0.211 HD
ENDBRANCH  21  26
BRANCH  23  28
ATOM     28  O   UNL     1       6.877 -21.615   7.028  1.00  0.00    -0.387 OA
ATOM     29  H   UNL     1       7.679 -21.701   6.449  1.00  0.00     0.211 HD
ENDBRANCH  23  28
BRANCH  24  30
ATOM     30  C   UNL     1       2.236 -22.022   5.171  1.00  0.00     0.191 C 
BRANCH  30  31
ATOM     31  O   UNL     1       1.765 -23.087   5.955  1.00  0.00    -0.394 OA
ATOM     32  H   UNL     1       2.489 -23.764   5.996  1.00  0.00     0.210 HD
ENDBRANCH  30  31
ENDBRANCH  24  30
BRANCH  25  33
ATOM     33  O   UNL     1       4.831 -22.963   5.203  1.00  0.00    -0.388 OA
ATOM     34  H   UNL     1       4.656 -22.519   4.334  1.00  0.00     0.211 HD
ENDBRANCH  25  33
ENDBRANCH  11  20
BRANCH  10  35
ATOM     35  O   UNL     1       5.905 -19.022   3.504  1.00  0.00    -0.507 OA
ATOM     36  H   UNL     1       6.099 -19.161   2.524  1.00  0.00     0.293 HD
ENDBRANCH  10  35
TORSDOF 9
ENDMDL
MODEL 6
REMARK VINA RESULT:    -6.827      3.659      8.937
REMARK INTER + INTRA:         -10.295
REMARK INTER:                  -9.454
REMARK INTRA:                  -0.841
REMARK UNBOUND:                -1.073
REMARK SMILES O=c1c(-c2ccc(O)cc2)coc2c([C@H]3O[C@@H](CO)[C@@H](O)[C@H](O)[C@@H]3O)c(O)ccc12
REMARK SMILES IDX 3 1 11 2 12 3 13 4 30 5 2 6 1 7 29 8 28 9 26 10 14 11 4 12
REMARK SMILES IDX 5 13 6 14 7 15 10 16 9 17 8 18 15 20 24 21 16 22 22 23 17 24
REMARK SMILES IDX 20 25 25 26 23 28 18 30 19 31 21 33 27 35
REMARK H PARENT 8 19 25 27 23 29 19 32 21 34 27 36
REMARK Flexibility Score: inf
ROOT
ATOM      1  C   UNL     1       1.376 -15.501   8.766  1.00  0.00     0.065 A 
ATOM      2  C   UNL     1       0.891 -16.767   8.406  1.00  0.00     0.208 A 
ATOM      3  O   UNL     1       1.704 -17.700   7.928  1.00  0.00    -0.463 OA
ATOM      4  C   UNL     1       3.008 -17.508   7.739  1.00  0.00     0.147 A 
ATOM      5  C   UNL     1       3.579 -16.255   8.064  1.00  0.00     0.066 A 
ATOM      6  C   UNL     1       2.751 -15.253   8.607  1.00  0.00     0.200 A 
ATOM      7  O   UNL     1       3.245 -14.149   8.970  1.00  0.00    -0.288 OA
ATOM      8  C   UNL     1       4.946 -16.042   7.858  1.00  0.00     0.020 A 
ATOM      9  C   UNL     1       5.739 -17.055   7.328  1.00  0.00     0.047 A 
ATOM     10  C   UNL     1       5.201 -18.304   7.013  1.00  0.00     0.125 A 
ATOM     11  C   UNL     1       3.815 -18.558   7.221  1.00  0.00     0.069 A 
ENDROOT
BRANCH   1  12
ATOM     12  C   UNL     1       0.443 -14.467   9.284  1.00  0.00    -0.011 A 
ATOM     13  C   UNL     1      -0.310 -14.699  10.449  1.00  0.00     0.013 A 
ATOM     14  C   UNL     1      -1.150 -13.705  10.960  1.00  0.00     0.047 A 
ATOM     15  C   UNL     1      -1.253 -12.467  10.310  1.00  0.00     0.115 A 
ATOM     16  C   UNL     1       0.334 -13.221   8.639  1.00  0.00     0.013 A 
ATOM     17  C   UNL     1      -0.517 -12.232   9.147  1.00  0.00     0.047 A 
BRANCH  15  18
ATOM     18  O   UNL     1      -2.090 -11.473  10.809  1.00  0.00    -0.508 OA
ATOM     19  H   UNL     1      -2.718 -11.650  11.584  1.00  0.00     0.293 HD
ENDBRANCH  15  18
ENDBRANCH   1  12
BRANCH  11  20
ATOM     20  C   UNL     1       3.195 -19.947   7.036  1.00  0.00     0.188 C 
ATOM     21  C   UNL     1       3.836 -20.976   8.029  1.00  0.00     0.179 C 
ATOM     22  O   UNL     1       3.283 -20.351   5.678  1.00  0.00    -0.362 OA
ATOM     23  C   UNL     1       4.550 -22.132   7.287  1.00  0.00     0.177 C 
ATOM     24  C   UNL     1       2.754 -21.655   5.510  1.00  0.00     0.176 C 
ATOM     25  C   UNL     1       3.717 -22.718   6.119  1.00  0.00     0.177 C 
BRANCH  21  26
ATOM     26  O   UNL     1       2.871 -21.467   8.926  1.00  0.00    -0.387 OA
ATOM     27  H   UNL     1       3.294 -21.537   9.824  1.00  0.00     0.211 HD
ENDBRANCH  21  26
BRANCH  23  28
ATOM     28  O   UNL     1       4.967 -23.140   8.176  1.00  0.00    -0.387 OA
ATOM     29  H   UNL     1       4.846 -24.017   7.728  1.00  0.00     0.211 HD
ENDBRANCH  23  28
BRANCH  24  30
ATOM     30  C   UNL     1       2.469 -21.871   4.015  1.00  0.00     0.191 C 
BRANCH  30  31
ATOM     31  O   UNL     1       3.536 -21.405   3.231  1.00  0.00    -0.394 OA
ATOM     32  H   UNL     1       4.038 -20.748   3.780  1.00  0.00     0.210 HD
ENDBRANCH  30  31
ENDBRANCH  24  30
BRANCH  25  33
ATOM     33  O   UNL     1       4.601 -23.214   5.144  1.00  0.00    -0.388 OA
ATOM     34  H   UNL     1       4.864 -24.126   5.432  1.00  0.00     0.211 HD
ENDBRANCH  25  33
ENDBRANCH  11  20
BRANCH  10  35
ATOM     35  O   UNL     1       6.096 -19.250   6.509  1.00  0.00    -0.507 OA
ATOM     36  H   UNL     1       5.853 -19.995   5.876  1.00  0.00     0.293 HD
ENDBRANCH  10  35
TORSDOF 9
ENDMDL
MODEL 7
REMARK VINA RESULT:    -6.810      2.297      2.671
REMARK INTER + INTRA:         -10.271
REMARK INTER:                  -9.544
REMARK INTRA:                  -0.727
REMARK UNBOUND:                -1.073
REMARK SMILES O=c1c(-c2ccc(O)cc2)coc2c([C@H]3O[C@@H](CO)[C@@H](O)[C@H](O)[C@@H]3O)c(O)ccc12
REMARK SMILES IDX 3 1 11 2 12 3 13 4 30 5 2 6 1 7 29 8 28 9 26 10 14 11 4 12
REMARK SMILES IDX 5 13 6 14 7 15 10 16 9 17 8 18 15 20 24 21 16 22 22 23 17 24
REMARK SMILES IDX 20 25 25 26 23 28 18 30 19 31 21 33 27 35
REMARK H PARENT 8 19 25 27 23 29 19 32 21 34 27 36
REMARK Flexibility Score: inf
ROOT
ATOM      1  C   UNL     1       3.358 -18.706   7.727  1.00  0.00     0.065 A 
ATOM      2  C   UNL     1       4.243 -17.708   7.295  1.00  0.00     0.208 A 
ATOM      3  O   UNL     1       3.863 -16.438   7.230  1.00  0.00    -0.463 OA
ATOM      4  C   UNL     1       2.637 -16.024   7.544  1.00  0.00     0.147 A 
ATOM      5  C   UNL     1       1.676 -16.968   7.978  1.00  0.00     0.066 A 
ATOM      6  C   UNL     1       2.056 -18.320   8.092  1.00  0.00     0.200 A 
ATOM      7  O   UNL     1       1.241 -19.173   8.541  1.00  0.00    -0.288 OA
ATOM      8  C   UNL     1       0.382 -16.543   8.299  1.00  0.00     0.020 A 
ATOM      9  C   UNL     1       0.040 -15.199   8.185  1.00  0.00     0.047 A 
ATOM     10  C   UNL     1       0.974 -14.247   7.772  1.00  0.00     0.125 A 
ATOM     11  C   UNL     1       2.304 -14.646   7.448  1.00  0.00     0.069 A 
ENDROOT
BRANCH   1  12
ATOM     12  C   UNL     1       3.802 -20.123   7.776  1.00  0.00    -0.011 A 
ATOM     13  C   UNL     1       3.318 -20.994   8.769  1.00  0.00     0.013 A 
ATOM     14  C   UNL     1       3.701 -22.338   8.782  1.00  0.00     0.047 A 
ATOM     15  C   UNL     1       4.578 -22.831   7.805  1.00  0.00     0.115 A 
ATOM     16  C   UNL     1       4.682 -20.627   6.798  1.00  0.00     0.013 A 
ATOM     17  C   UNL     1       5.072 -21.971   6.821  1.00  0.00     0.047 A 
BRANCH  15  18
ATOM     18  O   UNL     1       4.968 -24.167   7.811  1.00  0.00    -0.508 OA
ATOM     19  H   UNL     1       4.568 -24.831   8.464  1.00  0.00     0.293 HD
ENDBRANCH  15  18
ENDBRANCH   1  12
BRANCH  11  20
ATOM     20  C   UNL     1       3.412 -13.636   7.135  1.00  0.00     0.188 C 
ATOM     21  C   UNL     1       4.059 -13.095   8.455  1.00  0.00     0.179 C 
ATOM     22  O   UNL     1       2.919 -12.606   6.291  1.00  0.00    -0.362 OA
ATOM     23  C   UNL     1       3.881 -11.565   8.606  1.00  0.00     0.177 C 
ATOM     24  C   UNL     1       3.927 -11.643   6.036  1.00  0.00     0.176 C 
ATOM     25  C   UNL     1       4.193 -10.780   7.306  1.00  0.00     0.177 C 
BRANCH  21  26
ATOM     26  O   UNL     1       5.416 -13.458   8.529  1.00  0.00    -0.387 OA
ATOM     27  H   UNL     1       5.709 -13.738   7.620  1.00  0.00     0.211 HD
ENDBRANCH  21  26
BRANCH  23  28
ATOM     28  O   UNL     1       4.613 -11.062   9.697  1.00  0.00    -0.387 OA
ATOM     29  H   UNL     1       3.970 -10.787  10.401  1.00  0.00     0.211 HD
ENDBRANCH  23  28
BRANCH  24  30
ATOM     30  C   UNL     1       3.507 -10.817   4.811  1.00  0.00     0.191 C 
BRANCH  30  31
ATOM     31  O   UNL     1       4.340  -9.698   4.654  1.00  0.00    -0.394 OA
ATOM     32  H   UNL     1       4.540  -9.615   3.686  1.00  0.00     0.210 HD
ENDBRANCH  30  31
ENDBRANCH  24  30
BRANCH  25  33
ATOM     33  O   UNL     1       3.412  -9.610   7.292  1.00  0.00    -0.388 OA
ATOM     34  H   UNL     1       2.713  -9.724   7.986  1.00  0.00     0.211 HD
ENDBRANCH  25  33
ENDBRANCH  11  20
BRANCH  10  35
ATOM     35  O   UNL     1       0.524 -12.927   7.717  1.00  0.00    -0.507 OA
ATOM     36  H   UNL     1      -0.336 -12.629   7.283  1.00  0.00     0.293 HD
ENDBRANCH  10  35
TORSDOF 9
ENDMDL
MODEL 8
REMARK VINA RESULT:    -6.798      2.190      8.786
REMARK INTER + INTRA:         -10.255
REMARK INTER:                  -9.082
REMARK INTRA:                  -1.174
REMARK UNBOUND:                -1.073
REMARK SMILES O=c1c(-c2ccc(O)cc2)coc2c([C@H]3O[C@@H](CO)[C@@H](O)[C@H](O)[C@@H]3O)c(O)ccc12
REMARK SMILES IDX 3 1 11 2 12 3 13 4 30 5 2 6 1 7 29 8 28 9 26 10 14 11 4 12
REMARK SMILES IDX 5 13 6 14 7 15 10 16 9 17 8 18 15 20 24 21 16 22 22 23 17 24
REMARK SMILES IDX 20 25 25 26 23 28 18 30 19 31 21 33 27 35
REMARK H PARENT 8 19 25 27 23 29 19 32 21 34 27 36
REMARK Flexibility Score: inf
ROOT
ATOM      1  C   UNL     1       4.770 -14.163   5.505  1.00  0.00     0.065 A 
ATOM      2  C   UNL     1       4.251 -15.170   6.333  1.00  0.00     0.208 A 
ATOM      3  O   UNL     1       4.296 -16.445   5.967  1.00  0.00    -0.463 OA
ATOM      4  C   UNL     1       4.805 -16.857   4.808  1.00  0.00     0.147 A 
ATOM      5  C   UNL     1       5.338 -15.905   3.907  1.00  0.00     0.066 A 
ATOM      6  C   UNL     1       5.339 -14.546   4.278  1.00  0.00     0.200 A 
ATOM      7  O   UNL     1       5.869 -13.683   3.524  1.00  0.00    -0.288 OA
ATOM      8  C   UNL     1       5.865 -16.330   2.682  1.00  0.00     0.020 A 
ATOM      9  C   UNL     1       5.857 -17.680   2.349  1.00  0.00     0.047 A 
ATOM     10  C   UNL     1       5.350 -18.639   3.227  1.00  0.00     0.125 A 
ATOM     11  C   UNL     1       4.816 -18.242   4.487  1.00  0.00     0.069 A 
ENDROOT
BRANCH   1  12
ATOM     12  C   UNL     1       4.694 -12.740   5.929  1.00  0.00    -0.011 A 
ATOM     13  C   UNL     1       5.443 -12.278   7.026  1.00  0.00     0.013 A 
ATOM     14  C   UNL     1       5.405 -10.929   7.391  1.00  0.00     0.047 A 
ATOM     15  C   UNL     1       4.615 -10.024   6.668  1.00  0.00     0.115 A 
ATOM     16  C   UNL     1       3.903 -11.825   5.208  1.00  0.00     0.013 A 
ATOM     17  C   UNL     1       3.860 -10.477   5.583  1.00  0.00     0.047 A 
BRANCH  15  18
ATOM     18  O   UNL     1       4.568  -8.680   7.026  1.00  0.00    -0.508 OA
ATOM     19  H   UNL     1       5.314  -8.040   6.777  1.00  0.00     0.293 HD
ENDBRANCH  15  18
ENDBRANCH   1  12
BRANCH  11  20
ATOM     20  C   UNL     1       4.382 -19.253   5.553  1.00  0.00     0.188 C 
ATOM     21  C   UNL     1       5.616 -19.745   6.385  1.00  0.00     0.179 C 
ATOM     22  O   UNL     1       3.650 -20.314   4.960  1.00  0.00    -0.362 OA
ATOM     23  C   UNL     1       5.839 -21.270   6.249  1.00  0.00     0.177 C 
ATOM     24  C   UNL     1       3.287 -21.277   5.934  1.00  0.00     0.176 C 
ATOM     25  C   UNL     1       4.534 -22.095   6.386  1.00  0.00     0.177 C 
BRANCH  21  26
ATOM     26  O   UNL     1       5.487 -19.369   7.735  1.00  0.00    -0.387 OA
ATOM     27  H   UNL     1       5.291 -18.394   7.765  1.00  0.00     0.211 HD
ENDBRANCH  21  26
BRANCH  23  28
ATOM     28  O   UNL     1       6.832 -21.731   7.132  1.00  0.00    -0.387 OA
ATOM     29  H   UNL     1       6.490 -22.546   7.585  1.00  0.00     0.211 HD
ENDBRANCH  23  28
BRANCH  24  30
ATOM     30  C   UNL     1       2.159 -22.147   5.356  1.00  0.00     0.191 C 
BRANCH  30  31
ATOM     31  O   UNL     1       1.830 -23.188   6.240  1.00  0.00    -0.394 OA
ATOM     32  H   UNL     1       2.588 -23.286   6.872  1.00  0.00     0.210 HD
ENDBRANCH  30  31
ENDBRANCH  24  30
BRANCH  25  33
ATOM     33  O   UNL     1       4.667 -23.271   5.625  1.00  0.00    -0.388 OA
ATOM     34  H   UNL     1       4.598 -24.032   6.258  1.00  0.00     0.211 HD
ENDBRANCH  25  33
ENDBRANCH  11  20
BRANCH  10  35
ATOM     35  O   UNL     1       5.415 -19.965   2.795  1.00  0.00    -0.507 OA
ATOM     36  H   UNL     1       4.640 -20.609   2.788  1.00  0.00     0.293 HD
ENDBRANCH  10  35
TORSDOF 9
ENDMDL
MODEL 9
REMARK VINA RESULT:    -6.689      2.294      8.771
REMARK INTER + INTRA:         -10.109
REMARK INTER:                  -8.831
REMARK INTRA:                  -1.277
REMARK UNBOUND:                -1.073
REMARK SMILES O=c1c(-c2ccc(O)cc2)coc2c([C@H]3O[C@@H](CO)[C@@H](O)[C@H](O)[C@@H]3O)c(O)ccc12
REMARK SMILES IDX 3 1 11 2 12 3 13 4 30 5 2 6 1 7 29 8 28 9 26 10 14 11 4 12
REMARK SMILES IDX 5 13 6 14 7 15 10 16 9 17 8 18 15 20 24 21 16 22 22 23 17 24
REMARK SMILES IDX 20 25 25 26 23 28 18 30 19 31 21 33 27 35
REMARK H PARENT 8 19 25 27 23 29 19 32 21 34 27 36
REMARK Flexibility Score: inf
ROOT
ATOM      1  C   UNL     1       5.022 -13.145   5.988  1.00  0.00     0.065 A 
ATOM      2  C   UNL     1       4.823 -14.035   4.923  1.00  0.00     0.208 A 
ATOM      3  O   UNL     1       4.838 -15.347   5.117  1.00  0.00    -0.463 OA
ATOM      4  C   UNL     1       5.058 -15.910   6.303  1.00  0.00     0.147 A 
ATOM      5  C   UNL     1       5.281 -15.085   7.431  1.00  0.00     0.066 A 
ATOM      6  C   UNL     1       5.237 -13.687   7.268  1.00  0.00     0.200 A 
ATOM      7  O   UNL     1       5.365 -12.927   8.268  1.00  0.00    -0.288 OA
ATOM      8  C   UNL     1       5.523 -15.669   8.679  1.00  0.00     0.020 A 
ATOM      9  C   UNL     1       5.551 -17.054   8.809  1.00  0.00     0.047 A 
ATOM     10  C   UNL     1       5.320 -17.888   7.714  1.00  0.00     0.125 A 
ATOM     11  C   UNL     1       5.060 -17.326   6.431  1.00  0.00     0.069 A 
ENDROOT
BRANCH   1  12
ATOM     12  C   UNL     1       5.017 -11.679   5.744  1.00  0.00    -0.011 A 
ATOM     13  C   UNL     1       3.807 -10.990   5.544  1.00  0.00     0.013 A 
ATOM     14  C   UNL     1       3.804  -9.604   5.362  1.00  0.00     0.047 A 
ATOM     15  C   UNL     1       5.009  -8.888   5.372  1.00  0.00     0.115 A 
ATOM     16  C   UNL     1       6.223 -10.952   5.753  1.00  0.00     0.013 A 
ATOM     17  C   UNL     1       6.216  -9.566   5.559  1.00  0.00     0.047 A 
BRANCH  15  18
ATOM     18  O   UNL     1       5.015  -7.508   5.189  1.00  0.00    -0.508 OA
ATOM     19  H   UNL     1       4.318  -6.913   5.621  1.00  0.00     0.293 HD
ENDBRANCH  15  18
ENDBRANCH   1  12
BRANCH  11  20
ATOM     20  C   UNL     1       4.653 -18.179   5.226  1.00  0.00     0.188 C 
ATOM     21  C   UNL     1       3.104 -18.419   5.215  1.00  0.00     0.179 C 
ATOM     22  O   UNL     1       5.405 -19.383   5.195  1.00  0.00    -0.362 OA
ATOM     23  C   UNL     1       2.748 -19.922   5.320  1.00  0.00     0.177 C 
ATOM     24  C   UNL     1       4.999 -20.198   4.109  1.00  0.00     0.176 C 
ATOM     25  C   UNL     1       3.598 -20.821   4.386  1.00  0.00     0.177 C 
BRANCH  21  26
ATOM     26  O   UNL     1       2.519 -17.838   4.075  1.00  0.00    -0.387 OA
ATOM     27  H   UNL     1       1.957 -18.528   3.632  1.00  0.00     0.211 HD
ENDBRANCH  21  26
BRANCH  23  28
ATOM     28  O   UNL     1       1.371 -20.144   5.131  1.00  0.00    -0.387 OA
ATOM     29  H   UNL     1       0.909 -19.266   5.162  1.00  0.00     0.211 HD
ENDBRANCH  23  28
BRANCH  24  30
ATOM     30  C   UNL     1       6.096 -21.244   3.855  1.00  0.00     0.191 C 
BRANCH  30  31
ATOM     31  O   UNL     1       6.555 -21.789   5.064  1.00  0.00    -0.394 OA
ATOM     32  H   UNL     1       7.535 -21.917   4.974  1.00  0.00     0.210 HD
ENDBRANCH  30  31
ENDBRANCH  24  30
BRANCH  25  33
ATOM     33  O   UNL     1       3.720 -22.091   4.979  1.00  0.00    -0.388 OA
ATOM     34  H   UNL     1       2.801 -22.401   5.184  1.00  0.00     0.211 HD
ENDBRANCH  25  33
ENDBRANCH  11  20
BRANCH  10  35
ATOM     35  O   UNL     1       5.351 -19.260   7.969  1.00  0.00    -0.507 OA
ATOM     36  H   UNL     1       4.623 -19.910   7.717  1.00  0.00     0.293 HD
ENDBRANCH  10  35
TORSDOF 9
ENDMDL
