MODEL 1
REMARK VINA RESULT:    -4.166      0.000      0.000
REMARK INTER + INTRA:          -4.663
REMARK INTER:                  -4.653
REMARK INTRA:                  -0.010
REMARK UNBOUND:                -0.010
REMARK SMILES CCCC(=O)[O-]
REMARK SMILES IDX 3 1 4 2 5 3 6 4 2 5 1 6
REMARK H PARENT
REMARK Flexibility Score: inf
ROOT
ATOM      1  C   UNL     1      -5.119  -9.259  19.279  1.00  0.00     0.052 C 
ENDROOT
BRANCH   1   2
ATOM      2  C   UNL     1      -4.045  -8.504  18.556  1.00  0.00     0.041 C 
ATOM      3  O   UNL     1      -4.157  -8.265  17.326  1.00  0.00    -0.550 OA
ATOM      4  O   UNL     1      -2.937  -8.035  19.250  1.00  0.00    -0.550 OA
ENDBRANCH   1   2
BRANCH   1   5
ATOM      5  C   UNL     1      -6.484  -9.097  18.598  1.00  0.00     0.003 C 
ATOM      6  C   UNL     1      -7.567  -9.955  19.254  1.00  0.00     0.004 C 
ENDBRANCH   1   5
TORSDOF 2
ENDMDL
MODEL 2
REMARK VINA RESULT:    -3.831      2.653      3.808
REMARK INTER + INTRA:          -4.289
REMARK INTER:                  -4.277
REMARK INTRA:                  -0.011
REMARK UNBOUND:                -0.010
REMARK SMILES CCCC(=O)[O-]
REMARK SMILES IDX 3 1 4 2 5 3 6 4 2 5 1 6
REMARK H PARENT
REMARK Flexibility Score: inf
ROOT
ATOM      1  C   UNL     1      -5.873  -8.905  18.477  1.00  0.00     0.052 C 
ENDROOT
BRANCH   1   2
ATOM      2  C   UNL     1      -6.997  -9.706  19.061  1.00  0.00     0.041 C 
ATOM      3  O   UNL     1      -6.810 -10.395  20.098  1.00  0.00    -0.550 OA
ATOM      4  O   UNL     1      -8.257  -9.666  18.479  1.00  0.00    -0.550 OA
ENDBRANCH   1   2
BRANCH   1   5
ATOM      5  C   UNL     1      -4.565  -9.111  19.251  1.00  0.00     0.003 C 
ATOM      6  C   UNL     1      -3.447  -8.190  18.761  1.00  0.00     0.004 C 
ENDBRANCH   1   5
TORSDOF 2
ENDMDL
MODEL 3
REMARK VINA RESULT:    -3.569     17.972     18.466
REMARK INTER + INTRA:          -3.997
REMARK INTER:                  -3.962
REMARK INTRA:                  -0.034
REMARK UNBOUND:                -0.010
REMARK SMILES CCCC(=O)[O-]
REMARK SMILES IDX 3 1 4 2 5 3 6 4 2 5 1 6
REMARK H PARENT
REMARK Flexibility Score: inf
ROOT
ATOM      1  C   UNL     1       2.681 -21.020   8.338  1.00  0.00     0.052 C 
ENDROOT
BRANCH   1   2
ATOM      2  C   UNL     1       2.029 -22.157   9.066  1.00  0.00     0.041 C 
ATOM      3  O   UNL     1       1.502 -23.101   8.422  1.00  0.00    -0.550 OA
ATOM      4  O   UNL     1       2.034 -22.188  10.454  1.00  0.00    -0.550 OA
ENDBRANCH   1   2
BRANCH   1   5
ATOM      5  C   UNL     1       2.284 -20.992   6.856  1.00  0.00     0.003 C 
ATOM      6  C   UNL     1       3.496 -21.080   5.928  1.00  0.00     0.004 C 
ENDBRANCH   1   5
TORSDOF 2
ENDMDL
MODEL 4
REMARK VINA RESULT:    -3.414     18.163     18.686
REMARK INTER + INTRA:          -3.823
REMARK INTER:                  -3.788
REMARK INTRA:                  -0.035
REMARK UNBOUND:                -0.010
REMARK SMILES CCCC(=O)[O-]
REMARK SMILES IDX 3 1 4 2 5 3 6 4 2 5 1 6
REMARK H PARENT
REMARK Flexibility Score: inf
ROOT
ATOM      1  C   UNL     1       3.827 -21.509   7.757  1.00  0.00     0.052 C 
ENDROOT
BRANCH   1   2
ATOM      2  C   UNL     1       3.140 -21.041   6.510  1.00  0.00     0.041 C 
ATOM      3  O   UNL     1       1.934 -20.682   6.548  1.00  0.00    -0.550 OA
ATOM      4  O   UNL     1       3.842 -20.970   5.314  1.00  0.00    -0.550 OA
ENDBRANCH   1   2
BRANCH   1   5
ATOM      5  C   UNL     1       3.156 -20.952   9.019  1.00  0.00     0.003 C 
ATOM      6  C   UNL     1       2.703 -22.057   9.974  1.00  0.00     0.004 C 
ENDBRANCH   1   5
TORSDOF 2
ENDMDL
MODEL 5
REMARK VINA RESULT:    -2.991     18.095     18.569
REMARK INTER + INTRA:          -3.350
REMARK INTER:                  -3.331
REMARK INTRA:                  -0.020
REMARK UNBOUND:                -0.010
REMARK SMILES CCCC(=O)[O-]
REMARK SMILES IDX 3 1 4 2 5 3 6 4 2 5 1 6
REMARK H PARENT
REMARK Flexibility Score: inf
ROOT
ATOM      1  C   UNL     1       2.656 -21.359   9.005  1.00  0.00     0.052 C 
ENDROOT
BRANCH   1   2
ATOM      2  C   UNL     1       3.282 -22.541   9.680  1.00  0.00     0.041 C 
ATOM      3  O   UNL     1       3.227 -22.658  10.932  1.00  0.00    -0.550 OA
ATOM      4  O   UNL     1       3.898 -23.529   8.923  1.00  0.00    -0.550 OA
ENDBRANCH   1   2
BRANCH   1   5
ATOM      5  C   UNL     1       3.262 -21.109   7.618  1.00  0.00     0.003 C 
ATOM      6  C   UNL     1       2.211 -20.687   6.590  1.00  0.00     0.004 C 
ENDBRANCH   1   5
TORSDOF 2
ENDMDL
MODEL 6
REMARK VINA RESULT:    -2.706     18.619     19.124
REMARK INTER + INTRA:          -3.032
REMARK INTER:                  -3.001
REMARK INTRA:                  -0.031
REMARK UNBOUND:                -0.010
REMARK SMILES CCCC(=O)[O-]
REMARK SMILES IDX 3 1 4 2 5 3 6 4 2 5 1 6
REMARK H PARENT
REMARK Flexibility Score: inf
ROOT
ATOM      1  C   UNL     1       3.921 -22.048   8.361  1.00  0.00     0.052 C 
ENDROOT
BRANCH   1   2
ATOM      2  C   UNL     1       2.482 -21.631   8.379  1.00  0.00     0.041 C 
ATOM      3  O   UNL     1       1.780 -21.826   9.405  1.00  0.00    -0.550 OA
ATOM      4  O   UNL     1       1.926 -20.999   7.275  1.00  0.00    -0.550 OA
ENDBRANCH   1   2
BRANCH   1   5
ATOM      5  C   UNL     1       4.125 -23.354   7.581  1.00  0.00     0.003 C 
ATOM      6  C   UNL     1       3.587 -24.571   8.334  1.00  0.00     0.004 C 
ENDBRANCH   1   5
TORSDOF 2
ENDMDL
MODEL 7
REMARK VINA RESULT:    -2.636     17.748     18.642
REMARK INTER + INTRA:          -2.954
REMARK INTER:                  -2.897
REMARK INTRA:                  -0.058
REMARK UNBOUND:                -0.010
REMARK SMILES CCCC(=O)[O-]
REMARK SMILES IDX 3 1 4 2 5 3 6 4 2 5 1 6
REMARK H PARENT
REMARK Flexibility Score: inf
ROOT
ATOM      1  C   UNL     1     -12.949 -18.263   4.709  1.00  0.00     0.052 C 
ENDROOT
BRANCH   1   2
ATOM      2  C   UNL     1     -13.592 -19.064   5.800  1.00  0.00     0.041 C 
ATOM      3  O   UNL     1     -14.208 -18.485   6.732  1.00  0.00    -0.550 OA
ATOM      4  O   UNL     1     -13.538 -20.451   5.769  1.00  0.00    -0.550 OA
ENDBRANCH   1   2
BRANCH   1   5
ATOM      5  C   UNL     1     -11.576 -18.827   4.323  1.00  0.00     0.003 C 
ATOM      6  C   UNL     1     -10.495 -18.482   5.348  1.00  0.00     0.004 C 
ENDBRANCH   1   5
TORSDOF 2
ENDMDL
MODEL 8
REMARK VINA RESULT:    -2.441     17.795     18.365
REMARK INTER + INTRA:          -2.736
REMARK INTER:                  -2.731
REMARK INTRA:                  -0.005
REMARK UNBOUND:                -0.010
REMARK SMILES CCCC(=O)[O-]
REMARK SMILES IDX 3 1 4 2 5 3 6 4 2 5 1 6
REMARK H PARENT
REMARK Flexibility Score: inf
ROOT
ATOM      1  C   UNL     1     -13.114 -19.152   5.714  1.00  0.00     0.052 C 
ENDROOT
BRANCH   1   2
ATOM      2  C   UNL     1     -11.980 -18.831   4.788  1.00  0.00     0.041 C 
ATOM      3  O   UNL     1     -12.130 -18.936   3.543  1.00  0.00    -0.550 OA
ATOM      4  O   UNL     1     -10.768 -18.386   5.300  1.00  0.00    -0.550 OA
ENDBRANCH   1   2
BRANCH   1   5
ATOM      5  C   UNL     1     -14.273 -18.159   5.558  1.00  0.00     0.003 C 
ATOM      6  C   UNL     1     -15.083 -18.003   6.845  1.00  0.00     0.004 C 
ENDBRANCH   1   5
TORSDOF 2
ENDMDL
MODEL 9
REMARK VINA RESULT:    -2.390     18.592     19.390
REMARK INTER + INTRA:          -2.680
REMARK INTER:                  -2.651
REMARK INTRA:                  -0.029
REMARK UNBOUND:                -0.010
REMARK SMILES CCCC(=O)[O-]
REMARK SMILES IDX 3 1 4 2 5 3 6 4 2 5 1 6
REMARK H PARENT
REMARK Flexibility Score: inf
ROOT
ATOM      1  C   UNL     1     -12.781 -19.174   5.532  1.00  0.00     0.052 C 
ENDROOT
BRANCH   1   2
ATOM      2  C   UNL     1     -13.492 -20.367   4.969  1.00  0.00     0.041 C 
ATOM      3  O   UNL     1     -12.857 -21.228   4.306  1.00  0.00    -0.550 OA
ATOM      4  O   UNL     1     -14.849 -20.544   5.206  1.00  0.00    -0.550 OA
ENDBRANCH   1   2
BRANCH   1   5
ATOM      5  C   UNL     1     -11.631 -18.717   4.625  1.00  0.00     0.003 C 
ATOM      6  C   UNL     1     -10.335 -18.482   5.402  1.00  0.00     0.004 C 
ENDBRANCH   1   5
TORSDOF 2
ENDMDL
