MODEL 1
REMARK VINA RESULT:    -5.583      0.000      0.000
REMARK INTER + INTRA:          -8.577
REMARK INTER:                  -7.541
REMARK INTRA:                  -1.036
REMARK UNBOUND:                -1.036
REMARK SMILES CC(=O)CCC=C(C)CCC=C(C)C
REMARK SMILES IDX 7 1 6 2 8 3 9 4 10 5 11 6 13 7 12 8 14 9 5 10 4 11 2 12 3 13
REMARK SMILES IDX 1 14
REMARK H PARENT
REMARK Flexibility Score: inf
ROOT
ATOM      1  C   UNL     1      31.696   8.421 106.273  1.00  0.00    -0.077 C 
ATOM      2  C   UNL     1      30.967   7.455 105.668  1.00  0.00    -0.028 C 
ATOM      3  C   UNL     1      31.995   9.677 105.495  1.00  0.00     0.039 C 
ENDROOT
BRANCH   1   4
ATOM      4  C   UNL     1      32.277   8.281 107.670  1.00  0.00     0.034 C 
BRANCH   4   5
ATOM      5  C   UNL     1      33.803   8.114 107.640  1.00  0.00     0.032 C 
BRANCH   5   6
ATOM      6  C   UNL     1      34.517   9.342 108.153  1.00  0.00    -0.028 C 
ATOM      7  C   UNL     1      35.697   9.770 105.986  1.00  0.00     0.039 C 
ATOM      8  C   UNL     1      35.352  10.108 107.416  1.00  0.00    -0.080 C 
ATOM      9  C   UNL     1      35.953  11.333 108.056  1.00  0.00     0.039 C 
ENDBRANCH   5   6
ENDBRANCH   4   5
ENDBRANCH   1   4
BRANCH   2  10
ATOM     10  C   UNL     1      30.543   6.153 106.307  1.00  0.00     0.035 C 
BRANCH  10  11
ATOM     11  C   UNL     1      31.500   5.008 105.952  1.00  0.00     0.079 C 
BRANCH  11  12
ATOM     12  C   UNL     1      32.319   4.581 107.143  1.00  0.00     0.130 C 
ATOM     13  O   UNL     1      31.955   4.894 108.267  1.00  0.00    -0.300 OA
ATOM     14  C   UNL     1      33.574   3.775 106.979  1.00  0.00     0.087 C 
ENDBRANCH  11  12
ENDBRANCH  10  11
ENDBRANCH   2  10
TORSDOF 6
ENDMDL
MODEL 2
REMARK VINA RESULT:    -5.209      2.496      5.736
REMARK INTER + INTRA:          -8.072
REMARK INTER:                  -7.140
REMARK INTRA:                  -0.932
REMARK UNBOUND:                -1.036
REMARK SMILES CC(=O)CCC=C(C)CCC=C(C)C
REMARK SMILES IDX 7 1 6 2 8 3 9 4 10 5 11 6 13 7 12 8 14 9 5 10 4 11 2 12 3 13
REMARK SMILES IDX 1 14
REMARK H PARENT
REMARK Flexibility Score: inf
ROOT
ATOM      1  C   UNL     1      32.649   8.625 107.033  1.00  0.00    -0.077 C 
ATOM      2  C   UNL     1      33.816   9.124 106.565  1.00  0.00    -0.028 C 
ATOM      3  C   UNL     1      31.475   8.562 106.091  1.00  0.00     0.039 C 
ENDROOT
BRANCH   1   4
ATOM      4  C   UNL     1      32.446   8.182 108.474  1.00  0.00     0.034 C 
BRANCH   4   5
ATOM      5  C   UNL     1      31.714   6.836 108.559  1.00  0.00     0.032 C 
BRANCH   5   6
ATOM      6  C   UNL     1      32.630   5.673 108.261  1.00  0.00    -0.028 C 
ATOM      7  C   UNL     1      31.348   4.963 106.230  1.00  0.00     0.039 C 
ATOM      8  C   UNL     1      32.492   4.838 107.207  1.00  0.00    -0.080 C 
ATOM      9  C   UNL     1      33.517   3.749 107.016  1.00  0.00     0.039 C 
ENDBRANCH   5   6
ENDBRANCH   4   5
ENDBRANCH   1   4
BRANCH   2  10
ATOM     10  C   UNL     1      35.101   9.227 107.354  1.00  0.00     0.035 C 
BRANCH  10  11
ATOM     11  C   UNL     1      35.461  10.686 107.664  1.00  0.00     0.079 C 
BRANCH  11  12
ATOM     12  C   UNL     1      35.650  11.490 106.403  1.00  0.00     0.130 C 
ATOM     13  O   UNL     1      34.930  12.454 106.190  1.00  0.00    -0.300 OA
ATOM     14  C   UNL     1      36.708  11.133 105.401  1.00  0.00     0.087 C 
ENDBRANCH  11  12
ENDBRANCH  10  11
ENDBRANCH   2  10
TORSDOF 6
ENDMDL
MODEL 3
REMARK VINA RESULT:    -4.862      1.322      1.695
REMARK INTER + INTRA:          -7.604
REMARK INTER:                  -7.125
REMARK INTRA:                  -0.479
REMARK UNBOUND:                -1.036
REMARK SMILES CC(=O)CCC=C(C)CCC=C(C)C
REMARK SMILES IDX 7 1 6 2 8 3 9 4 10 5 11 6 13 7 12 8 14 9 5 10 4 11 2 12 3 13
REMARK SMILES IDX 1 14
REMARK H PARENT
REMARK Flexibility Score: inf
ROOT
ATOM      1  C   UNL     1      31.322   9.125 105.540  1.00  0.00    -0.077 C 
ATOM      2  C   UNL     1      30.596   8.033 105.207  1.00  0.00    -0.028 C 
ATOM      3  C   UNL     1      30.776  10.481 105.172  1.00  0.00     0.039 C 
ENDROOT
BRANCH   1   4
ATOM      4  C   UNL     1      32.685   9.052 106.211  1.00  0.00     0.034 C 
BRANCH   4   5
ATOM      5  C   UNL     1      33.704   9.980 105.536  1.00  0.00     0.032 C 
BRANCH   5   6
ATOM      6  C   UNL     1      34.928  10.197 106.394  1.00  0.00    -0.028 C 
ATOM      7  C   UNL     1      35.003  12.663 105.960  1.00  0.00     0.039 C 
ATOM      8  C   UNL     1      35.508  11.397 106.612  1.00  0.00    -0.080 C 
ATOM      9  C   UNL     1      36.699  11.461 107.534  1.00  0.00     0.039 C 
ENDBRANCH   5   6
ENDBRANCH   4   5
ENDBRANCH   1   4
BRANCH   2  10
ATOM     10  C   UNL     1      30.970   6.605 105.529  1.00  0.00     0.035 C 
BRANCH  10  11
ATOM     11  C   UNL     1      30.854   6.312 107.031  1.00  0.00     0.079 C 
BRANCH  11  12
ATOM     12  C   UNL     1      32.101   5.656 107.565  1.00  0.00     0.130 C 
ATOM     13  O   UNL     1      32.728   6.196 108.465  1.00  0.00    -0.300 OA
ATOM     14  C   UNL     1      32.592   4.349 107.015  1.00  0.00     0.087 C 
ENDBRANCH  11  12
ENDBRANCH  10  11
ENDBRANCH   2  10
TORSDOF 6
ENDMDL
MODEL 4
REMARK VINA RESULT:    -4.744      1.461      2.215
REMARK INTER + INTRA:          -7.445
REMARK INTER:                  -6.797
REMARK INTRA:                  -0.648
REMARK UNBOUND:                -1.036
REMARK SMILES CC(=O)CCC=C(C)CCC=C(C)C
REMARK SMILES IDX 7 1 6 2 8 3 9 4 10 5 11 6 13 7 12 8 14 9 5 10 4 11 2 12 3 13
REMARK SMILES IDX 1 14
REMARK H PARENT
REMARK Flexibility Score: inf
ROOT
ATOM      1  C   UNL     1      33.232   8.755 106.911  1.00  0.00    -0.077 C 
ATOM      2  C   UNL     1      32.439   7.757 107.365  1.00  0.00    -0.028 C 
ATOM      3  C   UNL     1      32.715   9.618 105.789  1.00  0.00     0.039 C 
ENDROOT
BRANCH   1   4
ATOM      4  C   UNL     1      34.637   9.011 107.433  1.00  0.00     0.034 C 
BRANCH   4   5
ATOM      5  C   UNL     1      35.503   9.748 106.402  1.00  0.00     0.032 C 
BRANCH   5   6
ATOM      6  C   UNL     1      36.242  10.915 107.013  1.00  0.00    -0.028 C 
ATOM      7  C   UNL     1      34.936  12.630 105.738  1.00  0.00     0.039 C 
ATOM      8  C   UNL     1      35.983  12.213 106.742  1.00  0.00    -0.080 C 
ATOM      9  C   UNL     1      36.776  13.269 107.471  1.00  0.00     0.039 C 
ENDBRANCH   5   6
ENDBRANCH   4   5
ENDBRANCH   1   4
BRANCH   2  10
ATOM     10  C   UNL     1      32.778   6.821 108.501  1.00  0.00     0.035 C 
BRANCH  10  11
ATOM     11  C   UNL     1      31.987   5.509 108.412  1.00  0.00     0.079 C 
BRANCH  11  12
ATOM     12  C   UNL     1      32.360   4.720 107.184  1.00  0.00     0.130 C 
ATOM     13  O   UNL     1      31.604   4.707 106.223  1.00  0.00    -0.300 OA
ATOM     14  C   UNL     1      33.646   3.949 107.113  1.00  0.00     0.087 C 
ENDBRANCH  11  12
ENDBRANCH  10  11
ENDBRANCH   2  10
TORSDOF 6
ENDMDL
MODEL 5
REMARK VINA RESULT:    -4.728      2.130      4.083
REMARK INTER + INTRA:          -7.422
REMARK INTER:                  -6.912
REMARK INTRA:                  -0.510
REMARK UNBOUND:                -1.036
REMARK SMILES CC(=O)CCC=C(C)CCC=C(C)C
REMARK SMILES IDX 7 1 6 2 8 3 9 4 10 5 11 6 13 7 12 8 14 9 5 10 4 11 2 12 3 13
REMARK SMILES IDX 1 14
REMARK H PARENT
REMARK Flexibility Score: inf
ROOT
ATOM      1  C   UNL     1      33.264   8.973 106.593  1.00  0.00    -0.077 C 
ATOM      2  C   UNL     1      33.070   8.136 107.638  1.00  0.00    -0.028 C 
ATOM      3  C   UNL     1      34.516   9.813 106.579  1.00  0.00     0.039 C 
ENDROOT
BRANCH   1   4
ATOM      4  C   UNL     1      32.260   9.153 105.466  1.00  0.00     0.034 C 
BRANCH   4   5
ATOM      5  C   UNL     1      31.765  10.603 105.368  1.00  0.00     0.032 C 
BRANCH   5   6
ATOM      6  C   UNL     1      30.265  10.701 105.507  1.00  0.00    -0.028 C 
ATOM      7  C   UNL     1      30.249  13.204 105.411  1.00  0.00     0.039 C 
ATOM      8  C   UNL     1      29.569  11.859 105.506  1.00  0.00    -0.080 C 
ATOM      9  C   UNL     1      28.066  11.792 105.605  1.00  0.00     0.039 C 
ENDBRANCH   5   6
ENDBRANCH   4   5
ENDBRANCH   1   4
BRANCH   2  10
ATOM     10  C   UNL     1      31.897   7.198 107.798  1.00  0.00     0.035 C 
BRANCH  10  11
ATOM     11  C   UNL     1      32.339   5.816 108.298  1.00  0.00     0.079 C 
BRANCH  11  12
ATOM     12  C   UNL     1      32.304   4.790 107.193  1.00  0.00     0.130 C 
ATOM     13  O   UNL     1      31.339   4.743 106.445  1.00  0.00    -0.300 OA
ATOM     14  C   UNL     1      33.434   3.824 106.991  1.00  0.00     0.087 C 
ENDBRANCH  11  12
ENDBRANCH  10  11
ENDBRANCH   2  10
TORSDOF 6
ENDMDL
MODEL 6
REMARK VINA RESULT:    -4.664      2.943      5.938
REMARK INTER + INTRA:          -7.336
REMARK INTER:                  -6.519
REMARK INTRA:                  -0.817
REMARK UNBOUND:                -1.036
REMARK SMILES CC(=O)CCC=C(C)CCC=C(C)C
REMARK SMILES IDX 7 1 6 2 8 3 9 4 10 5 11 6 13 7 12 8 14 9 5 10 4 11 2 12 3 13
REMARK SMILES IDX 1 14
REMARK H PARENT
REMARK Flexibility Score: inf
ROOT
ATOM      1  C   UNL     1      35.524  10.894 106.870  1.00  0.00    -0.077 C 
ATOM      2  C   UNL     1      34.862  11.797 106.111  1.00  0.00    -0.028 C 
ATOM      3  C   UNL     1      36.556  11.404 107.843  1.00  0.00     0.039 C 
ENDROOT
BRANCH   1   4
ATOM      4  C   UNL     1      35.324   9.392 106.748  1.00  0.00     0.034 C 
BRANCH   4   5
ATOM      5  C   UNL     1      34.350   8.858 107.808  1.00  0.00     0.032 C 
BRANCH   5   6
ATOM      6  C   UNL     1      33.043   8.407 107.201  1.00  0.00    -0.028 C 
ATOM      7  C   UNL     1      33.003   6.248 108.468  1.00  0.00     0.039 C 
ATOM      8  C   UNL     1      32.415   7.250 107.504  1.00  0.00    -0.080 C 
ATOM      9  C   UNL     1      31.089   6.961 106.848  1.00  0.00     0.039 C 
ENDBRANCH   5   6
ENDBRANCH   4   5
ENDBRANCH   1   4
BRANCH   2  10
ATOM     10  C   UNL     1      33.775  11.470 105.115  1.00  0.00     0.035 C 
BRANCH  10  11
ATOM     11  C   UNL     1      32.840  12.666 104.881  1.00  0.00     0.079 C 
BRANCH  11  12
ATOM     12  C   UNL     1      31.402  12.305 105.153  1.00  0.00     0.130 C 
ATOM     13  O   UNL     1      30.583  13.194 105.339  1.00  0.00    -0.300 OA
ATOM     14  C   UNL     1      30.952  10.875 105.198  1.00  0.00     0.087 C 
ENDBRANCH  11  12
ENDBRANCH  10  11
ENDBRANCH   2  10
TORSDOF 6
ENDMDL
MODEL 7
REMARK VINA RESULT:    -4.550      2.475      5.745
REMARK INTER + INTRA:          -7.182
REMARK INTER:                  -6.427
REMARK INTRA:                  -0.755
REMARK UNBOUND:                -1.036
REMARK SMILES CC(=O)CCC=C(C)CCC=C(C)C
REMARK SMILES IDX 7 1 6 2 8 3 9 4 10 5 11 6 13 7 12 8 14 9 5 10 4 11 2 12 3 13
REMARK SMILES IDX 1 14
REMARK H PARENT
REMARK Flexibility Score: inf
ROOT
ATOM      1  C   UNL     1      32.327  11.457 105.104  1.00  0.00    -0.077 C 
ATOM      2  C   UNL     1      33.445  12.219 105.116  1.00  0.00    -0.028 C 
ATOM      3  C   UNL     1      30.991  12.156 105.102  1.00  0.00     0.039 C 
ENDROOT
BRANCH   1   4
ATOM      4  C   UNL     1      32.349   9.938 105.153  1.00  0.00     0.034 C 
BRANCH   4   5
ATOM      5  C   UNL     1      30.975   9.358 105.518  1.00  0.00     0.032 C 
BRANCH   5   6
ATOM      6  C   UNL     1      30.950   7.852 105.414  1.00  0.00    -0.028 C 
ATOM      7  C   UNL     1      31.688   7.505 107.782  1.00  0.00     0.039 C 
ATOM      8  C   UNL     1      31.244   7.008 106.427  1.00  0.00    -0.080 C 
ATOM      9  C   UNL     1      31.126   5.526 106.182  1.00  0.00     0.039 C 
ENDBRANCH   5   6
ENDBRANCH   4   5
ENDBRANCH   1   4
BRANCH   2  10
ATOM     10  C   UNL     1      34.860  11.693 105.083  1.00  0.00     0.035 C 
BRANCH  10  11
ATOM     11  C   UNL     1      35.625  12.037 106.369  1.00  0.00     0.079 C 
BRANCH  11  12
ATOM     12  C   UNL     1      35.543  10.919 107.377  1.00  0.00     0.130 C 
ATOM     13  O   UNL     1      35.515  11.184 108.569  1.00  0.00    -0.300 OA
ATOM     14  C   UNL     1      35.491   9.483 106.946  1.00  0.00     0.087 C 
ENDBRANCH  11  12
ENDBRANCH  10  11
ENDBRANCH   2  10
TORSDOF 6
ENDMDL
MODEL 8
REMARK VINA RESULT:    -4.492      1.816      2.465
REMARK INTER + INTRA:          -7.104
REMARK INTER:                  -6.820
REMARK INTRA:                  -0.284
REMARK UNBOUND:                -1.036
REMARK SMILES CC(=O)CCC=C(C)CCC=C(C)C
REMARK SMILES IDX 7 1 6 2 8 3 9 4 10 5 11 6 13 7 12 8 14 9 5 10 4 11 2 12 3 13
REMARK SMILES IDX 1 14
REMARK H PARENT
REMARK Flexibility Score: inf
ROOT
ATOM      1  C   UNL     1      33.049   8.462 107.150  1.00  0.00    -0.077 C 
ATOM      2  C   UNL     1      32.266   7.416 107.502  1.00  0.00    -0.028 C 
ATOM      3  C   UNL     1      34.212   8.810 108.043  1.00  0.00     0.039 C 
ENDROOT
BRANCH   1   4
ATOM      4  C   UNL     1      32.782   9.337 105.935  1.00  0.00     0.034 C 
BRANCH   4   5
ATOM      5  C   UNL     1      34.054  10.048 105.453  1.00  0.00     0.032 C 
BRANCH   5   6
ATOM      6  C   UNL     1      33.793  11.489 105.088  1.00  0.00    -0.028 C 
ATOM      7  C   UNL     1      35.656  12.365 106.515  1.00  0.00     0.039 C 
ATOM      8  C   UNL     1      34.518  12.538 105.538  1.00  0.00    -0.080 C 
ATOM      9  C   UNL     1      34.165  13.917 105.044  1.00  0.00     0.039 C 
ENDBRANCH   5   6
ENDBRANCH   4   5
ENDBRANCH   1   4
BRANCH   2  10
ATOM     10  C   UNL     1      31.086   6.905 106.710  1.00  0.00     0.035 C 
BRANCH  10  11
ATOM     11  C   UNL     1      31.265   5.434 106.309  1.00  0.00     0.079 C 
BRANCH  11  12
ATOM     12  C   UNL     1      32.099   4.683 107.315  1.00  0.00     0.130 C 
ATOM     13  O   UNL     1      31.775   4.693 108.494  1.00  0.00    -0.300 OA
ATOM     14  C   UNL     1      33.322   3.920 106.900  1.00  0.00     0.087 C 
ENDBRANCH  11  12
ENDBRANCH  10  11
ENDBRANCH   2  10
TORSDOF 6
ENDMDL
MODEL 9
REMARK VINA RESULT:    -4.462      3.193      6.715
REMARK INTER + INTRA:          -7.064
REMARK INTER:                  -6.438
REMARK INTRA:                  -0.626
REMARK UNBOUND:                -1.036
REMARK SMILES CC(=O)CCC=C(C)CCC=C(C)C
REMARK SMILES IDX 7 1 6 2 8 3 9 4 10 5 11 6 13 7 12 8 14 9 5 10 4 11 2 12 3 13
REMARK SMILES IDX 1 14
REMARK H PARENT
REMARK Flexibility Score: inf
ROOT
ATOM      1  C   UNL     1      34.199   9.667 106.599  1.00  0.00    -0.077 C 
ATOM      2  C   UNL     1      35.099  10.667 106.455  1.00  0.00    -0.028 C 
ATOM      3  C   UNL     1      33.074   9.575 105.600  1.00  0.00     0.039 C 
ENDROOT
BRANCH   1   4
ATOM      4  C   UNL     1      34.230   8.672 107.748  1.00  0.00     0.034 C 
BRANCH   4   5
ATOM      5  C   UNL     1      32.827   8.151 108.090  1.00  0.00     0.032 C 
BRANCH   5   6
ATOM      6  C   UNL     1      32.765   6.642 108.084  1.00  0.00    -0.028 C 
ATOM      7  C   UNL     1      30.948   6.554 106.363  1.00  0.00     0.039 C 
ATOM      8  C   UNL     1      31.944   5.911 107.298  1.00  0.00    -0.080 C 
ATOM      9  C   UNL     1      32.033   4.409 107.371  1.00  0.00     0.039 C 
ENDBRANCH   5   6
ENDBRANCH   4   5
ENDBRANCH   1   4
BRANCH   2  10
ATOM     10  C   UNL     1      36.306  10.889 107.337  1.00  0.00     0.035 C 
BRANCH  10  11
ATOM     11  C   UNL     1      36.644  12.380 107.473  1.00  0.00     0.079 C 
BRANCH  11  12
ATOM     12  C   UNL     1      37.598  12.832 106.399  1.00  0.00     0.130 C 
ATOM     13  O   UNL     1      37.162  13.375 105.395  1.00  0.00    -0.300 OA
ATOM     14  C   UNL     1      39.079  12.630 106.535  1.00  0.00     0.087 C 
ENDBRANCH  11  12
ENDBRANCH  10  11
ENDBRANCH   2  10
TORSDOF 6
ENDMDL
