MODEL 1
REMARK VINA RESULT:    -5.631      0.000      0.000
REMARK INTER + INTRA:          -6.370
REMARK INTER:                  -6.125
REMARK INTRA:                  -0.245
REMARK UNBOUND:                -0.245
REMARK SMILES CC1=CCC[C@@]2(C)CC[C@H](C(C)(C)O)C[C@H]12
REMARK SMILES IDX 11 1 12 2 13 3 10 4 1 5 2 6 3 7 16 8 4 9 6 10 15 11 5 12
REMARK SMILES IDX 7 13 8 14 9 15 14 16
REMARK H PARENT 14 17
REMARK Flexibility Score: inf
ROOT
ATOM      1  C   UNL     1     116.783 123.834 128.825  1.00  0.00     0.062 C 
ATOM      2  C   UNL     1     118.320 123.963 128.828  1.00  0.00     0.042 C 
ATOM      3  C   UNL     1     116.373 122.947 127.627  1.00  0.00     0.042 C 
ENDROOT
BRANCH   1   4
ATOM      4  C   UNL     1     116.221 123.252 130.176  1.00  0.00     0.021 C 
ATOM      5  C   UNL     1     119.210 121.124 132.932  1.00  0.00     0.039 C 
ATOM      6  C   UNL     1     117.713 121.095 133.148  1.00  0.00    -0.074 C 
ATOM      7  C   UNL     1     117.260 120.385 134.206  1.00  0.00    -0.028 C 
ATOM      8  C   UNL     1     116.722 121.898 132.297  1.00  0.00     0.021 C 
ATOM      9  C   UNL     1     115.799 120.107 134.475  1.00  0.00     0.028 C 
ATOM     10  C   UNL     1     115.370 121.135 132.153  1.00  0.00    -0.026 C 
ATOM     11  C   UNL     1     117.260 122.381 130.929  1.00  0.00     0.015 C 
ATOM     12  C   UNL     1     114.824 120.898 133.585  1.00  0.00     0.011 C 
ATOM     13  C   UNL     1     115.531 119.769 131.426  1.00  0.00     0.012 C 
ATOM     14  C   UNL     1     114.351 122.019 131.383  1.00  0.00     0.008 C 
ATOM     15  C   UNL     1     114.882 122.494 130.022  1.00  0.00     0.007 C 
ENDBRANCH   1   4
BRANCH   1  16
ATOM     16  O   UNL     1     116.260 125.126 128.614  1.00  0.00    -0.390 OA
ATOM     17  H   UNL     1     115.679 125.094 127.808  1.00  0.00     0.211 HD
ENDBRANCH   1  16
TORSDOF 2
ENDMDL
MODEL 2
REMARK VINA RESULT:    -5.612      2.019      3.762
REMARK INTER + INTRA:          -6.349
REMARK INTER:                  -6.156
REMARK INTRA:                  -0.193
REMARK UNBOUND:                -0.245
REMARK SMILES CC1=CCC[C@@]2(C)CC[C@H](C(C)(C)O)C[C@H]12
REMARK SMILES IDX 11 1 12 2 13 3 10 4 1 5 2 6 3 7 16 8 4 9 6 10 15 11 5 12
REMARK SMILES IDX 7 13 8 14 9 15 14 16
REMARK H PARENT 14 17
REMARK Flexibility Score: inf
ROOT
ATOM      1  C   UNL     1     116.821 125.889 128.444  1.00  0.00     0.062 C 
ATOM      2  C   UNL     1     117.084 126.985 129.496  1.00  0.00     0.042 C 
ATOM      3  C   UNL     1     117.782 126.117 127.255  1.00  0.00     0.042 C 
ENDROOT
BRANCH   1   4
ATOM      4  C   UNL     1     116.985 124.436 129.030  1.00  0.00     0.021 C 
ATOM      5  C   UNL     1     114.416 121.131 127.148  1.00  0.00     0.039 C 
ATOM      6  C   UNL     1     115.221 120.940 128.415  1.00  0.00    -0.074 C 
ATOM      7  C   UNL     1     115.148 119.728 129.011  1.00  0.00    -0.028 C 
ATOM      8  C   UNL     1     116.168 122.004 128.982  1.00  0.00     0.021 C 
ATOM      9  C   UNL     1     115.744 119.413 130.363  1.00  0.00     0.028 C 
ATOM     10  C   UNL     1     116.206 121.940 130.539  1.00  0.00    -0.026 C 
ATOM     11  C   UNL     1     115.932 123.444 128.469  1.00  0.00     0.015 C 
ATOM     12  C   UNL     1     116.663 120.510 130.927  1.00  0.00     0.011 C 
ATOM     13  C   UNL     1     114.818 122.233 131.181  1.00  0.00     0.012 C 
ATOM     14  C   UNL     1     117.254 122.951 131.078  1.00  0.00     0.008 C 
ATOM     15  C   UNL     1     117.016 124.383 130.574  1.00  0.00     0.007 C 
ENDBRANCH   1   4
BRANCH   1  16
ATOM     16  O   UNL     1     115.501 126.065 127.982  1.00  0.00    -0.390 OA
ATOM     17  H   UNL     1     114.907 126.150 128.775  1.00  0.00     0.211 HD
ENDBRANCH   1  16
TORSDOF 2
ENDMDL
MODEL 3
REMARK VINA RESULT:    -5.576     14.673     16.501
REMARK INTER + INTRA:          -6.310
REMARK INTER:                  -6.088
REMARK INTRA:                  -0.222
REMARK UNBOUND:                -0.245
REMARK SMILES CC1=CCC[C@@]2(C)CC[C@H](C(C)(C)O)C[C@H]12
REMARK SMILES IDX 11 1 12 2 13 3 10 4 1 5 2 6 3 7 16 8 4 9 6 10 15 11 5 12
REMARK SMILES IDX 7 13 8 14 9 15 14 16
REMARK H PARENT 14 17
REMARK Flexibility Score: inf
ROOT
ATOM      1  C   UNL     1     124.471 116.276 118.696  1.00  0.00     0.062 C 
ATOM      2  C   UNL     1     124.997 115.216 117.708  1.00  0.00     0.042 C 
ATOM      3  C   UNL     1     124.588 115.706 120.129  1.00  0.00     0.042 C 
ENDROOT
BRANCH   1   4
ATOM      4  C   UNL     1     125.231 117.650 118.573  1.00  0.00     0.021 C 
ATOM      5  C   UNL     1     129.527 117.804 120.180  1.00  0.00     0.039 C 
ATOM      6  C   UNL     1     128.752 119.033 119.756  1.00  0.00    -0.074 C 
ATOM      7  C   UNL     1     129.376 120.226 119.884  1.00  0.00    -0.028 C 
ATOM      8  C   UNL     1     127.361 118.974 119.113  1.00  0.00     0.021 C 
ATOM      9  C   UNL     1     128.701 121.561 119.672  1.00  0.00     0.028 C 
ATOM     10  C   UNL     1     126.510 120.216 119.516  1.00  0.00    -0.026 C 
ATOM     11  C   UNL     1     126.587 117.651 119.326  1.00  0.00     0.015 C 
ATOM     12  C   UNL     1     127.293 121.475 119.057  1.00  0.00     0.011 C 
ATOM     13  C   UNL     1     126.257 120.293 121.049  1.00  0.00     0.012 C 
ATOM     14  C   UNL     1     125.153 120.186 118.763  1.00  0.00     0.008 C 
ATOM     15  C   UNL     1     124.380 118.875 118.979  1.00  0.00     0.007 C 
ENDBRANCH   1   4
BRANCH   1  16
ATOM     16  O   UNL     1     123.103 116.466 118.410  1.00  0.00    -0.390 OA
ATOM     17  H   UNL     1     122.951 116.216 117.460  1.00  0.00     0.211 HD
ENDBRANCH   1  16
TORSDOF 2
ENDMDL
MODEL 4
REMARK VINA RESULT:    -5.571      4.353      6.661
REMARK INTER + INTRA:          -6.305
REMARK INTER:                  -6.061
REMARK INTRA:                  -0.243
REMARK UNBOUND:                -0.245
REMARK SMILES CC1=CCC[C@@]2(C)CC[C@H](C(C)(C)O)C[C@H]12
REMARK SMILES IDX 11 1 12 2 13 3 10 4 1 5 2 6 3 7 16 8 4 9 6 10 15 11 5 12
REMARK SMILES IDX 7 13 8 14 9 15 14 16
REMARK H PARENT 14 17
REMARK Flexibility Score: inf
ROOT
ATOM      1  C   UNL     1     119.910 129.761 130.019  1.00  0.00     0.062 C 
ATOM      2  C   UNL     1     121.112 129.746 129.055  1.00  0.00     0.042 C 
ATOM      3  C   UNL     1     118.889 130.804 129.507  1.00  0.00     0.042 C 
ENDROOT
BRANCH   1   4
ATOM      4  C   UNL     1     119.238 128.344 130.172  1.00  0.00     0.021 C 
ATOM      5  C   UNL     1     120.056 125.282 126.853  1.00  0.00     0.039 C 
ATOM      6  C   UNL     1     119.021 125.077 127.938  1.00  0.00    -0.074 C 
ATOM      7  C   UNL     1     118.305 123.931 127.893  1.00  0.00    -0.028 C 
ATOM      8  C   UNL     1     118.826 126.044 129.112  1.00  0.00     0.021 C 
ATOM      9  C   UNL     1     117.123 123.637 128.788  1.00  0.00     0.028 C 
ATOM     10  C   UNL     1     117.331 126.087 129.552  1.00  0.00    -0.026 C 
ATOM     11  C   UNL     1     119.408 127.463 128.907  1.00  0.00     0.015 C 
ATOM     12  C   UNL     1     116.926 124.640 129.938  1.00  0.00     0.011 C 
ATOM     13  C   UNL     1     116.393 126.606 128.424  1.00  0.00     0.012 C 
ATOM     14  C   UNL     1     117.183 126.986 130.809  1.00  0.00     0.008 C 
ATOM     15  C   UNL     1     117.755 128.398 130.605  1.00  0.00     0.007 C 
ENDBRANCH   1   4
BRANCH   1  16
ATOM     16  O   UNL     1     120.388 130.194 131.273  1.00  0.00    -0.390 OA
ATOM     17  H   UNL     1     119.781 130.910 131.601  1.00  0.00     0.211 HD
ENDBRANCH   1  16
TORSDOF 2
ENDMDL
MODEL 5
REMARK VINA RESULT:    -5.452      2.786      5.966
REMARK INTER + INTRA:          -6.176
REMARK INTER:                  -5.983
REMARK INTRA:                  -0.192
REMARK UNBOUND:                -0.245
REMARK SMILES CC1=CCC[C@@]2(C)CC[C@H](C(C)(C)O)C[C@H]12
REMARK SMILES IDX 11 1 12 2 13 3 10 4 1 5 2 6 3 7 16 8 4 9 6 10 15 11 5 12
REMARK SMILES IDX 7 13 8 14 9 15 14 16
REMARK H PARENT 14 17
REMARK Flexibility Score: inf
ROOT
ATOM      1  C   UNL     1     116.020 122.418 131.282  1.00  0.00     0.062 C 
ATOM      2  C   UNL     1     115.413 121.364 130.335  1.00  0.00     0.042 C 
ATOM      3  C   UNL     1     116.721 121.680 132.445  1.00  0.00     0.042 C 
ENDROOT
BRANCH   1   4
ATOM      4  C   UNL     1     117.019 123.389 130.548  1.00  0.00     0.021 C 
ATOM      5  C   UNL     1     117.431 127.631 132.249  1.00  0.00     0.039 C 
ATOM      6  C   UNL     1     118.021 127.206 130.922  1.00  0.00    -0.074 C 
ATOM      7  C   UNL     1     118.685 128.149 130.216  1.00  0.00    -0.028 C 
ATOM      8  C   UNL     1     117.983 125.763 130.406  1.00  0.00     0.021 C 
ATOM      9  C   UNL     1     119.189 127.951 128.805  1.00  0.00     0.028 C 
ATOM     10  C   UNL     1     117.881 125.733 128.851  1.00  0.00    -0.026 C 
ATOM     11  C   UNL     1     116.929 124.847 131.072  1.00  0.00     0.015 C 
ATOM     12  C   UNL     1     119.109 126.501 128.296  1.00  0.00     0.011 C 
ATOM     13  C   UNL     1     116.574 126.397 128.328  1.00  0.00     0.012 C 
ATOM     14  C   UNL     1     117.957 124.265 128.351  1.00  0.00     0.008 C 
ATOM     15  C   UNL     1     116.906 123.356 129.006  1.00  0.00     0.007 C 
ENDBRANCH   1   4
BRANCH   1  16
ATOM     16  O   UNL     1     114.948 123.162 131.817  1.00  0.00    -0.390 OA
ATOM     17  H   UNL     1     114.545 122.631 132.555  1.00  0.00     0.211 HD
ENDBRANCH   1  16
TORSDOF 2
ENDMDL
MODEL 6
REMARK VINA RESULT:    -5.448      0.959      1.195
REMARK INTER + INTRA:          -6.171
REMARK INTER:                  -5.960
REMARK INTRA:                  -0.211
REMARK UNBOUND:                -0.245
REMARK SMILES CC1=CCC[C@@]2(C)CC[C@H](C(C)(C)O)C[C@H]12
REMARK SMILES IDX 11 1 12 2 13 3 10 4 1 5 2 6 3 7 16 8 4 9 6 10 15 11 5 12
REMARK SMILES IDX 7 13 8 14 9 15 14 16
REMARK H PARENT 14 17
REMARK Flexibility Score: inf
ROOT
ATOM      1  C   UNL     1     117.363 124.057 128.740  1.00  0.00     0.062 C 
ATOM      2  C   UNL     1     117.107 123.344 127.398  1.00  0.00     0.042 C 
ATOM      3  C   UNL     1     116.949 125.540 128.589  1.00  0.00     0.042 C 
ENDROOT
BRANCH   1   4
ATOM      4  C   UNL     1     116.602 123.380 129.941  1.00  0.00     0.021 C 
ATOM      5  C   UNL     1     119.170 121.318 133.137  1.00  0.00     0.039 C 
ATOM      6  C   UNL     1     117.664 121.186 133.067  1.00  0.00    -0.074 C 
ATOM      7  C   UNL     1     117.074 120.401 133.996  1.00  0.00    -0.028 C 
ATOM      8  C   UNL     1     116.795 121.963 132.072  1.00  0.00     0.021 C 
ATOM      9  C   UNL     1     115.611 120.021 133.977  1.00  0.00     0.028 C 
ATOM     10  C   UNL     1     115.549 121.126 131.651  1.00  0.00    -0.026 C 
ATOM     11  C   UNL     1     117.542 122.541 130.847  1.00  0.00     0.015 C 
ATOM     12  C   UNL     1     114.765 120.790 132.947  1.00  0.00     0.011 C 
ATOM     13  C   UNL     1     115.937 119.807 130.922  1.00  0.00     0.012 C 
ATOM     14  C   UNL     1     114.632 121.978 130.734  1.00  0.00     0.008 C 
ATOM     15  C   UNL     1     115.371 122.548 129.513  1.00  0.00     0.007 C 
ENDBRANCH   1   4
BRANCH   1  16
ATOM     16  O   UNL     1     118.752 124.011 128.976  1.00  0.00    -0.390 OA
ATOM     17  H   UNL     1     119.215 124.099 128.100  1.00  0.00     0.211 HD
ENDBRANCH   1  16
TORSDOF 2
ENDMDL
MODEL 7
REMARK VINA RESULT:    -5.301      3.244      5.869
REMARK INTER + INTRA:          -6.011
REMARK INTER:                  -5.825
REMARK INTRA:                  -0.186
REMARK UNBOUND:                -0.245
REMARK SMILES CC1=CCC[C@@]2(C)CC[C@H](C(C)(C)O)C[C@H]12
REMARK SMILES IDX 11 1 12 2 13 3 10 4 1 5 2 6 3 7 16 8 4 9 6 10 15 11 5 12
REMARK SMILES IDX 7 13 8 14 9 15 14 16
REMARK H PARENT 14 17
REMARK Flexibility Score: inf
ROOT
ATOM      1  C   UNL     1     119.442 128.294 129.632  1.00  0.00     0.062 C 
ATOM      2  C   UNL     1     120.300 129.207 128.734  1.00  0.00     0.042 C 
ATOM      3  C   UNL     1     118.430 129.177 130.397  1.00  0.00     0.042 C 
ENDROOT
BRANCH   1   4
ATOM      4  C   UNL     1     118.703 127.165 128.819  1.00  0.00     0.021 C 
ATOM      5  C   UNL     1     116.613 123.879 131.246  1.00  0.00     0.039 C 
ATOM      6  C   UNL     1     116.812 123.808 129.747  1.00  0.00    -0.074 C 
ATOM      7  C   UNL     1     116.354 122.701 129.120  1.00  0.00    -0.028 C 
ATOM      8  C   UNL     1     117.406 124.954 128.920  1.00  0.00     0.021 C 
ATOM      9  C   UNL     1     116.615 122.384 127.665  1.00  0.00     0.028 C 
ATOM     10  C   UNL     1     118.217 124.401 127.708  1.00  0.00    -0.026 C 
ATOM     11  C   UNL     1     118.212 126.004 129.722  1.00  0.00     0.015 C 
ATOM     12  C   UNL     1     117.244 123.538 126.863  1.00  0.00     0.011 C 
ATOM     13  C   UNL     1     119.430 123.533 128.151  1.00  0.00     0.012 C 
ATOM     14  C   UNL     1     118.711 125.580 126.829  1.00  0.00     0.008 C 
ATOM     15  C   UNL     1     119.517 126.620 127.623  1.00  0.00     0.007 C 
ENDBRANCH   1   4
BRANCH   1  16
ATOM     16  O   UNL     1     120.310 127.705 130.575  1.00  0.00    -0.390 OA
ATOM     17  H   UNL     1     120.539 128.394 131.254  1.00  0.00     0.211 HD
ENDBRANCH   1  16
TORSDOF 2
ENDMDL
MODEL 8
REMARK VINA RESULT:    -5.236      1.785      5.532
REMARK INTER + INTRA:          -5.941
REMARK INTER:                  -5.751
REMARK INTRA:                  -0.189
REMARK UNBOUND:                -0.245
REMARK SMILES CC1=CCC[C@@]2(C)CC[C@H](C(C)(C)O)C[C@H]12
REMARK SMILES IDX 11 1 12 2 13 3 10 4 1 5 2 6 3 7 16 8 4 9 6 10 15 11 5 12
REMARK SMILES IDX 7 13 8 14 9 15 14 16
REMARK H PARENT 14 17
REMARK Flexibility Score: inf
ROOT
ATOM      1  C   UNL     1     115.823 121.701 131.597  1.00  0.00     0.062 C 
ATOM      2  C   UNL     1     115.094 120.343 131.591  1.00  0.00     0.042 C 
ATOM      3  C   UNL     1     116.910 121.665 132.696  1.00  0.00     0.042 C 
ENDROOT
BRANCH   1   4
ATOM      4  C   UNL     1     116.450 122.058 130.197  1.00  0.00     0.021 C 
ATOM      5  C   UNL     1     119.901 125.083 130.170  1.00  0.00     0.039 C 
ATOM      6  C   UNL     1     119.209 124.598 128.914  1.00  0.00    -0.074 C 
ATOM      7  C   UNL     1     119.640 125.113 127.740  1.00  0.00    -0.028 C 
ATOM      8  C   UNL     1     118.135 123.505 128.911  1.00  0.00     0.021 C 
ATOM      9  C   UNL     1     118.959 124.875 126.412  1.00  0.00     0.028 C 
ATOM     10  C   UNL     1     117.087 123.759 127.785  1.00  0.00    -0.026 C 
ATOM     11  C   UNL     1     117.460 123.233 130.277  1.00  0.00     0.015 C 
ATOM     12  C   UNL     1     117.860 123.797 126.441  1.00  0.00     0.011 C 
ATOM     13  C   UNL     1     116.318 125.098 127.980  1.00  0.00     0.012 C 
ATOM     14  C   UNL     1     116.079 122.580 127.734  1.00  0.00     0.008 C 
ATOM     15  C   UNL     1     115.403 122.313 129.088  1.00  0.00     0.007 C 
ENDBRANCH   1   4
BRANCH   1  16
ATOM     16  O   UNL     1     114.873 122.681 131.952  1.00  0.00    -0.390 OA
ATOM     17  H   UNL     1     114.343 122.331 132.717  1.00  0.00     0.211 HD
ENDBRANCH   1  16
TORSDOF 2
ENDMDL
MODEL 9
REMARK VINA RESULT:    -5.152      2.507      4.442
REMARK INTER + INTRA:          -5.849
REMARK INTER:                  -5.657
REMARK INTRA:                  -0.192
REMARK UNBOUND:                -0.245
REMARK SMILES CC1=CCC[C@@]2(C)CC[C@H](C(C)(C)O)C[C@H]12
REMARK SMILES IDX 11 1 12 2 13 3 10 4 1 5 2 6 3 7 16 8 4 9 6 10 15 11 5 12
REMARK SMILES IDX 7 13 8 14 9 15 14 16
REMARK H PARENT 14 17
REMARK Flexibility Score: inf
ROOT
ATOM      1  C   UNL     1     118.170 126.854 131.031  1.00  0.00     0.062 C 
ATOM      2  C   UNL     1     118.864 127.876 130.109  1.00  0.00     0.042 C 
ATOM      3  C   UNL     1     117.376 127.632 132.107  1.00  0.00     0.042 C 
ENDROOT
BRANCH   1   4
ATOM      4  C   UNL     1     117.231 125.866 130.243  1.00  0.00     0.021 C 
ATOM      5  C   UNL     1     116.594 121.701 132.062  1.00  0.00     0.039 C 
ATOM      6  C   UNL     1     116.139 122.079 130.669  1.00  0.00    -0.074 C 
ATOM      7  C   UNL     1     115.532 121.116 129.939  1.00  0.00    -0.028 C 
ATOM      8  C   UNL     1     116.249 123.500 130.102  1.00  0.00     0.021 C 
ATOM      9  C   UNL     1     115.168 121.263 128.480  1.00  0.00     0.028 C 
ATOM     10  C   UNL     1     116.500 123.466 128.564  1.00  0.00    -0.026 C 
ATOM     11  C   UNL     1     117.248 124.430 130.830  1.00  0.00     0.015 C 
ATOM     12  C   UNL     1     115.319 122.690 127.924  1.00  0.00     0.011 C 
ATOM     13  C   UNL     1     117.841 122.767 128.195  1.00  0.00     0.012 C 
ATOM     14  C   UNL     1     116.495 124.913 128.002  1.00  0.00     0.008 C 
ATOM     15  C   UNL     1     117.491 125.836 128.719  1.00  0.00     0.007 C 
ENDBRANCH   1   4
BRANCH   1  16
ATOM     16  O   UNL     1     119.187 126.123 131.679  1.00  0.00    -0.390 OA
ATOM     17  H   UNL     1     118.950 126.057 132.643  1.00  0.00     0.211 HD
ENDBRANCH   1  16
TORSDOF 2
ENDMDL
