MODEL 1
REMARK VINA RESULT:    -4.174      0.000      0.000
REMARK INTER + INTRA:          -6.296
REMARK INTER:                  -5.638
REMARK INTRA:                  -0.659
REMARK UNBOUND:                -0.659
REMARK SMILES O=C[C@@H](O)[C@H](O)[C@@H](O)CO
REMARK SMILES IDX 7 1 9 2 10 3 5 5 3 6 2 7 1 8 4 9 6 11 8 13
REMARK H PARENT 10 4 4 10 6 12 8 14
REMARK Flexibility Score: inf
ROOT
ATOM      1  C   UNL     1      -0.037  48.989  23.303  1.00  0.00     0.171 C 
ENDROOT
BRANCH   1   2
ATOM      2  C   UNL     1      -0.422  47.515  23.078  1.00  0.00     0.190 C 
BRANCH   2   3
ATOM      3  O   UNL     1      -1.813  47.345  23.124  1.00  0.00    -0.394 OA
ATOM      4  H   UNL     1      -2.127  47.796  23.951  1.00  0.00     0.210 HD
ENDBRANCH   2   3
ENDBRANCH   1   2
BRANCH   1   5
ATOM      5  C   UNL     1       0.324  49.703  21.975  1.00  0.00     0.181 C 
BRANCH   5   6
ATOM      6  C   UNL     1      -0.238  51.143  21.920  1.00  0.00     0.209 C 
BRANCH   6   7
ATOM      7  C   UNL     1       0.584  52.026  21.019  1.00  0.00     0.258 C 
ATOM      8  O   UNL     1       0.888  51.657  19.896  1.00  0.00    -0.300 OA
ENDBRANCH   6   7
BRANCH   6   9
ATOM      9  O   UNL     1      -1.557  51.126  21.438  1.00  0.00    -0.383 OA
ATOM     10  H   UNL     1      -1.602  51.774  20.687  1.00  0.00     0.211 HD
ENDBRANCH   6   9
ENDBRANCH   5   6
BRANCH   5  11
ATOM     11  O   UNL     1      -0.196  48.972  20.891  1.00  0.00    -0.387 OA
ATOM     12  H   UNL     1       0.445  48.240  20.693  1.00  0.00     0.211 HD
ENDBRANCH   5  11
ENDBRANCH   1   5
BRANCH   1  13
ATOM     13  O   UNL     1      -1.104  49.661  23.922  1.00  0.00    -0.388 OA
ATOM     14  H   UNL     1      -1.793  48.977  24.132  1.00  0.00     0.211 HD
ENDBRANCH   1  13
TORSDOF 8
ENDMDL
MODEL 2
REMARK VINA RESULT:    -4.173     13.707     14.852
REMARK INTER + INTRA:          -6.295
REMARK INTER:                  -5.412
REMARK INTRA:                  -0.884
REMARK UNBOUND:                -0.659
REMARK SMILES O=C[C@@H](O)[C@H](O)[C@@H](O)CO
REMARK SMILES IDX 7 1 9 2 10 3 5 5 3 6 2 7 1 8 4 9 6 11 8 13
REMARK H PARENT 10 4 4 10 6 12 8 14
REMARK Flexibility Score: inf
ROOT
ATOM      1  C   UNL     1     -14.957  55.233  20.255  1.00  0.00     0.171 C 
ENDROOT
BRANCH   1   2
ATOM      2  C   UNL     1     -16.019  56.260  20.688  1.00  0.00     0.190 C 
BRANCH   2   3
ATOM      3  O   UNL     1     -16.111  56.332  22.085  1.00  0.00    -0.394 OA
ATOM      4  H   UNL     1     -17.069  56.211  22.313  1.00  0.00     0.210 HD
ENDBRANCH   2   3
ENDBRANCH   1   2
BRANCH   1   5
ATOM      5  C   UNL     1     -13.527  55.833  20.275  1.00  0.00     0.181 C 
BRANCH   5   6
ATOM      6  C   UNL     1     -12.454  54.790  19.886  1.00  0.00     0.209 C 
BRANCH   6   7
ATOM      7  C   UNL     1     -11.676  54.319  21.085  1.00  0.00     0.258 C 
ATOM      8  O   UNL     1     -12.205  53.618  21.933  1.00  0.00    -0.300 OA
ENDBRANCH   6   7
BRANCH   6   9
ATOM      9  O   UNL     1     -13.063  53.675  19.288  1.00  0.00    -0.383 OA
ATOM     10  H   UNL     1     -12.970  52.916  19.923  1.00  0.00     0.211 HD
ENDBRANCH   6   9
ENDBRANCH   5   6
BRANCH   5  11
ATOM     11  O   UNL     1     -13.239  56.321  21.563  1.00  0.00    -0.387 OA
ATOM     12  H   UNL     1     -13.797  55.810  22.205  1.00  0.00     0.211 HD
ENDBRANCH   5  11
ENDBRANCH   1   5
BRANCH   1  13
ATOM     13  O   UNL     1     -15.009  54.119  21.110  1.00  0.00    -0.388 OA
ATOM     14  H   UNL     1     -14.083  53.955  21.428  1.00  0.00     0.211 HD
ENDBRANCH   1  13
TORSDOF 8
ENDMDL
MODEL 3
REMARK VINA RESULT:    -4.115     14.617     15.776
REMARK INTER + INTRA:          -6.217
REMARK INTER:                  -5.309
REMARK INTRA:                  -0.909
REMARK UNBOUND:                -0.659
REMARK SMILES O=C[C@@H](O)[C@H](O)[C@@H](O)CO
REMARK SMILES IDX 7 1 9 2 10 3 5 5 3 6 2 7 1 8 4 9 6 11 8 13
REMARK H PARENT 10 4 4 10 6 12 8 14
REMARK Flexibility Score: inf
ROOT
ATOM      1  C   UNL     1     -13.472  55.491  20.973  1.00  0.00     0.171 C 
ENDROOT
BRANCH   1   2
ATOM      2  C   UNL     1     -12.069  55.270  20.380  1.00  0.00     0.190 C 
BRANCH   2   3
ATOM      3  O   UNL     1     -11.600  56.429  19.746  1.00  0.00    -0.394 OA
ATOM      4  H   UNL     1     -10.700  56.614  20.121  1.00  0.00     0.210 HD
ENDBRANCH   2   3
ENDBRANCH   1   2
BRANCH   1   5
ATOM      5  C   UNL     1     -14.323  56.454  20.105  1.00  0.00     0.181 C 
BRANCH   5   6
ATOM      6  C   UNL     1     -15.701  56.747  20.743  1.00  0.00     0.209 C 
BRANCH   6   7
ATOM      7  C   UNL     1     -16.815  56.060  20.000  1.00  0.00     0.258 C 
ATOM      8  O   UNL     1     -16.944  54.848  20.052  1.00  0.00    -0.300 OA
ENDBRANCH   6   7
BRANCH   6   9
ATOM      9  O   UNL     1     -15.719  56.301  22.075  1.00  0.00    -0.383 OA
ATOM     10  H   UNL     1     -15.269  56.997  22.622  1.00  0.00     0.211 HD
ENDBRANCH   6   9
ENDBRANCH   5   6
BRANCH   5  11
ATOM     11  O   UNL     1     -14.525  55.888  18.833  1.00  0.00    -0.387 OA
ATOM     12  H   UNL     1     -13.660  55.497  18.542  1.00  0.00     0.211 HD
ENDBRANCH   5  11
ENDBRANCH   1   5
BRANCH   1  13
ATOM     13  O   UNL     1     -14.132  54.255  21.086  1.00  0.00    -0.388 OA
ATOM     14  H   UNL     1     -14.130  53.844  20.182  1.00  0.00     0.211 HD
ENDBRANCH   1  13
TORSDOF 8
ENDMDL
MODEL 4
REMARK VINA RESULT:    -4.094     14.748     15.958
REMARK INTER + INTRA:          -6.188
REMARK INTER:                  -5.713
REMARK INTRA:                  -0.476
REMARK UNBOUND:                -0.659
REMARK SMILES O=C[C@@H](O)[C@H](O)[C@@H](O)CO
REMARK SMILES IDX 7 1 9 2 10 3 5 5 3 6 2 7 1 8 4 9 6 11 8 13
REMARK H PARENT 10 4 4 10 6 12 8 14
REMARK Flexibility Score: inf
ROOT
ATOM      1  C   UNL     1     -13.704  56.237  20.263  1.00  0.00     0.171 C 
ENDROOT
BRANCH   1   2
ATOM      2  C   UNL     1     -12.573  55.765  19.330  1.00  0.00     0.190 C 
BRANCH   2   3
ATOM      3  O   UNL     1     -11.379  56.449  19.599  1.00  0.00    -0.394 OA
ATOM      4  H   UNL     1     -10.852  55.871  20.210  1.00  0.00     0.210 HD
ENDBRANCH   2   3
ENDBRANCH   1   2
BRANCH   1   5
ATOM      5  C   UNL     1     -14.898  55.248  20.274  1.00  0.00     0.181 C 
BRANCH   5   6
ATOM      6  C   UNL     1     -16.184  55.897  20.837  1.00  0.00     0.209 C 
BRANCH   6   7
ATOM      7  C   UNL     1     -17.333  54.926  20.856  1.00  0.00     0.258 C 
ATOM      8  O   UNL     1     -17.389  54.044  21.697  1.00  0.00    -0.300 OA
ENDBRANCH   6   7
BRANCH   6   9
ATOM      9  O   UNL     1     -15.962  56.344  22.149  1.00  0.00    -0.383 OA
ATOM     10  H   UNL     1     -16.828  56.690  22.490  1.00  0.00     0.211 HD
ENDBRANCH   6   9
ENDBRANCH   5   6
BRANCH   5  11
ATOM     11  O   UNL     1     -14.574  54.127  21.061  1.00  0.00    -0.387 OA
ATOM     12  H   UNL     1     -15.223  53.410  20.835  1.00  0.00     0.211 HD
ENDBRANCH   5  11
ENDBRANCH   1   5
BRANCH   1  13
ATOM     13  O   UNL     1     -13.202  56.380  21.568  1.00  0.00    -0.388 OA
ATOM     14  H   UNL     1     -12.680  57.225  21.586  1.00  0.00     0.211 HD
ENDBRANCH   1  13
TORSDOF 8
ENDMDL
MODEL 5
REMARK VINA RESULT:    -4.079     14.690     15.714
REMARK INTER + INTRA:          -6.169
REMARK INTER:                  -5.482
REMARK INTRA:                  -0.687
REMARK UNBOUND:                -0.659
REMARK SMILES O=C[C@@H](O)[C@H](O)[C@@H](O)CO
REMARK SMILES IDX 7 1 9 2 10 3 5 5 3 6 2 7 1 8 4 9 6 11 8 13
REMARK H PARENT 10 4 4 10 6 12 8 14
REMARK Flexibility Score: inf
ROOT
ATOM      1  C   UNL     1     -13.258  55.476  20.460  1.00  0.00     0.171 C 
ENDROOT
BRANCH   1   2
ATOM      2  C   UNL     1     -12.476  54.169  20.686  1.00  0.00     0.190 C 
BRANCH   2   3
ATOM      3  O   UNL     1     -12.674  53.681  21.985  1.00  0.00    -0.394 OA
ATOM      4  H   UNL     1     -13.566  54.003  22.277  1.00  0.00     0.210 HD
ENDBRANCH   2   3
ENDBRANCH   1   2
BRANCH   1   5
ATOM      5  C   UNL     1     -14.760  55.211  20.178  1.00  0.00     0.181 C 
BRANCH   5   6
ATOM      6  C   UNL     1     -15.649  56.403  20.604  1.00  0.00     0.209 C 
BRANCH   6   7
ATOM      7  C   UNL     1     -16.930  56.449  19.816  1.00  0.00     0.258 C 
ATOM      8  O   UNL     1     -17.557  55.428  19.585  1.00  0.00    -0.300 OA
ENDBRANCH   6   7
BRANCH   6   9
ATOM      9  O   UNL     1     -15.972  56.298  21.966  1.00  0.00    -0.383 OA
ATOM     10  H   UNL     1     -15.215  56.689  22.477  1.00  0.00     0.211 HD
ENDBRANCH   6   9
ENDBRANCH   5   6
BRANCH   5  11
ATOM     11  O   UNL     1     -15.176  54.063  20.877  1.00  0.00    -0.387 OA
ATOM     12  H   UNL     1     -16.048  54.274  21.301  1.00  0.00     0.211 HD
ENDBRANCH   5  11
ENDBRANCH   1   5
BRANCH   1  13
ATOM     13  O   UNL     1     -13.132  56.297  21.593  1.00  0.00    -0.388 OA
ATOM     14  H   UNL     1     -13.298  57.229  21.294  1.00  0.00     0.211 HD
ENDBRANCH   1  13
TORSDOF 8
ENDMDL
MODEL 6
REMARK VINA RESULT:    -4.063     12.830     14.011
REMARK INTER + INTRA:          -6.146
REMARK INTER:                  -5.600
REMARK INTRA:                  -0.546
REMARK UNBOUND:                -0.659
REMARK SMILES O=C[C@@H](O)[C@H](O)[C@@H](O)CO
REMARK SMILES IDX 7 1 9 2 10 3 5 5 3 6 2 7 1 8 4 9 6 11 8 13
REMARK H PARENT 10 4 4 10 6 12 8 14
REMARK Flexibility Score: inf
ROOT
ATOM      1  C   UNL     1     -11.421  54.911  20.178  1.00  0.00     0.171 C 
ENDROOT
BRANCH   1   2
ATOM      2  C   UNL     1     -10.693  54.442  21.450  1.00  0.00     0.190 C 
BRANCH   2   3
ATOM      3  O   UNL     1      -9.722  55.372  21.848  1.00  0.00    -0.394 OA
ATOM      4  H   UNL     1      -9.122  54.902  22.484  1.00  0.00     0.210 HD
ENDBRANCH   2   3
ENDBRANCH   1   2
BRANCH   1   5
ATOM      5  C   UNL     1     -12.950  54.667  20.261  1.00  0.00     0.181 C 
BRANCH   5   6
ATOM      6  C   UNL     1     -13.749  55.990  20.290  1.00  0.00     0.209 C 
BRANCH   6   7
ATOM      7  C   UNL     1     -15.214  55.762  20.032  1.00  0.00     0.258 C 
ATOM      8  O   UNL     1     -15.909  55.188  20.855  1.00  0.00    -0.300 OA
ENDBRANCH   6   7
BRANCH   6   9
ATOM      9  O   UNL     1     -13.613  56.606  21.545  1.00  0.00    -0.383 OA
ATOM     10  H   UNL     1     -13.643  55.886  22.229  1.00  0.00     0.211 HD
ENDBRANCH   6   9
ENDBRANCH   5   6
BRANCH   5  11
ATOM     11  O   UNL     1     -13.247  53.932  21.424  1.00  0.00    -0.387 OA
ATOM     12  H   UNL     1     -13.498  53.015  21.140  1.00  0.00     0.211 HD
ENDBRANCH   5  11
ENDBRANCH   1   5
BRANCH   1  13
ATOM     13  O   UNL     1     -11.176  56.280  19.978  1.00  0.00    -0.388 OA
ATOM     14  H   UNL     1     -10.673  56.362  19.126  1.00  0.00     0.211 HD
ENDBRANCH   1  13
TORSDOF 8
ENDMDL
MODEL 7
REMARK VINA RESULT:    -4.015     14.420     15.454
REMARK INTER + INTRA:          -6.082
REMARK INTER:                  -5.102
REMARK INTRA:                  -0.979
REMARK UNBOUND:                -0.659
REMARK SMILES O=C[C@@H](O)[C@H](O)[C@@H](O)CO
REMARK SMILES IDX 7 1 9 2 10 3 5 5 3 6 2 7 1 8 4 9 6 11 8 13
REMARK H PARENT 10 4 4 10 6 12 8 14
REMARK Flexibility Score: inf
ROOT
ATOM      1  C   UNL     1     -15.617  54.947  20.146  1.00  0.00     0.171 C 
ENDROOT
BRANCH   1   2
ATOM      2  C   UNL     1     -16.584  55.888  20.889  1.00  0.00     0.190 C 
BRANCH   2   3
ATOM      3  O   UNL     1     -16.020  56.347  22.087  1.00  0.00    -0.394 OA
ATOM      4  H   UNL     1     -15.986  55.568  22.702  1.00  0.00     0.210 HD
ENDBRANCH   2   3
ENDBRANCH   1   2
BRANCH   1   5
ATOM      5  C   UNL     1     -14.442  55.720  19.495  1.00  0.00     0.181 C 
BRANCH   5   6
ATOM      6  C   UNL     1     -13.116  55.516  20.265  1.00  0.00     0.209 C 
BRANCH   6   7
ATOM      7  C   UNL     1     -11.927  55.945  19.448  1.00  0.00     0.258 C 
ATOM      8  O   UNL     1     -12.077  56.589  18.421  1.00  0.00    -0.300 OA
ENDBRANCH   6   7
BRANCH   6   9
ATOM      9  O   UNL     1     -13.129  56.266  21.452  1.00  0.00    -0.383 OA
ATOM     10  H   UNL     1     -13.679  57.075  21.280  1.00  0.00     0.211 HD
ENDBRANCH   6   9
ENDBRANCH   5   6
BRANCH   5  11
ATOM     11  O   UNL     1     -14.740  57.095  19.464  1.00  0.00    -0.387 OA
ATOM     12  H   UNL     1     -13.953  57.577  19.828  1.00  0.00     0.211 HD
ENDBRANCH   5  11
ENDBRANCH   1   5
BRANCH   1  13
ATOM     13  O   UNL     1     -15.111  53.994  21.046  1.00  0.00    -0.388 OA
ATOM     14  H   UNL     1     -15.318  53.100  20.668  1.00  0.00     0.211 HD
ENDBRANCH   1  13
TORSDOF 8
ENDMDL
MODEL 8
REMARK VINA RESULT:    -3.905     13.879     15.113
REMARK INTER + INTRA:          -5.934
REMARK INTER:                  -4.969
REMARK INTRA:                  -0.965
REMARK UNBOUND:                -0.659
REMARK SMILES O=C[C@@H](O)[C@H](O)[C@@H](O)CO
REMARK SMILES IDX 7 1 9 2 10 3 5 5 3 6 2 7 1 8 4 9 6 11 8 13
REMARK H PARENT 10 4 4 10 6 12 8 14
REMARK Flexibility Score: inf
ROOT
ATOM      1  C   UNL     1     -12.754  54.517  19.979  1.00  0.00     0.171 C 
ENDROOT
BRANCH   1   2
ATOM      2  C   UNL     1     -11.364  55.137  20.211  1.00  0.00     0.190 C 
BRANCH   2   3
ATOM      3  O   UNL     1     -11.266  56.397  19.605  1.00  0.00    -0.394 OA
ATOM      4  H   UNL     1     -11.245  57.065  20.339  1.00  0.00     0.210 HD
ENDBRANCH   2   3
ENDBRANCH   1   2
BRANCH   1   5
ATOM      5  C   UNL     1     -13.876  55.332  20.672  1.00  0.00     0.181 C 
BRANCH   5   6
ATOM      6  C   UNL     1     -14.800  56.034  19.650  1.00  0.00     0.209 C 
BRANCH   6   7
ATOM      7  C   UNL     1     -15.996  56.657  20.317  1.00  0.00     0.258 C 
ATOM      8  O   UNL     1     -16.345  56.298  21.430  1.00  0.00    -0.300 OA
ENDBRANCH   6   7
BRANCH   6   9
ATOM      9  O   UNL     1     -14.093  57.045  18.978  1.00  0.00    -0.383 OA
ATOM     10  H   UNL     1     -13.162  56.720  18.860  1.00  0.00     0.211 HD
ENDBRANCH   6   9
ENDBRANCH   5   6
BRANCH   5  11
ATOM     11  O   UNL     1     -13.302  56.308  21.508  1.00  0.00    -0.387 OA
ATOM     12  H   UNL     1     -12.351  56.405  21.240  1.00  0.00     0.211 HD
ENDBRANCH   5  11
ENDBRANCH   1   5
BRANCH   1  13
ATOM     13  O   UNL     1     -13.010  54.447  18.599  1.00  0.00    -0.388 OA
ATOM     14  H   UNL     1     -13.608  53.668  18.455  1.00  0.00     0.211 HD
ENDBRANCH   1  13
TORSDOF 8
ENDMDL
MODEL 9
REMARK VINA RESULT:    -3.864     14.398     15.341
REMARK INTER + INTRA:          -5.878
REMARK INTER:                  -4.923
REMARK INTRA:                  -0.955
REMARK UNBOUND:                -0.659
REMARK SMILES O=C[C@@H](O)[C@H](O)[C@@H](O)CO
REMARK SMILES IDX 7 1 9 2 10 3 5 5 3 6 2 7 1 8 4 9 6 11 8 13
REMARK H PARENT 10 4 4 10 6 12 8 14
REMARK Flexibility Score: inf
ROOT
ATOM      1  C   UNL     1     -15.734  53.932  19.643  1.00  0.00     0.171 C 
ENDROOT
BRANCH   1   2
ATOM      2  C   UNL     1     -16.938  53.514  18.779  1.00  0.00     0.190 C 
BRANCH   2   3
ATOM      3  O   UNL     1     -16.550  52.621  17.771  1.00  0.00    -0.394 OA
ATOM      4  H   UNL     1     -16.964  52.946  16.929  1.00  0.00     0.210 HD
ENDBRANCH   2   3
ENDBRANCH   1   2
BRANCH   1   5
ATOM      5  C   UNL     1     -14.386  53.673  18.922  1.00  0.00     0.181 C 
BRANCH   5   6
ATOM      6  C   UNL     1     -13.176  53.880  19.863  1.00  0.00     0.209 C 
BRANCH   6   7
ATOM      7  C   UNL     1     -12.411  55.129  19.518  1.00  0.00     0.258 C 
ATOM      8  O   UNL     1     -12.885  56.231  19.743  1.00  0.00    -0.300 OA
ENDBRANCH   6   7
BRANCH   6   9
ATOM      9  O   UNL     1     -13.613  53.983  21.193  1.00  0.00    -0.383 OA
ATOM     10  H   UNL     1     -13.105  53.312  21.721  1.00  0.00     0.211 HD
ENDBRANCH   6   9
ENDBRANCH   5   6
BRANCH   5  11
ATOM     11  O   UNL     1     -14.261  54.546  17.826  1.00  0.00    -0.387 OA
ATOM     12  H   UNL     1     -13.993  53.999  17.042  1.00  0.00     0.211 HD
ENDBRANCH   5  11
ENDBRANCH   1   5
BRANCH   1  13
ATOM     13  O   UNL     1     -15.840  55.297  19.961  1.00  0.00    -0.388 OA
ATOM     14  H   UNL     1     -15.185  55.778  19.391  1.00  0.00     0.211 HD
ENDBRANCH   1  13
TORSDOF 8
ENDMDL
