MODEL 1
REMARK VINA RESULT:    -3.658      0.000      0.000
REMARK INTER + INTRA:          -4.566
REMARK INTER:                  -4.513
REMARK INTRA:                  -0.053
REMARK UNBOUND:                -0.053
REMARK SMILES CCCCCC(=O)[O-]
REMARK SMILES IDX 4 1 5 2 6 3 7 4 8 5 3 6 2 7 1 8
REMARK H PARENT
REMARK Flexibility Score: inf
ROOT
ATOM      1  C   UNL     1      13.225  26.523  34.116  1.00  0.00     0.006 C 
ENDROOT
BRANCH   1   2
ATOM      2  C   UNL     1      11.805  27.096  34.080  1.00  0.00     0.053 C 
BRANCH   2   3
ATOM      3  C   UNL     1      11.513  27.853  35.336  1.00  0.00     0.041 C 
ATOM      4  O   UNL     1      11.036  29.017  35.278  1.00  0.00    -0.550 OA
ATOM      5  O   UNL     1      11.719  27.256  36.573  1.00  0.00    -0.550 OA
ENDBRANCH   2   3
ENDBRANCH   1   2
BRANCH   1   6
ATOM      6  C   UNL     1      13.295  25.182  33.370  1.00  0.00     0.000 C 
BRANCH   6   7
ATOM      7  C   UNL     1      14.736  24.770  33.030  1.00  0.00    -0.003 C 
ATOM      8  C   UNL     1      15.081  23.364  33.519  1.00  0.00     0.004 C 
ENDBRANCH   6   7
ENDBRANCH   1   6
TORSDOF 4
ENDMDL
MODEL 2
REMARK VINA RESULT:    -3.646      0.129      1.147
REMARK INTER + INTRA:          -4.552
REMARK INTER:                  -4.492
REMARK INTRA:                  -0.060
REMARK UNBOUND:                -0.053
REMARK SMILES CCCCCC(=O)[O-]
REMARK SMILES IDX 4 1 5 2 6 3 7 4 8 5 3 6 2 7 1 8
REMARK H PARENT
REMARK Flexibility Score: inf
ROOT
ATOM      1  C   UNL     1      13.270  26.540  33.998  1.00  0.00     0.006 C 
ENDROOT
BRANCH   1   2
ATOM      2  C   UNL     1      11.821  27.033  34.047  1.00  0.00     0.053 C 
BRANCH   2   3
ATOM      3  C   UNL     1      11.537  27.700  35.356  1.00  0.00     0.041 C 
ATOM      4  O   UNL     1      11.715  27.076  36.435  1.00  0.00    -0.550 OA
ATOM      5  O   UNL     1      11.124  29.025  35.387  1.00  0.00    -0.550 OA
ENDBRANCH   2   3
ENDBRANCH   1   2
BRANCH   1   6
ATOM      6  C   UNL     1      13.353  25.141  33.371  1.00  0.00     0.000 C 
BRANCH   6   7
ATOM      7  C   UNL     1      14.793  24.737  33.019  1.00  0.00    -0.003 C 
ATOM      8  C   UNL     1      15.145  23.327  33.493  1.00  0.00     0.004 C 
ENDBRANCH   6   7
ENDBRANCH   1   6
TORSDOF 4
ENDMDL
MODEL 3
REMARK VINA RESULT:    -3.483      2.948      4.890
REMARK INTER + INTRA:          -4.350
REMARK INTER:                  -4.278
REMARK INTRA:                  -0.072
REMARK UNBOUND:                -0.053
REMARK SMILES CCCCCC(=O)[O-]
REMARK SMILES IDX 4 1 5 2 6 3 7 4 8 5 3 6 2 7 1 8
REMARK H PARENT
REMARK Flexibility Score: inf
ROOT
ATOM      1  C   UNL     1      12.848  25.500  33.640  1.00  0.00     0.006 C 
ENDROOT
BRANCH   1   2
ATOM      2  C   UNL     1      14.199  25.240  32.968  1.00  0.00     0.053 C 
BRANCH   2   3
ATOM      3  C   UNL     1      14.908  24.104  33.636  1.00  0.00     0.041 C 
ATOM      4  O   UNL     1      15.658  23.345  32.968  1.00  0.00    -0.550 OA
ATOM      5  O   UNL     1      14.781  23.914  35.006  1.00  0.00    -0.550 OA
ENDBRANCH   2   3
ENDBRANCH   1   2
BRANCH   1   6
ATOM      6  C   UNL     1      12.837  26.867  34.339  1.00  0.00     0.000 C 
BRANCH   6   7
ATOM      7  C   UNL     1      11.449  27.527  34.325  1.00  0.00    -0.003 C 
ATOM      8  C   UNL     1      11.257  28.526  35.465  1.00  0.00     0.004 C 
ENDBRANCH   6   7
ENDBRANCH   1   6
TORSDOF 4
ENDMDL
MODEL 4
REMARK VINA RESULT:    -3.439      1.415      1.956
REMARK INTER + INTRA:          -4.296
REMARK INTER:                  -4.173
REMARK INTRA:                  -0.123
REMARK UNBOUND:                -0.053
REMARK SMILES CCCCCC(=O)[O-]
REMARK SMILES IDX 4 1 5 2 6 3 7 4 8 5 3 6 2 7 1 8
REMARK H PARENT
REMARK Flexibility Score: inf
ROOT
ATOM      1  C   UNL     1      14.833  26.215  33.345  1.00  0.00     0.006 C 
ENDROOT
BRANCH   1   2
ATOM      2  C   UNL     1      13.418  25.635  33.425  1.00  0.00     0.053 C 
BRANCH   2   3
ATOM      3  C   UNL     1      12.594  26.396  34.414  1.00  0.00     0.041 C 
ATOM      4  O   UNL     1      11.742  27.236  34.016  1.00  0.00    -0.550 OA
ATOM      5  O   UNL     1      12.728  26.145  35.772  1.00  0.00    -0.550 OA
ENDBRANCH   2   3
ENDBRANCH   1   2
BRANCH   1   6
ATOM      6  C   UNL     1      15.884  25.096  33.316  1.00  0.00     0.000 C 
BRANCH   6   7
ATOM      7  C   UNL     1      15.269  23.714  33.046  1.00  0.00    -0.003 C 
ATOM      8  C   UNL     1      16.147  22.567  33.545  1.00  0.00     0.004 C 
ENDBRANCH   6   7
ENDBRANCH   1   6
TORSDOF 4
ENDMDL
MODEL 5
REMARK VINA RESULT:    -3.413      1.493      2.373
REMARK INTER + INTRA:          -4.264
REMARK INTER:                  -4.112
REMARK INTRA:                  -0.152
REMARK UNBOUND:                -0.053
REMARK SMILES CCCCCC(=O)[O-]
REMARK SMILES IDX 4 1 5 2 6 3 7 4 8 5 3 6 2 7 1 8
REMARK H PARENT
REMARK Flexibility Score: inf
ROOT
ATOM      1  C   UNL     1      14.658  25.830  33.016  1.00  0.00     0.006 C 
ENDROOT
BRANCH   1   2
ATOM      2  C   UNL     1      13.261  25.308  33.365  1.00  0.00     0.053 C 
BRANCH   2   3
ATOM      3  C   UNL     1      12.644  26.139  34.445  1.00  0.00     0.041 C 
ATOM      4  O   UNL     1      12.900  25.897  35.654  1.00  0.00    -0.550 OA
ATOM      5  O   UNL     1      11.828  27.213  34.117  1.00  0.00    -0.550 OA
ENDBRANCH   2   3
ENDBRANCH   1   2
BRANCH   1   6
ATOM      6  C   UNL     1      15.738  24.814  33.412  1.00  0.00     0.000 C 
BRANCH   6   7
ATOM      7  C   UNL     1      15.205  23.374  33.463  1.00  0.00    -0.003 C 
ATOM      8  C   UNL     1      16.318  22.328  33.406  1.00  0.00     0.004 C 
ENDBRANCH   6   7
ENDBRANCH   1   6
TORSDOF 4
ENDMDL
MODEL 6
REMARK VINA RESULT:    -3.347      1.683      2.258
REMARK INTER + INTRA:          -4.183
REMARK INTER:                  -3.980
REMARK INTRA:                  -0.203
REMARK UNBOUND:                -0.053
REMARK SMILES CCCCCC(=O)[O-]
REMARK SMILES IDX 4 1 5 2 6 3 7 4 8 5 3 6 2 7 1 8
REMARK H PARENT
REMARK Flexibility Score: inf
ROOT
ATOM      1  C   UNL     1      13.918  24.738  34.153  1.00  0.00     0.006 C 
ENDROOT
BRANCH   1   2
ATOM      2  C   UNL     1      12.743  25.454  33.480  1.00  0.00     0.053 C 
BRANCH   2   3
ATOM      3  C   UNL     1      12.526  26.800  34.096  1.00  0.00     0.041 C 
ATOM      4  O   UNL     1      11.408  27.370  33.994  1.00  0.00    -0.550 OA
ATOM      5  O   UNL     1      13.541  27.403  34.826  1.00  0.00    -0.550 OA
ENDBRANCH   2   3
ENDBRANCH   1   2
BRANCH   1   6
ATOM      6  C   UNL     1      15.029  24.431  33.137  1.00  0.00     0.000 C 
BRANCH   6   7
ATOM      7  C   UNL     1      16.397  24.973  33.577  1.00  0.00    -0.003 C 
ATOM      8  C   UNL     1      16.605  26.438  33.198  1.00  0.00     0.004 C 
ENDBRANCH   6   7
ENDBRANCH   1   6
TORSDOF 4
ENDMDL
MODEL 7
REMARK VINA RESULT:    -3.335      2.906      4.592
REMARK INTER + INTRA:          -4.167
REMARK INTER:                  -3.941
REMARK INTRA:                  -0.226
REMARK UNBOUND:                -0.053
REMARK SMILES CCCCCC(=O)[O-]
REMARK SMILES IDX 4 1 5 2 6 3 7 4 8 5 3 6 2 7 1 8
REMARK H PARENT
REMARK Flexibility Score: inf
ROOT
ATOM      1  C   UNL     1      14.287  25.188  33.019  1.00  0.00     0.006 C 
ENDROOT
BRANCH   1   2
ATOM      2  C   UNL     1      14.860  23.805  33.341  1.00  0.00     0.053 C 
BRANCH   2   3
ATOM      3  C   UNL     1      15.275  23.729  34.776  1.00  0.00     0.041 C 
ATOM      4  O   UNL     1      15.259  22.625  35.382  1.00  0.00    -0.550 OA
ATOM      5  O   UNL     1      15.726  24.867  35.431  1.00  0.00    -0.550 OA
ENDBRANCH   2   3
ENDBRANCH   1   2
BRANCH   1   6
ATOM      6  C   UNL     1      12.811  25.281  33.434  1.00  0.00     0.000 C 
BRANCH   6   7
ATOM      7  C   UNL     1      12.478  26.604  34.140  1.00  0.00    -0.003 C 
ATOM      8  C   UNL     1      12.594  26.510  35.661  1.00  0.00     0.004 C 
ENDBRANCH   6   7
ENDBRANCH   1   6
TORSDOF 4
ENDMDL
MODEL 8
REMARK VINA RESULT:    -3.168      2.017      2.200
REMARK INTER + INTRA:          -3.961
REMARK INTER:                  -3.788
REMARK INTRA:                  -0.173
REMARK UNBOUND:                -0.053
REMARK SMILES CCCCCC(=O)[O-]
REMARK SMILES IDX 4 1 5 2 6 3 7 4 8 5 3 6 2 7 1 8
REMARK H PARENT
REMARK Flexibility Score: inf
ROOT
ATOM      1  C   UNL     1      12.538  26.695  34.031  1.00  0.00     0.006 C 
ENDROOT
BRANCH   1   2
ATOM      2  C   UNL     1      13.319  26.916  35.329  1.00  0.00     0.053 C 
BRANCH   2   3
ATOM      3  C   UNL     1      14.122  28.176  35.250  1.00  0.00     0.041 C 
ATOM      4  O   UNL     1      15.129  28.238  34.496  1.00  0.00    -0.550 OA
ATOM      5  O   UNL     1      13.730  29.297  35.968  1.00  0.00    -0.550 OA
ENDBRANCH   2   3
ENDBRANCH   1   2
BRANCH   1   6
ATOM      6  C   UNL     1      12.837  25.309  33.439  1.00  0.00     0.000 C 
BRANCH   6   7
ATOM      7  C   UNL     1      14.298  25.164  32.986  1.00  0.00    -0.003 C 
ATOM      8  C   UNL     1      14.885  23.791  33.313  1.00  0.00     0.004 C 
ENDBRANCH   6   7
ENDBRANCH   1   6
TORSDOF 4
ENDMDL
MODEL 9
REMARK VINA RESULT:    -3.129      1.757      2.198
REMARK INTER + INTRA:          -3.914
REMARK INTER:                  -3.740
REMARK INTRA:                  -0.174
REMARK UNBOUND:                -0.053
REMARK SMILES CCCCCC(=O)[O-]
REMARK SMILES IDX 4 1 5 2 6 3 7 4 8 5 3 6 2 7 1 8
REMARK H PARENT
REMARK Flexibility Score: inf
ROOT
ATOM      1  C   UNL     1      14.869  27.000  33.782  1.00  0.00     0.006 C 
ENDROOT
BRANCH   1   2
ATOM      2  C   UNL     1      13.755  27.389  34.759  1.00  0.00     0.053 C 
BRANCH   2   3
ATOM      3  C   UNL     1      12.422  26.963  34.231  1.00  0.00     0.041 C 
ATOM      4  O   UNL     1      12.318  25.908  33.551  1.00  0.00    -0.550 OA
ATOM      5  O   UNL     1      11.285  27.702  34.532  1.00  0.00    -0.550 OA
ENDBRANCH   2   3
ENDBRANCH   1   2
BRANCH   1   6
ATOM      6  C   UNL     1      15.744  25.881  34.366  1.00  0.00     0.000 C 
BRANCH   6   7
ATOM      7  C   UNL     1      16.083  24.796  33.333  1.00  0.00    -0.003 C 
ATOM      8  C   UNL     1      15.020  23.701  33.253  1.00  0.00     0.004 C 
ENDBRANCH   6   7
ENDBRANCH   1   6
TORSDOF 4
ENDMDL
