MODEL 1
REMARK VINA RESULT:    -2.568      0.000      0.000
REMARK INTER + INTRA:          -2.568
REMARK INTER:                  -2.568
REMARK INTRA:                   0.000
REMARK UNBOUND:                 0.000
REMARK SMILES CC(=O)[O-]
REMARK SMILES IDX 1 1 2 2 3 3 4 4
REMARK H PARENT
REMARK Flexibility Score: inf
ROOT
ATOM      1  C   UNL     1     -19.009  21.260  20.558  1.00  0.00     0.063 C 
ATOM      2  C   UNL     1     -18.713  20.051  21.379  1.00  0.00     0.038 C 
ATOM      3  O   UNL     1     -18.324  20.177  22.571  1.00  0.00    -0.550 OA
ATOM      4  O   UNL     1     -18.913  18.783  20.850  1.00  0.00    -0.550 OA
ENDROOT
TORSDOF 0
ENDMDL
MODEL 2
REMARK VINA RESULT:    -2.336      1.390      1.766
REMARK INTER + INTRA:          -2.336
REMARK INTER:                  -2.336
REMARK INTRA:                   0.000
REMARK UNBOUND:                 0.000
REMARK SMILES CC(=O)[O-]
REMARK SMILES IDX 1 1 2 2 3 3 4 4
REMARK H PARENT
REMARK Flexibility Score: inf
ROOT
ATOM      1  C   UNL     1     -18.899  18.753  20.843  1.00  0.00     0.063 C 
ATOM      2  C   UNL     1     -18.685  20.118  21.404  1.00  0.00     0.038 C 
ATOM      3  O   UNL     1     -18.304  20.259  22.596  1.00  0.00    -0.550 OA
ATOM      4  O   UNL     1     -18.856  21.236  20.598  1.00  0.00    -0.550 OA
ENDROOT
TORSDOF 0
ENDMDL
MODEL 3
REMARK VINA RESULT:    -1.625     17.059     17.361
REMARK INTER + INTRA:          -1.625
REMARK INTER:                  -1.625
REMARK INTRA:                   0.000
REMARK UNBOUND:                 0.000
REMARK SMILES CC(=O)[O-]
REMARK SMILES IDX 1 1 2 2 3 3 4 4
REMARK H PARENT
REMARK Flexibility Score: inf
ROOT
ATOM      1  C   UNL     1      -2.620  29.395  19.917  1.00  0.00     0.063 C 
ATOM      2  C   UNL     1      -3.574  28.249  19.895  1.00  0.00     0.038 C 
ATOM      3  O   UNL     1      -3.677  27.495  20.898  1.00  0.00    -0.550 OA
ATOM      4  O   UNL     1      -4.388  28.041  18.790  1.00  0.00    -0.550 OA
ENDROOT
TORSDOF 0
ENDMDL
MODEL 4
REMARK VINA RESULT:    -1.480     17.882     18.267
REMARK INTER + INTRA:          -1.480
REMARK INTER:                  -1.480
REMARK INTRA:                   0.000
REMARK UNBOUND:                 0.000
REMARK SMILES CC(=O)[O-]
REMARK SMILES IDX 1 1 2 2 3 3 4 4
REMARK H PARENT
REMARK Flexibility Score: inf
ROOT
ATOM      1  C   UNL     1      -3.306  27.790  19.490  1.00  0.00     0.063 C 
ATOM      2  C   UNL     1      -3.138  29.232  19.829  1.00  0.00     0.038 C 
ATOM      3  O   UNL     1      -4.149  29.959  20.015  1.00  0.00    -0.550 OA
ATOM      4  O   UNL     1      -1.866  29.766  19.992  1.00  0.00    -0.550 OA
ENDROOT
TORSDOF 0
ENDMDL
MODEL 5
REMARK VINA RESULT:    -1.225      8.207      8.358
REMARK INTER + INTRA:          -1.225
REMARK INTER:                  -1.225
REMARK INTRA:                   0.000
REMARK UNBOUND:                 0.000
REMARK SMILES CC(=O)[O-]
REMARK SMILES IDX 1 1 2 2 3 3 4 4
REMARK H PARENT
REMARK Flexibility Score: inf
ROOT
ATOM      1  C   UNL     1     -14.624  25.270  16.251  1.00  0.00     0.063 C 
ATOM      2  C   UNL     1     -16.031  25.730  16.072  1.00  0.00     0.038 C 
ATOM      3  O   UNL     1     -16.583  26.434  16.958  1.00  0.00    -0.550 OA
ATOM      4  O   UNL     1     -16.720  25.426  14.905  1.00  0.00    -0.550 OA
ENDROOT
TORSDOF 0
ENDMDL
MODEL 6
REMARK VINA RESULT:    -1.131      7.786      8.218
REMARK INTER + INTRA:          -1.131
REMARK INTER:                  -1.131
REMARK INTRA:                   0.000
REMARK UNBOUND:                 0.000
REMARK SMILES CC(=O)[O-]
REMARK SMILES IDX 1 1 2 2 3 3 4 4
REMARK H PARENT
REMARK Flexibility Score: inf
ROOT
ATOM      1  C   UNL     1     -17.848  25.808  16.885  1.00  0.00     0.063 C 
ATOM      2  C   UNL     1     -16.531  25.758  16.187  1.00  0.00     0.038 C 
ATOM      3  O   UNL     1     -16.485  25.638  14.934  1.00  0.00    -0.550 OA
ATOM      4  O   UNL     1     -15.353  25.895  16.909  1.00  0.00    -0.550 OA
ENDROOT
TORSDOF 0
ENDMDL
MODEL 7
REMARK VINA RESULT:    -0.994      4.382      5.050
REMARK INTER + INTRA:          -0.994
REMARK INTER:                  -0.994
REMARK INTRA:                   0.000
REMARK UNBOUND:                 0.000
REMARK SMILES CC(=O)[O-]
REMARK SMILES IDX 1 1 2 2 3 3 4 4
REMARK H PARENT
REMARK Flexibility Score: inf
ROOT
ATOM      1  C   UNL     1     -19.092  16.765  16.769  1.00  0.00     0.063 C 
ATOM      2  C   UNL     1     -19.124  16.475  18.231  1.00  0.00     0.038 C 
ATOM      3  O   UNL     1     -19.124  15.283  18.639  1.00  0.00    -0.550 OA
ATOM      4  O   UNL     1     -19.101  17.516  19.149  1.00  0.00    -0.550 OA
ENDROOT
TORSDOF 0
ENDMDL
MODEL 8
REMARK VINA RESULT:    -0.816      7.553      7.882
REMARK INTER + INTRA:          -0.816
REMARK INTER:                  -0.816
REMARK INTRA:                   0.000
REMARK UNBOUND:                 0.000
REMARK SMILES CC(=O)[O-]
REMARK SMILES IDX 1 1 2 2 3 3 4 4
REMARK H PARENT
REMARK Flexibility Score: inf
ROOT
ATOM      1  C   UNL     1     -16.400  25.834  15.952  1.00  0.00     0.063 C 
ATOM      2  C   UNL     1     -17.796  25.903  16.472  1.00  0.00     0.038 C 
ATOM      3  O   UNL     1     -18.172  25.112  17.377  1.00  0.00    -0.550 OA
ATOM      4  O   UNL     1     -18.670  26.871  15.997  1.00  0.00    -0.550 OA
ENDROOT
TORSDOF 0
ENDMDL
