MODEL 1
REMARK VINA RESULT:    -3.733      0.000      0.000
REMARK INTER + INTRA:          -6.018
REMARK INTER:                  -5.261
REMARK INTRA:                  -0.757
REMARK UNBOUND:                -0.757
REMARK SMILES CCCCCCCCC(=O)[O-]
REMARK SMILES IDX 6 1 7 2 8 3 9 4 10 5 11 6 5 7 4 8 3 9 2 10 1 11
REMARK H PARENT
REMARK Flexibility Score: inf
ROOT
ATOM      1  C   UNL     1      -8.061 -12.743  15.355  1.00  0.00     0.000 C 
ENDROOT
BRANCH   1   2
ATOM      2  C   UNL     1      -9.009 -11.723  16.010  1.00  0.00     0.006 C 
BRANCH   2   3
ATOM      3  C   UNL     1      -9.397 -12.128  17.438  1.00  0.00     0.053 C 
BRANCH   3   4
ATOM      4  C   UNL     1     -10.479 -11.249  17.986  1.00  0.00     0.041 C 
ATOM      5  O   UNL     1     -10.256 -10.029  18.204  1.00  0.00    -0.550 OA
ATOM      6  O   UNL     1     -11.744 -11.770  18.226  1.00  0.00    -0.550 OA
ENDBRANCH   3   4
ENDBRANCH   2   3
ENDBRANCH   1   2
BRANCH   1   7
ATOM      7  C   UNL     1      -8.806 -13.769  14.486  1.00  0.00     0.000 C 
BRANCH   7   8
ATOM      8  C   UNL     1      -9.971 -13.145  13.703  1.00  0.00    -0.000 C 
BRANCH   8   9
ATOM      9  C   UNL     1     -11.248 -13.986  13.859  1.00  0.00    -0.000 C 
BRANCH   9  10
ATOM     10  C   UNL     1     -12.095 -13.556  15.066  1.00  0.00    -0.003 C 
ATOM     11  C   UNL     1     -12.091 -14.590  16.191  1.00  0.00     0.004 C 
ENDBRANCH   9  10
ENDBRANCH   8   9
ENDBRANCH   7   8
ENDBRANCH   1   7
TORSDOF 7
ENDMDL
MODEL 2
REMARK VINA RESULT:    -3.711      1.391      2.730
REMARK INTER + INTRA:          -5.986
REMARK INTER:                  -5.243
REMARK INTRA:                  -0.743
REMARK UNBOUND:                -0.757
REMARK SMILES CCCCCCCCC(=O)[O-]
REMARK SMILES IDX 6 1 7 2 8 3 9 4 10 5 11 6 5 7 4 8 3 9 2 10 1 11
REMARK H PARENT
REMARK Flexibility Score: inf
ROOT
ATOM      1  C   UNL     1      -9.742 -13.042  17.834  1.00  0.00     0.000 C 
ENDROOT
BRANCH   1   2
ATOM      2  C   UNL     1      -8.907 -11.835  17.370  1.00  0.00     0.006 C 
BRANCH   2   3
ATOM      3  C   UNL     1      -9.787 -10.682  16.869  1.00  0.00     0.053 C 
BRANCH   3   4
ATOM      4  C   UNL     1      -9.693  -9.485  17.765  1.00  0.00     0.041 C 
ATOM      5  O   UNL     1     -10.178  -9.523  18.926  1.00  0.00    -0.550 OA
ATOM      6  O   UNL     1      -9.039  -8.340  17.329  1.00  0.00    -0.550 OA
ENDBRANCH   3   4
ENDBRANCH   2   3
ENDBRANCH   1   2
BRANCH   1   7
ATOM      7  C   UNL     1     -11.231 -12.900  17.485  1.00  0.00     0.000 C 
BRANCH   7   8
ATOM      8  C   UNL     1     -11.728 -14.011  16.549  1.00  0.00    -0.000 C 
BRANCH   8   9
ATOM      9  C   UNL     1     -12.162 -13.431  15.193  1.00  0.00    -0.000 C 
BRANCH   9  10
ATOM     10  C   UNL     1     -11.257 -13.887  14.039  1.00  0.00    -0.003 C 
ATOM     11  C   UNL     1      -9.939 -13.117  13.982  1.00  0.00     0.004 C 
ENDBRANCH   9  10
ENDBRANCH   8   9
ENDBRANCH   7   8
ENDBRANCH   1   7
TORSDOF 7
ENDMDL
MODEL 3
REMARK VINA RESULT:    -3.700      1.307      3.324
REMARK INTER + INTRA:          -5.970
REMARK INTER:                  -5.165
REMARK INTRA:                  -0.805
REMARK UNBOUND:                -0.757
REMARK SMILES CCCCCCCCC(=O)[O-]
REMARK SMILES IDX 6 1 7 2 8 3 9 4 10 5 11 6 5 7 4 8 3 9 2 10 1 11
REMARK H PARENT
REMARK Flexibility Score: inf
ROOT
ATOM      1  C   UNL     1     -10.924 -13.934  14.260  1.00  0.00     0.000 C 
ENDROOT
BRANCH   1   2
ATOM      2  C   UNL     1     -12.060 -13.525  15.214  1.00  0.00     0.006 C 
BRANCH   2   3
ATOM      3  C   UNL     1     -11.873 -14.110  16.620  1.00  0.00     0.053 C 
BRANCH   3   4
ATOM      4  C   UNL     1     -11.266 -13.111  17.558  1.00  0.00     0.041 C 
ATOM      5  O   UNL     1     -11.897 -12.066  17.867  1.00  0.00    -0.550 OA
ATOM      6  O   UNL     1     -10.017 -13.352  18.117  1.00  0.00    -0.550 OA
ENDBRANCH   3   4
ENDBRANCH   2   3
ENDBRANCH   1   2
BRANCH   1   7
ATOM      7  C   UNL     1      -9.919 -12.797  14.015  1.00  0.00     0.000 C 
BRANCH   7   8
ATOM      8  C   UNL     1      -8.609 -12.988  14.794  1.00  0.00    -0.000 C 
BRANCH   8   9
ATOM      9  C   UNL     1      -8.321 -11.770  15.687  1.00  0.00    -0.000 C 
BRANCH   9  10
ATOM     10  C   UNL     1      -9.359 -10.651  15.512  1.00  0.00    -0.003 C 
ATOM     11  C   UNL     1      -9.384  -9.679  16.691  1.00  0.00     0.004 C 
ENDBRANCH   9  10
ENDBRANCH   8   9
ENDBRANCH   7   8
ENDBRANCH   1   7
TORSDOF 7
ENDMDL
MODEL 4
REMARK VINA RESULT:    -3.687      2.620      4.616
REMARK INTER + INTRA:          -5.952
REMARK INTER:                  -5.243
REMARK INTRA:                  -0.709
REMARK UNBOUND:                -0.757
REMARK SMILES CCCCCCCCC(=O)[O-]
REMARK SMILES IDX 6 1 7 2 8 3 9 4 10 5 11 6 5 7 4 8 3 9 2 10 1 11
REMARK H PARENT
REMARK Flexibility Score: inf
ROOT
ATOM      1  C   UNL     1     -12.004 -13.156  15.216  1.00  0.00     0.000 C 
ENDROOT
BRANCH   1   2
ATOM      2  C   UNL     1     -11.113 -13.916  14.217  1.00  0.00     0.006 C 
BRANCH   2   3
ATOM      3  C   UNL     1      -9.786 -13.192  13.958  1.00  0.00     0.053 C 
BRANCH   3   4
ATOM      4  C   UNL     1      -8.624 -13.948  14.526  1.00  0.00     0.041 C 
ATOM      5  O   UNL     1      -8.733 -14.543  15.631  1.00  0.00    -0.550 OA
ATOM      6  O   UNL     1      -7.430 -14.024  13.820  1.00  0.00    -0.550 OA
ENDBRANCH   3   4
ENDBRANCH   2   3
ENDBRANCH   1   2
BRANCH   1   7
ATOM      7  C   UNL     1     -11.784 -13.611  16.667  1.00  0.00     0.000 C 
BRANCH   7   8
ATOM      8  C   UNL     1     -11.596 -12.432  17.634  1.00  0.00    -0.000 C 
BRANCH   8   9
ATOM      9  C   UNL     1     -10.113 -12.044  17.742  1.00  0.00    -0.000 C 
BRANCH   9  10
ATOM     10  C   UNL     1      -9.876 -10.545  17.505  1.00  0.00    -0.003 C 
ATOM     11  C   UNL     1      -9.613 -10.213  16.037  1.00  0.00     0.004 C 
ENDBRANCH   9  10
ENDBRANCH   8   9
ENDBRANCH   7   8
ENDBRANCH   1   7
TORSDOF 7
ENDMDL
MODEL 5
REMARK VINA RESULT:    -3.680      1.612      3.040
REMARK INTER + INTRA:          -5.943
REMARK INTER:                  -5.327
REMARK INTRA:                  -0.616
REMARK UNBOUND:                -0.757
REMARK SMILES CCCCCCCCC(=O)[O-]
REMARK SMILES IDX 6 1 7 2 8 3 9 4 10 5 11 6 5 7 4 8 3 9 2 10 1 11
REMARK H PARENT
REMARK Flexibility Score: inf
ROOT
ATOM      1  C   UNL     1     -11.613 -12.392  17.754  1.00  0.00     0.000 C 
ENDROOT
BRANCH   1   2
ATOM      2  C   UNL     1     -10.590 -11.248  17.869  1.00  0.00     0.006 C 
BRANCH   2   3
ATOM      3  C   UNL     1      -9.448 -11.390  16.854  1.00  0.00     0.053 C 
BRANCH   3   4
ATOM      4  C   UNL     1      -9.027 -10.061  16.306  1.00  0.00     0.041 C 
ATOM      5  O   UNL     1      -9.419  -8.996  16.853  1.00  0.00    -0.550 OA
ATOM      6  O   UNL     1      -8.174  -9.998  15.212  1.00  0.00    -0.550 OA
ENDBRANCH   3   4
ENDBRANCH   2   3
ENDBRANCH   1   2
BRANCH   1   7
ATOM      7  C   UNL     1     -10.978 -13.709  17.280  1.00  0.00     0.000 C 
BRANCH   7   8
ATOM      8  C   UNL     1     -11.814 -14.415  16.203  1.00  0.00    -0.000 C 
BRANCH   8   9
ATOM      9  C   UNL     1     -12.074 -13.479  15.011  1.00  0.00    -0.000 C 
BRANCH   9  10
ATOM     10  C   UNL     1     -11.278 -13.882  13.760  1.00  0.00    -0.003 C 
ATOM     11  C   UNL     1      -9.867 -13.295  13.743  1.00  0.00     0.004 C 
ENDBRANCH   9  10
ENDBRANCH   8   9
ENDBRANCH   7   8
ENDBRANCH   1   7
TORSDOF 7
ENDMDL
MODEL 6
REMARK VINA RESULT:    -3.649      1.457      2.169
REMARK INTER + INTRA:          -5.898
REMARK INTER:                  -5.040
REMARK INTRA:                  -0.859
REMARK UNBOUND:                -0.757
REMARK SMILES CCCCCCCCC(=O)[O-]
REMARK SMILES IDX 6 1 7 2 8 3 9 4 10 5 11 6 5 7 4 8 3 9 2 10 1 11
REMARK H PARENT
REMARK Flexibility Score: inf
ROOT
ATOM      1  C   UNL     1      -8.019 -13.416  15.709  1.00  0.00     0.000 C 
ENDROOT
BRANCH   1   2
ATOM      2  C   UNL     1      -8.009 -11.883  15.575  1.00  0.00     0.006 C 
BRANCH   2   3
ATOM      3  C   UNL     1      -9.426 -11.301  15.487  1.00  0.00     0.053 C 
BRANCH   3   4
ATOM      4  C   UNL     1      -9.792 -10.547  16.729  1.00  0.00     0.041 C 
ATOM      5  O   UNL     1      -9.428  -9.350  16.876  1.00  0.00    -0.550 OA
ATOM      6  O   UNL     1     -10.563 -11.156  17.711  1.00  0.00    -0.550 OA
ENDBRANCH   3   4
ENDBRANCH   2   3
ENDBRANCH   1   2
BRANCH   1   7
ATOM      7  C   UNL     1      -8.020 -13.881  17.173  1.00  0.00     0.000 C 
BRANCH   7   8
ATOM      8  C   UNL     1      -9.367 -14.483  17.602  1.00  0.00    -0.000 C 
BRANCH   8   9
ATOM      9  C   UNL     1     -10.196 -14.897  16.376  1.00  0.00    -0.000 C 
BRANCH   9  10
ATOM     10  C   UNL     1     -11.621 -14.323  16.406  1.00  0.00    -0.003 C 
ATOM     11  C   UNL     1     -12.099 -13.853  15.033  1.00  0.00     0.004 C 
ENDBRANCH   9  10
ENDBRANCH   8   9
ENDBRANCH   7   8
ENDBRANCH   1   7
TORSDOF 7
ENDMDL
MODEL 7
REMARK VINA RESULT:    -3.623      2.347      4.360
REMARK INTER + INTRA:          -5.863
REMARK INTER:                  -5.065
REMARK INTRA:                  -0.798
REMARK UNBOUND:                -0.757
REMARK SMILES CCCCCCCCC(=O)[O-]
REMARK SMILES IDX 6 1 7 2 8 3 9 4 10 5 11 6 5 7 4 8 3 9 2 10 1 11
REMARK H PARENT
REMARK Flexibility Score: inf
ROOT
ATOM      1  C   UNL     1     -10.281 -12.944  17.799  1.00  0.00     0.000 C 
ENDROOT
BRANCH   1   2
ATOM      2  C   UNL     1     -11.216 -13.929  17.074  1.00  0.00     0.006 C 
BRANCH   2   3
ATOM      3  C   UNL     1     -10.612 -14.439  15.759  1.00  0.00     0.053 C 
BRANCH   3   4
ATOM      4  C   UNL     1     -11.190 -13.729  14.573  1.00  0.00     0.041 C 
ATOM      5  O   UNL     1     -10.465 -13.460  13.580  1.00  0.00    -0.550 OA
ATOM      6  O   UNL     1     -12.538 -13.394  14.552  1.00  0.00    -0.550 OA
ENDBRANCH   3   4
ENDBRANCH   2   3
ENDBRANCH   1   2
BRANCH   1   7
ATOM      7  C   UNL     1     -10.837 -11.512  17.826  1.00  0.00     0.000 C 
BRANCH   7   8
ATOM      8  C   UNL     1      -9.829 -10.477  17.304  1.00  0.00    -0.000 C 
BRANCH   8   9
ATOM      9  C   UNL     1      -9.432 -10.783  15.851  1.00  0.00    -0.000 C 
BRANCH   9  10
ATOM     10  C   UNL     1      -7.914 -10.940  15.675  1.00  0.00    -0.003 C 
ATOM     11  C   UNL     1      -7.503 -12.376  15.352  1.00  0.00     0.004 C 
ENDBRANCH   9  10
ENDBRANCH   8   9
ENDBRANCH   7   8
ENDBRANCH   1   7
TORSDOF 7
ENDMDL
MODEL 8
REMARK VINA RESULT:    -3.618      2.028      2.469
REMARK INTER + INTRA:          -5.855
REMARK INTER:                  -5.148
REMARK INTRA:                  -0.707
REMARK UNBOUND:                -0.757
REMARK SMILES CCCCCCCCC(=O)[O-]
REMARK SMILES IDX 6 1 7 2 8 3 9 4 10 5 11 6 5 7 4 8 3 9 2 10 1 11
REMARK H PARENT
REMARK Flexibility Score: inf
ROOT
ATOM      1  C   UNL     1      -8.668 -11.495  15.709  1.00  0.00     0.000 C 
ENDROOT
BRANCH   1   2
ATOM      2  C   UNL     1      -8.818 -11.380  17.237  1.00  0.00     0.006 C 
BRANCH   2   3
ATOM      3  C   UNL     1      -9.597 -12.560  17.832  1.00  0.00     0.053 C 
BRANCH   3   4
ATOM      4  C   UNL     1      -8.748 -13.791  17.927  1.00  0.00     0.041 C 
ATOM      5  O   UNL     1      -9.256 -14.928  17.736  1.00  0.00    -0.550 OA
ATOM      6  O   UNL     1      -7.389 -13.680  18.192  1.00  0.00    -0.550 OA
ENDBRANCH   3   4
ENDBRANCH   2   3
ENDBRANCH   1   2
BRANCH   1   7
ATOM      7  C   UNL     1      -9.991 -11.846  15.011  1.00  0.00     0.000 C 
BRANCH   7   8
ATOM      8  C   UNL     1      -9.864 -13.060  14.079  1.00  0.00    -0.000 C 
BRANCH   8   9
ATOM      9  C   UNL     1     -11.187 -13.840  14.011  1.00  0.00    -0.000 C 
BRANCH   9  10
ATOM     10  C   UNL     1     -12.101 -13.558  15.213  1.00  0.00    -0.003 C 
ATOM     11  C   UNL     1     -12.274 -14.774  16.122  1.00  0.00     0.004 C 
ENDBRANCH   9  10
ENDBRANCH   8   9
ENDBRANCH   7   8
ENDBRANCH   1   7
TORSDOF 7
ENDMDL
MODEL 9
REMARK VINA RESULT:    -3.613      2.153      3.236
REMARK INTER + INTRA:          -5.848
REMARK INTER:                  -5.032
REMARK INTRA:                  -0.816
REMARK UNBOUND:                -0.757
REMARK SMILES CCCCCCCCC(=O)[O-]
REMARK SMILES IDX 6 1 7 2 8 3 9 4 10 5 11 6 5 7 4 8 3 9 2 10 1 11
REMARK H PARENT
REMARK Flexibility Score: inf
ROOT
ATOM      1  C   UNL     1     -10.852 -12.291  17.762  1.00  0.00     0.000 C 
ENDROOT
BRANCH   1   2
ATOM      2  C   UNL     1      -9.943 -11.075  17.511  1.00  0.00     0.006 C 
BRANCH   2   3
ATOM      3  C   UNL     1      -9.748 -10.799  16.014  1.00  0.00     0.053 C 
BRANCH   3   4
ATOM      4  C   UNL     1      -8.332 -11.038  15.588  1.00  0.00     0.041 C 
ATOM      5  O   UNL     1      -7.943 -12.202  15.307  1.00  0.00    -0.550 OA
ATOM      6  O   UNL     1      -7.451  -9.971  15.468  1.00  0.00    -0.550 OA
ENDBRANCH   3   4
ENDBRANCH   2   3
ENDBRANCH   1   2
BRANCH   1   7
ATOM      7  C   UNL     1     -10.084 -13.622  17.718  1.00  0.00     0.000 C 
BRANCH   7   8
ATOM      8  C   UNL     1     -10.507 -14.509  16.537  1.00  0.00    -0.000 C 
BRANCH   8   9
ATOM      9  C   UNL     1     -11.991 -14.299  16.198  1.00  0.00    -0.000 C 
BRANCH   9  10
ATOM     10  C   UNL     1     -12.205 -13.828  14.752  1.00  0.00    -0.003 C 
ATOM     11  C   UNL     1     -10.895 -13.671  13.981  1.00  0.00     0.004 C 
ENDBRANCH   9  10
ENDBRANCH   8   9
ENDBRANCH   7   8
ENDBRANCH   1   7
TORSDOF 7
ENDMDL
