MODEL 1
REMARK VINA RESULT:    -3.287      0.000      0.000
REMARK INTER + INTRA:          -4.765
REMARK INTER:                  -4.632
REMARK INTRA:                  -0.133
REMARK UNBOUND:                -0.133
REMARK SMILES CC1=CCC(=C(C)C)C(=O)CC(C)=CCC1
REMARK SMILES IDX 12 1 14 2 13 3 15 4 16 5 2 6 1 7 3 8 11 10 9 11 10 12 5 13
REMARK SMILES IDX 6 14 7 15 8 16 4 17
REMARK H PARENT
REMARK Flexibility Score: 60.00
ROOT
ATOM      1  C   UNL     1      12.954  61.220  20.805  1.00  0.00    -0.070 C 
ATOM      2  C   UNL     1      12.201  60.097  20.766  1.00  0.00    -0.027 C 
ATOM      3  C   UNL     1      12.547  62.377  19.930  1.00  0.00     0.039 C 
ENDROOT
BRANCH   2   4
ATOM      4  C   UNL     1      12.376  58.907  21.676  1.00  0.00     0.032 C 
BRANCH   4   5
ATOM      5  C   UNL     1      13.213  57.832  20.975  1.00  0.00     0.034 C 
BRANCH   5   6
ATOM      6  C   UNL     1      14.141  57.107  21.927  1.00  0.00    -0.077 C 
ATOM      7  C   UNL     1      13.561  56.054  22.839  1.00  0.00     0.039 C 
ATOM      8  C   UNL     1      15.459  57.399  22.060  1.00  0.00    -0.023 CG0
ATOM      9  G   UNL     1      16.278  58.368  21.226  1.00  0.00     0.000 G0
ENDBRANCH   5   6
ENDBRANCH   4   5
ENDBRANCH   2   4
BRANCH   1  10
ATOM     10  C   UNL     1      14.193  61.363  21.666  1.00  0.00     0.111 C 
BRANCH  10  11
ATOM     11  C   UNL     1      15.416  60.785  20.994  1.00  0.00     0.163 C 
ATOM     12  O   UNL     1      15.634  61.135  19.802  1.00  0.00    -0.294 OA
BRANCH  11  13
ATOM     13  C   UNL     1      16.352  59.816  21.655  1.00  0.00    -0.002 C 
ATOM     14  C   UNL     1      17.332  60.262  22.500  1.00  0.00    -0.069 C 
ATOM     15  C   UNL     1      18.433  59.355  23.001  1.00  0.00     0.039 C 
ATOM     16  C   UNL     1      17.337  61.681  23.024  1.00  0.00     0.039 C 
BRANCH  13  17
ATOM     17  C   UNL     1      16.294  58.358  21.214  1.00  0.00     0.066 CG0
ATOM     18  G   UNL     1      15.463  57.424  22.076  1.00  0.00     0.000 G0
ENDBRANCH  13  17
ENDBRANCH  11  13
ENDBRANCH  10  11
ENDBRANCH   1  10
TORSDOF 0
ENDMDL
MODEL 2
REMARK VINA RESULT:    -3.259      3.214      5.359
REMARK INTER + INTRA:          -4.726
REMARK INTER:                  -4.636
REMARK INTRA:                  -0.089
REMARK UNBOUND:                -0.133
REMARK SMILES CC1=CCC(=C(C)C)C(=O)CC(C)=CCC1
REMARK SMILES IDX 12 1 14 2 13 3 15 4 16 5 2 6 1 7 3 8 11 10 9 11 10 12 5 13
REMARK SMILES IDX 6 14 7 15 8 16 4 17
REMARK H PARENT
REMARK Flexibility Score: 60.00
ROOT
ATOM      1  C   UNL     1      17.205  61.454  23.084  1.00  0.00    -0.070 C 
ATOM      2  C   UNL     1      16.816  61.151  21.824  1.00  0.00    -0.027 C 
ATOM      3  C   UNL     1      18.370  60.699  23.668  1.00  0.00     0.039 C 
ENDROOT
BRANCH   2   4
ATOM      4  C   UNL     1      15.773  61.903  21.036  1.00  0.00     0.032 C 
BRANCH   4   5
ATOM      5  C   UNL     1      14.544  61.015  20.819  1.00  0.00     0.034 C 
BRANCH   5   6
ATOM      6  C   UNL     1      13.243  61.780  20.958  1.00  0.00    -0.077 C 
ATOM      7  C   UNL     1      12.625  62.384  19.722  1.00  0.00     0.039 C 
ATOM      8  C   UNL     1      12.636  62.016  22.147  1.00  0.00    -0.023 CG0
ATOM      9  G   UNL     1      13.029  61.472  23.509  1.00  0.00     0.000 G0
ENDBRANCH   5   6
ENDBRANCH   4   5
ENDBRANCH   2   4
BRANCH   1  10
ATOM     10  C   UNL     1      16.515  62.497  23.940  1.00  0.00     0.111 C 
BRANCH  10  11
ATOM     11  C   UNL     1      15.308  61.934  24.651  1.00  0.00     0.163 C 
ATOM     12  O   UNL     1      15.515  61.018  25.493  1.00  0.00    -0.294 OA
BRANCH  11  13
ATOM     13  C   UNL     1      13.900  62.386  24.393  1.00  0.00    -0.002 C 
ATOM     14  C   UNL     1      13.389  63.474  25.047  1.00  0.00    -0.069 C 
ATOM     15  C   UNL     1      11.918  63.823  24.994  1.00  0.00     0.039 C 
ATOM     16  C   UNL     1      14.279  64.422  25.818  1.00  0.00     0.039 C 
BRANCH  13  17
ATOM     17  C   UNL     1      13.014  61.495  23.531  1.00  0.00     0.066 CG0
ATOM     18  G   UNL     1      12.643  62.033  22.161  1.00  0.00     0.000 G0
ENDBRANCH  13  17
ENDBRANCH  11  13
ENDBRANCH  10  11
ENDBRANCH   1  10
TORSDOF 0
ENDMDL
MODEL 3
REMARK VINA RESULT:    -3.246     13.129     14.717
REMARK INTER + INTRA:          -4.707
REMARK INTER:                  -4.629
REMARK INTRA:                  -0.078
REMARK UNBOUND:                -0.133
REMARK SMILES CC1=CCC(=C(C)C)C(=O)CC(C)=CCC1
REMARK SMILES IDX 12 1 14 2 13 3 15 4 16 5 2 6 1 7 3 8 11 10 9 11 10 12 5 13
REMARK SMILES IDX 6 14 7 15 8 16 4 17
REMARK H PARENT
REMARK Flexibility Score: 60.00
ROOT
ATOM      1  C   UNL     1      18.891  52.745  33.200  1.00  0.00    -0.070 C 
ATOM      2  C   UNL     1      18.878  53.331  34.420  1.00  0.00    -0.027 C 
ATOM      3  C   UNL     1      19.963  53.159  32.226  1.00  0.00     0.039 C 
ENDROOT
BRANCH   2   4
ATOM      4  C   UNL     1      17.974  52.933  35.559  1.00  0.00     0.032 C 
BRANCH   4   5
ATOM      5  C   UNL     1      16.660  53.718  35.480  1.00  0.00     0.034 C 
BRANCH   5   6
ATOM      6  C   UNL     1      15.458  52.876  35.861  1.00  0.00    -0.077 C 
ATOM      7  C   UNL     1      15.309  52.440  37.298  1.00  0.00     0.039 C 
ATOM      8  C   UNL     1      14.541  52.430  34.967  1.00  0.00    -0.023 CG0
ATOM      9  G   UNL     1      14.445  52.777  33.492  1.00  0.00     0.000 G0
ENDBRANCH   5   6
ENDBRANCH   4   5
ENDBRANCH   2   4
BRANCH   1  10
ATOM     10  C   UNL     1      17.871  51.714  32.760  1.00  0.00     0.111 C 
BRANCH  10  11
ATOM     11  C   UNL     1      16.630  52.358  32.188  1.00  0.00     0.163 C 
ATOM     12  O   UNL     1      16.798  53.334  31.407  1.00  0.00    -0.294 OA
BRANCH  11  13
ATOM     13  C   UNL     1      15.233  51.915  32.516  1.00  0.00    -0.002 C 
ATOM     14  C   UNL     1      14.655  50.879  31.835  1.00  0.00    -0.069 C 
ATOM     15  C   UNL     1      13.184  50.553  31.969  1.00  0.00     0.039 C 
ATOM     16  C   UNL     1      15.469  49.964  30.948  1.00  0.00     0.039 C 
BRANCH  13  17
ATOM     17  C   UNL     1      14.427  52.768  33.489  1.00  0.00     0.066 CG0
ATOM     18  G   UNL     1      14.562  52.422  34.961  1.00  0.00     0.000 G0
ENDBRANCH  13  17
ENDBRANCH  11  13
ENDBRANCH  10  11
ENDBRANCH   1  10
TORSDOF 0
ENDMDL
MODEL 4
REMARK VINA RESULT:    -3.106     12.139     14.027
REMARK INTER + INTRA:          -4.510
REMARK INTER:                  -4.541
REMARK INTRA:                   0.031
REMARK UNBOUND:                -0.133
REMARK SMILES CC1=CCC(=C(C)C)C(=O)CC(C)=CCC1
REMARK SMILES IDX 12 1 14 2 13 3 15 4 16 5 2 6 1 7 3 8 11 10 9 11 10 12 5 13
REMARK SMILES IDX 6 14 7 15 8 16 4 17
REMARK H PARENT
REMARK Flexibility Score: 60.00
ROOT
ATOM      1  C   UNL     1      16.230  52.896  35.807  1.00  0.00    -0.070 C 
ATOM      2  C   UNL     1      17.453  52.444  35.448  1.00  0.00    -0.027 C 
ATOM      3  C   UNL     1      15.233  51.900  36.338  1.00  0.00     0.039 C 
ENDROOT
BRANCH   2   4
ATOM      4  C   UNL     1      18.612  53.318  35.039  1.00  0.00     0.032 C 
BRANCH   4   5
ATOM      5  C   UNL     1      18.879  53.162  33.539  1.00  0.00     0.034 C 
BRANCH   5   6
ATOM      6  C   UNL     1      19.395  54.438  32.905  1.00  0.00    -0.077 C 
ATOM      7  C   UNL     1      20.884  54.678  32.875  1.00  0.00     0.039 C 
ATOM      8  C   UNL     1      18.588  55.417  32.425  1.00  0.00    -0.023 CG0
ATOM      9  G   UNL     1      17.076  55.385  32.294  1.00  0.00     0.000 G0
ENDBRANCH   5   6
ENDBRANCH   4   5
ENDBRANCH   2   4
BRANCH   1  10
ATOM     10  C   UNL     1      15.808  54.347  35.682  1.00  0.00     0.111 C 
BRANCH  10  11
ATOM     11  C   UNL     1      15.513  54.726  34.251  1.00  0.00     0.163 C 
ATOM     12  O   UNL     1      14.611  54.072  33.658  1.00  0.00    -0.294 OA
BRANCH  11  13
ATOM     13  C   UNL     1      16.241  55.807  33.506  1.00  0.00    -0.002 C 
ATOM     14  C   UNL     1      16.041  57.124  33.820  1.00  0.00    -0.069 C 
ATOM     15  C   UNL     1      16.569  58.244  32.952  1.00  0.00     0.039 C 
ATOM     16  C   UNL     1      15.322  57.533  35.085  1.00  0.00     0.039 C 
BRANCH  13  17
ATOM     17  C   UNL     1      17.057  55.402  32.284  1.00  0.00     0.066 CG0
ATOM     18  G   UNL     1      18.567  55.419  32.444  1.00  0.00     0.000 G0
ENDBRANCH  13  17
ENDBRANCH  11  13
ENDBRANCH  10  11
ENDBRANCH   1  10
TORSDOF 0
ENDMDL
MODEL 5
REMARK VINA RESULT:    -3.078     12.993     14.422
REMARK INTER + INTRA:          -4.471
REMARK INTER:                  -4.332
REMARK INTRA:                  -0.139
REMARK UNBOUND:                -0.133
REMARK SMILES CC1=CCC(=C(C)C)C(=O)CC(C)=CCC1
REMARK SMILES IDX 12 1 14 2 13 3 15 4 16 5 2 6 1 7 3 8 11 10 9 11 10 12 5 13
REMARK SMILES IDX 6 14 7 15 8 16 4 17
REMARK H PARENT
REMARK Flexibility Score: 60.00
ROOT
ATOM      1  C   UNL     1      20.339  53.420  32.812  1.00  0.00    -0.070 C 
ATOM      2  C   UNL     1      20.080  52.420  31.937  1.00  0.00    -0.027 C 
ATOM      3  C   UNL     1      21.761  53.609  33.273  1.00  0.00     0.039 C 
ENDROOT
BRANCH   2   4
ATOM      4  C   UNL     1      18.752  52.183  31.264  1.00  0.00     0.032 C 
BRANCH   4   5
ATOM      5  C   UNL     1      17.947  51.144  32.050  1.00  0.00     0.034 C 
BRANCH   5   6
ATOM      6  C   UNL     1      16.470  51.478  32.111  1.00  0.00    -0.077 C 
ATOM      7  C   UNL     1      15.630  51.258  30.878  1.00  0.00     0.039 C 
ATOM      8  C   UNL     1      15.871  52.035  33.192  1.00  0.00    -0.023 CG0
ATOM      9  G   UNL     1      16.485  52.297  34.556  1.00  0.00     0.000 G0
ENDBRANCH   5   6
ENDBRANCH   4   5
ENDBRANCH   2   4
BRANCH   1  10
ATOM     10  C   UNL     1      19.270  54.341  33.364  1.00  0.00     0.111 C 
BRANCH  10  11
ATOM     11  C   UNL     1      18.612  53.766  34.596  1.00  0.00     0.163 C 
ATOM     12  O   UNL     1      19.373  53.337  35.505  1.00  0.00    -0.294 OA
BRANCH  11  13
ATOM     13  C   UNL     1      17.126  53.661  34.777  1.00  0.00    -0.002 C 
ATOM     14  C   UNL     1      16.408  54.719  35.264  1.00  0.00    -0.069 C 
ATOM     15  C   UNL     1      14.959  54.583  35.677  1.00  0.00     0.039 C 
ATOM     16  C   UNL     1      17.011  56.102  35.365  1.00  0.00     0.039 C 
BRANCH  13  17
ATOM     17  C   UNL     1      16.480  52.294  34.578  1.00  0.00     0.066 CG0
ATOM     18  G   UNL     1      15.863  52.030  33.216  1.00  0.00     0.000 G0
ENDBRANCH  13  17
ENDBRANCH  11  13
ENDBRANCH  10  11
ENDBRANCH   1  10
TORSDOF 0
ENDMDL
MODEL 6
REMARK VINA RESULT:    -3.052      2.171      4.667
REMARK INTER + INTRA:          -4.433
REMARK INTER:                  -4.481
REMARK INTRA:                   0.048
REMARK UNBOUND:                -0.133
REMARK SMILES CC1=CCC(=C(C)C)C(=O)CC(C)=CCC1
REMARK SMILES IDX 12 1 14 2 13 3 15 4 16 5 2 6 1 7 3 8 11 10 9 11 10 12 5 13
REMARK SMILES IDX 6 14 7 15 8 16 4 17
REMARK H PARENT
REMARK Flexibility Score: 60.00
ROOT
ATOM      1  C   UNL     1      16.808  58.861  21.498  1.00  0.00    -0.070 C 
ATOM      2  C   UNL     1      17.065  60.118  21.068  1.00  0.00    -0.027 C 
ATOM      3  C   UNL     1      17.699  58.279  22.564  1.00  0.00     0.039 C 
ENDROOT
BRANCH   2   4
ATOM      4  C   UNL     1      16.193  60.904  20.122  1.00  0.00     0.032 C 
BRANCH   4   5
ATOM      5  C   UNL     1      15.426  61.982  20.894  1.00  0.00     0.034 C 
BRANCH   5   6
ATOM      6  C   UNL     1      13.950  61.666  21.021  1.00  0.00    -0.077 C 
ATOM      7  C   UNL     1      13.005  62.194  19.969  1.00  0.00     0.039 C 
ATOM      8  C   UNL     1      13.414  60.992  22.068  1.00  0.00    -0.023 CG0
ATOM      9  G   UNL     1      14.156  60.318  23.209  1.00  0.00     0.000 G0
ENDBRANCH   5   6
ENDBRANCH   4   5
ENDBRANCH   2   4
BRANCH   1  10
ATOM     10  C   UNL     1      15.685  58.006  20.946  1.00  0.00     0.111 C 
BRANCH  10  11
ATOM     11  C   UNL     1      14.399  58.200  21.714  1.00  0.00     0.163 C 
ATOM     12  O   UNL     1      13.330  57.861  21.138  1.00  0.00    -0.294 OA
BRANCH  11  13
ATOM     13  C   UNL     1      14.332  58.786  23.094  1.00  0.00    -0.002 C 
ATOM     14  C   UNL     1      14.280  57.973  24.194  1.00  0.00    -0.069 C 
ATOM     15  C   UNL     1      13.980  58.511  25.575  1.00  0.00     0.039 C 
ATOM     16  C   UNL     1      14.574  56.493  24.095  1.00  0.00     0.039 C 
BRANCH  13  17
ATOM     17  C   UNL     1      14.138  60.294  23.218  1.00  0.00     0.066 CG0
ATOM     18  G   UNL     1      13.425  60.980  22.067  1.00  0.00     0.000 G0
ENDBRANCH  13  17
ENDBRANCH  11  13
ENDBRANCH  10  11
ENDBRANCH   1  10
TORSDOF 0
ENDMDL
MODEL 7
REMARK VINA RESULT:    -3.048      1.718      3.975
REMARK INTER + INTRA:          -4.428
REMARK INTER:                  -4.275
REMARK INTRA:                  -0.154
REMARK UNBOUND:                -0.133
REMARK SMILES CC1=CCC(=C(C)C)C(=O)CC(C)=CCC1
REMARK SMILES IDX 12 1 14 2 13 3 15 4 16 5 2 6 1 7 3 8 11 10 9 11 10 12 5 13
REMARK SMILES IDX 6 14 7 15 8 16 4 17
REMARK H PARENT
REMARK Flexibility Score: 60.00
ROOT
ATOM      1  C   UNL     1      14.011  61.368  20.708  1.00  0.00    -0.070 C 
ATOM      2  C   UNL     1      15.237  61.909  20.893  1.00  0.00    -0.027 C 
ATOM      3  C   UNL     1      12.844  62.303  20.520  1.00  0.00     0.039 C 
ENDROOT
BRANCH   2   4
ATOM      4  C   UNL     1      16.526  61.130  20.949  1.00  0.00     0.032 C 
BRANCH   4   5
ATOM      5  C   UNL     1      16.971  60.962  22.405  1.00  0.00     0.034 C 
BRANCH   5   6
ATOM      6  C   UNL     1      17.467  59.561  22.703  1.00  0.00    -0.077 C 
ATOM      7  C   UNL     1      18.882  59.201  22.323  1.00  0.00     0.039 C 
ATOM      8  C   UNL     1      16.687  58.585  23.228  1.00  0.00    -0.023 CG0
ATOM      9  G   UNL     1      15.263  58.715  23.740  1.00  0.00     0.000 G0
ENDBRANCH   5   6
ENDBRANCH   4   5
ENDBRANCH   2   4
BRANCH   1  10
ATOM     10  C   UNL     1      13.752  59.875  20.701  1.00  0.00     0.111 C 
BRANCH  10  11
ATOM     11  C   UNL     1      13.384  59.361  22.072  1.00  0.00     0.163 C 
ATOM     12  O   UNL     1      12.392  59.896  22.638  1.00  0.00    -0.294 OA
BRANCH  11  13
ATOM     13  C   UNL     1      14.141  58.282  22.790  1.00  0.00    -0.002 C 
ATOM     14  C   UNL     1      13.735  56.978  22.713  1.00  0.00    -0.069 C 
ATOM     15  C   UNL     1      14.323  55.901  23.597  1.00  0.00     0.039 C 
ATOM     16  C   UNL     1      12.710  56.530  21.696  1.00  0.00     0.039 C 
BRANCH  13  17
ATOM     17  C   UNL     1      15.251  58.707  23.745  1.00  0.00     0.066 CG0
ATOM     18  G   UNL     1      16.673  58.588  23.225  1.00  0.00     0.000 G0
ENDBRANCH  13  17
ENDBRANCH  11  13
ENDBRANCH  10  11
ENDBRANCH   1  10
TORSDOF 0
ENDMDL
MODEL 8
REMARK VINA RESULT:    -2.939     11.665     13.632
REMARK INTER + INTRA:          -4.275
REMARK INTER:                  -4.133
REMARK INTRA:                  -0.142
REMARK UNBOUND:                -0.133
REMARK SMILES CC1=CCC(=C(C)C)C(=O)CC(C)=CCC1
REMARK SMILES IDX 12 1 14 2 13 3 15 4 16 5 2 6 1 7 3 8 11 10 9 11 10 12 5 13
REMARK SMILES IDX 6 14 7 15 8 16 4 17
REMARK H PARENT
REMARK Flexibility Score: 60.00
ROOT
ATOM      1  C   UNL     1      15.663  52.185  35.540  1.00  0.00    -0.070 C 
ATOM      2  C   UNL     1      14.640  51.804  34.740  1.00  0.00    -0.027 C 
ATOM      3  C   UNL     1      15.402  52.300  37.019  1.00  0.00     0.039 C 
ENDROOT
BRANCH   2   4
ATOM      4  C   UNL     1      14.762  51.497  33.269  1.00  0.00     0.032 C 
BRANCH   4   5
ATOM      5  C   UNL     1      14.360  52.725  32.445  1.00  0.00     0.034 C 
BRANCH   5   6
ATOM      6  C   UNL     1      15.230  52.911  31.219  1.00  0.00    -0.077 C 
ATOM      7  C   UNL     1      14.995  52.018  30.025  1.00  0.00     0.039 C 
ATOM      8  C   UNL     1      16.261  53.790  31.157  1.00  0.00    -0.023 CG0
ATOM      9  G   UNL     1      16.656  54.825  32.195  1.00  0.00     0.000 G0
ENDBRANCH   5   6
ENDBRANCH   4   5
ENDBRANCH   2   4
BRANCH   1  10
ATOM     10  C   UNL     1      17.047  52.520  35.020  1.00  0.00     0.111 C 
BRANCH  10  11
ATOM     11  C   UNL     1      17.153  53.964  34.591  1.00  0.00     0.163 C 
ATOM     12  O   UNL     1      16.758  54.836  35.413  1.00  0.00    -0.294 OA
BRANCH  11  13
ATOM     13  C   UNL     1      17.674  54.401  33.253  1.00  0.00    -0.002 C 
ATOM     14  C   UNL     1      19.017  54.568  33.050  1.00  0.00    -0.069 C 
ATOM     15  C   UNL     1      19.563  55.224  31.802  1.00  0.00     0.039 C 
ATOM     16  C   UNL     1      20.035  54.055  34.043  1.00  0.00     0.039 C 
BRANCH  13  17
ATOM     17  C   UNL     1      16.657  54.826  32.199  1.00  0.00     0.066 CG0
ATOM     18  G   UNL     1      16.277  53.781  31.167  1.00  0.00     0.000 G0
ENDBRANCH  13  17
ENDBRANCH  11  13
ENDBRANCH  10  11
ENDBRANCH   1  10
TORSDOF 0
ENDMDL
MODEL 9
REMARK VINA RESULT:    -2.795     12.441     14.289
REMARK INTER + INTRA:          -4.072
REMARK INTER:                  -3.938
REMARK INTRA:                  -0.135
REMARK UNBOUND:                -0.133
REMARK SMILES CC1=CCC(=C(C)C)C(=O)CC(C)=CCC1
REMARK SMILES IDX 12 1 14 2 13 3 15 4 16 5 2 6 1 7 3 8 11 10 9 11 10 12 5 13
REMARK SMILES IDX 6 14 7 15 8 16 4 17
REMARK H PARENT
REMARK Flexibility Score: 60.00
ROOT
ATOM      1  C   UNL     1      15.370  52.513  35.449  1.00  0.00    -0.070 C 
ATOM      2  C   UNL     1      14.499  53.540  35.582  1.00  0.00    -0.027 C 
ATOM      3  C   UNL     1      15.393  51.459  36.526  1.00  0.00     0.039 C 
ENDROOT
BRANCH   2   4
ATOM      4  C   UNL     1      14.241  54.595  34.535  1.00  0.00     0.032 C 
BRANCH   4   5
ATOM      5  C   UNL     1      15.017  55.870  34.878  1.00  0.00     0.034 C 
BRANCH   5   6
ATOM      6  C   UNL     1      15.713  56.467  33.671  1.00  0.00    -0.077 C 
ATOM      7  C   UNL     1      14.902  57.298  32.708  1.00  0.00     0.039 C 
ATOM      8  C   UNL     1      17.015  56.239  33.367  1.00  0.00    -0.023 CG0
ATOM      9  G   UNL     1      18.041  55.493  34.200  1.00  0.00     0.000 G0
ENDBRANCH   5   6
ENDBRANCH   4   5
ENDBRANCH   2   4
BRANCH   1  10
ATOM     10  C   UNL     1      16.333  52.382  34.286  1.00  0.00     0.111 C 
BRANCH  10  11
ATOM     11  C   UNL     1      17.690  52.960  34.611  1.00  0.00     0.163 C 
ATOM     12  O   UNL     1      18.282  52.499  35.625  1.00  0.00    -0.294 OA
BRANCH  11  13
ATOM     13  C   UNL     1      18.345  54.051  33.815  1.00  0.00    -0.002 C 
ATOM     14  C   UNL     1      19.299  53.753  32.880  1.00  0.00    -0.069 C 
ATOM     15  C   UNL     1      20.143  54.823  32.226  1.00  0.00     0.039 C 
ATOM     16  C   UNL     1      19.525  52.334  32.408  1.00  0.00     0.039 C 
BRANCH  13  17
ATOM     17  C   UNL     1      18.050  55.494  34.209  1.00  0.00     0.066 CG0
ATOM     18  G   UNL     1      17.017  56.225  33.371  1.00  0.00     0.000 G0
ENDBRANCH  13  17
ENDBRANCH  11  13
ENDBRANCH  10  11
ENDBRANCH   1  10
TORSDOF 0
ENDMDL
