MODEL 1
REMARK VINA RESULT:    -4.093      0.000      0.000
REMARK INTER + INTRA:          -5.907
REMARK INTER:                  -5.529
REMARK INTRA:                  -0.378
REMARK UNBOUND:                -0.378
REMARK SMILES O=C[C@@H](O)[C@@H](O)[C@@H](O)CO
REMARK SMILES IDX 7 1 9 2 10 3 5 5 3 6 2 7 1 8 4 9 6 11 8 13
REMARK H PARENT 10 4 4 10 6 12 8 14
REMARK Flexibility Score: inf
ROOT
ATOM      1  C   UNL     1      19.392 203.228  15.050  1.00  0.00     0.171 C 
ENDROOT
BRANCH   1   2
ATOM      2  C   UNL     1      19.405 204.452  15.984  1.00  0.00     0.190 C 
BRANCH   2   3
ATOM      3  O   UNL     1      18.105 204.761  16.407  1.00  0.00    -0.394 OA
ATOM      4  H   UNL     1      18.185 205.567  16.980  1.00  0.00     0.210 HD
ENDBRANCH   2   3
ENDBRANCH   1   2
BRANCH   1   5
ATOM      5  C   UNL     1      19.553 201.898  15.838  1.00  0.00     0.181 C 
BRANCH   5   6
ATOM      6  C   UNL     1      19.865 200.697  14.907  1.00  0.00     0.209 C 
BRANCH   6   7
ATOM      7  C   UNL     1      19.870 199.402  15.679  1.00  0.00     0.258 C 
ATOM      8  O   UNL     1      18.992 199.161  16.493  1.00  0.00    -0.300 OA
ENDBRANCH   6   7
BRANCH   6   9
ATOM      9  O   UNL     1      18.895 200.615  13.895  1.00  0.00    -0.383 OA
ATOM     10  H   UNL     1      18.175 200.020  14.232  1.00  0.00     0.211 HD
ENDBRANCH   6   9
ENDBRANCH   5   6
BRANCH   5  11
ATOM     11  O   UNL     1      20.553 202.027  16.820  1.00  0.00    -0.387 OA
ATOM     12  H   UNL     1      21.168 201.252  16.724  1.00  0.00     0.211 HD
ENDBRANCH   5  11
ENDBRANCH   1   5
BRANCH   1  13
ATOM     13  O   UNL     1      18.174 203.212  14.350  1.00  0.00    -0.388 OA
ATOM     14  H   UNL     1      18.201 203.965  13.703  1.00  0.00     0.211 HD
ENDBRANCH   1  13
TORSDOF 8
ENDMDL
MODEL 2
REMARK VINA RESULT:    -3.995      1.373      2.248
REMARK INTER + INTRA:          -5.774
REMARK INTER:                  -5.032
REMARK INTRA:                  -0.742
REMARK UNBOUND:                -0.378
REMARK SMILES O=C[C@@H](O)[C@@H](O)[C@@H](O)CO
REMARK SMILES IDX 7 1 9 2 10 3 5 5 3 6 2 7 1 8 4 9 6 11 8 13
REMARK H PARENT 10 4 4 10 6 12 8 14
REMARK Flexibility Score: inf
ROOT
ATOM      1  C   UNL     1      18.827 203.767  14.716  1.00  0.00     0.171 C 
ENDROOT
BRANCH   1   2
ATOM      2  C   UNL     1      19.759 204.973  14.500  1.00  0.00     0.190 C 
BRANCH   2   3
ATOM      3  O   UNL     1      21.074 204.649  14.859  1.00  0.00    -0.394 OA
ATOM      4  H   UNL     1      21.231 203.727  14.527  1.00  0.00     0.210 HD
ENDBRANCH   2   3
ENDBRANCH   1   2
BRANCH   1   5
ATOM      5  C   UNL     1      19.590 202.419  14.597  1.00  0.00     0.181 C 
BRANCH   5   6
ATOM      6  C   UNL     1      19.744 201.706  15.966  1.00  0.00     0.209 C 
BRANCH   6   7
ATOM      7  C   UNL     1      20.205 200.282  15.785  1.00  0.00     0.258 C 
ATOM      8  O   UNL     1      19.396 199.370  15.729  1.00  0.00    -0.300 OA
ENDBRANCH   6   7
BRANCH   6   9
ATOM      9  O   UNL     1      20.684 202.389  16.754  1.00  0.00    -0.383 OA
ATOM     10  H   UNL     1      20.590 202.043  17.681  1.00  0.00     0.211 HD
ENDBRANCH   6   9
ENDBRANCH   5   6
BRANCH   5  11
ATOM     11  O   UNL     1      18.948 201.571  13.674  1.00  0.00    -0.387 OA
ATOM     12  H   UNL     1      17.971 201.739  13.744  1.00  0.00     0.211 HD
ENDBRANCH   5  11
ENDBRANCH   1   5
BRANCH   1  13
ATOM     13  O   UNL     1      18.253 203.868  15.995  1.00  0.00    -0.388 OA
ATOM     14  H   UNL     1      17.675 203.070  16.117  1.00  0.00     0.211 HD
ENDBRANCH   1  13
TORSDOF 8
ENDMDL
MODEL 3
REMARK VINA RESULT:    -3.929      2.021      2.625
REMARK INTER + INTRA:          -5.685
REMARK INTER:                  -4.988
REMARK INTRA:                  -0.697
REMARK UNBOUND:                -0.378
REMARK SMILES O=C[C@@H](O)[C@@H](O)[C@@H](O)CO
REMARK SMILES IDX 7 1 9 2 10 3 5 5 3 6 2 7 1 8 4 9 6 11 8 13
REMARK H PARENT 10 4 4 10 6 12 8 14
REMARK Flexibility Score: inf
ROOT
ATOM      1  C   UNL     1      20.292 205.090  14.887  1.00  0.00     0.171 C 
ENDROOT
BRANCH   1   2
ATOM      2  C   UNL     1      21.571 205.944  14.963  1.00  0.00     0.190 C 
BRANCH   2   3
ATOM      3  O   UNL     1      22.095 205.929  16.262  1.00  0.00    -0.394 OA
ATOM      4  H   UNL     1      22.827 205.259  16.257  1.00  0.00     0.210 HD
ENDBRANCH   2   3
ENDBRANCH   1   2
BRANCH   1   5
ATOM      5  C   UNL     1      20.557 203.615  15.297  1.00  0.00     0.181 C 
BRANCH   5   6
ATOM      6  C   UNL     1      19.661 202.617  14.518  1.00  0.00     0.209 C 
BRANCH   6   7
ATOM      7  C   UNL     1      19.707 201.246  15.145  1.00  0.00     0.258 C 
ATOM      8  O   UNL     1      20.201 201.085  16.250  1.00  0.00    -0.300 OA
ENDBRANCH   6   7
BRANCH   6   9
ATOM      9  O   UNL     1      18.332 203.069  14.519  1.00  0.00    -0.383 OA
ATOM     10  H   UNL     1      17.800 202.406  14.006  1.00  0.00     0.211 HD
ENDBRANCH   6   9
ENDBRANCH   5   6
BRANCH   5  11
ATOM     11  O   UNL     1      21.916 203.292  15.121  1.00  0.00    -0.387 OA
ATOM     12  H   UNL     1      22.303 203.960  14.495  1.00  0.00     0.211 HD
ENDBRANCH   5  11
ENDBRANCH   1   5
BRANCH   1  13
ATOM     13  O   UNL     1      19.329 205.648  15.744  1.00  0.00    -0.388 OA
ATOM     14  H   UNL     1      19.779 206.373  16.253  1.00  0.00     0.211 HD
ENDBRANCH   1  13
TORSDOF 8
ENDMDL
MODEL 4
REMARK VINA RESULT:    -3.908      2.033      4.698
REMARK INTER + INTRA:          -5.656
REMARK INTER:                  -4.938
REMARK INTRA:                  -0.718
REMARK UNBOUND:                -0.378
REMARK SMILES O=C[C@@H](O)[C@@H](O)[C@@H](O)CO
REMARK SMILES IDX 7 1 9 2 10 3 5 5 3 6 2 7 1 8 4 9 6 11 8 13
REMARK H PARENT 10 4 4 10 6 12 8 14
REMARK Flexibility Score: inf
ROOT
ATOM      1  C   UNL     1      20.437 203.185  15.477  1.00  0.00     0.171 C 
ENDROOT
BRANCH   1   2
ATOM      2  C   UNL     1      19.676 202.605  14.270  1.00  0.00     0.190 C 
BRANCH   2   3
ATOM      3  O   UNL     1      18.307 202.882  14.374  1.00  0.00    -0.394 OA
ATOM      4  H   UNL     1      18.108 203.558  13.676  1.00  0.00     0.210 HD
ENDBRANCH   2   3
ENDBRANCH   1   2
BRANCH   1   5
ATOM      5  C   UNL     1      20.420 204.738  15.479  1.00  0.00     0.181 C 
BRANCH   5   6
ATOM      6  C   UNL     1      19.471 205.315  16.563  1.00  0.00     0.209 C 
BRANCH   6   7
ATOM      7  C   UNL     1      19.607 206.814  16.656  1.00  0.00     0.258 C 
ATOM      8  O   UNL     1      20.361 207.319  17.473  1.00  0.00    -0.300 OA
ENDBRANCH   6   7
BRANCH   6   9
ATOM      9  O   UNL     1      18.140 205.000  16.247  1.00  0.00    -0.383 OA
ATOM     10  H   UNL     1      17.662 204.869  17.107  1.00  0.00     0.211 HD
ENDBRANCH   6   9
ENDBRANCH   5   6
BRANCH   5  11
ATOM     11  O   UNL     1      21.722 205.244  15.650  1.00  0.00    -0.387 OA
ATOM     12  H   UNL     1      21.962 205.737  14.821  1.00  0.00     0.211 HD
ENDBRANCH   5  11
ENDBRANCH   1   5
BRANCH   1  13
ATOM     13  O   UNL     1      19.837 202.708  16.655  1.00  0.00    -0.388 OA
ATOM     14  H   UNL     1      18.860 202.655  16.482  1.00  0.00     0.211 HD
ENDBRANCH   1  13
TORSDOF 8
ENDMDL
MODEL 5
REMARK VINA RESULT:    -3.845      1.293      4.194
REMARK INTER + INTRA:          -5.571
REMARK INTER:                  -5.075
REMARK INTRA:                  -0.496
REMARK UNBOUND:                -0.378
REMARK SMILES O=C[C@@H](O)[C@@H](O)[C@@H](O)CO
REMARK SMILES IDX 7 1 9 2 10 3 5 5 3 6 2 7 1 8 4 9 6 11 8 13
REMARK H PARENT 10 4 4 10 6 12 8 14
REMARK Flexibility Score: inf
ROOT
ATOM      1  C   UNL     1      20.248 201.607  15.669  1.00  0.00     0.171 C 
ENDROOT
BRANCH   1   2
ATOM      2  C   UNL     1      19.725 200.173  15.874  1.00  0.00     0.190 C 
BRANCH   2   3
ATOM      3  O   UNL     1      20.753 199.243  15.673  1.00  0.00    -0.394 OA
ATOM      4  H   UNL     1      20.321 198.428  15.307  1.00  0.00     0.210 HD
ENDBRANCH   2   3
ENDBRANCH   1   2
BRANCH   1   5
ATOM      5  C   UNL     1      19.217 202.496  14.920  1.00  0.00     0.181 C 
BRANCH   5   6
ATOM      6  C   UNL     1      19.755 203.928  14.659  1.00  0.00     0.209 C 
BRANCH   6   7
ATOM      7  C   UNL     1      19.080 204.931  15.561  1.00  0.00     0.258 C 
ATOM      8  O   UNL     1      18.580 204.578  16.617  1.00  0.00    -0.300 OA
ENDBRANCH   6   7
BRANCH   6   9
ATOM      9  O   UNL     1      21.138 203.968  14.894  1.00  0.00    -0.383 OA
ATOM     10  H   UNL     1      21.511 204.673  14.304  1.00  0.00     0.211 HD
ENDBRANCH   6   9
ENDBRANCH   5   6
BRANCH   5  11
ATOM     11  O   UNL     1      18.833 201.890  13.709  1.00  0.00    -0.387 OA
ATOM     12  H   UNL     1      17.851 201.742  13.748  1.00  0.00     0.211 HD
ENDBRANCH   5  11
ENDBRANCH   1   5
BRANCH   1  13
ATOM     13  O   UNL     1      20.522 202.168  16.927  1.00  0.00    -0.388 OA
ATOM     14  H   UNL     1      20.383 203.148  16.845  1.00  0.00     0.211 HD
ENDBRANCH   1  13
TORSDOF 8
ENDMDL
MODEL 6
REMARK VINA RESULT:    -3.837      2.577      3.560
REMARK INTER + INTRA:          -5.561
REMARK INTER:                  -4.823
REMARK INTRA:                  -0.738
REMARK UNBOUND:                -0.378
REMARK SMILES O=C[C@@H](O)[C@@H](O)[C@@H](O)CO
REMARK SMILES IDX 7 1 9 2 10 3 5 5 3 6 2 7 1 8 4 9 6 11 8 13
REMARK H PARENT 10 4 4 10 6 12 8 14
REMARK Flexibility Score: inf
ROOT
ATOM      1  C   UNL     1      20.848 205.450  15.380  1.00  0.00     0.171 C 
ENDROOT
BRANCH   1   2
ATOM      2  C   UNL     1      21.610 206.235  14.297  1.00  0.00     0.190 C 
BRANCH   2   3
ATOM      3  O   UNL     1      22.863 205.656  14.061  1.00  0.00    -0.394 OA
ATOM      4  H   UNL     1      23.380 206.320  13.535  1.00  0.00     0.210 HD
ENDBRANCH   2   3
ENDBRANCH   1   2
BRANCH   1   5
ATOM      5  C   UNL     1      20.037 204.270  14.777  1.00  0.00     0.181 C 
BRANCH   5   6
ATOM      6  C   UNL     1      20.639 202.890  15.151  1.00  0.00     0.209 C 
BRANCH   6   7
ATOM      7  C   UNL     1      19.740 201.768  14.695  1.00  0.00     0.258 C 
ATOM      8  O   UNL     1      19.123 201.854  13.646  1.00  0.00    -0.300 OA
ENDBRANCH   6   7
BRANCH   6   9
ATOM      9  O   UNL     1      21.894 202.738  14.542  1.00  0.00    -0.383 OA
ATOM     10  H   UNL     1      22.572 202.764  15.268  1.00  0.00     0.211 HD
ENDBRANCH   6   9
ENDBRANCH   5   6
BRANCH   5  11
ATOM     11  O   UNL     1      18.690 204.342  15.181  1.00  0.00    -0.387 OA
ATOM     12  H   UNL     1      18.443 205.303  15.227  1.00  0.00     0.211 HD
ENDBRANCH   5  11
ENDBRANCH   1   5
BRANCH   1  13
ATOM     13  O   UNL     1      21.777 204.953  16.309  1.00  0.00    -0.388 OA
ATOM     14  H   UNL     1      21.267 204.703  17.124  1.00  0.00     0.211 HD
ENDBRANCH   1  13
TORSDOF 8
ENDMDL
MODEL 7
REMARK VINA RESULT:    -3.822      1.560      2.199
REMARK INTER + INTRA:          -5.541
REMARK INTER:                  -4.718
REMARK INTRA:                  -0.822
REMARK UNBOUND:                -0.378
REMARK SMILES O=C[C@@H](O)[C@@H](O)[C@@H](O)CO
REMARK SMILES IDX 7 1 9 2 10 3 5 5 3 6 2 7 1 8 4 9 6 11 8 13
REMARK H PARENT 10 4 4 10 6 12 8 14
REMARK Flexibility Score: inf
ROOT
ATOM      1  C   UNL     1      19.457 204.535  14.031  1.00  0.00     0.171 C 
ENDROOT
BRANCH   1   2
ATOM      2  C   UNL     1      19.795 205.546  15.143  1.00  0.00     0.190 C 
BRANCH   2   3
ATOM      3  O   UNL     1      20.790 205.034  15.986  1.00  0.00    -0.394 OA
ATOM      4  H   UNL     1      21.542 204.768  15.396  1.00  0.00     0.210 HD
ENDBRANCH   2   3
ENDBRANCH   1   2
BRANCH   1   5
ATOM      5  C   UNL     1      18.736 203.279  14.592  1.00  0.00     0.181 C 
BRANCH   5   6
ATOM      6  C   UNL     1      19.640 202.018  14.560  1.00  0.00     0.209 C 
BRANCH   6   7
ATOM      7  C   UNL     1      19.898 201.503  15.954  1.00  0.00     0.258 C 
ATOM      8  O   UNL     1      20.571 202.151  16.740  1.00  0.00    -0.300 OA
ENDBRANCH   6   7
BRANCH   6   9
ATOM      9  O   UNL     1      19.018 201.006  13.813  1.00  0.00    -0.383 OA
ATOM     10  H   UNL     1      18.066 200.980  14.097  1.00  0.00     0.211 HD
ENDBRANCH   6   9
ENDBRANCH   5   6
BRANCH   5  11
ATOM     11  O   UNL     1      18.278 203.518  15.901  1.00  0.00    -0.387 OA
ATOM     12  H   UNL     1      18.946 204.101  16.350  1.00  0.00     0.211 HD
ENDBRANCH   5  11
ENDBRANCH   1   5
BRANCH   1  13
ATOM     13  O   UNL     1      18.630 205.167  13.088  1.00  0.00    -0.388 OA
ATOM     14  H   UNL     1      17.695 204.919  13.310  1.00  0.00     0.211 HD
ENDBRANCH   1  13
TORSDOF 8
ENDMDL
MODEL 8
REMARK VINA RESULT:    -3.818      2.908      4.053
REMARK INTER + INTRA:          -5.535
REMARK INTER:                  -5.027
REMARK INTRA:                  -0.508
REMARK UNBOUND:                -0.378
REMARK SMILES O=C[C@@H](O)[C@@H](O)[C@@H](O)CO
REMARK SMILES IDX 7 1 9 2 10 3 5 5 3 6 2 7 1 8 4 9 6 11 8 13
REMARK H PARENT 10 4 4 10 6 12 8 14
REMARK Flexibility Score: inf
ROOT
ATOM      1  C   UNL     1      21.313 205.897  15.572  1.00  0.00     0.171 C 
ENDROOT
BRANCH   1   2
ATOM      2  C   UNL     1      21.794 206.378  14.191  1.00  0.00     0.190 C 
BRANCH   2   3
ATOM      3  O   UNL     1      23.148 206.067  14.007  1.00  0.00    -0.394 OA
ATOM      4  H   UNL     1      23.571 206.134  14.902  1.00  0.00     0.210 HD
ENDBRANCH   2   3
ENDBRANCH   1   2
BRANCH   1   5
ATOM      5  C   UNL     1      20.904 204.399  15.553  1.00  0.00     0.181 C 
BRANCH   5   6
ATOM      6  C   UNL     1      19.545 204.169  14.840  1.00  0.00     0.209 C 
BRANCH   6   7
ATOM      7  C   UNL     1      19.248 202.697  14.705  1.00  0.00     0.258 C 
ATOM      8  O   UNL     1      19.599 202.082  13.710  1.00  0.00    -0.300 OA
ENDBRANCH   6   7
BRANCH   6   9
ATOM      9  O   UNL     1      18.513 204.772  15.576  1.00  0.00    -0.383 OA
ATOM     10  H   UNL     1      18.155 204.080  16.191  1.00  0.00     0.211 HD
ENDBRANCH   6   9
ENDBRANCH   5   6
BRANCH   5  11
ATOM     11  O   UNL     1      21.910 203.621  14.949  1.00  0.00    -0.387 OA
ATOM     12  H   UNL     1      21.461 202.957  14.362  1.00  0.00     0.211 HD
ENDBRANCH   5  11
ENDBRANCH   1   5
BRANCH   1  13
ATOM     13  O   UNL     1      22.353 206.086  16.498  1.00  0.00    -0.388 OA
ATOM     14  H   UNL     1      22.270 207.014  16.843  1.00  0.00     0.211 HD
ENDBRANCH   1  13
TORSDOF 8
ENDMDL
MODEL 9
REMARK VINA RESULT:    -3.810      1.603      4.357
REMARK INTER + INTRA:          -5.525
REMARK INTER:                  -4.822
REMARK INTRA:                  -0.703
REMARK UNBOUND:                -0.378
REMARK SMILES O=C[C@@H](O)[C@@H](O)[C@@H](O)CO
REMARK SMILES IDX 7 1 9 2 10 3 5 5 3 6 2 7 1 8 4 9 6 11 8 13
REMARK H PARENT 10 4 4 10 6 12 8 14
REMARK Flexibility Score: inf
ROOT
ATOM      1  C   UNL     1      19.346 202.765  15.296  1.00  0.00     0.171 C 
ENDROOT
BRANCH   1   2
ATOM      2  C   UNL     1      19.756 201.329  14.920  1.00  0.00     0.190 C 
BRANCH   2   3
ATOM      3  O   UNL     1      20.414 200.711  15.990  1.00  0.00    -0.394 OA
ATOM      4  H   UNL     1      21.354 201.025  15.956  1.00  0.00     0.210 HD
ENDBRANCH   2   3
ENDBRANCH   1   2
BRANCH   1   5
ATOM      5  C   UNL     1      20.494 203.780  15.037  1.00  0.00     0.181 C 
BRANCH   5   6
ATOM      6  C   UNL     1      20.091 205.232  15.409  1.00  0.00     0.209 C 
BRANCH   6   7
ATOM      7  C   UNL     1      19.893 206.071  14.171  1.00  0.00     0.258 C 
ATOM      8  O   UNL     1      19.081 205.741  13.321  1.00  0.00    -0.300 OA
ENDBRANCH   6   7
BRANCH   6   9
ATOM      9  O   UNL     1      18.895 205.220  16.143  1.00  0.00    -0.383 OA
ATOM     10  H   UNL     1      18.855 206.077  16.643  1.00  0.00     0.211 HD
ENDBRANCH   6   9
ENDBRANCH   5   6
BRANCH   5  11
ATOM     11  O   UNL     1      21.654 203.400  15.738  1.00  0.00    -0.387 OA
ATOM     12  H   UNL     1      21.378 202.758  16.444  1.00  0.00     0.211 HD
ENDBRANCH   5  11
ENDBRANCH   1   5
BRANCH   1  13
ATOM     13  O   UNL     1      18.223 203.125  14.532  1.00  0.00    -0.388 OA
ATOM     14  H   UNL     1      17.655 202.313  14.452  1.00  0.00     0.211 HD
ENDBRANCH   1  13
TORSDOF 8
ENDMDL
