MODEL 1
REMARK VINA RESULT:    -3.440      0.000      0.000
REMARK INTER + INTRA:          -3.741
REMARK INTER:                  -3.741
REMARK INTRA:                   0.000
REMARK UNBOUND:                 0.000
REMARK SMILES Oc1cccc(O)c1O
REMARK SMILES IDX 4 1 5 2 6 3 8 4 2 5 3 6 7 7 1 9 9 11
REMARK H PARENT 7 8 1 10 9 12
REMARK Flexibility Score: inf
ROOT
ATOM      1  C   UNL     1       1.325  35.604   5.374  1.00  0.00     0.008 A 
ATOM      2  C   UNL     1       0.258  34.780   5.736  1.00  0.00     0.050 A 
ATOM      3  C   UNL     1      -0.800  35.283   6.503  1.00  0.00     0.161 A 
ATOM      4  C   UNL     1      -0.784  36.639   6.913  1.00  0.00     0.200 A 
ATOM      5  C   UNL     1       0.294  37.459   6.543  1.00  0.00     0.161 A 
ATOM      6  C   UNL     1       1.344  36.939   5.775  1.00  0.00     0.050 A 
ENDROOT
BRANCH   3   7
ATOM      7  O   UNL     1      -1.838  34.408   6.832  1.00  0.00    -0.504 OA
ATOM      8  H   UNL     1      -1.785  33.719   7.569  1.00  0.00     0.293 HD
ENDBRANCH   3   7
BRANCH   5   9
ATOM      9  O   UNL     1       0.313  38.794   6.944  1.00  0.00    -0.504 OA
ATOM     10  H   UNL     1       1.184  39.296   7.078  1.00  0.00     0.293 HD
ENDBRANCH   5   9
BRANCH   4  11
ATOM     11  O   UNL     1      -1.806  37.204   7.678  1.00  0.00    -0.502 OA
ATOM     12  H   UNL     1      -1.652  37.767   8.501  1.00  0.00     0.293 HD
ENDBRANCH   4  11
TORSDOF 3
ENDMDL
MODEL 2
REMARK VINA RESULT:    -3.438      0.080      2.816
REMARK INTER + INTRA:          -3.740
REMARK INTER:                  -3.740
REMARK INTRA:                   0.000
REMARK UNBOUND:                 0.000
REMARK SMILES Oc1cccc(O)c1O
REMARK SMILES IDX 4 1 5 2 6 3 8 4 2 5 3 6 7 7 1 9 9 11
REMARK H PARENT 7 8 1 10 9 12
REMARK Flexibility Score: inf
ROOT
ATOM      1  C   UNL     1       1.365  35.649   5.347  1.00  0.00     0.008 A 
ATOM      2  C   UNL     1       1.349  36.978   5.770  1.00  0.00     0.050 A 
ATOM      3  C   UNL     1       0.287  37.468   6.539  1.00  0.00     0.161 A 
ATOM      4  C   UNL     1      -0.780  36.603   6.889  1.00  0.00     0.200 A 
ATOM      5  C   UNL     1      -0.754  35.267   6.459  1.00  0.00     0.161 A 
ATOM      6  C   UNL     1       0.317  34.794   5.689  1.00  0.00     0.050 A 
ENDROOT
BRANCH   3   7
ATOM      7  O   UNL     1       0.331  38.808   6.931  1.00  0.00    -0.504 OA
ATOM      8  H   UNL     1       0.517  39.116   7.875  1.00  0.00     0.293 HD
ENDBRANCH   3   7
BRANCH   5   9
ATOM      9  O   UNL     1      -1.801  34.413   6.802  1.00  0.00    -0.504 OA
ATOM     10  H   UNL     1      -1.920  34.073   7.750  1.00  0.00     0.293 HD
ENDBRANCH   5   9
BRANCH   4  11
ATOM     11  O   UNL     1      -1.869  37.026   7.654  1.00  0.00    -0.502 OA
ATOM     12  H   UNL     1      -2.556  36.404   8.052  1.00  0.00     0.293 HD
ENDBRANCH   4  11
TORSDOF 3
ENDMDL
MODEL 3
REMARK VINA RESULT:    -3.424      1.414      1.810
REMARK INTER + INTRA:          -3.724
REMARK INTER:                  -3.724
REMARK INTRA:                   0.000
REMARK UNBOUND:                 0.000
REMARK SMILES Oc1cccc(O)c1O
REMARK SMILES IDX 4 1 5 2 6 3 8 4 2 5 3 6 7 7 1 9 9 11
REMARK H PARENT 7 8 1 10 9 12
REMARK Flexibility Score: inf
ROOT
ATOM      1  C   UNL     1       2.470  37.525   5.691  1.00  0.00     0.008 A 
ATOM      2  C   UNL     1       2.112  36.228   5.321  1.00  0.00     0.050 A 
ATOM      3  C   UNL     1       0.862  35.706   5.676  1.00  0.00     0.161 A 
ATOM      4  C   UNL     1      -0.044  36.505   6.417  1.00  0.00     0.200 A 
ATOM      5  C   UNL     1       0.326  37.808   6.785  1.00  0.00     0.161 A 
ATOM      6  C   UNL     1       1.582  38.314   6.421  1.00  0.00     0.050 A 
ENDROOT
BRANCH   3   7
ATOM      7  O   UNL     1       0.564  34.401   5.275  1.00  0.00    -0.504 OA
ATOM      8  H   UNL     1      -0.374  34.044   5.165  1.00  0.00     0.293 HD
ENDBRANCH   3   7
BRANCH   5   9
ATOM      9  O   UNL     1      -0.562  38.597   7.513  1.00  0.00    -0.504 OA
ATOM     10  H   UNL     1      -1.304  38.186   8.068  1.00  0.00     0.293 HD
ENDBRANCH   5   9
BRANCH   4  11
ATOM     11  O   UNL     1      -1.305  36.047   6.803  1.00  0.00    -0.502 OA
ATOM     12  H   UNL     1      -2.150  36.203   6.274  1.00  0.00     0.293 HD
ENDBRANCH   4  11
TORSDOF 3
ENDMDL
MODEL 4
REMARK VINA RESULT:    -3.421      1.387      2.958
REMARK INTER + INTRA:          -3.721
REMARK INTER:                  -3.721
REMARK INTRA:                   0.000
REMARK UNBOUND:                 0.000
REMARK SMILES Oc1cccc(O)c1O
REMARK SMILES IDX 4 1 5 2 6 3 8 4 2 5 3 6 7 7 1 9 9 11
REMARK H PARENT 7 8 1 10 9 12
REMARK Flexibility Score: inf
ROOT
ATOM      1  C   UNL     1       2.498  37.474   5.725  1.00  0.00     0.008 A 
ATOM      2  C   UNL     1       1.624  38.289   6.445  1.00  0.00     0.050 A 
ATOM      3  C   UNL     1       0.349  37.829   6.798  1.00  0.00     0.161 A 
ATOM      4  C   UNL     1      -0.054  36.525   6.417  1.00  0.00     0.200 A 
ATOM      5  C   UNL     1       0.833  35.713   5.691  1.00  0.00     0.161 A 
ATOM      6  C   UNL     1       2.105  36.190   5.348  1.00  0.00     0.050 A 
ENDROOT
BRANCH   3   7
ATOM      7  O   UNL     1      -0.478  38.693   7.520  1.00  0.00    -0.504 OA
ATOM      8  H   UNL     1      -1.486  38.692   7.462  1.00  0.00     0.293 HD
ENDBRANCH   3   7
BRANCH   5   9
ATOM      9  O   UNL     1       0.440  34.429   5.316  1.00  0.00    -0.504 OA
ATOM     10  H   UNL     1       1.084  33.789   4.864  1.00  0.00     0.293 HD
ENDBRANCH   5   9
BRANCH   4  11
ATOM     11  O   UNL     1      -1.309  36.004   6.736  1.00  0.00    -0.502 OA
ATOM     12  H   UNL     1      -1.487  35.397   7.522  1.00  0.00     0.293 HD
ENDBRANCH   4  11
TORSDOF 3
ENDMDL
MODEL 5
REMARK VINA RESULT:    -3.395      6.805      8.184
REMARK INTER + INTRA:          -3.693
REMARK INTER:                  -3.693
REMARK INTRA:                   0.000
REMARK UNBOUND:                 0.000
REMARK SMILES Oc1cccc(O)c1O
REMARK SMILES IDX 4 1 5 2 6 3 8 4 2 5 3 6 7 7 1 9 9 11
REMARK H PARENT 7 8 1 10 9 12
REMARK Flexibility Score: inf
ROOT
ATOM      1  C   UNL     1       5.449  39.184   6.992  1.00  0.00     0.008 A 
ATOM      2  C   UNL     1       5.970  40.348   7.557  1.00  0.00     0.050 A 
ATOM      3  C   UNL     1       6.648  40.303   8.782  1.00  0.00     0.161 A 
ATOM      4  C   UNL     1       6.803  39.062   9.449  1.00  0.00     0.200 A 
ATOM      5  C   UNL     1       6.275  37.897   8.872  1.00  0.00     0.161 A 
ATOM      6  C   UNL     1       5.600  37.961   7.645  1.00  0.00     0.050 A 
ENDROOT
BRANCH   3   7
ATOM      7  O   UNL     1       7.146  41.503   9.294  1.00  0.00    -0.504 OA
ATOM      8  H   UNL     1       8.128  41.734   9.339  1.00  0.00     0.293 HD
ENDBRANCH   3   7
BRANCH   5   9
ATOM      9  O   UNL     1       6.427  36.675   9.524  1.00  0.00    -0.504 OA
ATOM     10  H   UNL     1       7.258  36.108   9.403  1.00  0.00     0.293 HD
ENDBRANCH   5   9
BRANCH   4  11
ATOM     11  O   UNL     1       7.468  38.946  10.671  1.00  0.00    -0.502 OA
ATOM     12  H   UNL     1       7.725  39.731  11.252  1.00  0.00     0.293 HD
ENDBRANCH   4  11
TORSDOF 3
ENDMDL
MODEL 6
REMARK VINA RESULT:    -3.282      1.264      2.416
REMARK INTER + INTRA:          -3.570
REMARK INTER:                  -3.570
REMARK INTRA:                   0.000
REMARK UNBOUND:                 0.000
REMARK SMILES Oc1cccc(O)c1O
REMARK SMILES IDX 4 1 5 2 6 3 8 4 2 5 3 6 7 7 1 9 9 11
REMARK H PARENT 7 8 1 10 9 12
REMARK Flexibility Score: inf
ROOT
ATOM      1  C   UNL     1       0.269  35.011   5.667  1.00  0.00     0.008 A 
ATOM      2  C   UNL     1      -0.672  35.749   6.387  1.00  0.00     0.050 A 
ATOM      3  C   UNL     1      -0.401  37.068   6.770  1.00  0.00     0.161 A 
ATOM      4  C   UNL     1       0.841  37.656   6.421  1.00  0.00     0.200 A 
ATOM      5  C   UNL     1       1.781  36.905   5.697  1.00  0.00     0.161 A 
ATOM      6  C   UNL     1       1.492  35.586   5.323  1.00  0.00     0.050 A 
ENDROOT
BRANCH   3   7
ATOM      7  O   UNL     1      -1.384  37.753   7.488  1.00  0.00    -0.504 OA
ATOM      8  H   UNL     1      -1.694  37.492   8.413  1.00  0.00     0.293 HD
ENDBRANCH   3   7
BRANCH   5   9
ATOM      9  O   UNL     1       3.003  37.480   5.352  1.00  0.00    -0.504 OA
ATOM     10  H   UNL     1       3.295  37.564   4.385  1.00  0.00     0.293 HD
ENDBRANCH   5   9
BRANCH   4  11
ATOM     11  O   UNL     1       1.175  38.966   6.770  1.00  0.00    -0.502 OA
ATOM     12  H   UNL     1       2.054  39.406   6.540  1.00  0.00     0.293 HD
ENDBRANCH   4  11
TORSDOF 3
ENDMDL
MODEL 7
REMARK VINA RESULT:    -3.228      1.025      2.903
REMARK INTER + INTRA:          -3.511
REMARK INTER:                  -3.511
REMARK INTRA:                   0.000
REMARK UNBOUND:                 0.000
REMARK SMILES Oc1cccc(O)c1O
REMARK SMILES IDX 4 1 5 2 6 3 8 4 2 5 3 6 7 7 1 9 9 11
REMARK H PARENT 7 8 1 10 9 12
REMARK Flexibility Score: inf
ROOT
ATOM      1  C   UNL     1       0.673  35.244   5.434  1.00  0.00     0.008 A 
ATOM      2  C   UNL     1       1.702  36.185   5.375  1.00  0.00     0.050 A 
ATOM      3  C   UNL     1       1.598  37.399   6.065  1.00  0.00     0.161 A 
ATOM      4  C   UNL     1       0.434  37.671   6.827  1.00  0.00     0.200 A 
ATOM      5  C   UNL     1      -0.595  36.719   6.879  1.00  0.00     0.161 A 
ATOM      6  C   UNL     1      -0.473  35.509   6.183  1.00  0.00     0.050 A 
ENDROOT
BRANCH   3   7
ATOM      7  O   UNL     1       2.663  38.298   5.967  1.00  0.00    -0.504 OA
ATOM      8  H   UNL     1       3.539  38.089   5.511  1.00  0.00     0.293 HD
ENDBRANCH   3   7
BRANCH   5   9
ATOM      9  O   UNL     1      -1.741  36.983   7.629  1.00  0.00    -0.504 OA
ATOM     10  H   UNL     1      -1.979  37.924   7.920  1.00  0.00     0.293 HD
ENDBRANCH   5   9
BRANCH   4  11
ATOM     11  O   UNL     1       0.265  38.861   7.539  1.00  0.00    -0.502 OA
ATOM     12  H   UNL     1      -0.595  39.389   7.561  1.00  0.00     0.293 HD
ENDBRANCH   4  11
TORSDOF 3
ENDMDL
MODEL 8
REMARK VINA RESULT:    -3.152      1.664      3.546
REMARK INTER + INTRA:          -3.428
REMARK INTER:                  -3.428
REMARK INTRA:                   0.000
REMARK UNBOUND:                 0.000
REMARK SMILES Oc1cccc(O)c1O
REMARK SMILES IDX 4 1 5 2 6 3 8 4 2 5 3 6 7 7 1 9 9 11
REMARK H PARENT 7 8 1 10 9 12
REMARK Flexibility Score: inf
ROOT
ATOM      1  C   UNL     1      -0.612  38.039   6.551  1.00  0.00     0.008 A 
ATOM      2  C   UNL     1       0.621  37.900   5.914  1.00  0.00     0.050 A 
ATOM      3  C   UNL     1       1.082  36.637   5.522  1.00  0.00     0.161 A 
ATOM      4  C   UNL     1       0.286  35.493   5.778  1.00  0.00     0.200 A 
ATOM      5  C   UNL     1      -0.953  35.644   6.420  1.00  0.00     0.161 A 
ATOM      6  C   UNL     1      -1.398  36.915   6.805  1.00  0.00     0.050 A 
ENDROOT
BRANCH   3   7
ATOM      7  O   UNL     1       2.325  36.565   4.888  1.00  0.00    -0.504 OA
ATOM      8  H   UNL     1       2.983  37.330   4.846  1.00  0.00     0.293 HD
ENDBRANCH   3   7
BRANCH   5   9
ATOM      9  O   UNL     1      -1.739  34.521   6.673  1.00  0.00    -0.504 OA
ATOM     10  H   UNL     1      -1.358  33.583   6.617  1.00  0.00     0.293 HD
ENDBRANCH   5   9
BRANCH   4  11
ATOM     11  O   UNL     1       0.685  34.205   5.415  1.00  0.00    -0.502 OA
ATOM     12  H   UNL     1       0.640  33.844   4.473  1.00  0.00     0.293 HD
ENDBRANCH   4  11
TORSDOF 3
ENDMDL
MODEL 9
REMARK VINA RESULT:    -3.076      1.881      2.696
REMARK INTER + INTRA:          -3.345
REMARK INTER:                  -3.345
REMARK INTRA:                   0.000
REMARK UNBOUND:                 0.000
REMARK SMILES Oc1cccc(O)c1O
REMARK SMILES IDX 4 1 5 2 6 3 8 4 2 5 3 6 7 7 1 9 9 11
REMARK H PARENT 7 8 1 10 9 12
REMARK Flexibility Score: inf
ROOT
ATOM      1  C   UNL     1      -0.982  37.806   5.687  1.00  0.00     0.008 A 
ATOM      2  C   UNL     1      -1.641  36.711   6.246  1.00  0.00     0.050 A 
ATOM      3  C   UNL     1      -1.046  35.444   6.243  1.00  0.00     0.161 A 
ATOM      4  C   UNL     1       0.237  35.276   5.665  1.00  0.00     0.200 A 
ATOM      5  C   UNL     1       0.892  36.384   5.104  1.00  0.00     0.161 A 
ATOM      6  C   UNL     1       0.281  37.645   5.116  1.00  0.00     0.050 A 
ENDROOT
BRANCH   3   7
ATOM      7  O   UNL     1      -1.758  34.389   6.819  1.00  0.00    -0.504 OA
ATOM      8  H   UNL     1      -1.330  33.548   7.179  1.00  0.00     0.293 HD
ENDBRANCH   3   7
BRANCH   5   9
ATOM      9  O   UNL     1       2.154  36.223   4.535  1.00  0.00    -0.504 OA
ATOM     10  H   UNL     1       2.601  36.970   4.015  1.00  0.00     0.293 HD
ENDBRANCH   5   9
BRANCH   4  11
ATOM     11  O   UNL     1       0.887  34.041   5.628  1.00  0.00    -0.502 OA
ATOM     12  H   UNL     1       0.412  33.151   5.646  1.00  0.00     0.293 HD
ENDBRANCH   4  11
TORSDOF 3
ENDMDL
