MODEL 1
REMARK VINA RESULT:    -4.746      0.000      0.000
REMARK INTER + INTRA:          -5.509
REMARK INTER:                  -5.439
REMARK INTRA:                  -0.069
REMARK UNBOUND:                -0.069
REMARK SMILES COc1cc(C=O)ccc1O
REMARK SMILES IDX 3 1 10 2 9 3 8 4 5 5 4 6 2 7 1 8 11 9 6 11 7 12
REMARK H PARENT 11 10
REMARK Flexibility Score: inf
ROOT
ATOM      1  C   UNL     1      14.329  38.634 -12.611  1.00  0.00     0.161 A 
ATOM      2  C   UNL     1      14.684  37.496 -13.359  1.00  0.00     0.157 A 
ATOM      3  C   UNL     1      15.863  37.492 -14.110  1.00  0.00     0.051 A 
ATOM      4  C   UNL     1      16.696  38.611 -14.125  1.00  0.00     0.015 A 
ATOM      5  C   UNL     1      16.360  39.754 -13.386  1.00  0.00     0.018 A 
ATOM      6  C   UNL     1      15.176  39.762 -12.630  1.00  0.00     0.062 A 
ENDROOT
BRANCH   1   7
ATOM      7  O   UNL     1      13.139  38.610 -11.866  1.00  0.00    -0.493 OA
ATOM      8  C   UNL     1      13.074  38.633 -10.444  1.00  0.00     0.278 C 
ENDBRANCH   1   7
BRANCH   2   9
ATOM      9  O   UNL     1      13.875  36.360 -13.370  1.00  0.00    -0.504 OA
ATOM     10  H   UNL     1      13.404  36.040 -14.208  1.00  0.00     0.293 HD
ENDBRANCH   2   9
BRANCH   5  11
ATOM     11  C   UNL     1      17.255  40.926 -13.415  1.00  0.00     0.260 C 
ATOM     12  O   UNL     1      17.627  41.489 -12.350  1.00  0.00    -0.298 OA
ENDBRANCH   5  11
TORSDOF 3
ENDMDL
MODEL 2
REMARK VINA RESULT:    -4.473      1.433      4.031
REMARK INTER + INTRA:          -5.196
REMARK INTER:                  -5.165
REMARK INTRA:                  -0.031
REMARK UNBOUND:                -0.069
REMARK SMILES COc1cc(C=O)ccc1O
REMARK SMILES IDX 3 1 10 2 9 3 8 4 5 5 4 6 2 7 1 8 11 9 6 11 7 12
REMARK H PARENT 11 10
REMARK Flexibility Score: inf
ROOT
ATOM      1  C   UNL     1      16.211  39.888 -13.380  1.00  0.00     0.161 A 
ATOM      2  C   UNL     1      16.974  38.775 -13.779  1.00  0.00     0.157 A 
ATOM      3  C   UNL     1      16.386  37.509 -13.840  1.00  0.00     0.051 A 
ATOM      4  C   UNL     1      15.043  37.335 -13.506  1.00  0.00     0.015 A 
ATOM      5  C   UNL     1      14.266  38.431 -13.105  1.00  0.00     0.018 A 
ATOM      6  C   UNL     1      14.854  39.707 -13.043  1.00  0.00     0.062 A 
ENDROOT
BRANCH   1   7
ATOM      7  O   UNL     1      16.828  41.148 -13.328  1.00  0.00    -0.493 OA
ATOM      8  C   UNL     1      17.600  41.627 -12.232  1.00  0.00     0.278 C 
ENDBRANCH   1   7
BRANCH   2   9
ATOM      9  O   UNL     1      18.320  38.909 -14.120  1.00  0.00    -0.504 OA
ATOM     10  H   UNL     1      18.753  38.345 -14.842  1.00  0.00     0.293 HD
ENDBRANCH   2   9
BRANCH   5  11
ATOM     11  C   UNL     1      12.847  38.227 -12.756  1.00  0.00     0.260 C 
ATOM     12  O   UNL     1      11.979  38.029 -13.647  1.00  0.00    -0.298 OA
ENDBRANCH   5  11
TORSDOF 3
ENDMDL
MODEL 3
REMARK VINA RESULT:    -3.966      2.222      4.196
REMARK INTER + INTRA:          -4.615
REMARK INTER:                  -4.548
REMARK INTRA:                  -0.067
REMARK UNBOUND:                -0.069
REMARK SMILES COc1cc(C=O)ccc1O
REMARK SMILES IDX 3 1 10 2 9 3 8 4 5 5 4 6 2 7 1 8 11 9 6 11 7 12
REMARK H PARENT 11 10
REMARK Flexibility Score: inf
ROOT
ATOM      1  C   UNL     1      13.446  39.616 -10.532  1.00  0.00     0.161 A 
ATOM      2  C   UNL     1      14.242  40.625 -11.105  1.00  0.00     0.157 A 
ATOM      3  C   UNL     1      14.714  40.486 -12.413  1.00  0.00     0.051 A 
ATOM      4  C   UNL     1      14.403  39.350 -13.161  1.00  0.00     0.015 A 
ATOM      5  C   UNL     1      13.611  38.334 -12.608  1.00  0.00     0.018 A 
ATOM      6  C   UNL     1      13.134  38.470 -11.293  1.00  0.00     0.062 A 
ENDROOT
BRANCH   1   7
ATOM      7  O   UNL     1      12.986  39.783  -9.216  1.00  0.00    -0.493 OA
ATOM      8  C   UNL     1      11.615  39.885  -8.845  1.00  0.00     0.278 C 
ENDBRANCH   1   7
BRANCH   2   9
ATOM      9  O   UNL     1      14.575  41.774 -10.388  1.00  0.00    -0.504 OA
ATOM     10  H   UNL     1      15.487  41.901  -9.964  1.00  0.00     0.293 HD
ENDBRANCH   2   9
BRANCH   5  11
ATOM     11  C   UNL     1      13.292  37.141 -13.415  1.00  0.00     0.260 C 
ATOM     12  O   UNL     1      12.249  37.091 -14.120  1.00  0.00    -0.298 OA
ENDBRANCH   5  11
TORSDOF 3
ENDMDL
MODEL 4
REMARK VINA RESULT:    -3.764      1.818      4.334
REMARK INTER + INTRA:          -4.383
REMARK INTER:                  -4.313
REMARK INTRA:                  -0.071
REMARK UNBOUND:                -0.069
REMARK SMILES COc1cc(C=O)ccc1O
REMARK SMILES IDX 3 1 10 2 9 3 8 4 5 5 4 6 2 7 1 8 11 9 6 11 7 12
REMARK H PARENT 11 10
REMARK Flexibility Score: inf
ROOT
ATOM      1  C   UNL     1      14.394  38.724 -13.010  1.00  0.00     0.161 A 
ATOM      2  C   UNL     1      14.975  40.005 -13.003  1.00  0.00     0.157 A 
ATOM      3  C   UNL     1      14.790  40.851 -11.906  1.00  0.00     0.051 A 
ATOM      4  C   UNL     1      14.031  40.436 -10.811  1.00  0.00     0.015 A 
ATOM      5  C   UNL     1      13.444  39.163 -10.799  1.00  0.00     0.018 A 
ATOM      6  C   UNL     1      13.628  38.309 -11.901  1.00  0.00     0.062 A 
ENDROOT
BRANCH   1   7
ATOM      7  O   UNL     1      14.596  37.895 -14.125  1.00  0.00    -0.493 OA
ATOM      8  C   UNL     1      15.324  36.672 -14.103  1.00  0.00     0.278 C 
ENDBRANCH   1   7
BRANCH   2   9
ATOM      9  O   UNL     1      15.739  40.456 -14.079  1.00  0.00    -0.504 OA
ATOM     10  H   UNL     1      15.439  40.343 -15.040  1.00  0.00     0.293 HD
ENDBRANCH   2   9
BRANCH   5  11
ATOM     11  C   UNL     1      12.646  38.742  -9.632  1.00  0.00     0.260 C 
ATOM     12  O   UNL     1      11.664  39.424  -9.235  1.00  0.00    -0.298 OA
ENDBRANCH   5  11
TORSDOF 3
ENDMDL
MODEL 5
REMARK VINA RESULT:    -3.485      1.723      4.102
REMARK INTER + INTRA:          -4.064
REMARK INTER:                  -3.987
REMARK INTRA:                  -0.077
REMARK UNBOUND:                -0.069
REMARK SMILES COc1cc(C=O)ccc1O
REMARK SMILES IDX 3 1 10 2 9 3 8 4 5 5 4 6 2 7 1 8 11 9 6 11 7 12
REMARK H PARENT 11 10
REMARK Flexibility Score: inf
ROOT
ATOM      1  C   UNL     1      14.736  39.769 -12.565  1.00  0.00     0.161 A 
ATOM      2  C   UNL     1      14.358  38.465 -12.936  1.00  0.00     0.157 A 
ATOM      3  C   UNL     1      13.515  37.719 -12.107  1.00  0.00     0.051 A 
ATOM      4  C   UNL     1      13.043  38.256 -10.909  1.00  0.00     0.015 A 
ATOM      5  C   UNL     1      13.409  39.552 -10.522  1.00  0.00     0.018 A 
ATOM      6  C   UNL     1      14.256  40.306 -11.353  1.00  0.00     0.062 A 
ENDROOT
BRANCH   1   7
ATOM      7  O   UNL     1      15.584  40.495 -13.416  1.00  0.00    -0.493 OA
ATOM      8  C   UNL     1      16.972  40.713 -13.184  1.00  0.00     0.278 C 
ENDBRANCH   1   7
BRANCH   2   9
ATOM      9  O   UNL     1      14.810  37.894 -14.125  1.00  0.00    -0.504 OA
ATOM     10  H   UNL     1      15.457  38.372 -14.742  1.00  0.00     0.293 HD
ENDBRANCH   2   9
BRANCH   5  11
ATOM     11  C   UNL     1      12.899  40.103  -9.252  1.00  0.00     0.260 C 
ATOM     12  O   UNL     1      11.718  39.881  -8.873  1.00  0.00    -0.298 OA
ENDBRANCH   5  11
TORSDOF 3
ENDMDL
MODEL 6
REMARK VINA RESULT:    -3.425      2.274      3.649
REMARK INTER + INTRA:          -3.995
REMARK INTER:                  -3.919
REMARK INTRA:                  -0.076
REMARK UNBOUND:                -0.069
REMARK SMILES COc1cc(C=O)ccc1O
REMARK SMILES IDX 3 1 10 2 9 3 8 4 5 5 4 6 2 7 1 8 11 9 6 11 7 12
REMARK H PARENT 11 10
REMARK Flexibility Score: inf
ROOT
ATOM      1  C   UNL     1      14.311  39.258 -12.560  1.00  0.00     0.161 A 
ATOM      2  C   UNL     1      13.551  38.377 -11.769  1.00  0.00     0.157 A 
ATOM      3  C   UNL     1      13.123  38.770 -10.498  1.00  0.00     0.051 A 
ATOM      4  C   UNL     1      13.444  40.035 -10.002  1.00  0.00     0.015 A 
ATOM      5  C   UNL     1      14.200  40.926 -10.775  1.00  0.00     0.018 A 
ATOM      6  C   UNL     1      14.632  40.535 -12.054  1.00  0.00     0.062 A 
ENDROOT
BRANCH   1   7
ATOM      7  O   UNL     1      14.728  38.837 -13.833  1.00  0.00    -0.493 OA
ATOM      8  C   UNL     1      16.010  38.290 -14.125  1.00  0.00     0.278 C 
ENDBRANCH   1   7
BRANCH   2   9
ATOM      9  O   UNL     1      13.212  37.105 -12.230  1.00  0.00    -0.504 OA
ATOM     10  H   UNL     1      13.852  36.540 -12.775  1.00  0.00     0.293 HD
ENDBRANCH   2   9
BRANCH   5  11
ATOM     11  C   UNL     1      14.529  42.259 -10.234  1.00  0.00     0.260 C 
ATOM     12  O   UNL     1      13.666  42.945  -9.623  1.00  0.00    -0.298 OA
ENDBRANCH   5  11
TORSDOF 3
ENDMDL
MODEL 7
REMARK VINA RESULT:    -3.221      1.407      4.365
REMARK INTER + INTRA:          -3.761
REMARK INTER:                  -3.704
REMARK INTRA:                  -0.058
REMARK UNBOUND:                -0.069
REMARK SMILES COc1cc(C=O)ccc1O
REMARK SMILES IDX 3 1 10 2 9 3 8 4 5 5 4 6 2 7 1 8 11 9 6 11 7 12
REMARK H PARENT 11 10
REMARK Flexibility Score: inf
ROOT
ATOM      1  C   UNL     1      15.926  40.341 -12.732  1.00  0.00     0.161 A 
ATOM      2  C   UNL     1      14.815  40.493 -11.883  1.00  0.00     0.157 A 
ATOM      3  C   UNL     1      13.875  39.466 -11.769  1.00  0.00     0.051 A 
ATOM      4  C   UNL     1      14.027  38.283 -12.495  1.00  0.00     0.015 A 
ATOM      5  C   UNL     1      15.127  38.112 -13.346  1.00  0.00     0.018 A 
ATOM      6  C   UNL     1      16.075  39.143 -13.463  1.00  0.00     0.062 A 
ENDROOT
BRANCH   1   7
ATOM      7  O   UNL     1      16.855  41.389 -12.826  1.00  0.00    -0.493 OA
ATOM      8  C   UNL     1      17.892  41.467 -13.799  1.00  0.00     0.278 C 
ENDBRANCH   1   7
BRANCH   2   9
ATOM      9  O   UNL     1      14.629  41.661 -11.143  1.00  0.00    -0.504 OA
ATOM     10  H   UNL     1      14.496  41.648 -10.138  1.00  0.00     0.293 HD
ENDBRANCH   2   9
BRANCH   5  11
ATOM     11  C   UNL     1      15.270  36.855 -14.104  1.00  0.00     0.260 C 
ATOM     12  O   UNL     1      14.348  35.997 -14.124  1.00  0.00    -0.298 OA
ENDBRANCH   5  11
TORSDOF 3
ENDMDL
