MODEL 1
REMARK VINA RESULT:    -3.184      0.000      0.000
REMARK INTER + INTRA:          -3.184
REMARK INTER:                  -3.184
REMARK INTRA:                   0.000
REMARK UNBOUND:                 0.000
REMARK SMILES CC1(C)[C@H]2CC[C@]1(C)C(=O)C2
REMARK SMILES IDX 1 1 2 2 4 3 5 4 6 5 7 6 9 7 10 8 11 9 8 10 3 11
REMARK H PARENT
REMARK Flexibility Score: inf
ROOT
ATOM      1  C   UNL     1     149.878 150.249 142.728  1.00  0.00     0.012 C 
ATOM      2  C   UNL     1     150.818 150.652 143.907  1.00  0.00    -0.020 C 
ATOM      3  C   UNL     1     151.162 149.477 144.854  1.00  0.00     0.003 C 
ATOM      4  C   UNL     1     151.945 150.179 145.998  1.00  0.00     0.005 C 
ATOM      5  C   UNL     1     151.225 151.545 146.125  1.00  0.00     0.015 C 
ATOM      6  C   UNL     1     150.131 151.455 145.033  1.00  0.00     0.032 C 
ATOM      7  C   UNL     1     149.154 150.430 145.551  1.00  0.00     0.139 C 
ATOM      8  O   UNL     1     148.065 150.665 146.050  1.00  0.00    -0.299 OA
ATOM      9  C   UNL     1     149.783 149.074 145.450  1.00  0.00     0.080 C 
ATOM     10  C   UNL     1     149.510 152.799 144.633  1.00  0.00     0.020 C 
ATOM     11  C   UNL     1     152.066 151.329 143.264  1.00  0.00     0.012 C 
ENDROOT
TORSDOF 0
ENDMDL
MODEL 2
REMARK VINA RESULT:    -3.061      8.670      9.768
REMARK INTER + INTRA:          -3.061
REMARK INTER:                  -3.061
REMARK INTRA:                   0.000
REMARK UNBOUND:                 0.000
REMARK SMILES CC1(C)[C@H]2CC[C@]1(C)C(=O)C2
REMARK SMILES IDX 1 1 2 2 4 3 5 4 6 5 7 6 9 7 10 8 11 9 8 10 3 11
REMARK H PARENT
REMARK Flexibility Score: inf
ROOT
ATOM      1  C   UNL     1     152.574 144.308 136.722  1.00  0.00     0.012 C 
ATOM      2  C   UNL     1     153.429 143.525 137.767  1.00  0.00    -0.020 C 
ATOM      3  C   UNL     1     152.610 142.513 138.604  1.00  0.00     0.003 C 
ATOM      4  C   UNL     1     153.647 142.017 139.650  1.00  0.00     0.005 C 
ATOM      5  C   UNL     1     154.485 143.288 139.938  1.00  0.00     0.015 C 
ATOM      6  C   UNL     1     153.830 144.343 139.013  1.00  0.00     0.032 C 
ATOM      7  C   UNL     1     152.475 144.602 139.625  1.00  0.00     0.139 C 
ATOM      8  O   UNL     1     152.162 145.579 140.287  1.00  0.00    -0.299 OA
ATOM      9  C   UNL     1     151.602 143.411 139.377  1.00  0.00     0.080 C 
ATOM     10  C   UNL     1     154.679 145.596 138.766  1.00  0.00     0.020 C 
ATOM     11  C   UNL     1     154.609 142.882 136.978  1.00  0.00     0.012 C 
ENDROOT
TORSDOF 0
ENDMDL
MODEL 3
REMARK VINA RESULT:    -3.058      8.242      9.786
REMARK INTER + INTRA:          -3.058
REMARK INTER:                  -3.058
REMARK INTRA:                   0.000
REMARK UNBOUND:                 0.000
REMARK SMILES CC1(C)[C@H]2CC[C@]1(C)C(=O)C2
REMARK SMILES IDX 1 1 2 2 4 3 5 4 6 5 7 6 9 7 10 8 11 9 8 10 3 11
REMARK H PARENT
REMARK Flexibility Score: inf
ROOT
ATOM      1  C   UNL     1     148.624 156.975 136.733  1.00  0.00     0.012 C 
ATOM      2  C   UNL     1     147.838 157.833 137.772  1.00  0.00    -0.020 C 
ATOM      3  C   UNL     1     148.735 158.801 138.582  1.00  0.00     0.003 C 
ATOM      4  C   UNL     1     147.747 159.385 139.629  1.00  0.00     0.005 C 
ATOM      5  C   UNL     1     146.827 158.180 139.949  1.00  0.00     0.015 C 
ATOM      6  C   UNL     1     147.397 157.067 139.038  1.00  0.00     0.032 C 
ATOM      7  C   UNL     1     148.737 156.726 139.640  1.00  0.00     0.139 C 
ATOM      8  O   UNL     1     148.991 155.741 140.316  1.00  0.00    -0.299 OA
ATOM      9  C   UNL     1     149.687 157.850 139.361  1.00  0.00     0.080 C 
ATOM     10  C   UNL     1     146.460 155.872 138.822  1.00  0.00     0.020 C 
ATOM     11  C   UNL     1     146.696 158.542 136.984  1.00  0.00     0.012 C 
ENDROOT
TORSDOF 0
ENDMDL
MODEL 4
REMARK VINA RESULT:    -3.058      8.197      9.842
REMARK INTER + INTRA:          -3.058
REMARK INTER:                  -3.058
REMARK INTRA:                   0.000
REMARK UNBOUND:                 0.000
REMARK SMILES CC1(C)[C@H]2CC[C@]1(C)C(=O)C2
REMARK SMILES IDX 1 1 2 2 4 3 5 4 6 5 7 6 9 7 10 8 11 9 8 10 3 11
REMARK H PARENT
REMARK Flexibility Score: inf
ROOT
ATOM      1  C   UNL     1     144.269 148.663 136.719  1.00  0.00     0.012 C 
ATOM      2  C   UNL     1     143.429 147.861 137.762  1.00  0.00    -0.020 C 
ATOM      3  C   UNL     1     142.452 148.740 138.579  1.00  0.00     0.003 C 
ATOM      4  C   UNL     1     141.890 147.742 139.628  1.00  0.00     0.005 C 
ATOM      5  C   UNL     1     143.111 146.840 139.939  1.00  0.00     0.015 C 
ATOM      6  C   UNL     1     144.210 147.429 139.022  1.00  0.00     0.032 C 
ATOM      7  C   UNL     1     144.533 148.774 139.625  1.00  0.00     0.139 C 
ATOM      8  O   UNL     1     145.517 149.042 140.296  1.00  0.00    -0.299 OA
ATOM      9  C   UNL     1     143.393 149.706 139.354  1.00  0.00     0.080 C 
ATOM     10  C   UNL     1     145.418 146.513 138.797  1.00  0.00     0.020 C 
ATOM     11  C   UNL     1     142.734 146.709 136.976  1.00  0.00     0.012 C 
ENDROOT
TORSDOF 0
ENDMDL
MODEL 5
REMARK VINA RESULT:    -3.057      8.507      9.758
REMARK INTER + INTRA:          -3.057
REMARK INTER:                  -3.057
REMARK INTRA:                   0.000
REMARK UNBOUND:                 0.000
REMARK SMILES CC1(C)[C@H]2CC[C@]1(C)C(=O)C2
REMARK SMILES IDX 1 1 2 2 4 3 5 4 6 5 7 6 9 7 10 8 11 9 8 10 3 11
REMARK H PARENT
REMARK Flexibility Score: inf
ROOT
ATOM      1  C   UNL     1     156.980 152.698 136.725  1.00  0.00     0.012 C 
ATOM      2  C   UNL     1     157.756 153.541 137.785  1.00  0.00    -0.020 C 
ATOM      3  C   UNL     1     158.775 152.716 138.607  1.00  0.00     0.003 C 
ATOM      4  C   UNL     1     159.262 153.738 139.671  1.00  0.00     0.005 C 
ATOM      5  C   UNL     1     157.984 154.560 139.974  1.00  0.00     0.015 C 
ATOM      6  C   UNL     1     156.935 153.913 139.038  1.00  0.00     0.032 C 
ATOM      7  C   UNL     1     156.687 152.546 139.626  1.00  0.00     0.139 C 
ATOM      8  O   UNL     1     155.713 152.212 140.282  1.00  0.00    -0.299 OA
ATOM      9  C   UNL     1     157.886 151.687 139.362  1.00  0.00     0.080 C 
ATOM     10  C   UNL     1     155.675 154.755 138.805  1.00  0.00     0.020 C 
ATOM     11  C   UNL     1     158.389 154.740 137.017  1.00  0.00     0.012 C 
ENDROOT
TORSDOF 0
ENDMDL
MODEL 6
REMARK VINA RESULT:    -2.948      8.255      9.877
REMARK INTER + INTRA:          -2.948
REMARK INTER:                  -2.948
REMARK INTRA:                   0.000
REMARK UNBOUND:                 0.000
REMARK SMILES CC1(C)[C@H]2CC[C@]1(C)C(=O)C2
REMARK SMILES IDX 1 1 2 2 4 3 5 4 6 5 7 6 9 7 10 8 11 9 8 10 3 11
REMARK H PARENT
REMARK Flexibility Score: inf
ROOT
ATOM      1  C   UNL     1     142.044 147.148 140.046  1.00  0.00     0.012 C 
ATOM      2  C   UNL     1     142.618 147.610 138.670  1.00  0.00    -0.020 C 
ATOM      3  C   UNL     1     143.761 146.710 138.142  1.00  0.00     0.003 C 
ATOM      4  C   UNL     1     144.247 147.479 136.882  1.00  0.00     0.005 C 
ATOM      5  C   UNL     1     144.093 148.963 137.300  1.00  0.00     0.015 C 
ATOM      6  C   UNL     1     143.530 148.854 138.738  1.00  0.00     0.032 C 
ATOM      7  C   UNL     1     144.675 148.317 139.559  1.00  0.00     0.139 C 
ATOM      8  O   UNL     1     145.380 148.963 140.318  1.00  0.00    -0.299 OA
ATOM      9  C   UNL     1     144.878 146.874 139.212  1.00  0.00     0.080 C 
ATOM     10  C   UNL     1     142.893 150.140 139.277  1.00  0.00     0.020 C 
ATOM     11  C   UNL     1     141.403 147.720 137.700  1.00  0.00     0.012 C 
ENDROOT
TORSDOF 0
ENDMDL
MODEL 7
REMARK VINA RESULT:    -2.941      8.395      9.553
REMARK INTER + INTRA:          -2.941
REMARK INTER:                  -2.941
REMARK INTRA:                   0.000
REMARK UNBOUND:                 0.000
REMARK SMILES CC1(C)[C@H]2CC[C@]1(C)C(=O)C2
REMARK SMILES IDX 1 1 2 2 4 3 5 4 6 5 7 6 9 7 10 8 11 9 8 10 3 11
REMARK H PARENT
REMARK Flexibility Score: inf
ROOT
ATOM      1  C   UNL     1     153.130 142.517 137.896  1.00  0.00     0.012 C 
ATOM      2  C   UNL     1     153.892 143.870 137.748  1.00  0.00    -0.020 C 
ATOM      3  C   UNL     1     154.845 144.178 138.928  1.00  0.00     0.003 C 
ATOM      4  C   UNL     1     155.326 145.621 138.612  1.00  0.00     0.005 C 
ATOM      5  C   UNL     1     154.068 146.277 137.988  1.00  0.00     0.015 C 
ATOM      6  C   UNL     1     153.035 145.125 138.017  1.00  0.00     0.032 C 
ATOM      7  C   UNL     1     152.712 144.935 139.478  1.00  0.00     0.139 C 
ATOM      8  O   UNL     1     151.700 145.316 140.046  1.00  0.00    -0.299 OA
ATOM      9  C   UNL     1     153.888 144.293 140.148  1.00  0.00     0.080 C 
ATOM     10  C   UNL     1     151.818 145.331 137.107  1.00  0.00     0.020 C 
ATOM     11  C   UNL     1     154.601 143.826 136.361  1.00  0.00     0.012 C 
ENDROOT
TORSDOF 0
ENDMDL
MODEL 8
REMARK VINA RESULT:    -2.878      8.135      9.674
REMARK INTER + INTRA:          -2.878
REMARK INTER:                  -2.878
REMARK INTRA:                   0.000
REMARK UNBOUND:                 0.000
REMARK SMILES CC1(C)[C@H]2CC[C@]1(C)C(=O)C2
REMARK SMILES IDX 1 1 2 2 4 3 5 4 6 5 7 6 9 7 10 8 11 9 8 10 3 11
REMARK H PARENT
REMARK Flexibility Score: inf
ROOT
ATOM      1  C   UNL     1     143.643 146.512 137.101  1.00  0.00     0.012 C 
ATOM      2  C   UNL     1     144.012 147.828 137.853  1.00  0.00    -0.020 C 
ATOM      3  C   UNL     1     144.797 147.592 139.166  1.00  0.00     0.003 C 
ATOM      4  C   UNL     1     144.878 149.018 139.777  1.00  0.00     0.005 C 
ATOM      5  C   UNL     1     143.515 149.643 139.384  1.00  0.00     0.015 C 
ATOM      6  C   UNL     1     142.835 148.500 138.592  1.00  0.00     0.032 C 
ATOM      7  C   UNL     1     142.518 147.450 139.627  1.00  0.00     0.139 C 
ATOM      8  O   UNL     1     141.418 147.224 140.107  1.00  0.00    -0.299 OA
ATOM      9  C   UNL     1     143.796 146.794 140.050  1.00  0.00     0.080 C 
ATOM     10  C   UNL     1     141.646 148.938 137.728  1.00  0.00     0.020 C 
ATOM     11  C   UNL     1     144.762 148.728 136.825  1.00  0.00     0.012 C 
ENDROOT
TORSDOF 0
ENDMDL
MODEL 9
REMARK VINA RESULT:    -2.870      8.740     10.463
REMARK INTER + INTRA:          -2.870
REMARK INTER:                  -2.870
REMARK INTRA:                   0.000
REMARK UNBOUND:                 0.000
REMARK SMILES CC1(C)[C@H]2CC[C@]1(C)C(=O)C2
REMARK SMILES IDX 1 1 2 2 4 3 5 4 6 5 7 6 9 7 10 8 11 9 8 10 3 11
REMARK H PARENT
REMARK Flexibility Score: inf
ROOT
ATOM      1  C   UNL     1     157.686 154.772 137.133  1.00  0.00     0.012 C 
ATOM      2  C   UNL     1     157.344 153.434 137.859  1.00  0.00    -0.020 C 
ATOM      3  C   UNL     1     156.535 153.625 139.164  1.00  0.00     0.003 C 
ATOM      4  C   UNL     1     156.486 152.187 139.750  1.00  0.00     0.005 C 
ATOM      5  C   UNL     1     157.872 151.609 139.367  1.00  0.00     0.015 C 
ATOM      6  C   UNL     1     158.530 152.783 138.603  1.00  0.00     0.032 C 
ATOM      7  C   UNL     1     158.802 153.825 139.659  1.00  0.00     0.139 C 
ATOM      8  O   UNL     1     159.888 154.074 140.159  1.00  0.00    -0.299 OA
ATOM      9  C   UNL     1     157.500 154.437 140.074  1.00  0.00     0.080 C 
ATOM     10  C   UNL     1     159.743 152.394 137.749  1.00  0.00     0.020 C 
ATOM     11  C   UNL     1     156.636 152.530 136.805  1.00  0.00     0.012 C 
ENDROOT
TORSDOF 0
ENDMDL
