MODEL 1
REMARK VINA RESULT:    12.710      0.000      0.000
REMARK INTER + INTRA:          19.633
REMARK INTER:                  17.540
REMARK INTRA:                   2.093
REMARK UNBOUND:                 2.093
REMARK SMILES O=C([O-])[C@@H]1O[C@@H](Oc2cc3oc(-c4ccccc4)cc(=O)c3c(O)c2O)[C@H](O)[C@H](O)[C@@H]1O
REMARK SMILES IDX 7 1 6 2 4 3 31 4 5 5 29 6 27 7 2 8 1 9 3 10 32 11 30 13
REMARK SMILES IDX 28 15 8 17 25 18 9 19 23 20 10 21 22 22 11 23 20 24 12 25
REMARK SMILES IDX 19 26 21 27 26 28 24 30 13 32 14 33 18 34 15 35 17 36 16 37
REMARK H PARENT 32 12 30 14 28 16 26 29 24 31
REMARK Flexibility Score: inf
ROOT
ATOM      1  O   UNL     1      13.946 -10.620 -26.991  1.00  0.00    -0.458 OA
ENDROOT
BRANCH   1   2
ATOM      2  C   UNL     1      14.225 -11.900 -27.567  1.00  0.00     0.339 C 
ATOM      3  C   UNL     1      12.234 -12.800 -26.673  1.00  0.00     0.199 C 
ATOM      4  C   UNL     1      13.055 -13.365 -25.465  1.00  0.00     0.180 C 
ATOM      5  O   UNL     1      13.024 -12.605 -27.842  1.00  0.00    -0.328 OA
ATOM      6  C   UNL     1      14.441 -13.851 -25.915  1.00  0.00     0.181 C 
ATOM      7  C   UNL     1      15.174 -12.705 -26.638  1.00  0.00     0.214 C 
BRANCH   3   8
ATOM      8  C   UNL     1      11.062 -13.678 -27.032  1.00  0.00     0.073 C 
ATOM      9  O   UNL     1      10.300 -14.129 -26.135  1.00  0.00    -0.547 OA
ATOM     10  O   UNL     1      10.803 -13.961 -28.370  1.00  0.00    -0.547 OA
ENDBRANCH   3   8
BRANCH   4  11
ATOM     11  O   UNL     1      12.389 -14.413 -24.804  1.00  0.00    -0.387 OA
ATOM     12  H   UNL     1      13.006 -15.182 -24.786  1.00  0.00     0.211 HD
ENDBRANCH   4  11
BRANCH   6  13
ATOM     13  O   UNL     1      14.326 -14.969 -26.761  1.00  0.00    -0.387 OA
ATOM     14  H   UNL     1      13.371 -15.256 -26.746  1.00  0.00     0.211 HD
ENDBRANCH   6  13
BRANCH   7  15
ATOM     15  O   UNL     1      16.254 -13.219 -27.383  1.00  0.00    -0.384 OA
ATOM     16  H   UNL     1      16.890 -13.607 -26.731  1.00  0.00     0.211 HD
ENDBRANCH   7  15
ENDBRANCH   1   2
BRANCH   1  17
ATOM     17  C   UNL     1      13.296  -9.605 -27.694  1.00  0.00     0.172 A 
ATOM     18  C   UNL     1      11.997  -9.800 -28.193  1.00  0.00     0.201 A 
ATOM     19  C   UNL     1      13.926  -8.371 -27.835  1.00  0.00     0.098 A 
ATOM     20  C   UNL     1      11.324  -8.738 -28.853  1.00  0.00     0.176 A 
ATOM     21  C   UNL     1      13.273  -7.310 -28.467  1.00  0.00     0.146 A 
ATOM     22  C   UNL     1      11.965  -7.478 -28.979  1.00  0.00     0.111 A 
ATOM     23  O   UNL     1      13.879  -6.128 -28.543  1.00  0.00    -0.456 OA
ATOM     24  C   UNL     1      11.343  -6.352 -29.562  1.00  0.00     0.197 A 
ATOM     25  C   UNL     1      13.312  -5.050 -29.070  1.00  0.00     0.138 A 
ATOM     26  C   UNL     1      12.018  -5.130 -29.602  1.00  0.00     0.100 A 
ATOM     27  O   UNL     1      10.181  -6.424 -30.038  1.00  0.00    -0.289 OA
BRANCH  18  28
ATOM     28  O   UNL     1      11.398 -11.045 -27.999  1.00  0.00    -0.502 OA
ATOM     29  H   UNL     1      11.055 -11.374 -27.102  1.00  0.00     0.293 HD
ENDBRANCH  18  28
BRANCH  20  30
ATOM     30  O   UNL     1      10.042  -8.911 -29.385  1.00  0.00    -0.504 OA
ATOM     31  H   UNL     1       9.831  -8.905 -30.370  1.00  0.00     0.293 HD
ENDBRANCH  20  30
BRANCH  25  32
ATOM     32  C   UNL     1      14.034  -3.773 -29.063  1.00  0.00     0.017 A 
ATOM     33  C   UNL     1      13.556  -2.690 -29.820  1.00  0.00     0.012 A 
ATOM     34  C   UNL     1      15.239  -3.647 -28.352  1.00  0.00     0.012 A 
ATOM     35  C   UNL     1      14.266  -1.485 -29.844  1.00  0.00     0.001 A 
ATOM     36  C   UNL     1      15.948  -2.442 -28.383  1.00  0.00     0.001 A 
ATOM     37  C   UNL     1      15.458  -1.360 -29.125  1.00  0.00     0.000 A 
ENDBRANCH  25  32
ENDBRANCH   1  17
TORSDOF 9
ENDMDL
MODEL 2
REMARK VINA RESULT:    14.125      1.841      3.183
REMARK INTER + INTRA:          21.586
REMARK INTER:                  20.074
REMARK INTRA:                   1.512
REMARK UNBOUND:                 2.093
REMARK SMILES O=C([O-])[C@@H]1O[C@@H](Oc2cc3oc(-c4ccccc4)cc(=O)c3c(O)c2O)[C@H](O)[C@H](O)[C@@H]1O
REMARK SMILES IDX 7 1 6 2 4 3 31 4 5 5 29 6 27 7 2 8 1 9 3 10 32 11 30 13
REMARK SMILES IDX 28 15 8 17 25 18 9 19 23 20 10 21 22 22 11 23 20 24 12 25
REMARK SMILES IDX 19 26 21 27 26 28 24 30 13 32 14 33 18 34 15 35 17 36 16 37
REMARK H PARENT 32 12 30 14 28 16 26 29 24 31
REMARK Flexibility Score: inf
ROOT
ATOM      1  O   UNL     1      11.630  -9.885 -26.789  1.00  0.00    -0.458 OA
ENDROOT
BRANCH   1   2
ATOM      2  C   UNL     1      11.943 -10.594 -25.587  1.00  0.00     0.339 C 
ATOM      3  C   UNL     1      12.228 -12.610 -26.782  1.00  0.00     0.199 C 
ATOM      4  C   UNL     1      10.758 -13.009 -26.421  1.00  0.00     0.180 C 
ATOM      5  O   UNL     1      12.800 -11.692 -25.854  1.00  0.00    -0.328 OA
ATOM      6  C   UNL     1      10.391 -12.551 -25.002  1.00  0.00     0.181 C 
ATOM      7  C   UNL     1      10.635 -11.035 -24.875  1.00  0.00     0.214 C 
BRANCH   3   8
ATOM      8  C   UNL     1      13.139 -13.807 -26.889  1.00  0.00     0.073 C 
ATOM      9  O   UNL     1      12.668 -14.952 -27.123  1.00  0.00    -0.547 OA
ATOM     10  O   UNL     1      14.515 -13.634 -26.763  1.00  0.00    -0.547 OA
ENDBRANCH   3   8
BRANCH   4  11
ATOM     11  O   UNL     1      10.532 -14.393 -26.534  1.00  0.00    -0.387 OA
ATOM     12  H   UNL     1      10.522 -14.607 -27.498  1.00  0.00     0.211 HD
ENDBRANCH   4  11
BRANCH   6  13
ATOM     13  O   UNL     1      11.145 -13.250 -24.041  1.00  0.00    -0.387 OA
ATOM     14  H   UNL     1      10.638 -14.077 -23.812  1.00  0.00     0.211 HD
ENDBRANCH   6  13
BRANCH   7  15
ATOM     15  O   UNL     1      10.679 -10.667 -23.516  1.00  0.00    -0.384 OA
ATOM     16  H   UNL     1      10.020  -9.939 -23.396  1.00  0.00     0.211 HD
ENDBRANCH   7  15
ENDBRANCH   1   2
BRANCH   1  17
ATOM     17  C   UNL     1      12.585  -9.168 -27.509  1.00  0.00     0.172 A 
ATOM     18  C   UNL     1      13.587  -9.837 -28.233  1.00  0.00     0.201 A 
ATOM     19  C   UNL     1      12.493  -7.778 -27.558  1.00  0.00     0.098 A 
ATOM     20  C   UNL     1      14.516  -9.097 -29.011  1.00  0.00     0.176 A 
ATOM     21  C   UNL     1      13.388  -7.034 -28.330  1.00  0.00     0.146 A 
ATOM     22  C   UNL     1      14.406  -7.683 -29.067  1.00  0.00     0.111 A 
ATOM     23  O   UNL     1      13.245  -5.713 -28.397  1.00  0.00    -0.456 OA
ATOM     24  C   UNL     1      15.246  -6.876 -29.867  1.00  0.00     0.197 A 
ATOM     25  C   UNL     1      14.009  -4.934 -29.152  1.00  0.00     0.138 A 
ATOM     26  C   UNL     1      15.042  -5.496 -29.914  1.00  0.00     0.100 A 
ATOM     27  O   UNL     1      16.173  -7.380 -30.552  1.00  0.00    -0.289 OA
BRANCH  18  28
ATOM     28  O   UNL     1      13.618 -11.231 -28.176  1.00  0.00    -0.502 OA
ATOM     29  H   UNL     1      14.205 -11.757 -27.536  1.00  0.00     0.293 HD
ENDBRANCH  18  28
BRANCH  20  30
ATOM     30  O   UNL     1      15.541  -9.733 -29.718  1.00  0.00    -0.504 OA
ATOM     31  H   UNL     1      15.914  -9.405 -30.594  1.00  0.00     0.293 HD
ENDBRANCH  20  30
BRANCH  25  32
ATOM     32  C   UNL     1      13.745  -3.492 -29.207  1.00  0.00     0.017 A 
ATOM     33  C   UNL     1      12.488  -2.993 -28.826  1.00  0.00     0.012 A 
ATOM     34  C   UNL     1      14.723  -2.612 -29.700  1.00  0.00     0.012 A 
ATOM     35  C   UNL     1      12.223  -1.622 -28.916  1.00  0.00     0.001 A 
ATOM     36  C   UNL     1      14.451  -1.244 -29.792  1.00  0.00     0.001 A 
ATOM     37  C   UNL     1      13.204  -0.749 -29.395  1.00  0.00     0.000 A 
ENDBRANCH  25  32
ENDBRANCH   1  17
TORSDOF 9
ENDMDL
MODEL 3
REMARK VINA RESULT:    14.157      1.017      2.394
REMARK INTER + INTRA:          21.630
REMARK INTER:                  20.060
REMARK INTRA:                   1.570
REMARK UNBOUND:                 2.093
REMARK SMILES O=C([O-])[C@@H]1O[C@@H](Oc2cc3oc(-c4ccccc4)cc(=O)c3c(O)c2O)[C@H](O)[C@H](O)[C@@H]1O
REMARK SMILES IDX 7 1 6 2 4 3 31 4 5 5 29 6 27 7 2 8 1 9 3 10 32 11 30 13
REMARK SMILES IDX 28 15 8 17 25 18 9 19 23 20 10 21 22 22 11 23 20 24 12 25
REMARK SMILES IDX 19 26 21 27 26 28 24 30 13 32 14 33 18 34 15 35 17 36 16 37
REMARK H PARENT 32 12 30 14 28 16 26 29 24 31
REMARK Flexibility Score: inf
ROOT
ATOM      1  O   UNL     1      13.954 -10.389 -27.501  1.00  0.00    -0.458 OA
ENDROOT
BRANCH   1   2
ATOM      2  C   UNL     1      13.563 -10.965 -26.252  1.00  0.00     0.339 C 
ATOM      3  C   UNL     1      14.240 -13.112 -26.964  1.00  0.00     0.199 C 
ATOM      4  C   UNL     1      12.760 -13.424 -27.366  1.00  0.00     0.180 C 
ATOM      5  O   UNL     1      14.345 -12.112 -25.955  1.00  0.00    -0.328 OA
ATOM      6  C   UNL     1      11.771 -12.797 -26.372  1.00  0.00     0.181 C 
ATOM      7  C   UNL     1      12.043 -11.284 -26.265  1.00  0.00     0.214 C 
BRANCH   3   8
ATOM      8  C   UNL     1      14.980 -14.339 -26.496  1.00  0.00     0.073 C 
ATOM      9  O   UNL     1      14.456 -15.125 -25.661  1.00  0.00    -0.547 OA
ATOM     10  O   UNL     1      16.239 -14.622 -27.019  1.00  0.00    -0.547 OA
ENDBRANCH   3   8
BRANCH   4  11
ATOM     11  O   UNL     1      12.508 -14.805 -27.462  1.00  0.00    -0.387 OA
ATOM     12  H   UNL     1      13.375 -15.265 -27.358  1.00  0.00     0.211 HD
ENDBRANCH   4  11
BRANCH   6  13
ATOM     13  O   UNL     1      11.883 -13.404 -25.107  1.00  0.00    -0.387 OA
ATOM     14  H   UNL     1      11.725 -12.695 -24.424  1.00  0.00     0.211 HD
ENDBRANCH   6  13
BRANCH   7  15
ATOM     15  O   UNL     1      11.432 -10.766 -25.107  1.00  0.00    -0.384 OA
ATOM     16  H   UNL     1      12.023 -10.048 -24.770  1.00  0.00     0.211 HD
ENDBRANCH   7  15
ENDBRANCH   1   2
BRANCH   1  17
ATOM     17  C   UNL     1      13.273  -9.318 -28.080  1.00  0.00     0.172 A 
ATOM     18  C   UNL     1      11.926  -9.447 -28.457  1.00  0.00     0.201 A 
ATOM     19  C   UNL     1      13.928  -8.096 -28.217  1.00  0.00     0.098 A 
ATOM     20  C   UNL     1      11.228  -8.331 -28.989  1.00  0.00     0.176 A 
ATOM     21  C   UNL     1      13.253  -6.983 -28.724  1.00  0.00     0.146 A 
ATOM     22  C   UNL     1      11.897  -7.085 -29.112  1.00  0.00     0.111 A 
ATOM     23  O   UNL     1      13.889  -5.816 -28.797  1.00  0.00    -0.456 OA
ATOM     24  C   UNL     1      11.259  -5.909 -29.568  1.00  0.00     0.197 A 
ATOM     25  C   UNL     1      13.310  -4.694 -29.207  1.00  0.00     0.138 A 
ATOM     26  C   UNL     1      11.968  -4.708 -29.610  1.00  0.00     0.100 A 
ATOM     27  O   UNL     1      10.055  -5.921 -29.930  1.00  0.00    -0.289 OA
BRANCH  18  28
ATOM     28  O   UNL     1      11.307 -10.683 -28.272  1.00  0.00    -0.502 OA
ATOM     29  H   UNL     1      10.780 -10.933 -27.440  1.00  0.00     0.293 HD
ENDBRANCH  18  28
BRANCH  20  30
ATOM     30  O   UNL     1       9.895  -8.436 -29.400  1.00  0.00    -0.504 OA
ATOM     31  H   UNL     1       9.583  -8.319 -30.350  1.00  0.00     0.293 HD
ENDBRANCH  20  30
BRANCH  25  32
ATOM     32  C   UNL     1      14.073  -3.441 -29.203  1.00  0.00     0.017 A 
ATOM     33  C   UNL     1      15.224  -3.321 -28.407  1.00  0.00     0.012 A 
ATOM     34  C   UNL     1      13.621  -2.337 -29.944  1.00  0.00     0.012 A 
ATOM     35  C   UNL     1      15.930  -2.113 -28.375  1.00  0.00     0.001 A 
ATOM     36  C   UNL     1      14.326  -1.130 -29.904  1.00  0.00     0.001 A 
ATOM     37  C   UNL     1      15.483  -1.021 -29.124  1.00  0.00     0.000 A 
ENDBRANCH  25  32
ENDBRANCH   1  17
TORSDOF 9
ENDMDL
MODEL 4
REMARK VINA RESULT:    15.672      1.781      3.078
REMARK INTER + INTRA:          23.720
REMARK INTER:                  20.653
REMARK INTRA:                   3.066
REMARK UNBOUND:                 2.093
REMARK SMILES O=C([O-])[C@@H]1O[C@@H](Oc2cc3oc(-c4ccccc4)cc(=O)c3c(O)c2O)[C@H](O)[C@H](O)[C@@H]1O
REMARK SMILES IDX 7 1 6 2 4 3 31 4 5 5 29 6 27 7 2 8 1 9 3 10 32 11 30 13
REMARK SMILES IDX 28 15 8 17 25 18 9 19 23 20 10 21 22 22 11 23 20 24 12 25
REMARK SMILES IDX 19 26 21 27 26 28 24 30 13 32 14 33 18 34 15 35 17 36 16 37
REMARK H PARENT 32 12 30 14 28 16 26 29 24 31
REMARK Flexibility Score: inf
ROOT
ATOM      1  O   UNL     1      11.686  -9.928 -26.467  1.00  0.00    -0.458 OA
ENDROOT
BRANCH   1   2
ATOM      2  C   UNL     1      10.835 -10.932 -27.025  1.00  0.00     0.339 C 
ATOM      3  C   UNL     1      11.347 -12.425 -25.269  1.00  0.00     0.199 C 
ATOM      4  C   UNL     1      12.431 -13.093 -26.180  1.00  0.00     0.180 C 
ATOM      5  O   UNL     1      10.317 -11.780 -26.011  1.00  0.00    -0.328 OA
ATOM      6  C   UNL     1      11.969 -13.148 -27.644  1.00  0.00     0.181 C 
ATOM      7  C   UNL     1      11.599 -11.730 -28.117  1.00  0.00     0.214 C 
BRANCH   3   8
ATOM      8  C   UNL     1      10.707 -13.408 -24.322  1.00  0.00     0.073 C 
ATOM      9  O   UNL     1      10.494 -14.598 -24.680  1.00  0.00    -0.547 OA
ATOM     10  O   UNL     1      10.383 -13.002 -23.030  1.00  0.00    -0.547 OA
ENDBRANCH   3   8
BRANCH   4  11
ATOM     11  O   UNL     1      12.770 -14.390 -25.752  1.00  0.00    -0.387 OA
ATOM     12  H   UNL     1      12.293 -15.022 -26.340  1.00  0.00     0.211 HD
ENDBRANCH   4  11
BRANCH   6  13
ATOM     13  O   UNL     1      10.869 -14.014 -27.787  1.00  0.00    -0.387 OA
ATOM     14  H   UNL     1      10.857 -14.323 -28.735  1.00  0.00     0.211 HD
ENDBRANCH   6  13
BRANCH   7  15
ATOM     15  O   UNL     1      10.825 -11.802 -29.292  1.00  0.00    -0.384 OA
ATOM     16  H   UNL     1      10.429 -10.905 -29.427  1.00  0.00     0.211 HD
ENDBRANCH   7  15
ENDBRANCH   1   2
BRANCH   1  17
ATOM     17  C   UNL     1      12.635  -9.241 -27.224  1.00  0.00     0.172 A 
ATOM     18  C   UNL     1      13.676  -9.934 -27.865  1.00  0.00     0.201 A 
ATOM     19  C   UNL     1      12.497  -7.865 -27.393  1.00  0.00     0.098 A 
ATOM     20  C   UNL     1      14.599  -9.230 -28.683  1.00  0.00     0.176 A 
ATOM     21  C   UNL     1      13.387  -7.158 -28.206  1.00  0.00     0.146 A 
ATOM     22  C   UNL     1      14.444  -7.830 -28.863  1.00  0.00     0.111 A 
ATOM     23  O   UNL     1      13.202  -5.853 -28.389  1.00  0.00    -0.456 OA
ATOM     24  C   UNL     1      15.276  -7.065 -29.710  1.00  0.00     0.197 A 
ATOM     25  C   UNL     1      13.958  -5.114 -29.191  1.00  0.00     0.138 A 
ATOM     26  C   UNL     1      15.028  -5.702 -29.879  1.00  0.00     0.100 A 
ATOM     27  O   UNL     1      16.236  -7.593 -30.328  1.00  0.00    -0.289 OA
BRANCH  18  28
ATOM     28  O   UNL     1      13.752 -11.316 -27.688  1.00  0.00    -0.502 OA
ATOM     29  H   UNL     1      14.344 -11.765 -26.997  1.00  0.00     0.293 HD
ENDBRANCH  18  28
BRANCH  20  30
ATOM     30  O   UNL     1      15.662  -9.888 -29.310  1.00  0.00    -0.504 OA
ATOM     31  H   UNL     1      16.459  -9.422 -29.714  1.00  0.00     0.293 HD
ENDBRANCH  20  30
BRANCH  25  32
ATOM     32  C   UNL     1      13.648  -3.692 -29.375  1.00  0.00     0.017 A 
ATOM     33  C   UNL     1      14.382  -2.925 -30.296  1.00  0.00     0.012 A 
ATOM     34  C   UNL     1      12.660  -3.077 -28.588  1.00  0.00     0.012 A 
ATOM     35  C   UNL     1      14.111  -1.561 -30.443  1.00  0.00     0.001 A 
ATOM     36  C   UNL     1      12.397  -1.712 -28.735  1.00  0.00     0.001 A 
ATOM     37  C   UNL     1      13.119  -0.956 -29.666  1.00  0.00     0.000 A 
ENDBRANCH  25  32
ENDBRANCH   1  17
TORSDOF 9
ENDMDL
