MODEL 1
REMARK VINA RESULT:    -4.870      0.000      0.000
REMARK INTER + INTRA:          -7.387
REMARK INTER:                  -7.433
REMARK INTRA:                   0.045
REMARK UNBOUND:                 0.045
REMARK SMILES CC1=CCC[C@H](C)C(=O)C[C@H](C(C)C)C(=O)C1
REMARK SMILES IDX 8 1 9 2 6 3 7 4 5 5 4 6 3 7 2 8 1 9 10 11 11 12 15 13 16 14
REMARK SMILES IDX 17 15 12 17 13 18 14 19
REMARK H PARENT
REMARK Flexibility Score: 70.00
ROOT
ATOM      1  C   UNL     1     -13.714 -17.031  31.514  1.00  0.00     0.136 C 
ATOM      2  O   UNL     1     -14.058 -18.005  32.169  1.00  0.00    -0.299 OA
ENDROOT
BRANCH   1   3
ATOM      3  C   UNL     1     -13.450 -15.723  32.236  1.00  0.00     0.053 C 
ATOM      4  C   UNL     1     -14.766 -15.020  32.589  1.00  0.00     0.016 C 
BRANCH   3   5
ATOM      5  C   UNL     1     -12.580 -15.932  33.490  1.00  0.00     0.015 C 
BRANCH   5   6
ATOM      6  C   UNL     1     -11.076 -15.897  33.160  1.00  0.00     0.028 C 
BRANCH   6   7
ATOM      7  C   UNL     1     -10.624 -17.215  32.589  1.00  0.00    -0.028 C 
ATOM      8  C   UNL     1     -10.267 -17.410  31.298  1.00  0.00    -0.070 CG0
ATOM      9  C   UNL     1      -9.897 -18.807  30.869  1.00  0.00     0.039 C 
ATOM     10  G   UNL     1     -10.209 -16.285  30.276  1.00  0.00     0.000 G0
ENDBRANCH   6   7
ENDBRANCH   5   6
ENDBRANCH   3   5
ENDBRANCH   1   3
BRANCH   1  11
ATOM     11  C   UNL     1     -13.538 -17.188  30.020  1.00  0.00     0.087 C 
BRANCH  11  12
ATOM     12  C   UNL     1     -12.701 -16.033  29.402  1.00  0.00     0.066 C 
BRANCH  12  13
ATOM     13  C   UNL     1     -11.257 -16.458  29.175  1.00  0.00     0.140 C 
ATOM     14  O   UNL     1     -10.914 -16.887  28.082  1.00  0.00    -0.299 OA
BRANCH  13  15
ATOM     15  C   UNL     1     -10.214 -16.284  30.252  1.00  0.00     0.106 CG0
ATOM     16  G   UNL     1     -10.268 -17.395  31.291  1.00  0.00     0.000 G0
ENDBRANCH  13  15
ENDBRANCH  12  13
BRANCH  12  17
ATOM     17  C   UNL     1     -13.315 -15.455  28.087  1.00  0.00    -0.006 C 
ATOM     18  C   UNL     1     -13.879 -16.525  27.134  1.00  0.00     0.008 C 
ATOM     19  C   UNL     1     -14.391 -14.397  28.383  1.00  0.00     0.008 C 
ENDBRANCH  12  17
ENDBRANCH  11  12
ENDBRANCH   1  11
TORSDOF 1
ENDMDL
MODEL 2
REMARK VINA RESULT:    -4.547      1.928      4.108
REMARK INTER + INTRA:          -6.895
REMARK INTER:                  -6.639
REMARK INTRA:                  -0.255
REMARK UNBOUND:                 0.045
REMARK SMILES CC1=CCC[C@H](C)C(=O)C[C@H](C(C)C)C(=O)C1
REMARK SMILES IDX 8 1 9 2 6 3 7 4 5 5 4 6 3 7 2 8 1 9 10 11 11 12 15 13 16 14
REMARK SMILES IDX 17 15 12 17 13 18 14 19
REMARK H PARENT
REMARK Flexibility Score: 70.00
ROOT
ATOM      1  C   UNL     1     -12.512 -16.319  28.940  1.00  0.00     0.136 C 
ATOM      2  O   UNL     1     -11.340 -16.413  28.606  1.00  0.00    -0.299 OA
ENDROOT
BRANCH   1   3
ATOM      3  C   UNL     1     -13.520 -17.285  28.345  1.00  0.00     0.053 C 
ATOM      4  C   UNL     1     -13.966 -16.819  26.954  1.00  0.00     0.016 C 
BRANCH   3   5
ATOM      5  C   UNL     1     -12.968 -18.723  28.297  1.00  0.00     0.015 C 
BRANCH   5   6
ATOM      6  C   UNL     1     -13.373 -19.536  29.540  1.00  0.00     0.028 C 
BRANCH   6   7
ATOM      7  C   UNL     1     -12.234 -19.612  30.523  1.00  0.00    -0.028 C 
ATOM      8  C   UNL     1     -12.200 -18.961  31.709  1.00  0.00    -0.070 CG0
ATOM      9  C   UNL     1     -10.957 -19.092  32.552  1.00  0.00     0.039 C 
ATOM     10  G   UNL     1     -13.359 -18.123  32.227  1.00  0.00     0.000 G0
ENDBRANCH   6   7
ENDBRANCH   5   6
ENDBRANCH   3   5
ENDBRANCH   1   3
BRANCH   1  11
ATOM     11  C   UNL     1     -12.895 -15.264  29.953  1.00  0.00     0.087 C 
BRANCH  11  12
ATOM     12  C   UNL     1     -13.860 -15.814  31.040  1.00  0.00     0.066 C 
BRANCH  12  13
ATOM     13  C   UNL     1     -13.110 -16.632  32.082  1.00  0.00     0.140 C 
ATOM     14  O   UNL     1     -12.339 -16.075  32.852  1.00  0.00    -0.299 OA
BRANCH  13  15
ATOM     15  C   UNL     1     -13.359 -18.112  32.239  1.00  0.00     0.106 CG0
ATOM     16  G   UNL     1     -12.204 -18.949  31.711  1.00  0.00     0.000 G0
ENDBRANCH  13  15
ENDBRANCH  12  13
BRANCH  12  17
ATOM     17  C   UNL     1     -14.719 -14.705  31.728  1.00  0.00    -0.006 C 
ATOM     18  C   UNL     1     -15.517 -13.828  30.745  1.00  0.00     0.008 C 
ATOM     19  C   UNL     1     -15.663 -15.296  32.788  1.00  0.00     0.008 C 
ENDBRANCH  12  17
ENDBRANCH  11  12
ENDBRANCH   1  11
TORSDOF 1
ENDMDL
MODEL 3
REMARK VINA RESULT:    -4.504      2.208      3.640
REMARK INTER + INTRA:          -6.828
REMARK INTER:                  -6.988
REMARK INTRA:                   0.160
REMARK UNBOUND:                 0.045
REMARK SMILES CC1=CCC[C@H](C)C(=O)C[C@H](C(C)C)C(=O)C1
REMARK SMILES IDX 8 1 9 2 6 3 7 4 5 5 4 6 3 7 2 8 1 9 10 11 11 12 15 13 16 14
REMARK SMILES IDX 17 15 12 17 13 18 14 19
REMARK H PARENT
REMARK Flexibility Score: 70.00
ROOT
ATOM      1  C   UNL     1     -11.845 -18.699  29.896  1.00  0.00     0.136 C 
ATOM      2  O   UNL     1     -10.923 -19.365  30.345  1.00  0.00    -0.299 OA
ENDROOT
BRANCH   1   3
ATOM      3  C   UNL     1     -13.269 -19.118  30.209  1.00  0.00     0.053 C 
ATOM      4  C   UNL     1     -13.619 -20.432  29.499  1.00  0.00     0.016 C 
BRANCH   3   5
ATOM      5  C   UNL     1     -13.507 -19.229  31.727  1.00  0.00     0.015 C 
BRANCH   5   6
ATOM      6  C   UNL     1     -13.024 -17.975  32.479  1.00  0.00     0.028 C 
BRANCH   6   7
ATOM      7  C   UNL     1     -14.075 -16.896  32.450  1.00  0.00    -0.028 C 
ATOM      8  C   UNL     1     -13.987 -15.758  31.724  1.00  0.00    -0.070 CG0
ATOM      9  C   UNL     1     -15.099 -14.747  31.854  1.00  0.00     0.039 C 
ATOM     10  G   UNL     1     -12.830 -15.465  30.781  1.00  0.00     0.000 G0
ENDBRANCH   6   7
ENDBRANCH   5   6
ENDBRANCH   3   5
ENDBRANCH   1   3
BRANCH   1  11
ATOM     11  C   UNL     1     -11.519 -17.471  29.075  1.00  0.00     0.087 C 
BRANCH  11  12
ATOM     12  C   UNL     1     -12.793 -16.794  28.497  1.00  0.00     0.066 C 
BRANCH  12  13
ATOM     13  C   UNL     1     -13.192 -15.576  29.317  1.00  0.00     0.140 C 
ATOM     14  O   UNL     1     -13.883 -14.703  28.812  1.00  0.00    -0.299 OA
BRANCH  13  15
ATOM     15  C   UNL     1     -12.818 -15.460  30.775  1.00  0.00     0.106 CG0
ATOM     16  G   UNL     1     -13.995 -15.743  31.696  1.00  0.00     0.000 G0
ENDBRANCH  13  15
ENDBRANCH  12  13
BRANCH  12  17
ATOM     17  C   UNL     1     -12.666 -16.419  26.985  1.00  0.00    -0.006 C 
ATOM     18  C   UNL     1     -11.633 -17.262  26.214  1.00  0.00     0.008 C 
ATOM     19  C   UNL     1     -14.027 -16.476  26.272  1.00  0.00     0.008 C 
ENDBRANCH  12  17
ENDBRANCH  11  12
ENDBRANCH   1  11
TORSDOF 1
ENDMDL
MODEL 4
REMARK VINA RESULT:    -4.338      1.984      4.071
REMARK INTER + INTRA:          -6.575
REMARK INTER:                  -6.265
REMARK INTRA:                  -0.310
REMARK UNBOUND:                 0.045
REMARK SMILES CC1=CCC[C@H](C)C(=O)C[C@H](C(C)C)C(=O)C1
REMARK SMILES IDX 8 1 9 2 6 3 7 4 5 5 4 6 3 7 2 8 1 9 10 11 11 12 15 13 16 14
REMARK SMILES IDX 17 15 12 17 13 18 14 19
REMARK H PARENT
REMARK Flexibility Score: 70.00
ROOT
ATOM      1  C   UNL     1     -12.280 -18.536  31.907  1.00  0.00     0.136 C 
ATOM      2  O   UNL     1     -12.375 -19.735  32.127  1.00  0.00    -0.299 OA
ENDROOT
BRANCH   1   3
ATOM      3  C   UNL     1     -10.899 -17.909  31.869  1.00  0.00     0.053 C 
ATOM      4  C   UNL     1     -10.119 -18.229  33.150  1.00  0.00     0.016 C 
BRANCH   3   5
ATOM      5  C   UNL     1     -10.112 -18.345  30.618  1.00  0.00     0.015 C 
BRANCH   5   6
ATOM      6  C   UNL     1     -10.196 -17.299  29.491  1.00  0.00     0.028 C 
BRANCH   6   7
ATOM      7  C   UNL     1     -11.397 -17.552  28.617  1.00  0.00    -0.028 C 
ATOM      8  C   UNL     1     -12.487 -16.752  28.560  1.00  0.00    -0.070 CG0
ATOM      9  C   UNL     1     -13.634 -17.179  27.679  1.00  0.00     0.039 C 
ATOM     10  G   UNL     1     -12.596 -15.445  29.331  1.00  0.00     0.000 G0
ENDBRANCH   6   7
ENDBRANCH   5   6
ENDBRANCH   3   5
ENDBRANCH   1   3
BRANCH   1  11
ATOM     11  C   UNL     1     -13.542 -17.744  31.653  1.00  0.00     0.087 C 
BRANCH  11  12
ATOM     12  C   UNL     1     -13.306 -16.211  31.760  1.00  0.00     0.066 C 
BRANCH  12  13
ATOM     13  C   UNL     1     -13.621 -15.510  30.446  1.00  0.00     0.140 C 
ATOM     14  O   UNL     1     -14.688 -14.929  30.307  1.00  0.00    -0.299 OA
BRANCH  13  15
ATOM     15  C   UNL     1     -12.604 -15.449  29.332  1.00  0.00     0.106 CG0
ATOM     16  G   UNL     1     -12.510 -16.760  28.566  1.00  0.00     0.000 G0
ENDBRANCH  13  15
ENDBRANCH  12  13
BRANCH  12  17
ATOM     17  C   UNL     1     -14.086 -15.543  32.938  1.00  0.00    -0.006 C 
ATOM     18  C   UNL     1     -15.236 -16.402  33.497  1.00  0.00     0.008 C 
ATOM     19  C   UNL     1     -13.142 -15.126  34.077  1.00  0.00     0.008 C 
ENDBRANCH  12  17
ENDBRANCH  11  12
ENDBRANCH   1  11
TORSDOF 1
ENDMDL
MODEL 5
REMARK VINA RESULT:    -4.333      1.985      3.557
REMARK INTER + INTRA:          -6.568
REMARK INTER:                  -6.868
REMARK INTRA:                   0.300
REMARK UNBOUND:                 0.045
REMARK SMILES CC1=CCC[C@H](C)C(=O)C[C@H](C(C)C)C(=O)C1
REMARK SMILES IDX 8 1 9 2 6 3 7 4 5 5 4 6 3 7 2 8 1 9 10 11 11 12 15 13 16 14
REMARK SMILES IDX 17 15 12 17 13 18 14 19
REMARK H PARENT
REMARK Flexibility Score: 70.00
ROOT
ATOM      1  C   UNL     1     -12.857 -18.126  28.473  1.00  0.00     0.136 C 
ATOM      2  O   UNL     1     -11.849 -18.387  27.832  1.00  0.00    -0.299 OA
ENDROOT
BRANCH   1   3
ATOM      3  C   UNL     1     -13.435 -19.189  29.388  1.00  0.00     0.053 C 
ATOM      4  C   UNL     1     -14.375 -20.121  28.615  1.00  0.00     0.016 C 
BRANCH   3   5
ATOM      5  C   UNL     1     -12.327 -19.987  30.102  1.00  0.00     0.015 C 
BRANCH   5   6
ATOM      6  C   UNL     1     -11.915 -19.335  31.435  1.00  0.00     0.028 C 
BRANCH   6   7
ATOM      7  C   UNL     1     -13.106 -18.715  32.117  1.00  0.00    -0.028 C 
ATOM      8  C   UNL     1     -13.236 -17.396  32.387  1.00  0.00    -0.070 CG0
ATOM      9  C   UNL     1     -14.465 -16.943  33.134  1.00  0.00     0.039 C 
ATOM     10  G   UNL     1     -12.210 -16.358  31.957  1.00  0.00     0.000 G0
ENDBRANCH   6   7
ENDBRANCH   5   6
ENDBRANCH   3   5
ENDBRANCH   1   3
BRANCH   1  11
ATOM     11  C   UNL     1     -13.460 -16.744  28.346  1.00  0.00     0.087 C 
BRANCH  11  12
ATOM     12  C   UNL     1     -13.570 -16.022  29.717  1.00  0.00     0.066 C 
BRANCH  12  13
ATOM     13  C   UNL     1     -12.246 -16.055  30.468  1.00  0.00     0.140 C 
ATOM     14  O   UNL     1     -11.209 -15.772  29.884  1.00  0.00    -0.299 OA
BRANCH  13  15
ATOM     15  C   UNL     1     -12.195 -16.355  31.946  1.00  0.00     0.106 CG0
ATOM     16  G   UNL     1     -13.233 -17.388  32.360  1.00  0.00     0.000 G0
ENDBRANCH  13  15
ENDBRANCH  12  13
BRANCH  12  17
ATOM     17  C   UNL     1     -14.101 -14.556  29.607  1.00  0.00    -0.006 C 
ATOM     18  C   UNL     1     -14.659 -14.194  28.218  1.00  0.00     0.008 C 
ATOM     19  C   UNL     1     -15.148 -14.250  30.690  1.00  0.00     0.008 C 
ENDBRANCH  12  17
ENDBRANCH  11  12
ENDBRANCH   1  11
TORSDOF 1
ENDMDL
MODEL 6
REMARK VINA RESULT:    -4.277      1.944      3.637
REMARK INTER + INTRA:          -6.482
REMARK INTER:                  -6.518
REMARK INTRA:                   0.036
REMARK UNBOUND:                 0.045
REMARK SMILES CC1=CCC[C@H](C)C(=O)C[C@H](C(C)C)C(=O)C1
REMARK SMILES IDX 8 1 9 2 6 3 7 4 5 5 4 6 3 7 2 8 1 9 10 11 11 12 15 13 16 14
REMARK SMILES IDX 17 15 12 17 13 18 14 19
REMARK H PARENT
REMARK Flexibility Score: 70.00
ROOT
ATOM      1  C   UNL     1     -12.800 -16.563  32.702  1.00  0.00     0.136 C 
ATOM      2  O   UNL     1     -12.410 -15.709  33.486  1.00  0.00    -0.299 OA
ENDROOT
BRANCH   1   3
ATOM      3  C   UNL     1     -14.269 -16.591  32.326  1.00  0.00     0.053 C 
ATOM      4  C   UNL     1     -15.136 -16.949  33.539  1.00  0.00     0.016 C 
BRANCH   3   5
ATOM      5  C   UNL     1     -14.720 -15.259  31.696  1.00  0.00     0.015 C 
BRANCH   5   6
ATOM      6  C   UNL     1     -13.728 -14.762  30.629  1.00  0.00     0.028 C 
BRANCH   6   7
ATOM      7  C   UNL     1     -13.984 -15.438  29.306  1.00  0.00    -0.028 C 
ATOM      8  C   UNL     1     -13.025 -15.996  28.532  1.00  0.00    -0.070 CG0
ATOM      9  C   UNL     1     -13.438 -16.578  27.204  1.00  0.00     0.039 C 
ATOM     10  G   UNL     1     -11.564 -16.071  28.949  1.00  0.00     0.000 G0
ENDBRANCH   6   7
ENDBRANCH   5   6
ENDBRANCH   3   5
ENDBRANCH   1   3
BRANCH   1  11
ATOM     11  C   UNL     1     -11.791 -17.529  32.123  1.00  0.00     0.087 C 
BRANCH  11  12
ATOM     12  C   UNL     1     -12.165 -17.977  30.683  1.00  0.00     0.066 C 
BRANCH  12  13
ATOM     13  C   UNL     1     -11.221 -17.372  29.653  1.00  0.00     0.140 C 
ATOM     14  O   UNL     1     -10.205 -17.974  29.332  1.00  0.00    -0.299 OA
BRANCH  13  15
ATOM     15  C   UNL     1     -11.554 -16.075  28.957  1.00  0.00     0.106 CG0
ATOM     16  G   UNL     1     -13.015 -16.004  28.540  1.00  0.00     0.000 G0
ENDBRANCH  13  15
ENDBRANCH  12  13
BRANCH  12  17
ATOM     17  C   UNL     1     -12.239 -19.529  30.514  1.00  0.00    -0.006 C 
ATOM     18  C   UNL     1     -12.527 -20.290  31.821  1.00  0.00     0.008 C 
ATOM     19  C   UNL     1     -13.259 -19.933  29.436  1.00  0.00     0.008 C 
ENDBRANCH  12  17
ENDBRANCH  11  12
ENDBRANCH   1  11
TORSDOF 1
ENDMDL
MODEL 7
REMARK VINA RESULT:    -4.065      2.264      3.149
REMARK INTER + INTRA:          -6.158
REMARK INTER:                  -6.707
REMARK INTRA:                   0.548
REMARK UNBOUND:                 0.045
REMARK SMILES CC1=CCC[C@H](C)C(=O)C[C@H](C(C)C)C(=O)C1
REMARK SMILES IDX 8 1 9 2 6 3 7 4 5 5 4 6 3 7 2 8 1 9 10 11 11 12 15 13 16 14
REMARK SMILES IDX 17 15 12 17 13 18 14 19
REMARK H PARENT
REMARK Flexibility Score: 70.00
ROOT
ATOM      1  C   UNL     1     -11.556 -16.146  31.010  1.00  0.00     0.136 C 
ATOM      2  O   UNL     1     -10.427 -15.929  30.596  1.00  0.00    -0.299 OA
ENDROOT
BRANCH   1   3
ATOM      3  C   UNL     1     -11.721 -16.872  32.332  1.00  0.00     0.053 C 
ATOM      4  C   UNL     1     -12.983 -16.396  33.062  1.00  0.00     0.016 C 
BRANCH   3   5
ATOM      5  C   UNL     1     -11.734 -18.401  32.143  1.00  0.00     0.015 C 
BRANCH   5   6
ATOM      6  C   UNL     1     -13.163 -18.950  31.983  1.00  0.00     0.028 C 
BRANCH   6   7
ATOM      7  C   UNL     1     -13.226 -19.958  30.865  1.00  0.00    -0.028 C 
ATOM      8  C   UNL     1     -13.625 -19.681  29.602  1.00  0.00    -0.070 CG0
ATOM      9  C   UNL     1     -13.691 -20.818  28.615  1.00  0.00     0.039 C 
ATOM     10  G   UNL     1     -13.991 -18.278  29.140  1.00  0.00     0.000 G0
ENDBRANCH   6   7
ENDBRANCH   5   6
ENDBRANCH   3   5
ENDBRANCH   1   3
BRANCH   1  11
ATOM     11  C   UNL     1     -12.733 -15.654  30.198  1.00  0.00     0.087 C 
BRANCH  11  12
ATOM     12  C   UNL     1     -12.621 -16.051  28.699  1.00  0.00     0.066 C 
BRANCH  12  13
ATOM     13  C   UNL     1     -12.810 -17.549  28.509  1.00  0.00     0.140 C 
ATOM     14  O   UNL     1     -11.973 -18.194  27.892  1.00  0.00    -0.299 OA
BRANCH  13  15
ATOM     15  C   UNL     1     -13.975 -18.274  29.137  1.00  0.00     0.106 CG0
ATOM     16  G   UNL     1     -13.600 -19.675  29.597  1.00  0.00     0.000 G0
ENDBRANCH  13  15
ENDBRANCH  12  13
BRANCH  12  17
ATOM     17  C   UNL     1     -13.592 -15.253  27.771  1.00  0.00    -0.006 C 
ATOM     18  C   UNL     1     -14.383 -16.134  26.785  1.00  0.00     0.008 C 
ATOM     19  C   UNL     1     -14.560 -14.377  28.583  1.00  0.00     0.008 C 
ENDBRANCH  12  17
ENDBRANCH  11  12
ENDBRANCH   1  11
TORSDOF 1
ENDMDL
MODEL 8
REMARK VINA RESULT:    -3.985      2.060      3.316
REMARK INTER + INTRA:          -6.036
REMARK INTER:                  -6.663
REMARK INTRA:                   0.627
REMARK UNBOUND:                 0.045
REMARK SMILES CC1=CCC[C@H](C)C(=O)C[C@H](C(C)C)C(=O)C1
REMARK SMILES IDX 8 1 9 2 6 3 7 4 5 5 4 6 3 7 2 8 1 9 10 11 11 12 15 13 16 14
REMARK SMILES IDX 17 15 12 17 13 18 14 19
REMARK H PARENT
REMARK Flexibility Score: 70.00
ROOT
ATOM      1  C   UNL     1     -11.045 -16.104  31.003  1.00  0.00     0.136 C 
ATOM      2  O   UNL     1     -10.433 -15.353  30.258  1.00  0.00    -0.299 OA
ENDROOT
BRANCH   1   3
ATOM      3  C   UNL     1     -10.267 -16.904  32.031  1.00  0.00     0.053 C 
ATOM      4  C   UNL     1     -10.195 -16.153  33.366  1.00  0.00     0.016 C 
BRANCH   3   5
ATOM      5  C   UNL     1     -10.859 -18.314  32.220  1.00  0.00     0.015 C 
BRANCH   5   6
ATOM      6  C   UNL     1     -10.678 -19.187  30.966  1.00  0.00     0.028 C 
BRANCH   6   7
ATOM      7  C   UNL     1     -12.010 -19.671  30.455  1.00  0.00    -0.028 C 
ATOM      8  C   UNL     1     -12.683 -19.117  29.420  1.00  0.00    -0.070 CG0
ATOM      9  C   UNL     1     -14.037 -19.680  29.072  1.00  0.00     0.039 C 
ATOM     10  G   UNL     1     -12.127 -17.968  28.592  1.00  0.00     0.000 G0
ENDBRANCH   6   7
ENDBRANCH   5   6
ENDBRANCH   3   5
ENDBRANCH   1   3
BRANCH   1  11
ATOM     11  C   UNL     1     -12.551 -16.176  30.884  1.00  0.00     0.087 C 
BRANCH  11  12
ATOM     12  C   UNL     1     -13.055 -15.677  29.501  1.00  0.00     0.066 C 
BRANCH  12  13
ATOM     13  C   UNL     1     -13.072 -16.805  28.479  1.00  0.00     0.140 C 
ATOM     14  O   UNL     1     -13.823 -16.742  27.516  1.00  0.00    -0.299 OA
BRANCH  13  15
ATOM     15  C   UNL     1     -12.117 -17.969  28.586  1.00  0.00     0.106 CG0
ATOM     16  G   UNL     1     -12.692 -19.111  29.411  1.00  0.00     0.000 G0
ENDBRANCH  13  15
ENDBRANCH  12  13
BRANCH  12  17
ATOM     17  C   UNL     1     -14.450 -14.975  29.564  1.00  0.00    -0.006 C 
ATOM     18  C   UNL     1     -14.858 -14.515  30.977  1.00  0.00     0.008 C 
ATOM     19  C   UNL     1     -14.533 -13.793  28.584  1.00  0.00     0.008 C 
ENDBRANCH  12  17
ENDBRANCH  11  12
ENDBRANCH   1  11
TORSDOF 1
ENDMDL
MODEL 9
REMARK VINA RESULT:    -3.951      2.026      4.534
REMARK INTER + INTRA:          -5.985
REMARK INTER:                  -6.887
REMARK INTRA:                   0.902
REMARK UNBOUND:                 0.045
REMARK SMILES CC1=CCC[C@H](C)C(=O)C[C@H](C(C)C)C(=O)C1
REMARK SMILES IDX 8 1 9 2 6 3 7 4 5 5 4 6 3 7 2 8 1 9 10 11 11 12 15 13 16 14
REMARK SMILES IDX 17 15 12 17 13 18 14 19
REMARK H PARENT
REMARK Flexibility Score: 70.00
ROOT
ATOM      1  C   UNL     1     -13.213 -15.923  30.643  1.00  0.00     0.136 C 
ATOM      2  O   UNL     1     -14.244 -15.947  31.300  1.00  0.00    -0.299 OA
ENDROOT
BRANCH   1   3
ATOM      3  C   UNL     1     -13.311 -15.781  29.136  1.00  0.00     0.053 C 
ATOM      4  C   UNL     1     -14.154 -14.557  28.757  1.00  0.00     0.016 C 
BRANCH   3   5
ATOM      5  C   UNL     1     -11.919 -15.720  28.480  1.00  0.00     0.015 C 
BRANCH   5   6
ATOM      6  C   UNL     1     -11.479 -17.090  27.932  1.00  0.00     0.028 C 
BRANCH   6   7
ATOM      7  C   UNL     1     -12.582 -18.105  28.084  1.00  0.00    -0.028 C 
ATOM      8  C   UNL     1     -12.682 -18.981  29.109  1.00  0.00    -0.070 CG0
ATOM      9  C   UNL     1     -13.814 -19.977  29.082  1.00  0.00     0.039 C 
ATOM     10  G   UNL     1     -11.717 -18.993  30.285  1.00  0.00     0.000 G0
ENDBRANCH   6   7
ENDBRANCH   5   6
ENDBRANCH   3   5
ENDBRANCH   1   3
BRANCH   1  11
ATOM     11  C   UNL     1     -11.889 -16.004  31.370  1.00  0.00     0.087 C 
BRANCH  11  12
ATOM     12  C   UNL     1     -11.795 -17.258  32.284  1.00  0.00     0.066 C 
BRANCH  12  13
ATOM     13  C   UNL     1     -12.331 -18.496  31.579  1.00  0.00     0.140 C 
ATOM     14  O   UNL     1     -13.321 -19.065  32.019  1.00  0.00    -0.299 OA
BRANCH  13  15
ATOM     15  C   UNL     1     -11.710 -18.993  30.297  1.00  0.00     0.106 CG0
ATOM     16  G   UNL     1     -12.692 -18.971  29.135  1.00  0.00     0.000 G0
ENDBRANCH  13  15
ENDBRANCH  12  13
BRANCH  12  17
ATOM     17  C   UNL     1     -10.356 -17.519  32.835  1.00  0.00    -0.006 C 
ATOM     18  C   UNL     1      -9.875 -16.473  33.857  1.00  0.00     0.008 C 
ATOM     19  C   UNL     1     -10.226 -18.932  33.428  1.00  0.00     0.008 C 
ENDBRANCH  12  17
ENDBRANCH  11  12
ENDBRANCH   1  11
TORSDOF 1
ENDMDL
