MODEL 1
REMARK VINA RESULT:    -4.290      0.000      0.000
REMARK INTER + INTRA:          -6.685
REMARK INTER:                  -6.547
REMARK INTRA:                  -0.139
REMARK UNBOUND:                -0.139
REMARK SMILES CC1=CCC[C@@H](C)C(=O)C[C@H](C(C)C)C(=O)C1
REMARK SMILES IDX 8 1 9 2 6 3 7 4 5 5 4 6 3 7 2 8 1 9 10 11 11 12 15 13 16 14
REMARK SMILES IDX 17 15 12 17 13 18 14 19
REMARK H PARENT
REMARK Flexibility Score: 70.00
ROOT
ATOM      1  C   UNL     1      15.627 -20.479 -21.374  1.00  0.00     0.136 C 
ATOM      2  O   UNL     1      16.688 -19.955 -21.689  1.00  0.00    -0.299 OA
ENDROOT
BRANCH   1   3
ATOM      3  C   UNL     1      15.015 -21.530 -22.281  1.00  0.00     0.053 C 
ATOM      4  C   UNL     1      15.861 -22.810 -22.265  1.00  0.00     0.016 C 
BRANCH   3   5
ATOM      5  C   UNL     1      14.867 -20.984 -23.720  1.00  0.00     0.015 C 
BRANCH   5   6
ATOM      6  C   UNL     1      13.514 -20.272 -23.920  1.00  0.00     0.028 C 
BRANCH   6   7
ATOM      7  C   UNL     1      13.607 -18.772 -23.793  1.00  0.00    -0.028 C 
ATOM      8  C   UNL     1      13.148 -18.042 -22.746  1.00  0.00    -0.070 CG0
ATOM      9  C   UNL     1      13.244 -16.540 -22.847  1.00  0.00     0.039 C 
ATOM     10  G   UNL     1      12.591 -18.656 -21.468  1.00  0.00     0.000 G0
ENDBRANCH   6   7
ENDBRANCH   5   6
ENDBRANCH   3   5
ENDBRANCH   1   3
BRANCH   1  11
ATOM     11  C   UNL     1      14.965 -20.070 -20.077  1.00  0.00     0.087 C 
BRANCH  11  12
ATOM     12  C   UNL     1      14.757 -18.535 -19.980  1.00  0.00     0.066 C 
BRANCH  12  13
ATOM     13  C   UNL     1      13.300 -18.160 -20.208  1.00  0.00     0.140 C 
ATOM     14  O   UNL     1      12.719 -17.429 -19.419  1.00  0.00    -0.299 OA
BRANCH  13  15
ATOM     15  C   UNL     1      12.582 -18.641 -21.446  1.00  0.00     0.106 CG0
ATOM     16  G   UNL     1      13.136 -18.066 -22.744  1.00  0.00     0.000 G0
ENDBRANCH  13  15
ENDBRANCH  12  13
BRANCH  12  17
ATOM     17  C   UNL     1      15.320 -17.913 -18.660  1.00  0.00    -0.006 C 
ATOM     18  C   UNL     1      15.121 -18.804 -17.418  1.00  0.00     0.008 C 
ATOM     19  C   UNL     1      16.806 -17.542 -18.798  1.00  0.00     0.008 C 
ENDBRANCH  12  17
ENDBRANCH  11  12
ENDBRANCH   1  11
TORSDOF 1
ENDMDL
MODEL 2
REMARK VINA RESULT:    -4.005      2.284      4.471
REMARK INTER + INTRA:          -6.251
REMARK INTER:                  -6.192
REMARK INTRA:                  -0.059
REMARK UNBOUND:                -0.139
REMARK SMILES CC1=CCC[C@@H](C)C(=O)C[C@H](C(C)C)C(=O)C1
REMARK SMILES IDX 8 1 9 2 6 3 7 4 5 5 4 6 3 7 2 8 1 9 10 11 11 12 15 13 16 14
REMARK SMILES IDX 17 15 12 17 13 18 14 19
REMARK H PARENT
REMARK Flexibility Score: 70.00
ROOT
ATOM      1  C   UNL     1      10.885 -17.912 -21.526  1.00  0.00     0.136 C 
ATOM      2  O   UNL     1      10.538 -18.594 -20.571  1.00  0.00    -0.299 OA
ENDROOT
BRANCH   1   3
ATOM      3  C   UNL     1       9.831 -17.301 -22.430  1.00  0.00     0.053 C 
ATOM      4  C   UNL     1       8.823 -18.368 -22.876  1.00  0.00     0.016 C 
BRANCH   3   5
ATOM      5  C   UNL     1      10.493 -16.622 -23.652  1.00  0.00     0.015 C 
BRANCH   5   6
ATOM      6  C   UNL     1      10.525 -17.561 -24.874  1.00  0.00     0.028 C 
BRANCH   6   7
ATOM      7  C   UNL     1      11.831 -17.512 -25.627  1.00  0.00    -0.028 C 
ATOM      8  C   UNL     1      12.909 -18.298 -25.384  1.00  0.00    -0.070 CG0
ATOM      9  C   UNL     1      14.161 -18.032 -26.180  1.00  0.00     0.039 C 
ATOM     10  G   UNL     1      12.903 -19.454 -24.391  1.00  0.00     0.000 G0
ENDBRANCH   6   7
ENDBRANCH   5   6
ENDBRANCH   3   5
ENDBRANCH   1   3
BRANCH   1  11
ATOM     11  C   UNL     1      12.362 -17.687 -21.768  1.00  0.00     0.087 C 
BRANCH  11  12
ATOM     12  C   UNL     1      13.160 -19.018 -21.809  1.00  0.00     0.066 C 
BRANCH  12  13
ATOM     13  C   UNL     1      13.792 -19.240 -23.175  1.00  0.00     0.140 C 
ATOM     14  O   UNL     1      15.007 -19.296 -23.294  1.00  0.00    -0.299 OA
BRANCH  13  15
ATOM     15  C   UNL     1      12.914 -19.456 -24.385  1.00  0.00     0.106 CG0
ATOM     16  G   UNL     1      12.944 -18.305 -25.383  1.00  0.00     0.000 G0
ENDBRANCH  13  15
ENDBRANCH  12  13
BRANCH  12  17
ATOM     17  C   UNL     1      14.207 -19.150 -20.654  1.00  0.00    -0.006 C 
ATOM     18  C   UNL     1      13.819 -18.390 -19.372  1.00  0.00     0.008 C 
ATOM     19  C   UNL     1      14.494 -20.623 -20.317  1.00  0.00     0.008 C 
ENDBRANCH  12  17
ENDBRANCH  11  12
ENDBRANCH   1  11
TORSDOF 1
ENDMDL
MODEL 3
REMARK VINA RESULT:    -3.859      1.478      4.173
REMARK INTER + INTRA:          -6.027
REMARK INTER:                  -5.799
REMARK INTRA:                  -0.228
REMARK UNBOUND:                -0.139
REMARK SMILES CC1=CCC[C@@H](C)C(=O)C[C@H](C(C)C)C(=O)C1
REMARK SMILES IDX 8 1 9 2 6 3 7 4 5 5 4 6 3 7 2 8 1 9 10 11 11 12 15 13 16 14
REMARK SMILES IDX 17 15 12 17 13 18 14 19
REMARK H PARENT
REMARK Flexibility Score: 70.00
ROOT
ATOM      1  C   UNL     1      15.246 -19.518 -20.066  1.00  0.00     0.136 C 
ATOM      2  O   UNL     1      14.834 -20.413 -19.339  1.00  0.00    -0.299 OA
ENDROOT
BRANCH   1   3
ATOM      3  C   UNL     1      14.875 -18.079 -19.762  1.00  0.00     0.053 C 
ATOM      4  C   UNL     1      15.545 -17.615 -18.461  1.00  0.00     0.016 C 
BRANCH   3   5
ATOM      5  C   UNL     1      13.339 -17.922 -19.676  1.00  0.00     0.015 C 
BRANCH   5   6
ATOM      6  C   UNL     1      12.665 -18.183 -21.037  1.00  0.00     0.028 C 
BRANCH   6   7
ATOM      7  C   UNL     1      13.012 -17.149 -22.080  1.00  0.00    -0.028 C 
ATOM      8  C   UNL     1      13.572 -17.407 -23.287  1.00  0.00    -0.070 CG0
ATOM      9  C   UNL     1      13.937 -16.229 -24.155  1.00  0.00     0.039 C 
ATOM     10  G   UNL     1      13.807 -18.814 -23.826  1.00  0.00     0.000 G0
ENDBRANCH   6   7
ENDBRANCH   5   6
ENDBRANCH   3   5
ENDBRANCH   1   3
BRANCH   1  11
ATOM     11  C   UNL     1      16.128 -19.876 -21.241  1.00  0.00     0.087 C 
BRANCH  11  12
ATOM     12  C   UNL     1      15.314 -20.429 -22.441  1.00  0.00     0.066 C 
BRANCH  12  13
ATOM     13  C   UNL     1      15.168 -19.384 -23.538  1.00  0.00     0.140 C 
ATOM     14  O   UNL     1      16.138 -19.041 -24.199  1.00  0.00    -0.299 OA
BRANCH  13  15
ATOM     15  C   UNL     1      13.809 -18.808 -23.855  1.00  0.00     0.106 CG0
ATOM     16  G   UNL     1      13.574 -17.420 -23.273  1.00  0.00     0.000 G0
ENDBRANCH  13  15
ENDBRANCH  12  13
BRANCH  12  17
ATOM     17  C   UNL     1      15.866 -21.783 -22.996  1.00  0.00    -0.006 C 
ATOM     18  C   UNL     1      15.718 -22.964 -22.017  1.00  0.00     0.008 C 
ATOM     19  C   UNL     1      15.223 -22.145 -24.345  1.00  0.00     0.008 C 
ENDBRANCH  12  17
ENDBRANCH  11  12
ENDBRANCH   1  11
TORSDOF 1
ENDMDL
MODEL 4
REMARK VINA RESULT:    -3.817      2.891      5.484
REMARK INTER + INTRA:          -5.964
REMARK INTER:                  -5.651
REMARK INTRA:                  -0.313
REMARK UNBOUND:                -0.139
REMARK SMILES CC1=CCC[C@@H](C)C(=O)C[C@H](C(C)C)C(=O)C1
REMARK SMILES IDX 8 1 9 2 6 3 7 4 5 5 4 6 3 7 2 8 1 9 10 11 11 12 15 13 16 14
REMARK SMILES IDX 17 15 12 17 13 18 14 19
REMARK H PARENT
REMARK Flexibility Score: 70.00
ROOT
ATOM      1  C   UNL     1      13.881 -15.943 -24.284  1.00  0.00     0.136 C 
ATOM      2  O   UNL     1      14.173 -16.263 -25.429  1.00  0.00    -0.299 OA
ENDROOT
BRANCH   1   3
ATOM      3  C   UNL     1      14.985 -15.609 -23.298  1.00  0.00     0.053 C 
ATOM      4  C   UNL     1      15.689 -14.307 -23.702  1.00  0.00     0.016 C 
BRANCH   3   5
ATOM      5  C   UNL     1      15.996 -16.776 -23.201  1.00  0.00     0.015 C 
BRANCH   5   6
ATOM      6  C   UNL     1      15.387 -17.996 -22.482  1.00  0.00     0.028 C 
BRANCH   6   7
ATOM      7  C   UNL     1      14.711 -17.643 -21.180  1.00  0.00    -0.028 C 
ATOM      8  C   UNL     1      13.406 -17.863 -20.888  1.00  0.00    -0.070 CG0
ATOM      9  C   UNL     1      12.889 -17.349 -19.567  1.00  0.00     0.039 C 
ATOM     10  G   UNL     1      12.456 -18.636 -21.794  1.00  0.00     0.000 G0
ENDBRANCH   6   7
ENDBRANCH   5   6
ENDBRANCH   3   5
ENDBRANCH   1   3
BRANCH   1  11
ATOM     11  C   UNL     1      12.422 -15.877 -23.890  1.00  0.00     0.087 C 
BRANCH  11  12
ATOM     12  C   UNL     1      11.741 -17.272 -23.919  1.00  0.00     0.066 C 
BRANCH  12  13
ATOM     13  C   UNL     1      11.434 -17.764 -22.512  1.00  0.00     0.140 C 
ATOM     14  O   UNL     1      10.360 -17.508 -21.987  1.00  0.00    -0.299 OA
BRANCH  13  15
ATOM     15  C   UNL     1      12.434 -18.627 -21.780  1.00  0.00     0.106 CG0
ATOM     16  G   UNL     1      13.390 -17.845 -20.888  1.00  0.00     0.000 G0
ENDBRANCH  13  15
ENDBRANCH  12  13
BRANCH  12  17
ATOM     17  C   UNL     1      10.482 -17.330 -24.845  1.00  0.00    -0.006 C 
ATOM     18  C   UNL     1      10.672 -16.621 -26.200  1.00  0.00     0.008 C 
ATOM     19  C   UNL     1      10.018 -18.777 -25.078  1.00  0.00     0.008 C 
ENDBRANCH  12  17
ENDBRANCH  11  12
ENDBRANCH   1  11
TORSDOF 1
ENDMDL
MODEL 5
REMARK VINA RESULT:    -3.678      1.805      4.726
REMARK INTER + INTRA:          -5.752
REMARK INTER:                  -5.537
REMARK INTRA:                  -0.215
REMARK UNBOUND:                -0.139
REMARK SMILES CC1=CCC[C@@H](C)C(=O)C[C@H](C(C)C)C(=O)C1
REMARK SMILES IDX 8 1 9 2 6 3 7 4 5 5 4 6 3 7 2 8 1 9 10 11 11 12 15 13 16 14
REMARK SMILES IDX 17 15 12 17 13 18 14 19
REMARK H PARENT
REMARK Flexibility Score: 70.00
ROOT
ATOM      1  C   UNL     1      12.489 -18.348 -19.793  1.00  0.00     0.136 C 
ATOM      2  O   UNL     1      11.705 -17.538 -19.315  1.00  0.00    -0.299 OA
ENDROOT
BRANCH   1   3
ATOM      3  C   UNL     1      13.762 -18.688 -19.042  1.00  0.00     0.053 C 
ATOM      4  C   UNL     1      14.735 -17.500 -19.071  1.00  0.00     0.016 C 
BRANCH   3   5
ATOM      5  C   UNL     1      14.421 -19.954 -19.636  1.00  0.00     0.015 C 
BRANCH   5   6
ATOM      6  C   UNL     1      15.751 -19.624 -20.342  1.00  0.00     0.028 C 
BRANCH   6   7
ATOM      7  C   UNL     1      16.070 -20.564 -21.478  1.00  0.00    -0.028 C 
ATOM      8  C   UNL     1      15.705 -20.386 -22.772  1.00  0.00    -0.070 CG0
ATOM      9  C   UNL     1      16.033 -21.488 -23.748  1.00  0.00     0.039 C 
ATOM     10  G   UNL     1      15.031 -19.123 -23.293  1.00  0.00     0.000 G0
ENDBRANCH   6   7
ENDBRANCH   5   6
ENDBRANCH   3   5
ENDBRANCH   1   3
BRANCH   1  11
ATOM     11  C   UNL     1      12.153 -18.999 -21.117  1.00  0.00     0.087 C 
BRANCH  11  12
ATOM     12  C   UNL     1      12.763 -18.232 -22.321  1.00  0.00     0.066 C 
BRANCH  12  13
ATOM     13  C   UNL     1      13.513 -19.173 -23.252  1.00  0.00     0.140 C 
ATOM     14  O   UNL     1      12.900 -19.931 -23.990  1.00  0.00    -0.299 OA
BRANCH  13  15
ATOM     15  C   UNL     1      15.021 -19.131 -23.312  1.00  0.00     0.106 CG0
ATOM     16  G   UNL     1      15.696 -20.395 -22.792  1.00  0.00     0.000 G0
ENDBRANCH  13  15
ENDBRANCH  12  13
BRANCH  12  17
ATOM     17  C   UNL     1      11.720 -17.357 -23.092  1.00  0.00    -0.006 C 
ATOM     18  C   UNL     1      10.329 -17.319 -22.431  1.00  0.00     0.008 C 
ATOM     19  C   UNL     1      12.233 -15.923 -23.303  1.00  0.00     0.008 C 
ENDBRANCH  12  17
ENDBRANCH  11  12
ENDBRANCH   1  11
TORSDOF 1
ENDMDL
MODEL 6
REMARK VINA RESULT:    -3.645      2.177      3.812
REMARK INTER + INTRA:          -5.702
REMARK INTER:                  -5.424
REMARK INTRA:                  -0.278
REMARK UNBOUND:                -0.139
REMARK SMILES CC1=CCC[C@@H](C)C(=O)C[C@H](C(C)C)C(=O)C1
REMARK SMILES IDX 8 1 9 2 6 3 7 4 5 5 4 6 3 7 2 8 1 9 10 11 11 12 15 13 16 14
REMARK SMILES IDX 17 15 12 17 13 18 14 19
REMARK H PARENT
REMARK Flexibility Score: 70.00
ROOT
ATOM      1  C   UNL     1      11.995 -17.949 -21.513  1.00  0.00     0.136 C 
ATOM      2  O   UNL     1      11.185 -18.641 -20.910  1.00  0.00    -0.299 OA
ENDROOT
BRANCH   1   3
ATOM      3  C   UNL     1      11.708 -17.542 -22.946  1.00  0.00     0.053 C 
ATOM      4  C   UNL     1      10.238 -17.131 -23.103  1.00  0.00     0.016 C 
BRANCH   3   5
ATOM      5  C   UNL     1      12.067 -18.690 -23.917  1.00  0.00     0.015 C 
BRANCH   5   6
ATOM      6  C   UNL     1      13.230 -18.302 -24.850  1.00  0.00     0.028 C 
BRANCH   6   7
ATOM      7  C   UNL     1      13.643 -16.857 -24.717  1.00  0.00    -0.028 C 
ATOM      8  C   UNL     1      14.702 -16.405 -24.000  1.00  0.00    -0.070 CG0
ATOM      9  C   UNL     1      14.896 -14.913 -23.906  1.00  0.00     0.039 C 
ATOM     10  G   UNL     1      15.721 -17.320 -23.332  1.00  0.00     0.000 G0
ENDBRANCH   6   7
ENDBRANCH   5   6
ENDBRANCH   3   5
ENDBRANCH   1   3
BRANCH   1  11
ATOM     11  C   UNL     1      13.254 -17.506 -20.801  1.00  0.00     0.087 C 
BRANCH  11  12
ATOM     12  C   UNL     1      14.496 -18.329 -21.236  1.00  0.00     0.066 C 
BRANCH  12  13
ATOM     13  C   UNL     1      15.578 -17.430 -21.817  1.00  0.00     0.140 C 
ATOM     14  O   UNL     1      16.354 -16.840 -21.079  1.00  0.00    -0.299 OA
BRANCH  13  15
ATOM     15  C   UNL     1      15.737 -17.311 -23.314  1.00  0.00     0.106 CG0
ATOM     16  G   UNL     1      14.705 -16.406 -23.975  1.00  0.00     0.000 G0
ENDBRANCH  13  15
ENDBRANCH  12  13
BRANCH  12  17
ATOM     17  C   UNL     1      15.053 -19.258 -20.108  1.00  0.00    -0.006 C 
ATOM     18  C   UNL     1      14.783 -18.737 -18.683  1.00  0.00     0.008 C 
ATOM     19  C   UNL     1      14.521 -20.694 -20.244  1.00  0.00     0.008 C 
ENDBRANCH  12  17
ENDBRANCH  11  12
ENDBRANCH   1  11
TORSDOF 1
ENDMDL
MODEL 7
REMARK VINA RESULT:    -3.621      2.042      2.735
REMARK INTER + INTRA:          -5.664
REMARK INTER:                  -5.345
REMARK INTRA:                  -0.319
REMARK UNBOUND:                -0.139
REMARK SMILES CC1=CCC[C@@H](C)C(=O)C[C@H](C(C)C)C(=O)C1
REMARK SMILES IDX 8 1 9 2 6 3 7 4 5 5 4 6 3 7 2 8 1 9 10 11 11 12 15 13 16 14
REMARK SMILES IDX 17 15 12 17 13 18 14 19
REMARK H PARENT
REMARK Flexibility Score: 70.00
ROOT
ATOM      1  C   UNL     1      14.832 -20.482 -21.361  1.00  0.00     0.136 C 
ATOM      2  O   UNL     1      14.954 -21.116 -20.321  1.00  0.00    -0.299 OA
ENDROOT
BRANCH   1   3
ATOM      3  C   UNL     1      15.691 -20.841 -22.559  1.00  0.00     0.053 C 
ATOM      4  C   UNL     1      15.596 -22.344 -22.855  1.00  0.00     0.016 C 
BRANCH   3   5
ATOM      5  C   UNL     1      17.158 -20.418 -22.320  1.00  0.00     0.015 C 
BRANCH   5   6
ATOM      6  C   UNL     1      17.444 -19.014 -22.889  1.00  0.00     0.028 C 
BRANCH   6   7
ATOM      7  C   UNL     1      16.618 -18.688 -24.109  1.00  0.00    -0.028 C 
ATOM      8  C   UNL     1      15.701 -17.693 -24.195  1.00  0.00    -0.070 CG0
ATOM      9  C   UNL     1      14.903 -17.586 -25.470  1.00  0.00     0.039 C 
ATOM     10  G   UNL     1      15.471 -16.660 -23.099  1.00  0.00     0.000 G0
ENDBRANCH   6   7
ENDBRANCH   5   6
ENDBRANCH   3   5
ENDBRANCH   1   3
BRANCH   1  11
ATOM     11  C   UNL     1      13.814 -19.365 -21.424  1.00  0.00     0.087 C 
BRANCH  11  12
ATOM     12  C   UNL     1      14.430 -17.986 -21.065  1.00  0.00     0.066 C 
BRANCH  12  13
ATOM     13  C   UNL     1      14.269 -16.996 -22.209  1.00  0.00     0.140 C 
ATOM     14  O   UNL     1      13.202 -16.426 -22.389  1.00  0.00    -0.299 OA
BRANCH  13  15
ATOM     15  C   UNL     1      15.448 -16.666 -23.093  1.00  0.00     0.106 CG0
ATOM     16  G   UNL     1      15.705 -17.691 -24.190  1.00  0.00     0.000 G0
ENDBRANCH  13  15
ENDBRANCH  12  13
BRANCH  12  17
ATOM     17  C   UNL     1      13.905 -17.404 -19.712  1.00  0.00    -0.006 C 
ATOM     18  C   UNL     1      12.465 -17.829 -19.368  1.00  0.00     0.008 C 
ATOM     19  C   UNL     1      14.842 -17.757 -18.544  1.00  0.00     0.008 C 
ENDBRANCH  12  17
ENDBRANCH  11  12
ENDBRANCH   1  11
TORSDOF 1
ENDMDL
MODEL 8
REMARK VINA RESULT:    -3.560      2.255      4.558
REMARK INTER + INTRA:          -5.571
REMARK INTER:                  -5.465
REMARK INTRA:                  -0.107
REMARK UNBOUND:                -0.139
REMARK SMILES CC1=CCC[C@@H](C)C(=O)C[C@H](C(C)C)C(=O)C1
REMARK SMILES IDX 8 1 9 2 6 3 7 4 5 5 4 6 3 7 2 8 1 9 10 11 11 12 15 13 16 14
REMARK SMILES IDX 17 15 12 17 13 18 14 19
REMARK H PARENT
REMARK Flexibility Score: 70.00
ROOT
ATOM      1  C   UNL     1      13.318 -18.641 -20.077  1.00  0.00     0.136 C 
ATOM      2  O   UNL     1      12.734 -17.800 -19.406  1.00  0.00    -0.299 OA
ENDROOT
BRANCH   1   3
ATOM      3  C   UNL     1      14.548 -19.325 -19.512  1.00  0.00     0.053 C 
ATOM      4  C   UNL     1      14.994 -18.639 -18.213  1.00  0.00     0.016 C 
BRANCH   3   5
ATOM      5  C   UNL     1      15.692 -19.331 -20.553  1.00  0.00     0.015 C 
BRANCH   5   6
ATOM      6  C   UNL     1      16.237 -17.911 -20.805  1.00  0.00     0.028 C 
BRANCH   6   7
ATOM      7  C   UNL     1      16.830 -17.737 -22.181  1.00  0.00    -0.028 C 
ATOM      8  C   UNL     1      16.184 -17.222 -23.256  1.00  0.00    -0.070 CG0
ATOM      9  C   UNL     1      16.915 -17.221 -24.575  1.00  0.00     0.039 C 
ATOM     10  G   UNL     1      14.791 -16.608 -23.190  1.00  0.00     0.000 G0
ENDBRANCH   6   7
ENDBRANCH   5   6
ENDBRANCH   3   5
ENDBRANCH   1   3
BRANCH   1  11
ATOM     11  C   UNL     1      12.782 -18.984 -21.450  1.00  0.00     0.087 C 
BRANCH  11  12
ATOM     12  C   UNL     1      12.570 -17.724 -22.330  1.00  0.00     0.066 C 
BRANCH  12  13
ATOM     13  C   UNL     1      13.659 -17.598 -23.386  1.00  0.00     0.140 C 
ATOM     14  O   UNL     1      13.607 -18.263 -24.411  1.00  0.00    -0.299 OA
BRANCH  13  15
ATOM     15  C   UNL     1      14.780 -16.604 -23.199  1.00  0.00     0.106 CG0
ATOM     16  G   UNL     1      16.171 -17.222 -23.265  1.00  0.00     0.000 G0
ENDBRANCH  13  15
ENDBRANCH  12  13
BRANCH  12  17
ATOM     17  C   UNL     1      11.139 -17.636 -22.955  1.00  0.00    -0.006 C 
ATOM     18  C   UNL     1      10.001 -17.704 -21.919  1.00  0.00     0.008 C 
ATOM     19  C   UNL     1      10.976 -16.376 -23.821  1.00  0.00     0.008 C 
ENDBRANCH  12  17
ENDBRANCH  11  12
ENDBRANCH   1  11
TORSDOF 1
ENDMDL
MODEL 9
REMARK VINA RESULT:    -3.551      2.733      4.841
REMARK INTER + INTRA:          -5.557
REMARK INTER:                  -5.135
REMARK INTRA:                  -0.423
REMARK UNBOUND:                -0.139
REMARK SMILES CC1=CCC[C@@H](C)C(=O)C[C@H](C(C)C)C(=O)C1
REMARK SMILES IDX 8 1 9 2 6 3 7 4 5 5 4 6 3 7 2 8 1 9 10 11 11 12 15 13 16 14
REMARK SMILES IDX 17 15 12 17 13 18 14 19
REMARK H PARENT
REMARK Flexibility Score: 70.00
ROOT
ATOM      1  C   UNL     1      11.176 -17.583 -22.385  1.00  0.00     0.136 C 
ATOM      2  O   UNL     1      10.745 -18.270 -21.468  1.00  0.00    -0.299 OA
ENDROOT
BRANCH   1   3
ATOM      3  C   UNL     1      10.338 -17.393 -23.635  1.00  0.00     0.053 C 
ATOM      4  C   UNL     1      10.707 -18.441 -24.693  1.00  0.00     0.016 C 
BRANCH   3   5
ATOM      5  C   UNL     1      10.513 -15.961 -24.192  1.00  0.00     0.015 C 
BRANCH   5   6
ATOM      6  C   UNL     1      11.168 -15.971 -25.588  1.00  0.00     0.028 C 
BRANCH   6   7
ATOM      7  C   UNL     1      12.345 -15.035 -25.699  1.00  0.00    -0.028 C 
ATOM      8  C   UNL     1      13.639 -15.366 -25.465  1.00  0.00    -0.070 CG0
ATOM      9  C   UNL     1      14.666 -14.264 -25.532  1.00  0.00     0.039 C 
ATOM     10  G   UNL     1      14.109 -16.789 -25.187  1.00  0.00     0.000 G0
ENDBRANCH   6   7
ENDBRANCH   5   6
ENDBRANCH   3   5
ENDBRANCH   1   3
BRANCH   1  11
ATOM     11  C   UNL     1      12.533 -16.931 -22.235  1.00  0.00     0.087 C 
BRANCH  11  12
ATOM     12  C   UNL     1      13.676 -17.814 -22.803  1.00  0.00     0.066 C 
BRANCH  12  13
ATOM     13  C   UNL     1      14.566 -17.023 -23.751  1.00  0.00     0.140 C 
ATOM     14  O   UNL     1      15.660 -16.621 -23.383  1.00  0.00    -0.299 OA
BRANCH  13  15
ATOM     15  C   UNL     1      14.125 -16.785 -25.175  1.00  0.00     0.106 CG0
ATOM     16  G   UNL     1      13.644 -15.364 -25.444  1.00  0.00     0.000 G0
ENDBRANCH  13  15
ENDBRANCH  12  13
BRANCH  12  17
ATOM     17  C   UNL     1      14.507 -18.542 -21.695  1.00  0.00    -0.006 C 
ATOM     18  C   UNL     1      14.431 -17.865 -20.314  1.00  0.00     0.008 C 
ATOM     19  C   UNL     1      14.106 -20.021 -21.569  1.00  0.00     0.008 C 
ENDBRANCH  12  17
ENDBRANCH  11  12
ENDBRANCH   1  11
TORSDOF 1
ENDMDL
