MODEL 1
REMARK VINA RESULT:    -5.725      0.000      0.000
REMARK INTER + INTRA:          -6.290
REMARK INTER:                  -6.227
REMARK INTRA:                  -0.063
REMARK UNBOUND:                -0.063
REMARK SMILES COc1cc2ccc(=O)oc2cc1O
REMARK SMILES IDX 3 1 13 2 12 3 11 4 5 5 4 6 6 7 7 8 8 9 9 10 10 11 2 12 1 13
REMARK SMILES IDX 14 14
REMARK H PARENT 14 15
REMARK Flexibility Score: inf
ROOT
ATOM      1  C   UNL     1      16.208  18.968  18.494  1.00  0.00     0.161 A 
ATOM      2  C   UNL     1      15.058  19.380  19.197  1.00  0.00     0.161 A 
ATOM      3  C   UNL     1      15.087  20.544  19.973  1.00  0.00     0.098 A 
ATOM      4  C   UNL     1      16.253  21.308  20.061  1.00  0.00     0.142 A 
ATOM      5  C   UNL     1      17.408  20.905  19.361  1.00  0.00     0.022 A 
ATOM      6  C   UNL     1      17.385  19.739  18.583  1.00  0.00     0.062 A 
ATOM      7  C   UNL     1      18.561  21.690  19.469  1.00  0.00     0.019 A 
ATOM      8  C   UNL     1      18.535  22.841  20.257  1.00  0.00     0.094 A 
ATOM      9  C   UNL     1      17.351  23.180  20.921  1.00  0.00     0.336 A 
ATOM     10  O   UNL     1      17.306  24.213  21.638  1.00  0.00    -0.246 OA
ATOM     11  O   UNL     1      16.268  22.414  20.803  1.00  0.00    -0.423 OA
ENDROOT
BRANCH   1  12
ATOM     12  O   UNL     1      16.146  17.796  17.724  1.00  0.00    -0.493 OA
ATOM     13  C   UNL     1      16.804  16.577  18.052  1.00  0.00     0.278 C 
ENDBRANCH   1  12
BRANCH   2  14
ATOM     14  O   UNL     1      13.875  18.644  19.135  1.00  0.00    -0.504 OA
ATOM     15  H   UNL     1      13.034  18.931  19.622  1.00  0.00     0.293 HD
ENDBRANCH   2  14
TORSDOF 2
ENDMDL
MODEL 2
REMARK VINA RESULT:    -5.399      2.207      5.473
REMARK INTER + INTRA:          -5.936
REMARK INTER:                  -5.892
REMARK INTRA:                  -0.043
REMARK UNBOUND:                -0.063
REMARK SMILES COc1cc2ccc(=O)oc2cc1O
REMARK SMILES IDX 3 1 13 2 12 3 11 4 5 5 4 6 6 7 7 8 8 9 9 10 10 11 2 12 1 13
REMARK SMILES IDX 14 14
REMARK H PARENT 14 15
REMARK Flexibility Score: inf
ROOT
ATOM      1  C   UNL     1      16.400  24.020  22.916  1.00  0.00     0.161 A 
ATOM      2  C   UNL     1      15.348  23.083  22.898  1.00  0.00     0.161 A 
ATOM      3  C   UNL     1      15.358  22.031  21.975  1.00  0.00     0.098 A 
ATOM      4  C   UNL     1      16.408  21.899  21.064  1.00  0.00     0.142 A 
ATOM      5  C   UNL     1      17.466  22.831  21.075  1.00  0.00     0.022 A 
ATOM      6  C   UNL     1      17.460  23.887  21.996  1.00  0.00     0.062 A 
ATOM      7  C   UNL     1      18.504  22.673  20.150  1.00  0.00     0.019 A 
ATOM      8  C   UNL     1      18.464  21.606  19.251  1.00  0.00     0.094 A 
ATOM      9  C   UNL     1      17.383  20.720  19.300  1.00  0.00     0.336 A 
ATOM     10  O   UNL     1      17.327  19.751  18.499  1.00  0.00    -0.246 OA
ATOM     11  O   UNL     1      16.407  20.894  20.190  1.00  0.00    -0.423 OA
ENDROOT
BRANCH   1  12
ATOM     12  O   UNL     1      16.359  25.063  23.855  1.00  0.00    -0.493 OA
ATOM     13  C   UNL     1      17.382  26.039  24.024  1.00  0.00     0.278 C 
ENDBRANCH   1  12
BRANCH   2  14
ATOM     14  O   UNL     1      14.281  23.181  23.791  1.00  0.00    -0.504 OA
ATOM     15  H   UNL     1      13.564  22.468  23.857  1.00  0.00     0.293 HD
ENDBRANCH   2  14
TORSDOF 2
ENDMDL
MODEL 3
REMARK VINA RESULT:    -5.285      1.220      1.442
REMARK INTER + INTRA:          -5.811
REMARK INTER:                  -5.764
REMARK INTRA:                  -0.047
REMARK UNBOUND:                -0.063
REMARK SMILES COc1cc2ccc(=O)oc2cc1O
REMARK SMILES IDX 3 1 13 2 12 3 11 4 5 5 4 6 6 7 7 8 8 9 9 10 10 11 2 12 1 13
REMARK SMILES IDX 14 14
REMARK H PARENT 14 15
REMARK Flexibility Score: inf
ROOT
ATOM      1  C   UNL     1      16.147  19.969  19.268  1.00  0.00     0.161 A 
ATOM      2  C   UNL     1      15.008  20.092  20.088  1.00  0.00     0.161 A 
ATOM      3  C   UNL     1      14.933  21.115  21.040  1.00  0.00     0.098 A 
ATOM      4  C   UNL     1      15.984  22.023  21.187  1.00  0.00     0.142 A 
ATOM      5  C   UNL     1      17.127  21.908  20.371  1.00  0.00     0.022 A 
ATOM      6  C   UNL     1      17.208  20.885  19.417  1.00  0.00     0.062 A 
ATOM      7  C   UNL     1      18.164  22.832  20.542  1.00  0.00     0.019 A 
ATOM      8  C   UNL     1      18.038  23.832  21.506  1.00  0.00     0.094 A 
ATOM      9  C   UNL     1      16.873  23.885  22.279  1.00  0.00     0.336 A 
ATOM     10  O   UNL     1      16.738  24.779  23.155  1.00  0.00    -0.246 OA
ATOM     11  O   UNL     1      15.902  22.992  22.097  1.00  0.00    -0.423 OA
ENDROOT
BRANCH   1  12
ATOM     12  O   UNL     1      16.190  18.931  18.322  1.00  0.00    -0.493 OA
ATOM     13  C   UNL     1      17.366  18.216  17.960  1.00  0.00     0.278 C 
ENDBRANCH   1  12
BRANCH   2  14
ATOM     14  O   UNL     1      13.938  19.204  19.972  1.00  0.00    -0.504 OA
ATOM     15  H   UNL     1      13.076  19.326  20.490  1.00  0.00     0.293 HD
ENDBRANCH   2  14
TORSDOF 2
ENDMDL
MODEL 4
REMARK VINA RESULT:    -5.284      1.409      5.356
REMARK INTER + INTRA:          -5.810
REMARK INTER:                  -5.746
REMARK INTRA:                  -0.064
REMARK UNBOUND:                -0.063
REMARK SMILES COc1cc2ccc(=O)oc2cc1O
REMARK SMILES IDX 3 1 13 2 12 3 11 4 5 5 4 6 6 7 7 8 8 9 9 10 10 11 2 12 1 13
REMARK SMILES IDX 14 14
REMARK H PARENT 14 15
REMARK Flexibility Score: inf
ROOT
ATOM      1  C   UNL     1      17.265  22.415  20.615  1.00  0.00     0.161 A 
ATOM      2  C   UNL     1      18.186  21.709  19.816  1.00  0.00     0.161 A 
ATOM      3  C   UNL     1      17.770  20.590  19.085  1.00  0.00     0.098 A 
ATOM      4  C   UNL     1      16.441  20.164  19.137  1.00  0.00     0.142 A 
ATOM      5  C   UNL     1      15.513  20.865  19.933  1.00  0.00     0.022 A 
ATOM      6  C   UNL     1      15.924  21.985  20.668  1.00  0.00     0.062 A 
ATOM      7  C   UNL     1      14.189  20.415  19.966  1.00  0.00     0.019 A 
ATOM      8  C   UNL     1      13.828  19.294  19.217  1.00  0.00     0.094 A 
ATOM      9  C   UNL     1      14.804  18.649  18.450  1.00  0.00     0.336 A 
ATOM     10  O   UNL     1      14.500  17.637  17.767  1.00  0.00    -0.246 OA
ATOM     11  O   UNL     1      16.057  19.099  18.437  1.00  0.00    -0.423 OA
ENDROOT
BRANCH   1  12
ATOM     12  O   UNL     1      17.715  23.533  21.336  1.00  0.00    -0.493 OA
ATOM     13  C   UNL     1      17.610  24.880  20.887  1.00  0.00     0.278 C 
ENDBRANCH   1  12
BRANCH   2  14
ATOM     14  O   UNL     1      19.522  22.102  19.738  1.00  0.00    -0.504 OA
ATOM     15  H   UNL     1      20.284  21.435  19.758  1.00  0.00     0.293 HD
ENDBRANCH   2  14
TORSDOF 2
ENDMDL
MODEL 5
REMARK VINA RESULT:    -5.121      1.171      4.922
REMARK INTER + INTRA:          -5.633
REMARK INTER:                  -5.568
REMARK INTRA:                  -0.065
REMARK UNBOUND:                -0.063
REMARK SMILES COc1cc2ccc(=O)oc2cc1O
REMARK SMILES IDX 3 1 13 2 12 3 11 4 5 5 4 6 6 7 7 8 8 9 9 10 10 11 2 12 1 13
REMARK SMILES IDX 14 14
REMARK H PARENT 14 15
REMARK Flexibility Score: inf
ROOT
ATOM      1  C   UNL     1      16.762  21.848  20.524  1.00  0.00     0.161 A 
ATOM      2  C   UNL     1      15.386  21.676  20.770  1.00  0.00     0.161 A 
ATOM      3  C   UNL     1      14.681  20.645  20.138  1.00  0.00     0.098 A 
ATOM      4  C   UNL     1      15.334  19.777  19.259  1.00  0.00     0.142 A 
ATOM      5  C   UNL     1      16.711  19.941  19.007  1.00  0.00     0.022 A 
ATOM      6  C   UNL     1      17.420  20.973  19.636  1.00  0.00     0.062 A 
ATOM      7  C   UNL     1      17.337  19.057  18.122  1.00  0.00     0.019 A 
ATOM      8  C   UNL     1      16.587  18.046  17.519  1.00  0.00     0.094 A 
ATOM      9  C   UNL     1      15.224  17.944  17.818  1.00  0.00     0.336 A 
ATOM     10  O   UNL     1      14.530  17.040  17.285  1.00  0.00    -0.246 OA
ATOM     11  O   UNL     1      14.653  18.799  18.663  1.00  0.00    -0.423 OA
ENDROOT
BRANCH   1  12
ATOM     12  O   UNL     1      17.439  22.893  21.174  1.00  0.00    -0.493 OA
ATOM     13  C   UNL     1      17.791  24.131  20.565  1.00  0.00     0.278 C 
ENDBRANCH   1  12
BRANCH   2  14
ATOM     14  O   UNL     1      14.699  22.522  21.640  1.00  0.00    -0.504 OA
ATOM     15  H   UNL     1      13.853  23.008  21.365  1.00  0.00     0.293 HD
ENDBRANCH   2  14
TORSDOF 2
ENDMDL
MODEL 6
REMARK VINA RESULT:    -5.106      1.567      5.254
REMARK INTER + INTRA:          -5.617
REMARK INTER:                  -5.569
REMARK INTRA:                  -0.048
REMARK UNBOUND:                -0.063
REMARK SMILES COc1cc2ccc(=O)oc2cc1O
REMARK SMILES IDX 3 1 13 2 12 3 11 4 5 5 4 6 6 7 7 8 8 9 9 10 10 11 2 12 1 13
REMARK SMILES IDX 14 14
REMARK H PARENT 14 15
REMARK Flexibility Score: inf
ROOT
ATOM      1  C   UNL     1      16.274  21.880  20.866  1.00  0.00     0.161 A 
ATOM      2  C   UNL     1      17.623  21.824  20.462  1.00  0.00     0.161 A 
ATOM      3  C   UNL     1      18.034  20.885  19.510  1.00  0.00     0.098 A 
ATOM      4  C   UNL     1      17.115  19.995  18.950  1.00  0.00     0.142 A 
ATOM      5  C   UNL     1      15.763  20.043  19.347  1.00  0.00     0.022 A 
ATOM      6  C   UNL     1      15.346  20.981  20.301  1.00  0.00     0.062 A 
ATOM      7  C   UNL     1      14.866  19.139  18.769  1.00  0.00     0.019 A 
ATOM      8  C   UNL     1      15.330  18.223  17.824  1.00  0.00     0.094 A 
ATOM      9  C   UNL     1      16.686  18.234  17.479  1.00  0.00     0.336 A 
ATOM     10  O   UNL     1      17.125  17.416  16.629  1.00  0.00    -0.246 OA
ATOM     11  O   UNL     1      17.518  19.105  18.045  1.00  0.00    -0.423 OA
ENDROOT
BRANCH   1  12
ATOM     12  O   UNL     1      15.894  22.834  21.823  1.00  0.00    -0.493 OA
ATOM     13  C   UNL     1      14.970  22.596  22.880  1.00  0.00     0.278 C 
ENDBRANCH   1  12
BRANCH   2  14
ATOM     14  O   UNL     1      18.571  22.695  20.999  1.00  0.00    -0.504 OA
ATOM     15  H   UNL     1      19.193  23.241  20.416  1.00  0.00     0.293 HD
ENDBRANCH   2  14
TORSDOF 2
ENDMDL
MODEL 7
REMARK VINA RESULT:    -4.978      4.865      7.106
REMARK INTER + INTRA:          -5.477
REMARK INTER:                  -5.434
REMARK INTRA:                  -0.043
REMARK UNBOUND:                -0.063
REMARK SMILES COc1cc2ccc(=O)oc2cc1O
REMARK SMILES IDX 3 1 13 2 12 3 11 4 5 5 4 6 6 7 7 8 8 9 9 10 10 11 2 12 1 13
REMARK SMILES IDX 14 14
REMARK H PARENT 14 15
REMARK Flexibility Score: inf
ROOT
ATOM      1  C   UNL     1      14.658  21.623  24.185  1.00  0.00     0.161 A 
ATOM      2  C   UNL     1      13.992  22.110  23.043  1.00  0.00     0.161 A 
ATOM      3  C   UNL     1      13.096  21.290  22.348  1.00  0.00     0.098 A 
ATOM      4  C   UNL     1      12.852  19.983  22.779  1.00  0.00     0.142 A 
ATOM      5  C   UNL     1      13.513  19.488  23.921  1.00  0.00     0.022 A 
ATOM      6  C   UNL     1      14.412  20.305  24.619  1.00  0.00     0.062 A 
ATOM      7  C   UNL     1      13.249  18.176  24.327  1.00  0.00     0.019 A 
ATOM      8  C   UNL     1      12.347  17.401  23.598  1.00  0.00     0.094 A 
ATOM      9  C   UNL     1      11.727  17.961  22.475  1.00  0.00     0.336 A 
ATOM     10  O   UNL     1      10.910  17.279  21.803  1.00  0.00    -0.246 OA
ATOM     11  O   UNL     1      11.997  19.212  22.109  1.00  0.00    -0.423 OA
ENDROOT
BRANCH   1  12
ATOM     12  O   UNL     1      15.551  22.472  24.860  1.00  0.00    -0.493 OA
ATOM     13  C   UNL     1      16.217  22.144  26.074  1.00  0.00     0.278 C 
ENDBRANCH   1  12
BRANCH   2  14
ATOM     14  O   UNL     1      14.209  23.408  22.581  1.00  0.00    -0.504 OA
ATOM     15  H   UNL     1      14.629  24.124  23.162  1.00  0.00     0.293 HD
ENDBRANCH   2  14
TORSDOF 2
ENDMDL
MODEL 8
REMARK VINA RESULT:    -4.957      4.371      6.284
REMARK INTER + INTRA:          -5.454
REMARK INTER:                  -5.389
REMARK INTRA:                  -0.065
REMARK UNBOUND:                -0.063
REMARK SMILES COc1cc2ccc(=O)oc2cc1O
REMARK SMILES IDX 3 1 13 2 12 3 11 4 5 5 4 6 6 7 7 8 8 9 9 10 10 11 2 12 1 13
REMARK SMILES IDX 14 14
REMARK H PARENT 14 15
REMARK Flexibility Score: inf
ROOT
ATOM      1  C   UNL     1      12.033  20.488  20.626  1.00  0.00     0.161 A 
ATOM      2  C   UNL     1      13.313  20.963  20.977  1.00  0.00     0.161 A 
ATOM      3  C   UNL     1      14.000  20.402  22.059  1.00  0.00     0.098 A 
ATOM      4  C   UNL     1      13.426  19.367  22.802  1.00  0.00     0.142 A 
ATOM      5  C   UNL     1      12.147  18.885  22.458  1.00  0.00     0.022 A 
ATOM      6  C   UNL     1      11.455  19.444  21.376  1.00  0.00     0.062 A 
ATOM      7  C   UNL     1      11.599  17.848  23.220  1.00  0.00     0.019 A 
ATOM      8  C   UNL     1      12.327  17.325  24.290  1.00  0.00     0.094 A 
ATOM      9  C   UNL     1      13.591  17.853  24.571  1.00  0.00     0.336 A 
ATOM     10  O   UNL     1      14.265  17.396  25.531  1.00  0.00    -0.246 OA
ATOM     11  O   UNL     1      14.089  18.841  23.830  1.00  0.00    -0.423 OA
ENDROOT
BRANCH   1  12
ATOM     12  O   UNL     1      11.372  21.073  19.534  1.00  0.00    -0.493 OA
ATOM     13  C   UNL     1      11.339  20.524  18.221  1.00  0.00     0.278 C 
ENDBRANCH   1  12
BRANCH   2  14
ATOM     14  O   UNL     1      13.919  21.995  20.261  1.00  0.00    -0.504 OA
ATOM     15  H   UNL     1      14.711  21.837  19.650  1.00  0.00     0.293 HD
ENDBRANCH   2  14
TORSDOF 2
ENDMDL
MODEL 9
REMARK VINA RESULT:    -4.568      3.946      6.146
REMARK INTER + INTRA:          -5.032
REMARK INTER:                  -4.972
REMARK INTRA:                  -0.060
REMARK UNBOUND:                -0.063
REMARK SMILES COc1cc2ccc(=O)oc2cc1O
REMARK SMILES IDX 3 1 13 2 12 3 11 4 5 5 4 6 6 7 7 8 8 9 9 10 10 11 2 12 1 13
REMARK SMILES IDX 14 14
REMARK H PARENT 14 15
REMARK Flexibility Score: inf
ROOT
ATOM      1  C   UNL     1      14.569  21.015  21.458  1.00  0.00     0.161 A 
ATOM      2  C   UNL     1      13.382  21.199  20.722  1.00  0.00     0.161 A 
ATOM      3  C   UNL     1      12.198  20.574  21.130  1.00  0.00     0.098 A 
ATOM      4  C   UNL     1      12.180  19.764  22.268  1.00  0.00     0.142 A 
ATOM      5  C   UNL     1      13.363  19.575  23.010  1.00  0.00     0.022 A 
ATOM      6  C   UNL     1      14.552  20.198  22.606  1.00  0.00     0.062 A 
ATOM      7  C   UNL     1      13.315  18.759  24.145  1.00  0.00     0.019 A 
ATOM      8  C   UNL     1      12.108  18.160  24.507  1.00  0.00     0.094 A 
ATOM      9  C   UNL     1      10.974  18.393  23.722  1.00  0.00     0.336 A 
ATOM     10  O   UNL     1       9.875  17.863  24.030  1.00  0.00    -0.246 OA
ATOM     11  O   UNL     1      11.048  19.174  22.646  1.00  0.00    -0.423 OA
ENDROOT
BRANCH   1  12
ATOM     12  O   UNL     1      15.740  21.657  21.021  1.00  0.00    -0.493 OA
ATOM     13  C   UNL     1      16.713  21.068  20.165  1.00  0.00     0.278 C 
ENDBRANCH   1  12
BRANCH   2  14
ATOM     14  O   UNL     1      13.359  21.999  19.580  1.00  0.00    -0.504 OA
ATOM     15  H   UNL     1      14.110  21.992  18.900  1.00  0.00     0.293 HD
ENDBRANCH   2  14
TORSDOF 2
ENDMDL
