MODEL 1
REMARK VINA RESULT:    24.673      0.000      0.000
REMARK INTER + INTRA:          28.736
REMARK INTER:                  29.000
REMARK INTRA:                  -0.264
REMARK UNBOUND:                -0.264
REMARK SMILES O=c1cc(-c2ccc(O)c(O)c2)oc2cc(O)cc(O)c12
REMARK SMILES IDX 4 1 3 2 2 3 1 4 21 5 19 6 18 7 16 8 15 9 14 10 13 11 5 12
REMARK SMILES IDX 6 13 7 14 8 15 12 16 10 17 9 18 11 20 20 22 17 24
REMARK H PARENT 9 19 11 21 20 23 17 25
REMARK Flexibility Score: inf
ROOT
ATOM      1  C   UNL     1       7.113   3.048  18.639  1.00  0.00     0.138 A 
ATOM      2  C   UNL     1       8.479   2.745  18.520  1.00  0.00     0.100 A 
ATOM      3  C   UNL     1       9.396   3.778  18.312  1.00  0.00     0.197 A 
ATOM      4  O   UNL     1      10.620   3.497  18.207  1.00  0.00    -0.289 OA
ATOM      5  C   UNL     1       8.938   5.108  18.228  1.00  0.00     0.107 A 
ATOM      6  C   UNL     1       9.797   6.211  18.018  1.00  0.00     0.134 A 
ATOM      7  C   UNL     1       9.263   7.507  17.952  1.00  0.00     0.093 A 
ATOM      8  C   UNL     1       7.886   7.717  18.092  1.00  0.00     0.123 A 
ATOM      9  C   UNL     1       7.035   6.632  18.300  1.00  0.00     0.094 A 
ATOM     10  C   UNL     1       7.547   5.332  18.368  1.00  0.00     0.146 A 
ATOM     11  O   UNL     1       6.714   4.315  18.565  1.00  0.00    -0.456 OA
ENDROOT
BRANCH   1  12
ATOM     12  C   UNL     1       6.094   1.991  18.861  1.00  0.00     0.021 A 
ATOM     13  C   UNL     1       5.145   1.659  17.875  1.00  0.00     0.016 A 
ATOM     14  C   UNL     1       4.191   0.666  18.116  1.00  0.00     0.051 A 
ATOM     15  C   UNL     1       4.163  -0.005  19.345  1.00  0.00     0.157 A 
ATOM     16  C   UNL     1       6.050   1.321  20.097  1.00  0.00     0.062 A 
ATOM     17  C   UNL     1       5.094   0.324  20.337  1.00  0.00     0.158 A 
BRANCH  15  18
ATOM     18  O   UNL     1       3.214  -0.996  19.587  1.00  0.00    -0.504 OA
ATOM     19  H   UNL     1       2.816  -1.544  18.834  1.00  0.00     0.293 HD
ENDBRANCH  15  18
BRANCH  17  20
ATOM     20  O   UNL     1       5.062  -0.343  21.562  1.00  0.00    -0.504 OA
ATOM     21  H   UNL     1       4.327  -1.002  21.787  1.00  0.00     0.293 HD
ENDBRANCH  17  20
ENDBRANCH   1  12
BRANCH   6  22
ATOM     22  O   UNL     1      11.174   6.031  17.876  1.00  0.00    -0.507 OA
ATOM     23  H   UNL     1      11.609   5.124  17.995  1.00  0.00     0.293 HD
ENDBRANCH   6  22
BRANCH   8  24
ATOM     24  O   UNL     1       7.355   9.004  18.028  1.00  0.00    -0.508 OA
ATOM     25  H   UNL     1       7.832   9.750  17.536  1.00  0.00     0.293 HD
ENDBRANCH   8  24
TORSDOF 5
ENDMDL
