MODEL 1
REMARK VINA RESULT:    -5.759      0.000      0.000
REMARK INTER + INTRA:          -7.878
REMARK INTER:                  -7.779
REMARK INTRA:                  -0.099
REMARK UNBOUND:                -0.099
REMARK SMILES [NH3+]CCCC[C@H]([NH3+])C(=O)[O-]
REMARK SMILES IDX 4 1 3 2 2 3 1 4 5 8 6 9 7 10 8 14 9 15 10 16
REMARK H PARENT 1 5 1 6 1 7 7 11 7 12 7 13
REMARK Flexibility Score: inf
ROOT
ATOM      1  C   UNL     1       1.070   2.650  -2.090  1.00  0.00     0.012 C 
ENDROOT
BRANCH   1   2
ATOM      2  C   UNL     1       0.080   1.498  -2.320  1.00  0.00     0.061 C 
BRANCH   2   3
ATOM      3  C   UNL     1      -1.007   1.429  -1.233  1.00  0.00     0.258 C 
BRANCH   3   4
ATOM      4  N   UNL     1      -1.325   0.051  -0.858  1.00  0.00    -0.358 N 
ATOM      5  H   UNL     1      -0.570  -0.313  -0.232  1.00  0.00     0.344 HD
ATOM      6  H   UNL     1      -2.229   0.014  -0.337  1.00  0.00     0.344 HD
ATOM      7  H   UNL     1      -1.376  -0.557  -1.708  1.00  0.00     0.344 HD
ENDBRANCH   3   4
ENDBRANCH   2   3
ENDBRANCH   1   2
BRANCH   1   8
ATOM      8  C   UNL     1       1.679   3.124  -3.419  1.00  0.00     0.072 C 
BRANCH   8   9
ATOM      9  C   UNL     1       3.165   3.518  -3.275  1.00  0.00     0.227 C 
BRANCH   9  10
ATOM     10  N   UNL     1       3.360   4.924  -3.646  1.00  0.00    -0.350 N 
ATOM     11  H   UNL     1       4.060   4.992  -4.422  1.00  0.00     0.345 HD
ATOM     12  H   UNL     1       3.727   5.460  -2.828  1.00  0.00     0.345 HD
ATOM     13  H   UNL     1       2.458   5.353  -3.960  1.00  0.00     0.345 HD
ENDBRANCH   9  10
BRANCH   9  14
ATOM     14  C   UNL     1       4.043   2.634  -4.123  1.00  0.00     0.099 C 
ATOM     15  O   UNL     1       4.726   3.131  -5.057  1.00  0.00    -0.544 OA
ATOM     16  O   UNL     1       4.108   1.268  -3.879  1.00  0.00    -0.544 OA
ENDBRANCH   9  14
ENDBRANCH   8   9
ENDBRANCH   1   8
TORSDOF 7
ENDMDL
MODEL 2
REMARK VINA RESULT:    -5.625      2.642      3.606
REMARK INTER + INTRA:          -7.697
REMARK INTER:                  -7.553
REMARK INTRA:                  -0.144
REMARK UNBOUND:                -0.099
REMARK SMILES [NH3+]CCCC[C@H]([NH3+])C(=O)[O-]
REMARK SMILES IDX 4 1 3 2 2 3 1 4 5 8 6 9 7 10 8 14 9 15 10 16
REMARK H PARENT 1 5 1 6 1 7 7 11 7 12 7 13
REMARK Flexibility Score: inf
ROOT
ATOM      1  C   UNL     1      -1.548   0.848  -0.870  1.00  0.00     0.012 C 
ENDROOT
BRANCH   1   2
ATOM      2  C   UNL     1      -2.789   1.373  -0.131  1.00  0.00     0.061 C 
BRANCH   2   3
ATOM      3  C   UNL     1      -3.817   0.265   0.155  1.00  0.00     0.258 C 
BRANCH   3   4
ATOM      4  N   UNL     1      -4.159  -0.494  -1.048  1.00  0.00    -0.358 N 
ATOM      5  H   UNL     1      -4.705  -1.342  -0.770  1.00  0.00     0.344 HD
ATOM      6  H   UNL     1      -4.751   0.082  -1.687  1.00  0.00     0.344 HD
ATOM      7  H   UNL     1      -3.292  -0.803  -1.544  1.00  0.00     0.344 HD
ENDBRANCH   3   4
ENDBRANCH   2   3
ENDBRANCH   1   2
BRANCH   1   8
ATOM      8  C   UNL     1      -1.194   1.754  -2.060  1.00  0.00     0.072 C 
BRANCH   8   9
ATOM      9  C   UNL     1      -0.017   2.701  -1.744  1.00  0.00     0.227 C 
BRANCH   9  10
ATOM     10  N   UNL     1      -0.498   4.077  -1.573  1.00  0.00    -0.350 N 
ATOM     11  H   UNL     1      -0.850   4.212  -0.597  1.00  0.00     0.345 HD
ATOM     12  H   UNL     1      -1.288   4.261  -2.233  1.00  0.00     0.345 HD
ATOM     13  H   UNL     1       0.271   4.763  -1.759  1.00  0.00     0.345 HD
ENDBRANCH   9  10
BRANCH   9  14
ATOM     14  C   UNL     1       1.025   2.652  -2.833  1.00  0.00     0.099 C 
ATOM     15  O   UNL     1       1.703   1.606  -3.012  1.00  0.00    -0.544 OA
ATOM     16  O   UNL     1       1.240   3.756  -3.648  1.00  0.00    -0.544 OA
ENDBRANCH   9  14
ENDBRANCH   8   9
ENDBRANCH   1   8
TORSDOF 7
ENDMDL
MODEL 3
REMARK VINA RESULT:    -5.604      1.705      2.235
REMARK INTER + INTRA:          -7.668
REMARK INTER:                  -7.597
REMARK INTRA:                  -0.071
REMARK UNBOUND:                -0.099
REMARK SMILES [NH3+]CCCC[C@H]([NH3+])C(=O)[O-]
REMARK SMILES IDX 4 1 3 2 2 3 1 4 5 8 6 9 7 10 8 14 9 15 10 16
REMARK H PARENT 1 5 1 6 1 7 7 11 7 12 7 13
REMARK Flexibility Score: inf
ROOT
ATOM      1  C   UNL     1      -0.812   2.020  -2.237  1.00  0.00     0.012 C 
ENDROOT
BRANCH   1   2
ATOM      2  C   UNL     1      -1.106   1.187  -0.981  1.00  0.00     0.061 C 
BRANCH   2   3
ATOM      3  C   UNL     1      -2.562   1.331  -0.505  1.00  0.00     0.258 C 
BRANCH   3   4
ATOM      4  N   UNL     1      -3.024   2.719  -0.556  1.00  0.00    -0.358 N 
ATOM      5  H   UNL     1      -3.356   2.930  -1.526  1.00  0.00     0.344 HD
ATOM      6  H   UNL     1      -3.823   2.861   0.101  1.00  0.00     0.344 HD
ATOM      7  H   UNL     1      -2.244   3.373  -0.319  1.00  0.00     0.344 HD
ENDBRANCH   3   4
ENDBRANCH   2   3
ENDBRANCH   1   2
BRANCH   1   8
ATOM      8  C   UNL     1       0.632   1.801  -2.716  1.00  0.00     0.072 C 
BRANCH   8   9
ATOM      9  C   UNL     1       1.437   3.118  -2.767  1.00  0.00     0.227 C 
BRANCH   9  10
ATOM     10  N   UNL     1       0.738   4.113  -3.587  1.00  0.00    -0.350 N 
ATOM     11  H   UNL     1       0.201   3.634  -4.347  1.00  0.00     0.345 HD
ATOM     12  H   UNL     1       1.431   4.756  -4.033  1.00  0.00     0.345 HD
ATOM     13  H   UNL     1       0.077   4.676  -3.002  1.00  0.00     0.345 HD
ENDBRANCH   9  10
BRANCH   9  14
ATOM     14  C   UNL     1       2.823   2.883  -3.313  1.00  0.00     0.099 C 
ATOM     15  O   UNL     1       3.702   2.342  -2.593  1.00  0.00    -0.544 OA
ATOM     16  O   UNL     1       3.137   3.256  -4.614  1.00  0.00    -0.544 OA
ENDBRANCH   9  14
ENDBRANCH   8   9
ENDBRANCH   1   8
TORSDOF 7
ENDMDL
MODEL 4
REMARK VINA RESULT:    -5.563      3.254      4.523
REMARK INTER + INTRA:          -7.613
REMARK INTER:                  -7.518
REMARK INTRA:                  -0.095
REMARK UNBOUND:                -0.099
REMARK SMILES [NH3+]CCCC[C@H]([NH3+])C(=O)[O-]
REMARK SMILES IDX 4 1 3 2 2 3 1 4 5 8 6 9 7 10 8 14 9 15 10 16
REMARK H PARENT 1 5 1 6 1 7 7 11 7 12 7 13
REMARK Flexibility Score: inf
ROOT
ATOM      1  C   UNL     1      -2.764   1.464  -0.354  1.00  0.00     0.012 C 
ENDROOT
BRANCH   1   2
ATOM      2  C   UNL     1      -3.713   0.259  -0.276  1.00  0.00     0.061 C 
BRANCH   2   3
ATOM      3  C   UNL     1      -4.203  -0.013   1.157  1.00  0.00     0.258 C 
BRANCH   3   4
ATOM      4  N   UNL     1      -4.101  -1.428   1.515  1.00  0.00    -0.358 N 
ATOM      5  H   UNL     1      -5.046  -1.776   1.798  1.00  0.00     0.344 HD
ATOM      6  H   UNL     1      -3.778  -1.990   0.694  1.00  0.00     0.344 HD
ATOM      7  H   UNL     1      -3.443  -1.557   2.317  1.00  0.00     0.344 HD
ENDBRANCH   3   4
ENDBRANCH   2   3
ENDBRANCH   1   2
BRANCH   1   8
ATOM      8  C   UNL     1      -1.452   1.085  -1.060  1.00  0.00     0.072 C 
BRANCH   8   9
ATOM      9  C   UNL     1      -1.043   2.121  -2.130  1.00  0.00     0.227 C 
BRANCH   9  10
ATOM     10  N   UNL     1      -1.743   1.858  -3.392  1.00  0.00    -0.350 N 
ATOM     11  H   UNL     1      -2.511   2.558  -3.524  1.00  0.00     0.345 HD
ATOM     12  H   UNL     1      -2.171   0.905  -3.369  1.00  0.00     0.345 HD
ATOM     13  H   UNL     1      -1.081   1.917  -4.201  1.00  0.00     0.345 HD
ENDBRANCH   9  10
BRANCH   9  14
ATOM     14  C   UNL     1       0.448   2.105  -2.355  1.00  0.00     0.099 C 
ATOM     15  O   UNL     1       1.201   1.490  -1.555  1.00  0.00    -0.544 OA
ATOM     16  O   UNL     1       1.000   2.763  -3.447  1.00  0.00    -0.544 OA
ENDBRANCH   9  14
ENDBRANCH   8   9
ENDBRANCH   1   8
TORSDOF 7
ENDMDL
MODEL 5
REMARK VINA RESULT:    -5.551      3.191      4.387
REMARK INTER + INTRA:          -7.597
REMARK INTER:                  -7.416
REMARK INTRA:                  -0.181
REMARK UNBOUND:                -0.099
REMARK SMILES [NH3+]CCCC[C@H]([NH3+])C(=O)[O-]
REMARK SMILES IDX 4 1 3 2 2 3 1 4 5 8 6 9 7 10 8 14 9 15 10 16
REMARK H PARENT 1 5 1 6 1 7 7 11 7 12 7 13
REMARK Flexibility Score: inf
ROOT
ATOM      1  C   UNL     1      -2.473   0.579  -0.855  1.00  0.00     0.012 C 
ENDROOT
BRANCH   1   2
ATOM      2  C   UNL     1      -3.041   0.808   0.553  1.00  0.00     0.061 C 
BRANCH   2   3
ATOM      3  C   UNL     1      -4.353   1.613   0.537  1.00  0.00     0.258 C 
BRANCH   3   4
ATOM      4  N   UNL     1      -4.327   2.689  -0.454  1.00  0.00    -0.358 N 
ATOM      5  H   UNL     1      -5.218   3.234  -0.386  1.00  0.00     0.344 HD
ATOM      6  H   UNL     1      -3.530   3.338  -0.268  1.00  0.00     0.344 HD
ATOM      7  H   UNL     1      -4.250   2.295  -1.420  1.00  0.00     0.344 HD
ENDBRANCH   3   4
ENDBRANCH   2   3
ENDBRANCH   1   2
BRANCH   1   8
ATOM      8  C   UNL     1      -1.032   1.104  -0.958  1.00  0.00     0.072 C 
BRANCH   8   9
ATOM      9  C   UNL     1      -0.897   2.241  -1.994  1.00  0.00     0.227 C 
BRANCH   9  10
ATOM     10  N   UNL     1      -1.701   1.947  -3.186  1.00  0.00    -0.350 N 
ATOM     11  H   UNL     1      -1.411   2.572  -3.974  1.00  0.00     0.345 HD
ATOM     12  H   UNL     1      -2.711   2.123  -2.985  1.00  0.00     0.345 HD
ATOM     13  H   UNL     1      -1.578   0.949  -3.477  1.00  0.00     0.345 HD
ENDBRANCH   9  10
BRANCH   9  14
ATOM     14  C   UNL     1       0.544   2.449  -2.384  1.00  0.00     0.099 C 
ATOM     15  O   UNL     1       1.461   1.866  -1.748  1.00  0.00    -0.544 OA
ATOM     16  O   UNL     1       0.871   3.279  -3.450  1.00  0.00    -0.544 OA
ENDBRANCH   9  14
ENDBRANCH   8   9
ENDBRANCH   1   8
TORSDOF 7
ENDMDL
MODEL 6
REMARK VINA RESULT:    -5.483      4.525      6.291
REMARK INTER + INTRA:          -7.504
REMARK INTER:                  -7.406
REMARK INTRA:                  -0.098
REMARK UNBOUND:                -0.099
REMARK SMILES [NH3+]CCCC[C@H]([NH3+])C(=O)[O-]
REMARK SMILES IDX 4 1 3 2 2 3 1 4 5 8 6 9 7 10 8 14 9 15 10 16
REMARK H PARENT 1 5 1 6 1 7 7 11 7 12 7 13
REMARK Flexibility Score: inf
ROOT
ATOM      1  C   UNL     1       0.007   1.512  -2.384  1.00  0.00     0.012 C 
ENDROOT
BRANCH   1   2
ATOM      2  C   UNL     1       1.159   2.493  -2.120  1.00  0.00     0.061 C 
BRANCH   2   3
ATOM      3  C   UNL     1       1.584   3.259  -3.385  1.00  0.00     0.258 C 
BRANCH   3   4
ATOM      4  N   UNL     1       0.746   4.434  -3.625  1.00  0.00    -0.358 N 
ATOM      5  H   UNL     1       0.212   4.294  -4.514  1.00  0.00     0.344 HD
ATOM      6  H   UNL     1       0.060   4.559  -2.847  1.00  0.00     0.344 HD
ATOM      7  H   UNL     1       1.337   5.291  -3.722  1.00  0.00     0.344 HD
ENDBRANCH   3   4
ENDBRANCH   2   3
ENDBRANCH   1   2
BRANCH   1   8
ATOM      8  C   UNL     1      -0.737   1.174  -1.081  1.00  0.00     0.072 C 
BRANCH   8   9
ATOM      9  C   UNL     1      -2.221   1.595  -1.129  1.00  0.00     0.227 C 
BRANCH   9  10
ATOM     10  N   UNL     1      -2.361   3.019  -0.806  1.00  0.00    -0.350 N 
ATOM     11  H   UNL     1      -1.840   3.236   0.076  1.00  0.00     0.345 HD
ATOM     12  H   UNL     1      -3.369   3.252  -0.654  1.00  0.00     0.345 HD
ATOM     13  H   UNL     1      -1.985   3.613  -1.582  1.00  0.00     0.345 HD
ENDBRANCH   9  10
BRANCH   9  14
ATOM     14  C   UNL     1      -3.048   0.768  -0.178  1.00  0.00     0.099 C 
ATOM     15  O   UNL     1      -3.842  -0.102  -0.623  1.00  0.00    -0.544 OA
ATOM     16  O   UNL     1      -2.937   0.955   1.194  1.00  0.00    -0.544 OA
ENDBRANCH   9  14
ENDBRANCH   8   9
ENDBRANCH   1   8
TORSDOF 7
ENDMDL
MODEL 7
REMARK VINA RESULT:    -5.472      4.100      6.106
REMARK INTER + INTRA:          -7.490
REMARK INTER:                  -7.381
REMARK INTRA:                  -0.109
REMARK UNBOUND:                -0.099
REMARK SMILES [NH3+]CCCC[C@H]([NH3+])C(=O)[O-]
REMARK SMILES IDX 4 1 3 2 2 3 1 4 5 8 6 9 7 10 8 14 9 15 10 16
REMARK H PARENT 1 5 1 6 1 7 7 11 7 12 7 13
REMARK Flexibility Score: inf
ROOT
ATOM      1  C   UNL     1       0.260   1.597  -2.796  1.00  0.00     0.012 C 
ENDROOT
BRANCH   1   2
ATOM      2  C   UNL     1       1.370   2.541  -2.310  1.00  0.00     0.061 C 
BRANCH   2   3
ATOM      3  C   UNL     1       1.936   3.418  -3.440  1.00  0.00     0.258 C 
BRANCH   3   4
ATOM      4  N   UNL     1       0.990   4.452  -3.862  1.00  0.00    -0.358 N 
ATOM      5  H   UNL     1       0.089   3.997  -4.136  1.00  0.00     0.344 HD
ATOM      6  H   UNL     1       0.798   5.113  -3.076  1.00  0.00     0.344 HD
ATOM      7  H   UNL     1       1.364   4.976  -4.687  1.00  0.00     0.344 HD
ENDBRANCH   3   4
ENDBRANCH   2   3
ENDBRANCH   1   2
BRANCH   1   8
ATOM      8  C   UNL     1      -1.113   2.047  -2.272  1.00  0.00     0.072 C 
BRANCH   8   9
ATOM      9  C   UNL     1      -1.441   1.436  -0.892  1.00  0.00     0.227 C 
BRANCH   9  10
ATOM     10  N   UNL     1      -1.175  -0.007  -0.895  1.00  0.00    -0.350 N 
ATOM     11  H   UNL     1      -0.835  -0.304  -1.839  1.00  0.00     0.345 HD
ATOM     12  H   UNL     1      -2.054  -0.531  -0.685  1.00  0.00     0.345 HD
ATOM     13  H   UNL     1      -0.452  -0.251  -0.177  1.00  0.00     0.345 HD
ENDBRANCH   9  10
BRANCH   9  14
ATOM     14  C   UNL     1      -2.877   1.694  -0.514  1.00  0.00     0.099 C 
ATOM     15  O   UNL     1      -3.354   2.856  -0.598  1.00  0.00    -0.544 OA
ATOM     16  O   UNL     1      -3.685   0.652  -0.076  1.00  0.00    -0.544 OA
ENDBRANCH   9  14
ENDBRANCH   8   9
ENDBRANCH   1   8
TORSDOF 7
ENDMDL
MODEL 8
REMARK VINA RESULT:    -5.440      4.389      6.136
REMARK INTER + INTRA:          -7.447
REMARK INTER:                  -7.339
REMARK INTRA:                  -0.109
REMARK UNBOUND:                -0.099
REMARK SMILES [NH3+]CCCC[C@H]([NH3+])C(=O)[O-]
REMARK SMILES IDX 4 1 3 2 2 3 1 4 5 8 6 9 7 10 8 14 9 15 10 16
REMARK H PARENT 1 5 1 6 1 7 7 11 7 12 7 13
REMARK Flexibility Score: inf
ROOT
ATOM      1  C   UNL     1       0.059   1.705  -2.622  1.00  0.00     0.012 C 
ENDROOT
BRANCH   1   2
ATOM      2  C   UNL     1       1.427   2.380  -2.448  1.00  0.00     0.061 C 
BRANCH   2   3
ATOM      3  C   UNL     1       1.712   3.426  -3.540  1.00  0.00     0.258 C 
BRANCH   3   4
ATOM      4  N   UNL     1       0.690   4.472  -3.583  1.00  0.00    -0.358 N 
ATOM      5  H   UNL     1       0.696   4.990  -2.674  1.00  0.00     0.344 HD
ATOM      6  H   UNL     1       0.896   5.152  -4.349  1.00  0.00     0.344 HD
ATOM      7  H   UNL     1      -0.258   4.052  -3.722  1.00  0.00     0.344 HD
ENDBRANCH   3   4
ENDBRANCH   2   3
ENDBRANCH   1   2
BRANCH   1   8
ATOM      8  C   UNL     1      -0.605   1.447  -1.260  1.00  0.00     0.072 C 
BRANCH   8   9
ATOM      9  C   UNL     1      -2.111   1.786  -1.269  1.00  0.00     0.227 C 
BRANCH   9  10
ATOM     10  N   UNL     1      -2.317   3.210  -0.984  1.00  0.00    -0.350 N 
ATOM     11  H   UNL     1      -1.617   3.783  -1.511  1.00  0.00     0.345 HD
ATOM     12  H   UNL     1      -2.183   3.391   0.037  1.00  0.00     0.345 HD
ATOM     13  H   UNL     1      -3.282   3.507  -1.260  1.00  0.00     0.345 HD
ENDBRANCH   9  10
BRANCH   9  14
ATOM     14  C   UNL     1      -2.860   0.947  -0.265  1.00  0.00     0.099 C 
ATOM     15  O   UNL     1      -2.688   1.133   0.968  1.00  0.00    -0.544 OA
ATOM     16  O   UNL     1      -3.747  -0.033  -0.694  1.00  0.00    -0.544 OA
ENDBRANCH   9  14
ENDBRANCH   8   9
ENDBRANCH   1   8
TORSDOF 7
ENDMDL
MODEL 9
REMARK VINA RESULT:    -5.101      6.095      7.816
REMARK INTER + INTRA:          -6.989
REMARK INTER:                  -6.784
REMARK INTRA:                  -0.205
REMARK UNBOUND:                -0.099
REMARK SMILES [NH3+]CCCC[C@H]([NH3+])C(=O)[O-]
REMARK SMILES IDX 4 1 3 2 2 3 1 4 5 8 6 9 7 10 8 14 9 15 10 16
REMARK H PARENT 1 5 1 6 1 7 7 11 7 12 7 13
REMARK Flexibility Score: inf
ROOT
ATOM      1  C   UNL     1      -2.745   2.102  -0.725  1.00  0.00     0.012 C 
ENDROOT
BRANCH   1   2
ATOM      2  C   UNL     1      -1.630   2.126  -1.781  1.00  0.00     0.061 C 
BRANCH   2   3
ATOM      3  C   UNL     1      -0.463   1.188  -1.429  1.00  0.00     0.258 C 
BRANCH   3   4
ATOM      4  N   UNL     1       0.265   0.743  -2.618  1.00  0.00    -0.358 N 
ATOM      5  H   UNL     1       1.131   1.321  -2.721  1.00  0.00     0.344 HD
ATOM      6  H   UNL     1       0.548  -0.257  -2.519  1.00  0.00     0.344 HD
ATOM      7  H   UNL     1      -0.323   0.866  -3.474  1.00  0.00     0.344 HD
ENDBRANCH   3   4
ENDBRANCH   2   3
ENDBRANCH   1   2
BRANCH   1   8
ATOM      8  C   UNL     1      -2.565   0.916   0.237  1.00  0.00     0.072 C 
BRANCH   8   9
ATOM      9  C   UNL     1      -3.871   0.117   0.432  1.00  0.00     0.227 C 
BRANCH   9  10
ATOM     10  N   UNL     1      -4.380  -0.355  -0.860  1.00  0.00    -0.350 N 
ATOM     11  H   UNL     1      -5.244   0.177  -1.118  1.00  0.00     0.345 HD
ATOM     12  H   UNL     1      -4.629  -1.368  -0.796  1.00  0.00     0.345 HD
ATOM     13  H   UNL     1      -3.661  -0.226  -1.611  1.00  0.00     0.345 HD
ENDBRANCH   9  10
BRANCH   9  14
ATOM     14  C   UNL     1      -4.918   0.952   1.123  1.00  0.00     0.099 C 
ATOM     15  O   UNL     1      -5.958   1.301   0.506  1.00  0.00    -0.544 OA
ATOM     16  O   UNL     1      -4.746   1.339   2.447  1.00  0.00    -0.544 OA
ENDBRANCH   9  14
ENDBRANCH   8   9
ENDBRANCH   1   8
TORSDOF 7
ENDMDL
