MODEL 1
REMARK VINA RESULT:    -3.883      0.000      0.000
REMARK INTER + INTRA:         -15.716
REMARK INTER:                 -10.240
REMARK INTRA:                  -5.476
REMARK UNBOUND:                -5.476
REMARK SMILES CCCCCCCCCCCCCCCCCCCCCCCCCCCCCC(=O)[O-]
REMARK SMILES IDX 16 1 17 2 18 3 19 4 20 5 21 6 22 7 23 8 24 9 25 10 26 11
REMARK SMILES IDX 27 12 28 13 29 14 30 15 31 16 32 17 15 18 14 19 13 20 12 21
REMARK SMILES IDX 11 22 10 23 9 24 8 25 7 26 6 27 5 28 4 29 3 30 2 31 1 32
REMARK H PARENT
REMARK Flexibility Score: inf
ROOT
ATOM      1  C   UNL     1      31.502  -7.344  17.474  1.00  0.00     0.000 C 
ENDROOT
BRANCH   1   2
ATOM      2  C   UNL     1      32.272  -6.031  17.690  1.00  0.00     0.000 C 
BRANCH   2   3
ATOM      3  C   UNL     1      33.687  -6.075  17.090  1.00  0.00     0.000 C 
BRANCH   3   4
ATOM      4  C   UNL     1      34.778  -6.358  18.140  1.00  0.00     0.000 C 
BRANCH   4   5
ATOM      5  C   UNL     1      34.338  -6.181  19.605  1.00  0.00     0.000 C 
BRANCH   5   6
ATOM      6  C   UNL     1      34.298  -7.506  20.387  1.00  0.00     0.000 C 
BRANCH   6   7
ATOM      7  C   UNL     1      33.427  -7.425  21.651  1.00  0.00     0.000 C 
BRANCH   7   8
ATOM      8  C   UNL     1      32.142  -6.605  21.433  1.00  0.00     0.000 C 
BRANCH   8   9
ATOM      9  C   UNL     1      30.931  -7.488  21.067  1.00  0.00     0.000 C 
BRANCH   9  10
ATOM     10  C   UNL     1      30.439  -8.379  22.220  1.00  0.00     0.000 C 
BRANCH  10  11
ATOM     11  C   UNL     1      30.640  -9.877  21.948  1.00  0.00     0.000 C 
BRANCH  11  12
ATOM     12  C   UNL     1      30.392 -10.703  23.218  1.00  0.00     0.000 C 
BRANCH  12  13
ATOM     13  C   UNL     1      31.385 -11.871  23.376  1.00  0.00     0.006 C 
BRANCH  13  14
ATOM     14  C   UNL     1      32.752 -11.465  23.951  1.00  0.00     0.053 C 
BRANCH  14  15
ATOM     15  C   UNL     1      32.626 -10.429  25.028  1.00  0.00     0.041 C 
ATOM     16  O   UNL     1      32.198 -10.750  26.169  1.00  0.00    -0.550 OA
ATOM     17  O   UNL     1      33.012  -9.118  24.781  1.00  0.00    -0.550 OA
ENDBRANCH  14  15
ENDBRANCH  13  14
ENDBRANCH  12  13
ENDBRANCH  11  12
ENDBRANCH  10  11
ENDBRANCH   9  10
ENDBRANCH   8   9
ENDBRANCH   7   8
ENDBRANCH   6   7
ENDBRANCH   5   6
ENDBRANCH   4   5
ENDBRANCH   3   4
ENDBRANCH   2   3
ENDBRANCH   1   2
BRANCH   1  18
ATOM     18  C   UNL     1      32.127  -8.227  16.383  1.00  0.00     0.000 C 
BRANCH  18  19
ATOM     19  C   UNL     1      32.499  -9.608  16.944  1.00  0.00     0.000 C 
BRANCH  19  20
ATOM     20  C   UNL     1      32.175  -9.759  18.441  1.00  0.00     0.000 C 
BRANCH  20  21
ATOM     21  C   UNL     1      33.014 -10.810  19.193  1.00  0.00     0.000 C 
BRANCH  21  22
ATOM     22  C   UNL     1      33.208 -12.109  18.389  1.00  0.00     0.000 C 
BRANCH  22  23
ATOM     23  C   UNL     1      32.012 -13.068  18.514  1.00  0.00     0.000 C 
BRANCH  23  24
ATOM     24  C   UNL     1      31.311 -12.972  19.881  1.00  0.00    -0.000 C 
BRANCH  24  25
ATOM     25  C   UNL     1      30.010 -13.790  19.930  1.00  0.00    -0.000 C 
BRANCH  25  26
ATOM     26  C   UNL     1      28.894 -13.072  20.709  1.00  0.00    -0.000 C 
BRANCH  26  27
ATOM     27  C   UNL     1      28.034 -14.039  21.542  1.00  0.00    -0.000 C 
BRANCH  27  28
ATOM     28  C   UNL     1      28.008 -13.743  23.053  1.00  0.00    -0.000 C 
BRANCH  28  29
ATOM     29  C   UNL     1      28.280 -14.983  23.933  1.00  0.00    -0.000 C 
BRANCH  29  30
ATOM     30  C   UNL     1      29.783 -15.200  24.181  1.00  0.00    -0.000 C 
BRANCH  30  31
ATOM     31  C   UNL     1      30.469 -15.951  23.030  1.00  0.00    -0.003 C 
ATOM     32  C   UNL     1      31.884 -15.442  22.753  1.00  0.00     0.004 C 
ENDBRANCH  30  31
ENDBRANCH  29  30
ENDBRANCH  28  29
ENDBRANCH  27  28
ENDBRANCH  26  27
ENDBRANCH  25  26
ENDBRANCH  24  25
ENDBRANCH  23  24
ENDBRANCH  22  23
ENDBRANCH  21  22
ENDBRANCH  20  21
ENDBRANCH  19  20
ENDBRANCH  18  19
ENDBRANCH   1  18
TORSDOF 28
ENDMDL
MODEL 2
REMARK VINA RESULT:    -3.825      2.134      5.540
REMARK INTER + INTRA:         -15.561
REMARK INTER:                  -9.835
REMARK INTRA:                  -5.727
REMARK UNBOUND:                -5.476
REMARK SMILES CCCCCCCCCCCCCCCCCCCCCCCCCCCCCC(=O)[O-]
REMARK SMILES IDX 16 1 17 2 18 3 19 4 20 5 21 6 22 7 23 8 24 9 25 10 26 11
REMARK SMILES IDX 27 12 28 13 29 14 30 15 31 16 32 17 15 18 14 19 13 20 12 21
REMARK SMILES IDX 11 22 10 23 9 24 8 25 7 26 6 27 5 28 4 29 3 30 2 31 1 32
REMARK H PARENT
REMARK Flexibility Score: inf
ROOT
ATOM      1  C   UNL     1      32.413  -6.769  19.806  1.00  0.00     0.000 C 
ENDROOT
BRANCH   1   2
ATOM      2  C   UNL     1      32.231  -6.277  18.360  1.00  0.00     0.000 C 
BRANCH   2   3
ATOM      3  C   UNL     1      31.445  -7.277  17.495  1.00  0.00     0.000 C 
BRANCH   3   4
ATOM      4  C   UNL     1      32.226  -7.743  16.252  1.00  0.00     0.000 C 
BRANCH   4   5
ATOM      5  C   UNL     1      32.585  -9.241  16.228  1.00  0.00     0.000 C 
BRANCH   5   6
ATOM      6  C   UNL     1      32.297  -9.952  17.563  1.00  0.00     0.000 C 
BRANCH   6   7
ATOM      7  C   UNL     1      33.575 -10.268  18.356  1.00  0.00     0.000 C 
BRANCH   7   8
ATOM      8  C   UNL     1      33.376 -11.413  19.366  1.00  0.00     0.000 C 
BRANCH   8   9
ATOM      9  C   UNL     1      32.987 -12.742  18.687  1.00  0.00     0.000 C 
BRANCH   9  10
ATOM     10  C   UNL     1      31.678 -13.353  19.218  1.00  0.00     0.000 C 
BRANCH  10  11
ATOM     11  C   UNL     1      30.995 -12.476  20.278  1.00  0.00     0.000 C 
BRANCH  11  12
ATOM     12  C   UNL     1      29.549 -12.930  20.518  1.00  0.00     0.000 C 
BRANCH  12  13
ATOM     13  C   UNL     1      29.459 -14.325  21.166  1.00  0.00     0.006 C 
BRANCH  13  14
ATOM     14  C   UNL     1      28.113 -14.620  21.850  1.00  0.00     0.053 C 
BRANCH  14  15
ATOM     15  C   UNL     1      28.291 -15.113  23.255  1.00  0.00     0.041 C 
ATOM     16  O   UNL     1      28.136 -14.327  24.227  1.00  0.00    -0.550 OA
ATOM     17  O   UNL     1      28.597 -16.447  23.490  1.00  0.00    -0.550 OA
ENDBRANCH  14  15
ENDBRANCH  13  14
ENDBRANCH  12  13
ENDBRANCH  11  12
ENDBRANCH  10  11
ENDBRANCH   9  10
ENDBRANCH   8   9
ENDBRANCH   7   8
ENDBRANCH   6   7
ENDBRANCH   5   6
ENDBRANCH   4   5
ENDBRANCH   3   4
ENDBRANCH   2   3
ENDBRANCH   1   2
BRANCH   1  18
ATOM     18  C   UNL     1      31.128  -7.367  20.397  1.00  0.00     0.000 C 
BRANCH  18  19
ATOM     19  C   UNL     1      31.396  -8.755  20.998  1.00  0.00     0.000 C 
BRANCH  19  20
ATOM     20  C   UNL     1      30.430  -9.115  22.142  1.00  0.00     0.000 C 
BRANCH  20  21
ATOM     21  C   UNL     1      29.828  -7.914  22.896  1.00  0.00     0.000 C 
BRANCH  21  22
ATOM     22  C   UNL     1      30.533  -7.632  24.235  1.00  0.00     0.000 C 
BRANCH  22  23
ATOM     23  C   UNL     1      31.766  -6.727  24.078  1.00  0.00     0.000 C 
BRANCH  23  24
ATOM     24  C   UNL     1      33.013  -7.293  24.782  1.00  0.00    -0.000 C 
BRANCH  24  25
ATOM     25  C   UNL     1      32.790  -8.722  25.306  1.00  0.00    -0.000 C 
BRANCH  25  26
ATOM     26  C   UNL     1      33.918  -9.682  24.889  1.00  0.00    -0.000 C 
BRANCH  26  27
ATOM     27  C   UNL     1      33.933  -9.958  23.375  1.00  0.00    -0.000 C 
BRANCH  27  28
ATOM     28  C   UNL     1      33.273 -11.284  22.953  1.00  0.00    -0.000 C 
BRANCH  28  29
ATOM     29  C   UNL     1      32.804 -12.149  24.144  1.00  0.00    -0.000 C 
BRANCH  29  30
ATOM     30  C   UNL     1      31.368 -12.668  23.954  1.00  0.00    -0.000 C 
BRANCH  30  31
ATOM     31  C   UNL     1      30.310 -11.676  24.460  1.00  0.00    -0.003 C 
ATOM     32  C   UNL     1      30.389 -11.447  25.969  1.00  0.00     0.004 C 
ENDBRANCH  30  31
ENDBRANCH  29  30
ENDBRANCH  28  29
ENDBRANCH  27  28
ENDBRANCH  26  27
ENDBRANCH  25  26
ENDBRANCH  24  25
ENDBRANCH  23  24
ENDBRANCH  22  23
ENDBRANCH  21  22
ENDBRANCH  20  21
ENDBRANCH  19  20
ENDBRANCH  18  19
ENDBRANCH   1  18
TORSDOF 28
ENDMDL
MODEL 3
REMARK VINA RESULT:    -3.801      1.979      6.957
REMARK INTER + INTRA:         -15.499
REMARK INTER:                  -9.744
REMARK INTRA:                  -5.755
REMARK UNBOUND:                -5.476
REMARK SMILES CCCCCCCCCCCCCCCCCCCCCCCCCCCCCC(=O)[O-]
REMARK SMILES IDX 16 1 17 2 18 3 19 4 20 5 21 6 22 7 23 8 24 9 25 10 26 11
REMARK SMILES IDX 27 12 28 13 29 14 30 15 31 16 32 17 15 18 14 19 13 20 12 21
REMARK SMILES IDX 11 22 10 23 9 24 8 25 7 26 6 27 5 28 4 29 3 30 2 31 1 32
REMARK H PARENT
REMARK Flexibility Score: inf
ROOT
ATOM      1  C   UNL     1      32.270  -8.837  23.068  1.00  0.00     0.000 C 
ENDROOT
BRANCH   1   2
ATOM      2  C   UNL     1      32.020  -9.341  24.500  1.00  0.00     0.000 C 
BRANCH   2   3
ATOM      3  C   UNL     1      30.574  -9.818  24.709  1.00  0.00     0.000 C 
BRANCH   3   4
ATOM      4  C   UNL     1      30.218 -11.053  23.859  1.00  0.00     0.000 C 
BRANCH   4   5
ATOM      5  C   UNL     1      31.154 -12.263  24.038  1.00  0.00     0.000 C 
BRANCH   5   6
ATOM      6  C   UNL     1      31.691 -12.814  22.705  1.00  0.00     0.000 C 
BRANCH   6   7
ATOM      7  C   UNL     1      31.098 -12.095  21.482  1.00  0.00     0.000 C 
BRANCH   7   8
ATOM      8  C   UNL     1      31.137 -12.961  20.210  1.00  0.00     0.000 C 
BRANCH   8   9
ATOM      9  C   UNL     1      29.844 -13.779  20.011  1.00  0.00     0.000 C 
BRANCH   9  10
ATOM     10  C   UNL     1      28.600 -13.145  20.657  1.00  0.00     0.000 C 
BRANCH  10  11
ATOM     11  C   UNL     1      27.783 -14.142  21.491  1.00  0.00     0.000 C 
BRANCH  11  12
ATOM     12  C   UNL     1      27.826 -13.778  22.981  1.00  0.00     0.000 C 
BRANCH  12  13
ATOM     13  C   UNL     1      28.344 -14.929  23.865  1.00  0.00     0.006 C 
BRANCH  13  14
ATOM     14  C   UNL     1      29.148 -15.997  23.106  1.00  0.00     0.053 C 
BRANCH  14  15
ATOM     15  C   UNL     1      30.528 -16.169  23.667  1.00  0.00     0.041 C 
ATOM     16  O   UNL     1      31.468 -16.564  22.928  1.00  0.00    -0.550 OA
ATOM     17  O   UNL     1      30.780 -15.862  24.998  1.00  0.00    -0.550 OA
ENDBRANCH  14  15
ENDBRANCH  13  14
ENDBRANCH  12  13
ENDBRANCH  11  12
ENDBRANCH  10  11
ENDBRANCH   9  10
ENDBRANCH   8   9
ENDBRANCH   7   8
ENDBRANCH   6   7
ENDBRANCH   5   6
ENDBRANCH   4   5
ENDBRANCH   3   4
ENDBRANCH   2   3
ENDBRANCH   1   2
BRANCH   1  18
ATOM     18  C   UNL     1      31.810  -7.387  22.859  1.00  0.00     0.000 C 
BRANCH  18  19
ATOM     19  C   UNL     1      30.681  -7.316  21.819  1.00  0.00     0.000 C 
BRANCH  19  20
ATOM     20  C   UNL     1      31.179  -7.498  20.373  1.00  0.00     0.000 C 
BRANCH  20  21
ATOM     21  C   UNL     1      32.164  -6.423  19.877  1.00  0.00     0.000 C 
BRANCH  21  22
ATOM     22  C   UNL     1      32.141  -6.248  18.348  1.00  0.00     0.000 C 
BRANCH  22  23
ATOM     23  C   UNL     1      31.425  -7.404  17.629  1.00  0.00     0.000 C 
BRANCH  23  24
ATOM     24  C   UNL     1      32.238  -7.965  16.449  1.00  0.00    -0.000 C 
BRANCH  24  25
ATOM     25  C   UNL     1      32.460  -9.484  16.562  1.00  0.00    -0.000 C 
BRANCH  25  26
ATOM     26  C   UNL     1      32.277  -9.997  18.001  1.00  0.00    -0.000 C 
BRANCH  26  27
ATOM     27  C   UNL     1      33.572 -10.584  18.591  1.00  0.00    -0.000 C 
BRANCH  27  28
ATOM     28  C   UNL     1      33.907 -10.108  20.016  1.00  0.00    -0.000 C 
BRANCH  28  29
ATOM     29  C   UNL     1      35.250  -9.352  20.118  1.00  0.00    -0.000 C 
BRANCH  29  30
ATOM     30  C   UNL     1      35.204  -7.988  19.408  1.00  0.00    -0.000 C 
BRANCH  30  31
ATOM     31  C   UNL     1      36.025  -7.970  18.110  1.00  0.00    -0.003 C 
ATOM     32  C   UNL     1      35.665  -6.796  17.199  1.00  0.00     0.004 C 
ENDBRANCH  30  31
ENDBRANCH  29  30
ENDBRANCH  28  29
ENDBRANCH  27  28
ENDBRANCH  26  27
ENDBRANCH  25  26
ENDBRANCH  24  25
ENDBRANCH  23  24
ENDBRANCH  22  23
ENDBRANCH  21  22
ENDBRANCH  20  21
ENDBRANCH  19  20
ENDBRANCH  18  19
ENDBRANCH   1  18
TORSDOF 28
ENDMDL
MODEL 4
REMARK VINA RESULT:    -3.752      2.114      5.255
REMARK INTER + INTRA:         -15.371
REMARK INTER:                  -9.967
REMARK INTRA:                  -5.403
REMARK UNBOUND:                -5.476
REMARK SMILES CCCCCCCCCCCCCCCCCCCCCCCCCCCCCC(=O)[O-]
REMARK SMILES IDX 16 1 17 2 18 3 19 4 20 5 21 6 22 7 23 8 24 9 25 10 26 11
REMARK SMILES IDX 27 12 28 13 29 14 30 15 31 16 32 17 15 18 14 19 13 20 12 21
REMARK SMILES IDX 11 22 10 23 9 24 8 25 7 26 6 27 5 28 4 29 3 30 2 31 1 32
REMARK H PARENT
REMARK Flexibility Score: inf
ROOT
ATOM      1  C   UNL     1      33.650  -6.217  18.428  1.00  0.00     0.000 C 
ENDROOT
BRANCH   1   2
ATOM      2  C   UNL     1      32.157  -6.027  18.110  1.00  0.00     0.000 C 
BRANCH   2   3
ATOM      3  C   UNL     1      31.415  -7.365  17.956  1.00  0.00     0.000 C 
BRANCH   3   4
ATOM      4  C   UNL     1      32.111  -8.330  16.978  1.00  0.00     0.000 C 
BRANCH   4   5
ATOM      5  C   UNL     1      32.491  -9.701  17.570  1.00  0.00     0.000 C 
BRANCH   5   6
ATOM      6  C   UNL     1      32.139  -9.832  19.062  1.00  0.00     0.000 C 
BRANCH   6   7
ATOM      7  C   UNL     1      32.909 -10.966  19.758  1.00  0.00     0.000 C 
BRANCH   7   8
ATOM      8  C   UNL     1      32.888 -12.278  18.951  1.00  0.00     0.000 C 
BRANCH   8   9
ATOM      9  C   UNL     1      32.159 -13.418  19.693  1.00  0.00     0.000 C 
BRANCH   9  10
ATOM     10  C   UNL     1      30.625 -13.332  19.609  1.00  0.00     0.000 C 
BRANCH  10  11
ATOM     11  C   UNL     1      29.928 -13.811  20.892  1.00  0.00     0.000 C 
BRANCH  11  12
ATOM     12  C   UNL     1      28.414 -13.569  20.817  1.00  0.00     0.000 C 
BRANCH  12  13
ATOM     13  C   UNL     1      27.648 -14.193  21.999  1.00  0.00     0.006 C 
BRANCH  13  14
ATOM     14  C   UNL     1      28.282 -13.929  23.375  1.00  0.00     0.053 C 
BRANCH  14  15
ATOM     15  C   UNL     1      28.513 -15.197  24.142  1.00  0.00     0.041 C 
ATOM     16  O   UNL     1      29.234 -16.109  23.657  1.00  0.00    -0.550 OA
ATOM     17  O   UNL     1      27.956 -15.357  25.405  1.00  0.00    -0.550 OA
ENDBRANCH  14  15
ENDBRANCH  13  14
ENDBRANCH  12  13
ENDBRANCH  11  12
ENDBRANCH  10  11
ENDBRANCH   9  10
ENDBRANCH   8   9
ENDBRANCH   7   8
ENDBRANCH   6   7
ENDBRANCH   5   6
ENDBRANCH   4   5
ENDBRANCH   3   4
ENDBRANCH   2   3
ENDBRANCH   1   2
BRANCH   1  18
ATOM     18  C   UNL     1      33.971  -6.018  19.917  1.00  0.00     0.000 C 
BRANCH  18  19
ATOM     19  C   UNL     1      34.328  -7.357  20.582  1.00  0.00     0.000 C 
BRANCH  19  20
ATOM     20  C   UNL     1      33.493  -7.645  21.844  1.00  0.00     0.000 C 
BRANCH  20  21
ATOM     21  C   UNL     1      32.308  -6.690  22.080  1.00  0.00     0.000 C 
BRANCH  21  22
ATOM     22  C   UNL     1      30.955  -7.297  21.666  1.00  0.00     0.000 C 
BRANCH  22  23
ATOM     23  C   UNL     1      29.937  -7.321  22.818  1.00  0.00     0.000 C 
BRANCH  23  24
ATOM     24  C   UNL     1      30.602  -7.481  24.197  1.00  0.00    -0.000 C 
BRANCH  24  25
ATOM     25  C   UNL     1      29.914  -8.557  25.056  1.00  0.00    -0.000 C 
BRANCH  25  26
ATOM     26  C   UNL     1      30.575  -9.939  24.905  1.00  0.00    -0.000 C 
BRANCH  26  27
ATOM     27  C   UNL     1      30.091 -10.694  23.654  1.00  0.00    -0.000 C 
BRANCH  27  28
ATOM     28  C   UNL     1      31.212 -11.325  22.806  1.00  0.00    -0.000 C 
BRANCH  28  29
ATOM     29  C   UNL     1      31.950 -12.482  23.515  1.00  0.00    -0.000 C 
BRANCH  29  30
ATOM     30  C   UNL     1      33.477 -12.295  23.496  1.00  0.00    -0.000 C 
BRANCH  30  31
ATOM     31  C   UNL     1      33.890 -10.830  23.289  1.00  0.00    -0.003 C 
ATOM     32  C   UNL     1      34.540 -10.219  24.530  1.00  0.00     0.004 C 
ENDBRANCH  30  31
ENDBRANCH  29  30
ENDBRANCH  28  29
ENDBRANCH  27  28
ENDBRANCH  26  27
ENDBRANCH  25  26
ENDBRANCH  24  25
ENDBRANCH  23  24
ENDBRANCH  22  23
ENDBRANCH  21  22
ENDBRANCH  20  21
ENDBRANCH  19  20
ENDBRANCH  18  19
ENDBRANCH   1  18
TORSDOF 28
ENDMDL
MODEL 5
REMARK VINA RESULT:    -3.747      1.726      5.899
REMARK INTER + INTRA:         -15.357
REMARK INTER:                  -9.061
REMARK INTRA:                  -6.296
REMARK UNBOUND:                -5.476
REMARK SMILES CCCCCCCCCCCCCCCCCCCCCCCCCCCCCC(=O)[O-]
REMARK SMILES IDX 16 1 17 2 18 3 19 4 20 5 21 6 22 7 23 8 24 9 25 10 26 11
REMARK SMILES IDX 27 12 28 13 29 14 30 15 31 16 32 17 15 18 14 19 13 20 12 21
REMARK SMILES IDX 11 22 10 23 9 24 8 25 7 26 6 27 5 28 4 29 3 30 2 31 1 32
REMARK H PARENT
REMARK Flexibility Score: inf
ROOT
ATOM      1  C   UNL     1      32.771 -10.670  17.825  1.00  0.00     0.000 C 
ENDROOT
BRANCH   1   2
ATOM      2  C   UNL     1      32.814 -11.981  17.020  1.00  0.00     0.000 C 
BRANCH   2   3
ATOM      3  C   UNL     1      33.607 -13.084  17.740  1.00  0.00     0.000 C 
BRANCH   3   4
ATOM      4  C   UNL     1      34.677 -12.529  18.699  1.00  0.00     0.000 C 
BRANCH   4   5
ATOM      5  C   UNL     1      34.780 -13.255  20.054  1.00  0.00     0.000 C 
BRANCH   5   6
ATOM      6  C   UNL     1      34.469 -12.341  21.254  1.00  0.00     0.000 C 
BRANCH   6   7
ATOM      7  C   UNL     1      33.114 -12.658  21.907  1.00  0.00     0.000 C 
BRANCH   7   8
ATOM      8  C   UNL     1      32.199 -11.423  21.999  1.00  0.00     0.000 C 
BRANCH   8   9
ATOM      9  C   UNL     1      31.165 -11.366  20.855  1.00  0.00     0.000 C 
BRANCH   9  10
ATOM     10  C   UNL     1      30.767 -12.747  20.306  1.00  0.00     0.000 C 
BRANCH  10  11
ATOM     11  C   UNL     1      29.277 -13.064  20.504  1.00  0.00     0.000 C 
BRANCH  11  12
ATOM     12  C   UNL     1      29.058 -14.569  20.707  1.00  0.00     0.000 C 
BRANCH  12  13
ATOM     13  C   UNL     1      29.821 -15.127  21.924  1.00  0.00     0.006 C 
BRANCH  13  14
ATOM     14  C   UNL     1      29.208 -14.750  23.283  1.00  0.00     0.053 C 
BRANCH  14  15
ATOM     15  C   UNL     1      30.045 -13.747  24.019  1.00  0.00     0.041 C 
ATOM     16  O   UNL     1      31.156 -14.084  24.507  1.00  0.00    -0.550 OA
ATOM     17  O   UNL     1      29.611 -12.432  24.138  1.00  0.00    -0.550 OA
ENDBRANCH  14  15
ENDBRANCH  13  14
ENDBRANCH  12  13
ENDBRANCH  11  12
ENDBRANCH  10  11
ENDBRANCH   9  10
ENDBRANCH   8   9
ENDBRANCH   7   8
ENDBRANCH   6   7
ENDBRANCH   5   6
ENDBRANCH   4   5
ENDBRANCH   3   4
ENDBRANCH   2   3
ENDBRANCH   1   2
BRANCH   1  18
ATOM     18  C   UNL     1      32.455  -9.447  16.952  1.00  0.00     0.000 C 
BRANCH  18  19
ATOM     19  C   UNL     1      31.768  -8.348  17.778  1.00  0.00     0.000 C 
BRANCH  19  20
ATOM     20  C   UNL     1      31.902  -6.948  17.151  1.00  0.00     0.000 C 
BRANCH  20  21
ATOM     21  C   UNL     1      32.839  -5.980  17.897  1.00  0.00     0.000 C 
BRANCH  21  22
ATOM     22  C   UNL     1      34.326  -6.217  17.576  1.00  0.00     0.000 C 
BRANCH  22  23
ATOM     23  C   UNL     1      35.132  -6.679  18.801  1.00  0.00     0.000 C 
BRANCH  23  24
ATOM     24  C   UNL     1      35.668  -8.115  18.654  1.00  0.00    -0.000 C 
BRANCH  24  25
ATOM     25  C   UNL     1      35.419  -8.963  19.914  1.00  0.00    -0.000 C 
BRANCH  25  26
ATOM     26  C   UNL     1      34.038  -8.695  20.538  1.00  0.00    -0.000 C 
BRANCH  26  27
ATOM     27  C   UNL     1      34.129  -8.215  21.997  1.00  0.00    -0.000 C 
BRANCH  27  28
ATOM     28  C   UNL     1      33.010  -7.248  22.431  1.00  0.00    -0.000 C 
BRANCH  28  29
ATOM     29  C   UNL     1      32.042  -6.869  21.289  1.00  0.00    -0.000 C 
BRANCH  29  30
ATOM     30  C   UNL     1      30.663  -7.530  21.454  1.00  0.00    -0.000 C 
BRANCH  30  31
ATOM     31  C   UNL     1      30.175  -7.522  22.911  1.00  0.00    -0.003 C 
ATOM     32  C   UNL     1      29.831  -8.919  23.426  1.00  0.00     0.004 C 
ENDBRANCH  30  31
ENDBRANCH  29  30
ENDBRANCH  28  29
ENDBRANCH  27  28
ENDBRANCH  26  27
ENDBRANCH  25  26
ENDBRANCH  24  25
ENDBRANCH  23  24
ENDBRANCH  22  23
ENDBRANCH  21  22
ENDBRANCH  20  21
ENDBRANCH  19  20
ENDBRANCH  18  19
ENDBRANCH   1  18
TORSDOF 28
ENDMDL
MODEL 6
REMARK VINA RESULT:    -3.724      1.597      2.877
REMARK INTER + INTRA:         -15.297
REMARK INTER:                  -9.724
REMARK INTRA:                  -5.573
REMARK UNBOUND:                -5.476
REMARK SMILES CCCCCCCCCCCCCCCCCCCCCCCCCCCCCC(=O)[O-]
REMARK SMILES IDX 16 1 17 2 18 3 19 4 20 5 21 6 22 7 23 8 24 9 25 10 26 11
REMARK SMILES IDX 27 12 28 13 29 14 30 15 31 16 32 17 15 18 14 19 13 20 12 21
REMARK SMILES IDX 11 22 10 23 9 24 8 25 7 26 6 27 5 28 4 29 3 30 2 31 1 32
REMARK H PARENT
REMARK Flexibility Score: inf
ROOT
ATOM      1  C   UNL     1      33.736  -6.012  18.493  1.00  0.00     0.000 C 
ENDROOT
BRANCH   1   2
ATOM      2  C   UNL     1      35.217  -6.423  18.557  1.00  0.00     0.000 C 
BRANCH   2   3
ATOM      3  C   UNL     1      35.548  -7.572  17.590  1.00  0.00     0.000 C 
BRANCH   3   4
ATOM      4  C   UNL     1      35.631  -8.942  18.289  1.00  0.00     0.000 C 
BRANCH   4   5
ATOM      5  C   UNL     1      35.478  -8.906  19.822  1.00  0.00     0.000 C 
BRANCH   5   6
ATOM      6  C   UNL     1      34.600 -10.045  20.368  1.00  0.00     0.000 C 
BRANCH   6   7
ATOM      7  C   UNL     1      33.477  -9.542  21.289  1.00  0.00     0.000 C 
BRANCH   7   8
ATOM      8  C   UNL     1      33.551  -8.024  21.537  1.00  0.00     0.000 C 
BRANCH   8   9
ATOM      9  C   UNL     1      32.156  -7.373  21.644  1.00  0.00     0.000 C 
BRANCH   9  10
ATOM     10  C   UNL     1      30.994  -8.378  21.577  1.00  0.00     0.000 C 
BRANCH  10  11
ATOM     11  C   UNL     1      29.903  -8.104  22.623  1.00  0.00     0.000 C 
BRANCH  11  12
ATOM     12  C   UNL     1      30.422  -8.373  24.042  1.00  0.00     0.000 C 
BRANCH  12  13
ATOM     13  C   UNL     1      31.101  -9.749  24.180  1.00  0.00     0.006 C 
BRANCH  13  14
ATOM     14  C   UNL     1      30.122 -10.932  24.262  1.00  0.00     0.053 C 
BRANCH  14  15
ATOM     15  C   UNL     1      30.784 -12.178  24.772  1.00  0.00     0.041 C 
ATOM     16  O   UNL     1      30.301 -13.309  24.501  1.00  0.00    -0.550 OA
ATOM     17  O   UNL     1      31.952 -12.088  25.520  1.00  0.00    -0.550 OA
ENDBRANCH  14  15
ENDBRANCH  13  14
ENDBRANCH  12  13
ENDBRANCH  11  12
ENDBRANCH  10  11
ENDBRANCH   9  10
ENDBRANCH   8   9
ENDBRANCH   7   8
ENDBRANCH   6   7
ENDBRANCH   5   6
ENDBRANCH   4   5
ENDBRANCH   3   4
ENDBRANCH   2   3
ENDBRANCH   1   2
BRANCH   1  18
ATOM     18  C   UNL     1      33.214  -5.894  17.053  1.00  0.00     0.000 C 
BRANCH  18  19
ATOM     19  C   UNL     1      32.058  -6.876  16.808  1.00  0.00     0.000 C 
BRANCH  19  20
ATOM     20  C   UNL     1      31.756  -7.769  18.026  1.00  0.00     0.000 C 
BRANCH  20  21
ATOM     21  C   UNL     1      32.084  -9.263  17.843  1.00  0.00     0.000 C 
BRANCH  21  22
ATOM     22  C   UNL     1      32.528  -9.608  16.410  1.00  0.00     0.000 C 
BRANCH  22  23
ATOM     23  C   UNL     1      32.733 -11.118  16.200  1.00  0.00     0.000 C 
BRANCH  23  24
ATOM     24  C   UNL     1      33.218 -11.835  17.472  1.00  0.00    -0.000 C 
BRANCH  24  25
ATOM     25  C   UNL     1      32.302 -13.006  17.869  1.00  0.00    -0.000 C 
BRANCH  25  26
ATOM     26  C   UNL     1      32.092 -13.096  19.391  1.00  0.00    -0.000 C 
BRANCH  26  27
ATOM     27  C   UNL     1      31.126 -12.022  19.921  1.00  0.00    -0.000 C 
BRANCH  27  28
ATOM     28  C   UNL     1      30.188 -12.495  21.048  1.00  0.00    -0.000 C 
BRANCH  28  29
ATOM     29  C   UNL     1      29.056 -13.426  20.562  1.00  0.00    -0.000 C 
BRANCH  29  30
ATOM     30  C   UNL     1      28.133 -13.867  21.712  1.00  0.00    -0.000 C 
BRANCH  30  31
ATOM     31  C   UNL     1      28.187 -15.381  21.964  1.00  0.00    -0.003 C 
ATOM     32  C   UNL     1      28.088 -16.198  20.676  1.00  0.00     0.004 C 
ENDBRANCH  30  31
ENDBRANCH  29  30
ENDBRANCH  28  29
ENDBRANCH  27  28
ENDBRANCH  26  27
ENDBRANCH  25  26
ENDBRANCH  24  25
ENDBRANCH  23  24
ENDBRANCH  22  23
ENDBRANCH  21  22
ENDBRANCH  20  21
ENDBRANCH  19  20
ENDBRANCH  18  19
ENDBRANCH   1  18
TORSDOF 28
ENDMDL
MODEL 7
REMARK VINA RESULT:    -3.718      3.745      9.395
REMARK INTER + INTRA:         -15.279
REMARK INTER:                 -11.270
REMARK INTRA:                  -4.009
REMARK UNBOUND:                -5.476
REMARK SMILES CCCCCCCCCCCCCCCCCCCCCCCCCCCCCC(=O)[O-]
REMARK SMILES IDX 16 1 17 2 18 3 19 4 20 5 21 6 22 7 23 8 24 9 25 10 26 11
REMARK SMILES IDX 27 12 28 13 29 14 30 15 31 16 32 17 15 18 14 19 13 20 12 21
REMARK SMILES IDX 11 22 10 23 9 24 8 25 7 26 6 27 5 28 4 29 3 30 2 31 1 32
REMARK H PARENT
REMARK Flexibility Score: inf
ROOT
ATOM      1  C   UNL     1      28.132 -15.116  21.605  1.00  0.00     0.000 C 
ENDROOT
BRANCH   1   2
ATOM      2  C   UNL     1      27.740 -14.227  22.799  1.00  0.00     0.000 C 
BRANCH   2   3
ATOM      3  C   UNL     1      28.342 -14.726  24.123  1.00  0.00     0.000 C 
BRANCH   3   4
ATOM      4  C   UNL     1      28.788 -16.200  24.064  1.00  0.00     0.000 C 
BRANCH   4   5
ATOM      5  C   UNL     1      30.297 -16.435  24.267  1.00  0.00     0.000 C 
BRANCH   5   6
ATOM      6  C   UNL     1      30.883 -17.473  23.292  1.00  0.00     0.000 C 
BRANCH   6   7
ATOM      7  C   UNL     1      29.810 -18.137  22.415  1.00  0.00     0.000 C 
BRANCH   7   8
ATOM      8  C   UNL     1      30.030 -19.652  22.255  1.00  0.00     0.000 C 
BRANCH   8   9
ATOM      9  C   UNL     1      28.708 -20.448  22.273  1.00  0.00     0.000 C 
BRANCH   9  10
ATOM     10  C   UNL     1      28.764 -21.727  23.126  1.00  0.00     0.000 C 
BRANCH  10  11
ATOM     11  C   UNL     1      28.943 -21.441  24.624  1.00  0.00     0.000 C 
BRANCH  11  12
ATOM     12  C   UNL     1      27.650 -20.885  25.235  1.00  0.00     0.000 C 
BRANCH  12  13
ATOM     13  C   UNL     1      27.863 -19.552  25.978  1.00  0.00     0.006 C 
BRANCH  13  14
ATOM     14  C   UNL     1      29.316 -19.293  26.410  1.00  0.00     0.053 C 
BRANCH  14  15
ATOM     15  C   UNL     1      29.536 -19.602  27.861  1.00  0.00     0.041 C 
ATOM     16  O   UNL     1      29.474 -20.791  28.272  1.00  0.00    -0.550 OA
ATOM     17  O   UNL     1      29.842 -18.580  28.750  1.00  0.00    -0.550 OA
ENDBRANCH  14  15
ENDBRANCH  13  14
ENDBRANCH  12  13
ENDBRANCH  11  12
ENDBRANCH  10  11
ENDBRANCH   9  10
ENDBRANCH   8   9
ENDBRANCH   7   8
ENDBRANCH   6   7
ENDBRANCH   5   6
ENDBRANCH   4   5
ENDBRANCH   3   4
ENDBRANCH   2   3
ENDBRANCH   1   2
BRANCH   1  18
ATOM     18  C   UNL     1      29.251 -14.503  20.751  1.00  0.00     0.000 C 
BRANCH  18  19
ATOM     19  C   UNL     1      29.006 -13.003  20.523  1.00  0.00     0.000 C 
BRANCH  19  20
ATOM     20  C   UNL     1      30.263 -12.144  20.757  1.00  0.00     0.000 C 
BRANCH  20  21
ATOM     21  C   UNL     1      31.584 -12.928  20.870  1.00  0.00     0.000 C 
BRANCH  21  22
ATOM     22  C   UNL     1      32.599 -12.555  19.775  1.00  0.00     0.000 C 
BRANCH  22  23
ATOM     23  C   UNL     1      32.172 -13.040  18.380  1.00  0.00     0.000 C 
BRANCH  23  24
ATOM     24  C   UNL     1      32.548 -12.048  17.264  1.00  0.00    -0.000 C 
BRANCH  24  25
ATOM     25  C   UNL     1      32.718 -10.612  17.791  1.00  0.00    -0.000 C 
BRANCH  25  26
ATOM     26  C   UNL     1      33.257  -9.653  16.714  1.00  0.00    -0.000 C 
BRANCH  26  27
ATOM     27  C   UNL     1      33.031  -8.173  17.072  1.00  0.00    -0.000 C 
BRANCH  27  28
ATOM     28  C   UNL     1      31.645  -7.856  17.665  1.00  0.00    -0.000 C 
BRANCH  28  29
ATOM     29  C   UNL     1      31.705  -7.119  19.021  1.00  0.00    -0.000 C 
BRANCH  29  30
ATOM     30  C   UNL     1      31.403  -8.056  20.204  1.00  0.00    -0.000 C 
BRANCH  30  31
ATOM     31  C   UNL     1      32.676  -8.616  20.854  1.00  0.00    -0.003 C 
ATOM     32  C   UNL     1      32.397  -9.349  22.166  1.00  0.00     0.004 C 
ENDBRANCH  30  31
ENDBRANCH  29  30
ENDBRANCH  28  29
ENDBRANCH  27  28
ENDBRANCH  26  27
ENDBRANCH  25  26
ENDBRANCH  24  25
ENDBRANCH  23  24
ENDBRANCH  22  23
ENDBRANCH  21  22
ENDBRANCH  20  21
ENDBRANCH  19  20
ENDBRANCH  18  19
ENDBRANCH   1  18
TORSDOF 28
ENDMDL
MODEL 8
REMARK VINA RESULT:    -3.701      1.606      4.294
REMARK INTER + INTRA:         -15.236
REMARK INTER:                  -9.168
REMARK INTRA:                  -6.068
REMARK UNBOUND:                -5.476
REMARK SMILES CCCCCCCCCCCCCCCCCCCCCCCCCCCCCC(=O)[O-]
REMARK SMILES IDX 16 1 17 2 18 3 19 4 20 5 21 6 22 7 23 8 24 9 25 10 26 11
REMARK SMILES IDX 27 12 28 13 29 14 30 15 31 16 32 17 15 18 14 19 13 20 12 21
REMARK SMILES IDX 11 22 10 23 9 24 8 25 7 26 6 27 5 28 4 29 3 30 2 31 1 32
REMARK H PARENT
REMARK Flexibility Score: inf
ROOT
ATOM      1  C   UNL     1      33.384  -9.766  19.900  1.00  0.00     0.000 C 
ENDROOT
BRANCH   1   2
ATOM      2  C   UNL     1      33.899 -10.095  18.489  1.00  0.00     0.000 C 
BRANCH   2   3
ATOM      3  C   UNL     1      32.831 -10.779  17.620  1.00  0.00     0.000 C 
BRANCH   3   4
ATOM      4  C   UNL     1      32.480  -9.976  16.353  1.00  0.00     0.000 C 
BRANCH   4   5
ATOM      5  C   UNL     1      32.922  -8.500  16.371  1.00  0.00     0.000 C 
BRANCH   5   6
ATOM      6  C   UNL     1      31.747  -7.520  16.542  1.00  0.00     0.000 C 
BRANCH   6   7
ATOM      7  C   UNL     1      31.479  -7.164  18.013  1.00  0.00     0.000 C 
BRANCH   7   8
ATOM      8  C   UNL     1      32.415  -6.060  18.535  1.00  0.00     0.000 C 
BRANCH   8   9
ATOM      9  C   UNL     1      32.571  -6.091  20.070  1.00  0.00     0.000 C 
BRANCH   9  10
ATOM     10  C   UNL     1      34.033  -6.118  20.547  1.00  0.00     0.000 C 
BRANCH  10  11
ATOM     11  C   UNL     1      34.166  -6.059  22.076  1.00  0.00     0.000 C 
BRANCH  11  12
ATOM     12  C   UNL     1      34.098  -7.464  22.688  1.00  0.00     0.000 C 
BRANCH  12  13
ATOM     13  C   UNL     1      33.510  -7.470  24.112  1.00  0.00     0.006 C 
BRANCH  13  14
ATOM     14  C   UNL     1      32.002  -7.176  24.176  1.00  0.00     0.053 C 
BRANCH  14  15
ATOM     15  C   UNL     1      31.319  -7.960  25.256  1.00  0.00     0.041 C 
ATOM     16  O   UNL     1      30.071  -8.127  25.225  1.00  0.00    -0.550 OA
ATOM     17  O   UNL     1      32.066  -8.533  26.277  1.00  0.00    -0.550 OA
ENDBRANCH  14  15
ENDBRANCH  13  14
ENDBRANCH  12  13
ENDBRANCH  11  12
ENDBRANCH  10  11
ENDBRANCH   9  10
ENDBRANCH   8   9
ENDBRANCH   7   8
ENDBRANCH   6   7
ENDBRANCH   5   6
ENDBRANCH   4   5
ENDBRANCH   3   4
ENDBRANCH   2   3
ENDBRANCH   1   2
BRANCH   1  18
ATOM     18  C   UNL     1      31.886 -10.063  20.070  1.00  0.00     0.000 C 
BRANCH  18  19
ATOM     19  C   UNL     1      31.287  -9.220  21.206  1.00  0.00     0.000 C 
BRANCH  19  20
ATOM     20  C   UNL     1      30.535 -10.064  22.253  1.00  0.00     0.000 C 
BRANCH  20  21
ATOM     21  C   UNL     1      31.424 -10.959  23.137  1.00  0.00     0.000 C 
BRANCH  21  22
ATOM     22  C   UNL     1      30.642 -11.651  24.267  1.00  0.00     0.000 C 
BRANCH  22  23
ATOM     23  C   UNL     1      30.499 -13.167  24.048  1.00  0.00     0.000 C 
BRANCH  23  24
ATOM     24  C   UNL     1      29.046 -13.654  24.190  1.00  0.00    -0.000 C 
BRANCH  24  25
ATOM     25  C   UNL     1      28.302 -13.673  22.844  1.00  0.00    -0.000 C 
BRANCH  25  26
ATOM     26  C   UNL     1      29.175 -14.218  21.699  1.00  0.00    -0.000 C 
BRANCH  26  27
ATOM     27  C   UNL     1      29.308 -13.226  20.530  1.00  0.00    -0.000 C 
BRANCH  27  28
ATOM     28  C   UNL     1      30.732 -13.087  19.959  1.00  0.00    -0.000 C 
BRANCH  28  29
ATOM     29  C   UNL     1      31.739 -14.097  20.553  1.00  0.00    -0.000 C 
BRANCH  29  30
ATOM     30  C   UNL     1      32.980 -13.402  21.140  1.00  0.00    -0.000 C 
BRANCH  30  31
ATOM     31  C   UNL     1      34.163 -13.382  20.161  1.00  0.00    -0.003 C 
ATOM     32  C   UNL     1      33.997 -14.377  19.013  1.00  0.00     0.004 C 
ENDBRANCH  30  31
ENDBRANCH  29  30
ENDBRANCH  28  29
ENDBRANCH  27  28
ENDBRANCH  26  27
ENDBRANCH  25  26
ENDBRANCH  24  25
ENDBRANCH  23  24
ENDBRANCH  22  23
ENDBRANCH  21  22
ENDBRANCH  20  21
ENDBRANCH  19  20
ENDBRANCH  18  19
ENDBRANCH   1  18
TORSDOF 28
ENDMDL
MODEL 9
REMARK VINA RESULT:    -3.665      1.758      6.954
REMARK INTER + INTRA:         -15.140
REMARK INTER:                 -10.537
REMARK INTRA:                  -4.603
REMARK UNBOUND:                -5.476
REMARK SMILES CCCCCCCCCCCCCCCCCCCCCCCCCCCCCC(=O)[O-]
REMARK SMILES IDX 16 1 17 2 18 3 19 4 20 5 21 6 22 7 23 8 24 9 25 10 26 11
REMARK SMILES IDX 27 12 28 13 29 14 30 15 31 16 32 17 15 18 14 19 13 20 12 21
REMARK SMILES IDX 11 22 10 23 9 24 8 25 7 26 6 27 5 28 4 29 3 30 2 31 1 32
REMARK H PARENT
REMARK Flexibility Score: inf
ROOT
ATOM      1  C   UNL     1      30.693 -10.420  22.890  1.00  0.00     0.000 C 
ENDROOT
BRANCH   1   2
ATOM      2  C   UNL     1      30.960 -10.144  21.401  1.00  0.00     0.000 C 
BRANCH   2   3
ATOM      3  C   UNL     1      31.774 -11.265  20.733  1.00  0.00     0.000 C 
BRANCH   3   4
ATOM      4  C   UNL     1      31.240 -12.673  21.060  1.00  0.00     0.000 C 
BRANCH   4   5
ATOM      5  C   UNL     1      30.394 -13.325  19.950  1.00  0.00     0.000 C 
BRANCH   5   6
ATOM      6  C   UNL     1      28.964 -13.670  20.404  1.00  0.00     0.000 C 
BRANCH   6   7
ATOM      7  C   UNL     1      28.849 -15.091  20.979  1.00  0.00     0.000 C 
BRANCH   7   8
ATOM      8  C   UNL     1      28.133 -15.122  22.342  1.00  0.00     0.000 C 
BRANCH   8   9
ATOM      9  C   UNL     1      28.044 -13.727  22.996  1.00  0.00     0.000 C 
BRANCH   9  10
ATOM     10  C   UNL     1      29.124 -13.469  24.061  1.00  0.00     0.000 C 
BRANCH  10  11
ATOM     11  C   UNL     1      30.085 -14.654  24.239  1.00  0.00     0.000 C 
BRANCH  11  12
ATOM     12  C   UNL     1      30.022 -15.202  25.671  1.00  0.00     0.000 C 
BRANCH  12  13
ATOM     13  C   UNL     1      28.957 -14.501  26.535  1.00  0.00     0.006 C 
BRANCH  13  14
ATOM     14  C   UNL     1      29.502 -13.877  27.830  1.00  0.00     0.053 C 
BRANCH  14  15
ATOM     15  C   UNL     1      30.449 -12.747  27.557  1.00  0.00     0.041 C 
ATOM     16  O   UNL     1      31.661 -12.842  27.885  1.00  0.00    -0.550 OA
ATOM     17  O   UNL     1      29.998 -11.603  26.911  1.00  0.00    -0.550 OA
ENDBRANCH  14  15
ENDBRANCH  13  14
ENDBRANCH  12  13
ENDBRANCH  11  12
ENDBRANCH  10  11
ENDBRANCH   9  10
ENDBRANCH   8   9
ENDBRANCH   7   8
ENDBRANCH   6   7
ENDBRANCH   5   6
ENDBRANCH   4   5
ENDBRANCH   3   4
ENDBRANCH   2   3
ENDBRANCH   1   2
BRANCH   1  18
ATOM     18  C   UNL     1      29.929  -9.279  23.579  1.00  0.00     0.000 C 
BRANCH  18  19
ATOM     19  C   UNL     1      29.874  -8.036  22.677  1.00  0.00     0.000 C 
BRANCH  19  20
ATOM     20  C   UNL     1      30.389  -6.762  23.374  1.00  0.00     0.000 C 
BRANCH  20  21
ATOM     21  C   UNL     1      31.894  -6.754  23.701  1.00  0.00     0.000 C 
BRANCH  21  22
ATOM     22  C   UNL     1      32.760  -6.252  22.532  1.00  0.00     0.000 C 
BRANCH  22  23
ATOM     23  C   UNL     1      33.446  -7.396  21.767  1.00  0.00     0.000 C 
BRANCH  23  24
ATOM     24  C   UNL     1      33.233  -7.307  20.246  1.00  0.00    -0.000 C 
BRANCH  24  25
ATOM     25  C   UNL     1      31.789  -6.920  19.879  1.00  0.00    -0.000 C 
BRANCH  25  26
ATOM     26  C   UNL     1      31.401  -7.378  18.462  1.00  0.00    -0.000 C 
BRANCH  26  27
ATOM     27  C   UNL     1      32.507  -8.205  17.783  1.00  0.00    -0.000 C 
BRANCH  27  28
ATOM     28  C   UNL     1      32.129  -8.781  16.405  1.00  0.00    -0.000 C 
BRANCH  28  29
ATOM     29  C   UNL     1      32.500 -10.270  16.233  1.00  0.00    -0.000 C 
BRANCH  29  30
ATOM     30  C   UNL     1      33.697 -10.676  17.110  1.00  0.00    -0.000 C 
BRANCH  30  31
ATOM     31  C   UNL     1      33.539 -12.081  17.710  1.00  0.00    -0.003 C 
ATOM     32  C   UNL     1      32.508 -12.929  16.967  1.00  0.00     0.004 C 
ENDBRANCH  30  31
ENDBRANCH  29  30
ENDBRANCH  28  29
ENDBRANCH  27  28
ENDBRANCH  26  27
ENDBRANCH  25  26
ENDBRANCH  24  25
ENDBRANCH  23  24
ENDBRANCH  22  23
ENDBRANCH  21  22
ENDBRANCH  20  21
ENDBRANCH  19  20
ENDBRANCH  18  19
ENDBRANCH   1  18
TORSDOF 28
ENDMDL
