MODEL 1
REMARK VINA RESULT:    -3.938      0.000      0.000
REMARK INTER + INTRA:          -5.245
REMARK INTER:                  -5.090
REMARK INTRA:                  -0.156
REMARK UNBOUND:                -0.156
REMARK SMILES CCCCCCC(=O)[O-]
REMARK SMILES IDX 5 1 6 2 7 3 8 4 9 5 4 6 3 7 2 8 1 9
REMARK H PARENT
REMARK Flexibility Score: inf
ROOT
ATOM      1  C   UNL     1       3.222 -37.535  18.910  1.00  0.00     0.006 C 
ENDROOT
BRANCH   1   2
ATOM      2  C   UNL     1       4.401 -36.563  19.079  1.00  0.00     0.053 C 
BRANCH   2   3
ATOM      3  C   UNL     1       5.270 -36.931  20.242  1.00  0.00     0.041 C 
ATOM      4  O   UNL     1       5.441 -38.141  20.548  1.00  0.00    -0.550 OA
ATOM      5  O   UNL     1       5.861 -35.936  21.011  1.00  0.00    -0.550 OA
ENDBRANCH   2   3
ENDBRANCH   1   2
BRANCH   1   6
ATOM      6  C   UNL     1       2.683 -37.628  17.471  1.00  0.00     0.000 C 
BRANCH   6   7
ATOM      7  C   UNL     1       3.231 -36.519  16.557  1.00  0.00    -0.000 C 
BRANCH   7   8
ATOM      8  C   UNL     1       2.800 -36.695  15.093  1.00  0.00    -0.003 C 
ATOM      9  C   UNL     1       3.812 -37.494  14.272  1.00  0.00     0.004 C 
ENDBRANCH   7   8
ENDBRANCH   6   7
ENDBRANCH   1   6
TORSDOF 5
ENDMDL
MODEL 2
REMARK VINA RESULT:    -3.925      1.061      1.388
REMARK INTER + INTRA:          -5.228
REMARK INTER:                  -5.048
REMARK INTRA:                  -0.179
REMARK UNBOUND:                -0.156
REMARK SMILES CCCCCCC(=O)[O-]
REMARK SMILES IDX 5 1 6 2 7 3 8 4 9 5 4 6 3 7 2 8 1 9
REMARK H PARENT
REMARK Flexibility Score: inf
ROOT
ATOM      1  C   UNL     1       3.020 -37.510  19.691  1.00  0.00     0.006 C 
ENDROOT
BRANCH   1   2
ATOM      2  C   UNL     1       4.550 -37.569  19.557  1.00  0.00     0.053 C 
BRANCH   2   3
ATOM      3  C   UNL     1       5.207 -36.318  20.054  1.00  0.00     0.041 C 
ATOM      4  O   UNL     1       5.327 -35.321  19.295  1.00  0.00    -0.550 OA
ATOM      5  O   UNL     1       5.720 -36.267  21.344  1.00  0.00    -0.550 OA
ENDBRANCH   2   3
ENDBRANCH   1   2
BRANCH   1   6
ATOM      6  C   UNL     1       2.260 -37.808  18.386  1.00  0.00     0.000 C 
BRANCH   6   7
ATOM      7  C   UNL     1       3.067 -37.439  17.130  1.00  0.00    -0.000 C 
BRANCH   7   8
ATOM      8  C   UNL     1       2.213 -36.726  16.070  1.00  0.00    -0.003 C 
ATOM      9  C   UNL     1       2.881 -36.699  14.696  1.00  0.00     0.004 C 
ENDBRANCH   7   8
ENDBRANCH   6   7
ENDBRANCH   1   6
TORSDOF 5
ENDMDL
MODEL 3
REMARK VINA RESULT:    -3.732      3.017      5.286
REMARK INTER + INTRA:          -4.979
REMARK INTER:                  -4.880
REMARK INTRA:                  -0.099
REMARK UNBOUND:                -0.156
REMARK SMILES CCCCCCC(=O)[O-]
REMARK SMILES IDX 5 1 6 2 7 3 8 4 9 5 4 6 3 7 2 8 1 9
REMARK H PARENT
REMARK Flexibility Score: inf
ROOT
ATOM      1  C   UNL     1       3.823 -37.100  18.328  1.00  0.00     0.006 C 
ENDROOT
BRANCH   1   2
ATOM      2  C   UNL     1       2.543 -37.537  17.600  1.00  0.00     0.053 C 
BRANCH   2   3
ATOM      3  C   UNL     1       2.624 -37.295  16.124  1.00  0.00     0.041 C 
ATOM      4  O   UNL     1       1.828 -36.492  15.569  1.00  0.00    -0.550 OA
ATOM      5  O   UNL     1       3.554 -37.984  15.356  1.00  0.00    -0.550 OA
ENDBRANCH   2   3
ENDBRANCH   1   2
BRANCH   1   6
ATOM      6  C   UNL     1       3.914 -37.578  19.789  1.00  0.00     0.000 C 
BRANCH   6   7
ATOM      7  C   UNL     1       5.324 -37.414  20.382  1.00  0.00    -0.000 C 
BRANCH   7   8
ATOM      8  C   UNL     1       5.650 -35.954  20.730  1.00  0.00    -0.003 C 
ATOM      9  C   UNL     1       6.014 -35.766  22.203  1.00  0.00     0.004 C 
ENDBRANCH   7   8
ENDBRANCH   6   7
ENDBRANCH   1   6
TORSDOF 5
ENDMDL
MODEL 4
REMARK VINA RESULT:    -3.682      2.992      5.865
REMARK INTER + INTRA:          -4.914
REMARK INTER:                  -4.805
REMARK INTRA:                  -0.109
REMARK UNBOUND:                -0.156
REMARK SMILES CCCCCCC(=O)[O-]
REMARK SMILES IDX 5 1 6 2 7 3 8 4 9 5 4 6 3 7 2 8 1 9
REMARK H PARENT
REMARK Flexibility Score: inf
ROOT
ATOM      1  C   UNL     1       4.958 -35.888  19.886  1.00  0.00     0.006 C 
ENDROOT
BRANCH   1   2
ATOM      2  C   UNL     1       4.561 -37.370  19.807  1.00  0.00     0.053 C 
BRANCH   2   3
ATOM      3  C   UNL     1       3.344 -37.582  18.961  1.00  0.00     0.041 C 
ATOM      4  O   UNL     1       2.268 -37.974  19.486  1.00  0.00    -0.550 OA
ATOM      5  O   UNL     1       3.407 -37.383  17.588  1.00  0.00    -0.550 OA
ENDBRANCH   2   3
ENDBRANCH   1   2
BRANCH   1   6
ATOM      6  C   UNL     1       6.125 -35.597  20.848  1.00  0.00     0.000 C 
BRANCH   6   7
ATOM      7  C   UNL     1       5.942 -36.263  22.223  1.00  0.00    -0.000 C 
BRANCH   7   8
ATOM      8  C   UNL     1       5.946 -35.246  23.375  1.00  0.00    -0.003 C 
ATOM      9  C   UNL     1       6.070 -35.909  24.746  1.00  0.00     0.004 C 
ENDBRANCH   7   8
ENDBRANCH   6   7
ENDBRANCH   1   6
TORSDOF 5
ENDMDL
MODEL 5
REMARK VINA RESULT:    -3.631      2.940      5.653
REMARK INTER + INTRA:          -4.849
REMARK INTER:                  -4.760
REMARK INTRA:                  -0.089
REMARK UNBOUND:                -0.156
REMARK SMILES CCCCCCC(=O)[O-]
REMARK SMILES IDX 5 1 6 2 7 3 8 4 9 5 4 6 3 7 2 8 1 9
REMARK H PARENT
REMARK Flexibility Score: inf
ROOT
ATOM      1  C   UNL     1       3.994 -36.908  19.980  1.00  0.00     0.006 C 
ENDROOT
BRANCH   1   2
ATOM      2  C   UNL     1       3.876 -37.411  18.533  1.00  0.00     0.053 C 
BRANCH   2   3
ATOM      3  C   UNL     1       2.451 -37.639  18.130  1.00  0.00     0.041 C 
ATOM      4  O   UNL     1       1.641 -38.163  18.939  1.00  0.00    -0.550 OA
ATOM      5  O   UNL     1       2.029 -37.307  16.849  1.00  0.00    -0.550 OA
ENDBRANCH   2   3
ENDBRANCH   1   2
BRANCH   1   6
ATOM      6  C   UNL     1       5.381 -37.121  20.612  1.00  0.00     0.000 C 
BRANCH   6   7
ATOM      7  C   UNL     1       5.884 -35.883  21.374  1.00  0.00    -0.000 C 
BRANCH   7   8
ATOM      8  C   UNL     1       6.124 -36.167  22.865  1.00  0.00    -0.003 C 
ATOM      9  C   UNL     1       5.873 -34.944  23.746  1.00  0.00     0.004 C 
ENDBRANCH   7   8
ENDBRANCH   6   7
ENDBRANCH   1   6
TORSDOF 5
ENDMDL
MODEL 6
REMARK VINA RESULT:    -3.439      1.821      2.905
REMARK INTER + INTRA:          -4.600
REMARK INTER:                  -4.455
REMARK INTRA:                  -0.145
REMARK UNBOUND:                -0.156
REMARK SMILES CCCCCCC(=O)[O-]
REMARK SMILES IDX 5 1 6 2 7 3 8 4 9 5 4 6 3 7 2 8 1 9
REMARK H PARENT
REMARK Flexibility Score: inf
ROOT
ATOM      1  C   UNL     1       4.829 -35.800  20.457  1.00  0.00     0.006 C 
ENDROOT
BRANCH   1   2
ATOM      2  C   UNL     1       6.125 -35.676  21.273  1.00  0.00     0.053 C 
BRANCH   2   3
ATOM      3  C   UNL     1       5.876 -35.792  22.746  1.00  0.00     0.041 C 
ATOM      4  O   UNL     1       6.110 -36.875  23.344  1.00  0.00    -0.550 OA
ATOM      5  O   UNL     1       5.350 -34.716  23.449  1.00  0.00    -0.550 OA
ENDBRANCH   2   3
ENDBRANCH   1   2
BRANCH   1   6
ATOM      6  C   UNL     1       4.717 -37.104  19.646  1.00  0.00     0.000 C 
BRANCH   6   7
ATOM      7  C   UNL     1       3.266 -37.445  19.265  1.00  0.00    -0.000 C 
BRANCH   7   8
ATOM      8  C   UNL     1       3.106 -37.753  17.768  1.00  0.00    -0.003 C 
ATOM      9  C   UNL     1       3.219 -36.505  16.894  1.00  0.00     0.004 C 
ENDBRANCH   7   8
ENDBRANCH   6   7
ENDBRANCH   1   6
TORSDOF 5
ENDMDL
MODEL 7
REMARK VINA RESULT:    -3.414      3.164      6.284
REMARK INTER + INTRA:          -4.567
REMARK INTER:                  -4.407
REMARK INTRA:                  -0.160
REMARK UNBOUND:                -0.156
REMARK SMILES CCCCCCC(=O)[O-]
REMARK SMILES IDX 5 1 6 2 7 3 8 4 9 5 4 6 3 7 2 8 1 9
REMARK H PARENT
REMARK Flexibility Score: inf
ROOT
ATOM      1  C   UNL     1       4.884 -35.606  21.490  1.00  0.00     0.006 C 
ENDROOT
BRANCH   1   2
ATOM      2  C   UNL     1       5.164 -36.003  20.031  1.00  0.00     0.053 C 
BRANCH   2   3
ATOM      3  C   UNL     1       4.678 -37.385  19.721  1.00  0.00     0.041 C 
ATOM      4  O   UNL     1       5.358 -38.388  20.066  1.00  0.00    -0.550 OA
ATOM      5  O   UNL     1       3.494 -37.565  19.018  1.00  0.00    -0.550 OA
ENDBRANCH   2   3
ENDBRANCH   1   2
BRANCH   1   6
ATOM      6  C   UNL     1       6.124 -35.640  22.402  1.00  0.00     0.000 C 
BRANCH   6   7
ATOM      7  C   UNL     1       6.017 -34.667  23.588  1.00  0.00    -0.000 C 
BRANCH   7   8
ATOM      8  C   UNL     1       6.124 -35.378  24.946  1.00  0.00    -0.003 C 
ATOM      9  C   UNL     1       5.732 -36.854  24.871  1.00  0.00     0.004 C 
ENDBRANCH   7   8
ENDBRANCH   6   7
ENDBRANCH   1   6
TORSDOF 5
ENDMDL
MODEL 8
REMARK VINA RESULT:    -3.155      3.574      6.740
REMARK INTER + INTRA:          -4.233
REMARK INTER:                  -4.063
REMARK INTRA:                  -0.170
REMARK UNBOUND:                -0.156
REMARK SMILES CCCCCCC(=O)[O-]
REMARK SMILES IDX 5 1 6 2 7 3 8 4 9 5 4 6 3 7 2 8 1 9
REMARK H PARENT
REMARK Flexibility Score: inf
ROOT
ATOM      1  C   UNL     1       5.191 -35.488  22.464  1.00  0.00     0.006 C 
ENDROOT
BRANCH   1   2
ATOM      2  C   UNL     1       5.966 -36.022  21.249  1.00  0.00     0.053 C 
BRANCH   2   3
ATOM      3  C   UNL     1       5.119 -36.062  20.015  1.00  0.00     0.041 C 
ATOM      4  O   UNL     1       4.267 -36.977  19.861  1.00  0.00    -0.550 OA
ATOM      5  O   UNL     1       5.296 -35.112  19.018  1.00  0.00    -0.550 OA
ENDBRANCH   2   3
ENDBRANCH   1   2
BRANCH   1   6
ATOM      6  C   UNL     1       6.062 -34.737  23.488  1.00  0.00     0.000 C 
BRANCH   6   7
ATOM      7  C   UNL     1       6.125 -35.449  24.851  1.00  0.00    -0.000 C 
BRANCH   7   8
ATOM      8  C   UNL     1       5.703 -36.924  24.765  1.00  0.00    -0.003 C 
ATOM      9  C   UNL     1       4.722 -37.321  25.868  1.00  0.00     0.004 C 
ENDBRANCH   7   8
ENDBRANCH   6   7
ENDBRANCH   1   6
TORSDOF 5
ENDMDL
MODEL 9
REMARK VINA RESULT:    -1.976      3.339      5.190
REMARK INTER + INTRA:          -2.709
REMARK INTER:                  -2.564
REMARK INTRA:                  -0.144
REMARK UNBOUND:                -0.156
REMARK SMILES CCCCCCC(=O)[O-]
REMARK SMILES IDX 5 1 6 2 7 3 8 4 9 5 4 6 3 7 2 8 1 9
REMARK H PARENT
REMARK Flexibility Score: inf
ROOT
ATOM      1  C   UNL     1       5.489 -35.181  23.222  1.00  0.00     0.006 C 
ENDROOT
BRANCH   1   2
ATOM      2  C   UNL     1       6.125 -35.808  24.473  1.00  0.00     0.053 C 
BRANCH   2   3
ATOM      3  C   UNL     1       5.446 -37.082  24.870  1.00  0.00     0.041 C 
ATOM      4  O   UNL     1       4.708 -37.116  25.890  1.00  0.00    -0.550 OA
ATOM      5  O   UNL     1       5.657 -38.242  24.135  1.00  0.00    -0.550 OA
ENDBRANCH   2   3
ENDBRANCH   1   2
BRANCH   1   6
ATOM      6  C   UNL     1       6.124 -35.635  21.895  1.00  0.00     0.000 C 
BRANCH   6   7
ATOM      7  C   UNL     1       5.085 -35.853  20.782  1.00  0.00    -0.000 C 
BRANCH   7   8
ATOM      8  C   UNL     1       5.027 -37.313  20.308  1.00  0.00    -0.003 C 
ATOM      9  C   UNL     1       4.017 -37.527  19.180  1.00  0.00     0.004 C 
ENDBRANCH   7   8
ENDBRANCH   6   7
ENDBRANCH   1   6
TORSDOF 5
ENDMDL
