MODEL 1
REMARK VINA RESULT:    -5.965      0.000      0.000
REMARK INTER + INTRA:          -6.727
REMARK INTER:                  -6.488
REMARK INTRA:                  -0.239
REMARK UNBOUND:                -0.239
REMARK SMILES O=C([O-])c1ccccc1O
REMARK SMILES IDX 4 1 9 2 5 3 8 4 6 5 7 6 2 7 1 8 3 9 10 10
REMARK H PARENT 10 11
REMARK Flexibility Score: inf
ROOT
ATOM      1  C   UNL     1      17.718  -1.941  27.080  1.00  0.00     0.039 A 
ATOM      2  C   UNL     1      18.126  -0.953  26.146  1.00  0.00     0.124 A 
ATOM      3  C   UNL     1      16.351  -2.268  27.170  1.00  0.00     0.014 A 
ATOM      4  C   UNL     1      17.163  -0.282  25.382  1.00  0.00     0.047 A 
ATOM      5  C   UNL     1      15.406  -1.603  26.385  1.00  0.00     0.001 A 
ATOM      6  C   UNL     1      15.810  -0.606  25.500  1.00  0.00     0.004 A 
ENDROOT
BRANCH   1   7
ATOM      7  C   UNL     1      18.663  -2.624  27.991  1.00  0.00     0.075 C 
ATOM      8  O   UNL     1      18.276  -3.085  29.097  1.00  0.00    -0.545 OA
ATOM      9  O   UNL     1      19.982  -2.824  27.602  1.00  0.00    -0.545 OA
ENDBRANCH   1   7
BRANCH   2  10
ATOM     10  O   UNL     1      19.467  -0.635  25.923  1.00  0.00    -0.507 OA
ATOM     11  H   UNL     1      19.807   0.310  25.809  1.00  0.00     0.293 HD
ENDBRANCH   2  10
TORSDOF 2
ENDMDL
MODEL 2
REMARK VINA RESULT:    -5.865      1.914      2.825
REMARK INTER + INTRA:          -6.618
REMARK INTER:                  -6.377
REMARK INTRA:                  -0.241
REMARK UNBOUND:                -0.239
REMARK SMILES O=C([O-])c1ccccc1O
REMARK SMILES IDX 4 1 9 2 5 3 8 4 6 5 7 6 2 7 1 8 3 9 10 10
REMARK H PARENT 10 11
REMARK Flexibility Score: inf
ROOT
ATOM      1  C   UNL     1      17.318  -0.932  27.594  1.00  0.00     0.039 A 
ATOM      2  C   UNL     1      18.658  -1.389  27.495  1.00  0.00     0.124 A 
ATOM      3  C   UNL     1      16.650  -0.524  26.424  1.00  0.00     0.014 A 
ATOM      4  C   UNL     1      19.308  -1.365  26.253  1.00  0.00     0.047 A 
ATOM      5  C   UNL     1      17.306  -0.527  25.190  1.00  0.00     0.001 A 
ATOM      6  C   UNL     1      18.635  -0.938  25.107  1.00  0.00     0.004 A 
ENDROOT
BRANCH   1   7
ATOM      7  C   UNL     1      16.597  -0.834  28.883  1.00  0.00     0.075 C 
ATOM      8  O   UNL     1      16.834  -1.642  29.819  1.00  0.00    -0.545 OA
ATOM      9  O   UNL     1      15.695   0.200  29.097  1.00  0.00    -0.545 OA
ENDBRANCH   1   7
BRANCH   2  10
ATOM     10  O   UNL     1      19.363  -1.901  28.585  1.00  0.00    -0.507 OA
ATOM     11  H   UNL     1      18.924  -2.371  29.365  1.00  0.00     0.293 HD
ENDBRANCH   2  10
TORSDOF 2
ENDMDL
MODEL 3
REMARK VINA RESULT:    -5.861      1.375      2.135
REMARK INTER + INTRA:          -6.614
REMARK INTER:                  -6.382
REMARK INTRA:                  -0.233
REMARK UNBOUND:                -0.239
REMARK SMILES O=C([O-])c1ccccc1O
REMARK SMILES IDX 4 1 9 2 5 3 8 4 6 5 7 6 2 7 1 8 3 9 10 10
REMARK H PARENT 10 11
REMARK Flexibility Score: inf
ROOT
ATOM      1  C   UNL     1      18.518  -1.813  27.151  1.00  0.00     0.039 A 
ATOM      2  C   UNL     1      17.227  -1.302  27.450  1.00  0.00     0.124 A 
ATOM      3  C   UNL     1      19.085  -1.533  25.893  1.00  0.00     0.014 A 
ATOM      4  C   UNL     1      16.521  -0.589  26.472  1.00  0.00     0.047 A 
ATOM      5  C   UNL     1      18.375  -0.802  24.937  1.00  0.00     0.001 A 
ATOM      6  C   UNL     1      17.092  -0.339  25.224  1.00  0.00     0.004 A 
ENDROOT
BRANCH   1   7
ATOM      7  C   UNL     1      19.285  -2.657  28.093  1.00  0.00     0.075 C 
ATOM      8  O   UNL     1      18.708  -3.267  29.032  1.00  0.00    -0.545 OA
ATOM      9  O   UNL     1      20.650  -2.842  27.909  1.00  0.00    -0.545 OA
ENDBRANCH   1   7
BRANCH   2  10
ATOM     10  O   UNL     1      16.630  -1.449  28.703  1.00  0.00    -0.507 OA
ATOM     11  H   UNL     1      17.148  -1.472  29.571  1.00  0.00     0.293 HD
ENDBRANCH   2  10
TORSDOF 2
ENDMDL
MODEL 4
REMARK VINA RESULT:    -5.829     11.371     12.597
REMARK INTER + INTRA:          -6.580
REMARK INTER:                  -6.349
REMARK INTRA:                  -0.230
REMARK UNBOUND:                -0.239
REMARK SMILES O=C([O-])c1ccccc1O
REMARK SMILES IDX 4 1 9 2 5 3 8 4 6 5 7 6 2 7 1 8 3 9 10 10
REMARK H PARENT 10 11
REMARK Flexibility Score: inf
ROOT
ATOM      1  C   UNL     1      12.338 -12.096  28.548  1.00  0.00     0.039 A 
ATOM      2  C   UNL     1      11.902 -13.198  27.766  1.00  0.00     0.124 A 
ATOM      3  C   UNL     1      13.720 -11.879  28.705  1.00  0.00     0.014 A 
ATOM      4  C   UNL     1      12.847 -14.078  27.222  1.00  0.00     0.047 A 
ATOM      5  C   UNL     1      14.649 -12.754  28.138  1.00  0.00     0.001 A 
ATOM      6  C   UNL     1      14.212 -13.857  27.406  1.00  0.00     0.004 A 
ENDROOT
BRANCH   1   7
ATOM      7  C   UNL     1      11.402 -11.181  29.236  1.00  0.00     0.075 C 
ATOM      8  O   UNL     1      11.781 -10.480  30.211  1.00  0.00    -0.545 OA
ATOM      9  O   UNL     1      10.103 -11.032  28.765  1.00  0.00    -0.545 OA
ENDBRANCH   1   7
BRANCH   2  10
ATOM     10  O   UNL     1      10.556 -13.434  27.479  1.00  0.00    -0.507 OA
ATOM     11  H   UNL     1      10.068 -13.011  26.701  1.00  0.00     0.293 HD
ENDBRANCH   2  10
TORSDOF 2
ENDMDL
MODEL 5
REMARK VINA RESULT:    -5.777     11.610     12.458
REMARK INTER + INTRA:          -6.523
REMARK INTER:                  -6.300
REMARK INTRA:                  -0.223
REMARK UNBOUND:                -0.239
REMARK SMILES O=C([O-])c1ccccc1O
REMARK SMILES IDX 4 1 9 2 5 3 8 4 6 5 7 6 2 7 1 8 3 9 10 10
REMARK H PARENT 10 11
REMARK Flexibility Score: inf
ROOT
ATOM      1  C   UNL     1      11.786 -12.013  28.749  1.00  0.00     0.039 A 
ATOM      2  C   UNL     1      13.094 -12.422  29.121  1.00  0.00     0.124 A 
ATOM      3  C   UNL     1      11.161 -12.644  27.657  1.00  0.00     0.014 A 
ATOM      4  C   UNL     1      13.758 -13.396  28.362  1.00  0.00     0.047 A 
ATOM      5  C   UNL     1      11.830 -13.628  26.924  1.00  0.00     0.001 A 
ATOM      6  C   UNL     1      13.129 -13.995  27.270  1.00  0.00     0.004 A 
ENDROOT
BRANCH   1   7
ATOM      7  C   UNL     1      11.060 -10.925  29.439  1.00  0.00     0.075 C 
ATOM      8  O   UNL     1      11.654 -10.156  30.239  1.00  0.00    -0.545 OA
ATOM      9  O   UNL     1       9.719 -10.695  29.156  1.00  0.00    -0.545 OA
ENDBRANCH   1   7
BRANCH   2  10
ATOM     10  O   UNL     1      13.750 -11.919  30.246  1.00  0.00    -0.507 OA
ATOM     11  H   UNL     1      14.316 -11.082  30.236  1.00  0.00     0.293 HD
ENDBRANCH   2  10
TORSDOF 2
ENDMDL
MODEL 6
REMARK VINA RESULT:    -5.721      1.485      2.617
REMARK INTER + INTRA:          -6.462
REMARK INTER:                  -6.235
REMARK INTRA:                  -0.227
REMARK UNBOUND:                -0.239
REMARK SMILES O=C([O-])c1ccccc1O
REMARK SMILES IDX 4 1 9 2 5 3 8 4 6 5 7 6 2 7 1 8 3 9 10 10
REMARK H PARENT 10 11
REMARK Flexibility Score: inf
ROOT
ATOM      1  C   UNL     1      17.642  -1.053  26.790  1.00  0.00     0.039 A 
ATOM      2  C   UNL     1      17.283  -0.994  28.163  1.00  0.00     0.124 A 
ATOM      3  C   UNL     1      16.872  -0.335  25.855  1.00  0.00     0.014 A 
ATOM      4  C   UNL     1      16.141  -0.280  28.550  1.00  0.00     0.047 A 
ATOM      5  C   UNL     1      15.748   0.388  26.262  1.00  0.00     0.001 A 
ATOM      6  C   UNL     1      15.378   0.407  27.606  1.00  0.00     0.004 A 
ENDROOT
BRANCH   1   7
ATOM      7  C   UNL     1      18.774  -1.864  26.291  1.00  0.00     0.075 C 
ATOM      8  O   UNL     1      19.306  -1.615  25.177  1.00  0.00    -0.545 OA
ATOM      9  O   UNL     1      19.311  -2.871  27.084  1.00  0.00    -0.545 OA
ENDBRANCH   1   7
BRANCH   2  10
ATOM     10  O   UNL     1      18.044  -1.595  29.167  1.00  0.00    -0.507 OA
ATOM     11  H   UNL     1      17.667  -2.247  29.841  1.00  0.00     0.293 HD
ENDBRANCH   2  10
TORSDOF 2
ENDMDL
MODEL 7
REMARK VINA RESULT:    -5.678     12.306     13.022
REMARK INTER + INTRA:          -6.415
REMARK INTER:                  -6.164
REMARK INTRA:                  -0.251
REMARK UNBOUND:                -0.239
REMARK SMILES O=C([O-])c1ccccc1O
REMARK SMILES IDX 4 1 9 2 5 3 8 4 6 5 7 6 2 7 1 8 3 9 10 10
REMARK H PARENT 10 11
REMARK Flexibility Score: inf
ROOT
ATOM      1  C   UNL     1      12.474 -12.973  28.330  1.00  0.00     0.039 A 
ATOM      2  C   UNL     1      13.026 -12.686  29.607  1.00  0.00     0.124 A 
ATOM      3  C   UNL     1      13.146 -13.879  27.487  1.00  0.00     0.014 A 
ATOM      4  C   UNL     1      14.253 -13.257  29.975  1.00  0.00     0.047 A 
ATOM      5  C   UNL     1      14.357 -14.454  27.878  1.00  0.00     0.001 A 
ATOM      6  C   UNL     1      14.913 -14.136  29.116  1.00  0.00     0.004 A 
ENDROOT
BRANCH   1   7
ATOM      7  C   UNL     1      11.236 -12.336  27.831  1.00  0.00     0.075 C 
ATOM      8  O   UNL     1      10.419 -12.979  27.120  1.00  0.00    -0.545 OA
ATOM      9  O   UNL     1      10.926 -11.033  28.201  1.00  0.00    -0.545 OA
ENDBRANCH   1   7
BRANCH   2  10
ATOM     10  O   UNL     1      12.381 -11.877  30.543  1.00  0.00    -0.507 OA
ATOM     11  H   UNL     1      11.504 -11.407  30.367  1.00  0.00     0.293 HD
ENDBRANCH   2  10
TORSDOF 2
ENDMDL
MODEL 8
REMARK VINA RESULT:    -5.645      2.447      4.146
REMARK INTER + INTRA:          -6.379
REMARK INTER:                  -6.180
REMARK INTRA:                  -0.199
REMARK UNBOUND:                -0.239
REMARK SMILES O=C([O-])c1ccccc1O
REMARK SMILES IDX 4 1 9 2 5 3 8 4 6 5 7 6 2 7 1 8 3 9 10 10
REMARK H PARENT 10 11
REMARK Flexibility Score: inf
ROOT
ATOM      1  C   UNL     1      16.777  -0.838  25.984  1.00  0.00     0.039 A 
ATOM      2  C   UNL     1      16.737  -1.822  27.008  1.00  0.00     0.124 A 
ATOM      3  C   UNL     1      17.976  -0.648  25.271  1.00  0.00     0.014 A 
ATOM      4  C   UNL     1      17.900  -2.534  27.329  1.00  0.00     0.047 A 
ATOM      5  C   UNL     1      19.120  -1.381  25.591  1.00  0.00     0.001 A 
ATOM      6  C   UNL     1      19.085  -2.316  26.625  1.00  0.00     0.004 A 
ENDROOT
BRANCH   1   7
ATOM      7  C   UNL     1      15.620   0.022  25.653  1.00  0.00     0.075 C 
ATOM      8  O   UNL     1      14.564  -0.470  25.176  1.00  0.00    -0.545 OA
ATOM      9  O   UNL     1      15.662   1.383  25.933  1.00  0.00    -0.545 OA
ENDBRANCH   1   7
BRANCH   2  10
ATOM     10  O   UNL     1      15.568  -2.144  27.699  1.00  0.00    -0.507 OA
ATOM     11  H   UNL     1      14.642  -1.891  27.381  1.00  0.00     0.293 HD
ENDBRANCH   2  10
TORSDOF 2
ENDMDL
MODEL 9
REMARK VINA RESULT:    -5.564      2.418      3.542
REMARK INTER + INTRA:          -6.291
REMARK INTER:                  -6.048
REMARK INTRA:                  -0.243
REMARK UNBOUND:                -0.239
REMARK SMILES O=C([O-])c1ccccc1O
REMARK SMILES IDX 4 1 9 2 5 3 8 4 6 5 7 6 2 7 1 8 3 9 10 10
REMARK H PARENT 10 11
REMARK Flexibility Score: inf
ROOT
ATOM      1  C   UNL     1      16.844  -0.962  26.537  1.00  0.00     0.039 A 
ATOM      2  C   UNL     1      18.003  -1.042  25.721  1.00  0.00     0.124 A 
ATOM      3  C   UNL     1      16.825  -1.658  27.761  1.00  0.00     0.014 A 
ATOM      4  C   UNL     1      19.074  -1.855  26.116  1.00  0.00     0.047 A 
ATOM      5  C   UNL     1      17.910  -2.448  28.149  1.00  0.00     0.001 A 
ATOM      6  C   UNL     1      19.028  -2.553  27.323  1.00  0.00     0.004 A 
ENDROOT
BRANCH   1   7
ATOM      7  C   UNL     1      15.636  -0.205  26.142  1.00  0.00     0.075 C 
ATOM      8  O   UNL     1      15.109   0.627  26.928  1.00  0.00    -0.545 OA
ATOM      9  O   UNL     1      15.108  -0.354  24.866  1.00  0.00    -0.545 OA
ENDBRANCH   1   7
BRANCH   2  10
ATOM     10  O   UNL     1      18.146  -0.310  24.540  1.00  0.00    -0.507 OA
ATOM     11  H   UNL     1      18.709  -0.614  23.758  1.00  0.00     0.293 HD
ENDBRANCH   2  10
TORSDOF 2
ENDMDL
