MODEL 1
REMARK VINA RESULT:    -3.412      0.000      0.000
REMARK INTER + INTRA:          -4.953
REMARK INTER:                  -4.808
REMARK INTRA:                  -0.144
REMARK UNBOUND:                -0.144
REMARK SMILES CC1=CCC(=C(C)C)C(=O)CC(C)=CCC1
REMARK SMILES IDX 12 1 14 2 13 3 15 4 16 5 2 6 1 7 3 8 11 10 9 11 10 12 5 13
REMARK SMILES IDX 6 14 7 15 8 16 4 17
REMARK H PARENT
REMARK Flexibility Score: 60.00
ROOT
ATOM      1  C   UNL     1      -4.574  -4.528  -1.903  1.00  0.00    -0.070 C 
ATOM      2  C   UNL     1      -4.997  -5.745  -1.490  1.00  0.00    -0.027 C 
ATOM      3  C   UNL     1      -5.155  -3.309  -1.233  1.00  0.00     0.039 C 
ENDROOT
BRANCH   2   4
ATOM      4  C   UNL     1      -4.635  -7.053  -2.145  1.00  0.00     0.032 C 
BRANCH   4   5
ATOM      5  C   UNL     1      -3.584  -7.784  -1.301  1.00  0.00     0.034 C 
BRANCH   5   6
ATOM      6  C   UNL     1      -2.488  -8.401  -2.146  1.00  0.00    -0.077 C 
ATOM      7  C   UNL     1      -2.725  -9.758  -2.760  1.00  0.00     0.039 C 
ATOM      8  C   UNL     1      -1.325  -7.767  -2.445  1.00  0.00    -0.023 CG0
ATOM      9  G   UNL     1      -0.836  -6.435  -1.908  1.00  0.00     0.000 G0
ENDBRANCH   5   6
ENDBRANCH   4   5
ENDBRANCH   2   4
BRANCH   1  10
ATOM     10  C   UNL     1      -3.534  -4.331  -2.988  1.00  0.00     0.111 C 
BRANCH  10  11
ATOM     11  C   UNL     1      -2.136  -4.262  -2.422  1.00  0.00     0.163 C 
ATOM     12  O   UNL     1      -1.904  -3.357  -1.573  1.00  0.00    -0.294 OA
BRANCH  11  13
ATOM     13  C   UNL     1      -1.035  -5.212  -2.794  1.00  0.00    -0.002 C 
ATOM     14  C   UNL     1      -0.156  -4.901  -3.795  1.00  0.00    -0.069 C 
ATOM     15  C   UNL     1       1.095  -5.712  -4.045  1.00  0.00     0.039 C 
ATOM     16  C   UNL     1      -0.414  -3.751  -4.743  1.00  0.00     0.039 C 
BRANCH  13  17
ATOM     17  C   UNL     1      -0.821  -6.435  -1.909  1.00  0.00     0.066 CG0
ATOM     18  G   UNL     1      -1.315  -7.761  -2.456  1.00  0.00     0.000 G0
ENDBRANCH  13  17
ENDBRANCH  11  13
ENDBRANCH  10  11
ENDBRANCH   1  10
TORSDOF 0
ENDMDL
MODEL 2
REMARK VINA RESULT:    -3.325      2.149      4.277
REMARK INTER + INTRA:          -4.830
REMARK INTER:                  -4.708
REMARK INTRA:                  -0.122
REMARK UNBOUND:                -0.144
REMARK SMILES CC1=CCC(=C(C)C)C(=O)CC(C)=CCC1
REMARK SMILES IDX 12 1 14 2 13 3 15 4 16 5 2 6 1 7 3 8 11 10 9 11 10 12 5 13
REMARK SMILES IDX 6 14 7 15 8 16 4 17
REMARK H PARENT
REMARK Flexibility Score: 60.00
ROOT
ATOM      1  C   UNL     1      -5.110  -3.456  -0.734  1.00  0.00    -0.070 C 
ATOM      2  C   UNL     1      -4.438  -3.151  -1.867  1.00  0.00    -0.027 C 
ATOM      3  C   UNL     1      -6.535  -2.980  -0.602  1.00  0.00     0.039 C 
ENDROOT
BRANCH   2   4
ATOM      4  C   UNL     1      -2.973  -3.418  -2.101  1.00  0.00     0.032 C 
BRANCH   4   5
ATOM      5  C   UNL     1      -2.806  -4.624  -3.034  1.00  0.00     0.034 C 
BRANCH   5   6
ATOM      6  C   UNL     1      -1.693  -5.550  -2.590  1.00  0.00    -0.077 C 
ATOM      7  C   UNL     1      -0.277  -5.226  -2.998  1.00  0.00     0.039 C 
ATOM      8  C   UNL     1      -1.886  -6.623  -1.780  1.00  0.00    -0.023 CG0
ATOM      9  G   UNL     1      -3.209  -7.180  -1.288  1.00  0.00     0.000 G0
ENDBRANCH   5   6
ENDBRANCH   4   5
ENDBRANCH   2   4
BRANCH   1  10
ATOM     10  C   UNL     1      -4.511  -4.268   0.398  1.00  0.00     0.111 C 
BRANCH  10  11
ATOM     11  C   UNL     1      -4.753  -5.747   0.218  1.00  0.00     0.163 C 
ATOM     12  O   UNL     1      -5.954  -6.128   0.140  1.00  0.00    -0.294 OA
BRANCH  11  13
ATOM     13  C   UNL     1      -3.656  -6.766   0.109  1.00  0.00    -0.002 C 
ATOM     14  C   UNL     1      -3.191  -7.411   1.223  1.00  0.00    -0.069 C 
ATOM     15  C   UNL     1      -2.261  -8.599   1.132  1.00  0.00     0.039 C 
ATOM     16  C   UNL     1      -3.544  -6.936   2.614  1.00  0.00     0.039 C 
BRANCH  13  17
ATOM     17  C   UNL     1      -3.212  -7.186  -1.288  1.00  0.00     0.066 CG0
ATOM     18  G   UNL     1      -1.887  -6.628  -1.773  1.00  0.00     0.000 G0
ENDBRANCH  13  17
ENDBRANCH  11  13
ENDBRANCH  10  11
ENDBRANCH   1  10
TORSDOF 0
ENDMDL
MODEL 3
REMARK VINA RESULT:    -3.214      1.906      2.715
REMARK INTER + INTRA:          -4.674
REMARK INTER:                  -4.968
REMARK INTRA:                   0.294
REMARK UNBOUND:                -0.144
REMARK SMILES CC1=CCC(=C(C)C)C(=O)CC(C)=CCC1
REMARK SMILES IDX 12 1 14 2 13 3 15 4 16 5 2 6 1 7 3 8 11 10 9 11 10 12 5 13
REMARK SMILES IDX 6 14 7 15 8 16 4 17
REMARK H PARENT
REMARK Flexibility Score: 60.00
ROOT
ATOM      1  C   UNL     1      -5.494  -3.623  -0.395  1.00  0.00    -0.070 C 
ATOM      2  C   UNL     1      -5.958  -4.333   0.658  1.00  0.00    -0.027 C 
ATOM      3  C   UNL     1      -6.420  -2.625  -1.044  1.00  0.00     0.039 C 
ENDROOT
BRANCH   2   4
ATOM      4  C   UNL     1      -5.225  -5.467   1.326  1.00  0.00     0.032 C 
BRANCH   4   5
ATOM      5  C   UNL     1      -5.245  -6.705   0.422  1.00  0.00     0.034 C 
BRANCH   5   6
ATOM      6  C   UNL     1      -3.890  -7.376   0.326  1.00  0.00    -0.077 C 
ATOM      7  C   UNL     1      -3.271  -7.940   1.581  1.00  0.00     0.039 C 
ATOM      8  C   UNL     1      -3.227  -7.564  -0.843  1.00  0.00    -0.023 CG0
ATOM      9  G   UNL     1      -3.612  -7.045  -2.216  1.00  0.00     0.000 G0
ENDBRANCH   5   6
ENDBRANCH   4   5
ENDBRANCH   2   4
BRANCH   1  10
ATOM     10  C   UNL     1      -4.085  -3.764  -0.940  1.00  0.00     0.111 C 
BRANCH  10  11
ATOM     11  C   UNL     1      -4.064  -4.491  -2.263  1.00  0.00     0.163 C 
ATOM     12  O   UNL     1      -4.869  -4.092  -3.150  1.00  0.00    -0.294 OA
BRANCH  11  13
ATOM     13  C   UNL     1      -3.136  -5.628  -2.576  1.00  0.00    -0.002 C 
ATOM     14  C   UNL     1      -1.858  -5.387  -3.002  1.00  0.00    -0.069 C 
ATOM     15  C   UNL     1      -0.826  -6.486  -3.104  1.00  0.00     0.039 C 
ATOM     16  C   UNL     1      -1.421  -4.008  -3.444  1.00  0.00     0.039 C 
BRANCH  13  17
ATOM     17  C   UNL     1      -3.599  -7.039  -2.232  1.00  0.00     0.066 CG0
ATOM     18  G   UNL     1      -3.239  -7.551  -0.849  1.00  0.00     0.000 G0
ENDBRANCH  13  17
ENDBRANCH  11  13
ENDBRANCH  10  11
ENDBRANCH   1  10
TORSDOF 0
ENDMDL
MODEL 4
REMARK VINA RESULT:    -3.139      8.261     10.653
REMARK INTER + INTRA:          -4.569
REMARK INTER:                  -4.479
REMARK INTRA:                  -0.090
REMARK UNBOUND:                -0.144
REMARK SMILES CC1=CCC(=C(C)C)C(=O)CC(C)=CCC1
REMARK SMILES IDX 12 1 14 2 13 3 15 4 16 5 2 6 1 7 3 8 11 10 9 11 10 12 5 13
REMARK SMILES IDX 6 14 7 15 8 16 4 17
REMARK H PARENT
REMARK Flexibility Score: 60.00
ROOT
ATOM      1  C   UNL     1      -3.579  -0.347   5.700  1.00  0.00    -0.070 C 
ATOM      2  C   UNL     1      -4.264   0.372   6.617  1.00  0.00    -0.027 C 
ATOM      3  C   UNL     1      -2.106  -0.068   5.533  1.00  0.00     0.039 C 
ENDROOT
BRANCH   2   4
ATOM      4  C   UNL     1      -5.759   0.327   6.810  1.00  0.00     0.032 C 
BRANCH   4   5
ATOM      5  C   UNL     1      -6.120  -0.765   7.823  1.00  0.00     0.034 C 
BRANCH   5   6
ATOM      6  C   UNL     1      -7.374  -1.523   7.437  1.00  0.00    -0.077 C 
ATOM      7  C   UNL     1      -8.699  -0.804   7.493  1.00  0.00     0.039 C 
ATOM      8  C   UNL     1      -7.367  -2.798   6.970  1.00  0.00    -0.023 CG0
ATOM      9  G   UNL     1      -6.180  -3.739   6.876  1.00  0.00     0.000 G0
ENDBRANCH   5   6
ENDBRANCH   4   5
ENDBRANCH   2   4
BRANCH   1  10
ATOM     10  C   UNL     1      -4.211  -1.433   4.850  1.00  0.00     0.111 C 
BRANCH  10  11
ATOM     11  C   UNL     1      -4.183  -2.775   5.539  1.00  0.00     0.163 C 
ATOM     12  O   UNL     1      -3.107  -3.106   6.111  1.00  0.00    -0.294 OA
BRANCH  11  13
ATOM     13  C   UNL     1      -5.357  -3.709   5.597  1.00  0.00    -0.002 C 
ATOM     14  C   UNL     1      -5.582  -4.607   4.590  1.00  0.00    -0.069 C 
ATOM     15  C   UNL     1      -6.605  -5.713   4.715  1.00  0.00     0.039 C 
ATOM     16  C   UNL     1      -4.851  -4.512   3.270  1.00  0.00     0.039 C 
BRANCH  13  17
ATOM     17  C   UNL     1      -6.172  -3.748   6.885  1.00  0.00     0.066 CG0
ATOM     18  G   UNL     1      -7.354  -2.799   6.967  1.00  0.00     0.000 G0
ENDBRANCH  13  17
ENDBRANCH  11  13
ENDBRANCH  10  11
ENDBRANCH   1  10
TORSDOF 0
ENDMDL
MODEL 5
REMARK VINA RESULT:    -3.114      8.605     10.944
REMARK INTER + INTRA:          -4.533
REMARK INTER:                  -4.392
REMARK INTRA:                  -0.140
REMARK UNBOUND:                -0.144
REMARK SMILES CC1=CCC(=C(C)C)C(=O)CC(C)=CCC1
REMARK SMILES IDX 12 1 14 2 13 3 15 4 16 5 2 6 1 7 3 8 11 10 9 11 10 12 5 13
REMARK SMILES IDX 6 14 7 15 8 16 4 17
REMARK H PARENT
REMARK Flexibility Score: 60.00
ROOT
ATOM      1  C   UNL     1      -3.135   0.330   5.979  1.00  0.00    -0.070 C 
ATOM      2  C   UNL     1      -2.534  -0.642   5.255  1.00  0.00    -0.027 C 
ATOM      3  C   UNL     1      -2.846   1.766   5.621  1.00  0.00     0.039 C 
ENDROOT
BRANCH   2   4
ATOM      4  C   UNL     1      -2.595  -2.115   5.568  1.00  0.00     0.032 C 
BRANCH   4   5
ATOM      5  C   UNL     1      -3.616  -2.800   4.654  1.00  0.00     0.034 C 
BRANCH   5   6
ATOM      6  C   UNL     1      -4.473  -3.808   5.393  1.00  0.00    -0.077 C 
ATOM      7  C   UNL     1      -3.908  -5.181   5.657  1.00  0.00     0.039 C 
ATOM      8  C   UNL     1      -5.700  -3.522   5.899  1.00  0.00    -0.023 CG0
ATOM      9  G   UNL     1      -6.496  -2.243   5.719  1.00  0.00     0.000 G0
ENDBRANCH   5   6
ENDBRANCH   4   5
ENDBRANCH   2   4
BRANCH   1  10
ATOM     10  C   UNL     1      -4.098   0.047   7.116  1.00  0.00     0.111 C 
BRANCH  10  11
ATOM     11  C   UNL     1      -5.528  -0.021   6.638  1.00  0.00     0.163 C 
ATOM     12  O   UNL     1      -5.976   0.984   6.020  1.00  0.00    -0.294 OA
BRANCH  11  13
ATOM     13  C   UNL     1      -6.421  -1.211   6.839  1.00  0.00    -0.002 C 
ATOM     14  C   UNL     1      -7.258  -1.279   7.920  1.00  0.00    -0.069 C 
ATOM     15  C   UNL     1      -8.331  -2.337   8.037  1.00  0.00     0.039 C 
ATOM     16  C   UNL     1      -7.122  -0.324   9.084  1.00  0.00     0.039 C 
BRANCH  13  17
ATOM     17  C   UNL     1      -6.496  -2.241   5.718  1.00  0.00     0.066 CG0
ATOM     18  G   UNL     1      -5.702  -3.519   5.918  1.00  0.00     0.000 G0
ENDBRANCH  13  17
ENDBRANCH  11  13
ENDBRANCH  10  11
ENDBRANCH   1  10
TORSDOF 0
ENDMDL
MODEL 6
REMARK VINA RESULT:    -2.974      1.878      3.874
REMARK INTER + INTRA:          -4.335
REMARK INTER:                  -4.438
REMARK INTRA:                   0.103
REMARK UNBOUND:                -0.144
REMARK SMILES CC1=CCC(=C(C)C)C(=O)CC(C)=CCC1
REMARK SMILES IDX 12 1 14 2 13 3 15 4 16 5 2 6 1 7 3 8 11 10 9 11 10 12 5 13
REMARK SMILES IDX 6 14 7 15 8 16 4 17
REMARK H PARENT
REMARK Flexibility Score: 60.00
ROOT
ATOM      1  C   UNL     1      -2.725  -4.059  -1.979  1.00  0.00    -0.070 C 
ATOM      2  C   UNL     1      -1.602  -4.045  -2.733  1.00  0.00    -0.027 C 
ATOM      3  C   UNL     1      -2.687  -3.382  -0.633  1.00  0.00     0.039 C 
ENDROOT
BRANCH   2   4
ATOM      4  C   UNL     1      -1.421  -4.794  -4.028  1.00  0.00     0.032 C 
BRANCH   4   5
ATOM      5  C   UNL     1      -0.476  -5.981  -3.815  1.00  0.00     0.034 C 
BRANCH   5   6
ATOM      6  C   UNL     1      -1.200  -7.312  -3.843  1.00  0.00    -0.077 C 
ATOM      7  C   UNL     1      -1.250  -8.080  -5.140  1.00  0.00     0.039 C 
ATOM      8  C   UNL     1      -1.748  -7.891  -2.745  1.00  0.00    -0.023 CG0
ATOM      9  G   UNL     1      -1.873  -7.297  -1.354  1.00  0.00     0.000 G0
ENDBRANCH   5   6
ENDBRANCH   4   5
ENDBRANCH   2   4
BRANCH   1  10
ATOM     10  C   UNL     1      -4.022  -4.703  -2.429  1.00  0.00     0.111 C 
BRANCH  10  11
ATOM     11  C   UNL     1      -4.104  -6.153  -2.016  1.00  0.00     0.163 C 
ATOM     12  O   UNL     1      -4.934  -6.879  -2.630  1.00  0.00    -0.294 OA
BRANCH  11  13
ATOM     13  C   UNL     1      -3.247  -6.766  -0.947  1.00  0.00    -0.002 C 
ATOM     14  C   UNL     1      -3.750  -6.987   0.307  1.00  0.00    -0.069 C 
ATOM     15  C   UNL     1      -3.006  -7.808   1.336  1.00  0.00     0.039 C 
ATOM     16  C   UNL     1      -5.061  -6.377   0.749  1.00  0.00     0.039 C 
BRANCH  13  17
ATOM     17  C   UNL     1      -1.876  -7.298  -1.352  1.00  0.00     0.066 CG0
ATOM     18  G   UNL     1      -1.762  -7.880  -2.748  1.00  0.00     0.000 G0
ENDBRANCH  13  17
ENDBRANCH  11  13
ENDBRANCH  10  11
ENDBRANCH   1  10
TORSDOF 0
ENDMDL
MODEL 7
REMARK VINA RESULT:    -2.871      1.527      4.084
REMARK INTER + INTRA:          -4.191
REMARK INTER:                  -4.526
REMARK INTRA:                   0.335
REMARK UNBOUND:                -0.144
REMARK SMILES CC1=CCC(=C(C)C)C(=O)CC(C)=CCC1
REMARK SMILES IDX 12 1 14 2 13 3 15 4 16 5 2 6 1 7 3 8 11 10 9 11 10 12 5 13
REMARK SMILES IDX 6 14 7 15 8 16 4 17
REMARK H PARENT
REMARK Flexibility Score: 60.00
ROOT
ATOM      1  C   UNL     1      -1.197  -4.980  -3.270  1.00  0.00    -0.070 C 
ATOM      2  C   UNL     1      -0.723  -6.246  -3.233  1.00  0.00    -0.027 C 
ATOM      3  C   UNL     1      -0.926  -4.155  -4.503  1.00  0.00     0.039 C 
ENDROOT
BRANCH   2   4
ATOM      4  C   UNL     1      -0.774  -7.153  -2.030  1.00  0.00     0.032 C 
BRANCH   4   5
ATOM      5  C   UNL     1      -1.359  -8.512  -2.428  1.00  0.00     0.034 C 
BRANCH   5   6
ATOM      6  C   UNL     1      -2.734  -8.392  -3.053  1.00  0.00    -0.077 C 
ATOM      7  C   UNL     1      -2.970  -9.014  -4.407  1.00  0.00     0.039 C 
ATOM      8  C   UNL     1      -3.794  -7.816  -2.430  1.00  0.00    -0.023 CG0
ATOM      9  G   UNL     1      -3.795  -7.080  -1.103  1.00  0.00     0.000 G0
ENDBRANCH   5   6
ENDBRANCH   4   5
ENDBRANCH   2   4
BRANCH   1  10
ATOM     10  C   UNL     1      -2.004  -4.358  -2.146  1.00  0.00     0.111 C 
BRANCH  10  11
ATOM     11  C   UNL     1      -3.458  -4.761  -2.208  1.00  0.00     0.163 C 
ATOM     12  O   UNL     1      -4.115  -4.388  -3.219  1.00  0.00    -0.294 OA
BRANCH  11  13
ATOM     13  C   UNL     1      -4.142  -5.586  -1.156  1.00  0.00    -0.002 C 
ATOM     14  C   UNL     1      -5.140  -5.048  -0.390  1.00  0.00    -0.069 C 
ATOM     15  C   UNL     1      -6.007  -5.899   0.509  1.00  0.00     0.039 C 
ATOM     16  C   UNL     1      -5.400  -3.559  -0.365  1.00  0.00     0.039 C 
BRANCH  13  17
ATOM     17  C   UNL     1      -3.818  -7.075  -1.098  1.00  0.00     0.066 CG0
ATOM     18  G   UNL     1      -3.787  -7.812  -2.424  1.00  0.00     0.000 G0
ENDBRANCH  13  17
ENDBRANCH  11  13
ENDBRANCH  10  11
ENDBRANCH   1  10
TORSDOF 0
ENDMDL
MODEL 8
REMARK VINA RESULT:    -2.824      2.093      3.976
REMARK INTER + INTRA:          -4.125
REMARK INTER:                  -4.368
REMARK INTRA:                   0.244
REMARK UNBOUND:                -0.144
REMARK SMILES CC1=CCC(=C(C)C)C(=O)CC(C)=CCC1
REMARK SMILES IDX 12 1 14 2 13 3 15 4 16 5 2 6 1 7 3 8 11 10 9 11 10 12 5 13
REMARK SMILES IDX 6 14 7 15 8 16 4 17
REMARK H PARENT
REMARK Flexibility Score: 60.00
ROOT
ATOM      1  C   UNL     1      -1.549  -7.409  -1.602  1.00  0.00    -0.070 C 
ATOM      2  C   UNL     1      -2.492  -6.542  -1.169  1.00  0.00    -0.027 C 
ATOM      3  C   UNL     1      -0.305  -7.582  -0.769  1.00  0.00     0.039 C 
ENDROOT
BRANCH   2   4
ATOM      4  C   UNL     1      -3.719  -6.140  -1.946  1.00  0.00     0.032 C 
BRANCH   4   5
ATOM      5  C   UNL     1      -3.404  -4.924  -2.825  1.00  0.00     0.034 C 
BRANCH   5   6
ATOM      6  C   UNL     1      -2.205  -4.144  -2.328  1.00  0.00    -0.077 C 
ATOM      7  C   UNL     1      -2.366  -3.269  -1.110  1.00  0.00     0.039 C 
ATOM      8  C   UNL     1      -0.966  -4.243  -2.875  1.00  0.00    -0.023 CG0
ATOM      9  G   UNL     1      -0.568  -5.005  -4.125  1.00  0.00     0.000 G0
ENDBRANCH   5   6
ENDBRANCH   4   5
ENDBRANCH   2   4
BRANCH   1  10
ATOM     10  C   UNL     1      -1.691  -8.229  -2.870  1.00  0.00     0.111 C 
BRANCH  10  11
ATOM     11  C   UNL     1      -1.066  -7.540  -4.059  1.00  0.00     0.163 C 
ATOM     12  O   UNL     1      -1.438  -7.920  -5.204  1.00  0.00    -0.294 OA
BRANCH  11  13
ATOM     13  C   UNL     1      -0.060  -6.431  -3.948  1.00  0.00    -0.002 C 
ATOM     14  C   UNL     1       1.276  -6.710  -3.852  1.00  0.00    -0.069 C 
ATOM     15  C   UNL     1       2.330  -5.634  -3.974  1.00  0.00     0.039 C 
ATOM     16  C   UNL     1       1.771  -8.111  -3.568  1.00  0.00     0.039 C 
BRANCH  13  17
ATOM     17  C   UNL     1      -0.556  -5.001  -4.131  1.00  0.00     0.066 CG0
ATOM     18  G   UNL     1      -0.973  -4.264  -2.871  1.00  0.00     0.000 G0
ENDBRANCH  13  17
ENDBRANCH  11  13
ENDBRANCH  10  11
ENDBRANCH   1  10
TORSDOF 0
ENDMDL
MODEL 9
REMARK VINA RESULT:    -2.776      2.271      4.864
REMARK INTER + INTRA:          -4.056
REMARK INTER:                  -4.392
REMARK INTRA:                   0.336
REMARK UNBOUND:                -0.144
REMARK SMILES CC1=CCC(=C(C)C)C(=O)CC(C)=CCC1
REMARK SMILES IDX 12 1 14 2 13 3 15 4 16 5 2 6 1 7 3 8 11 10 9 11 10 12 5 13
REMARK SMILES IDX 6 14 7 15 8 16 4 17
REMARK H PARENT
REMARK Flexibility Score: 60.00
ROOT
ATOM      1  C   UNL     1      -1.780  -4.448  -2.460  1.00  0.00    -0.070 C 
ATOM      2  C   UNL     1      -2.410  -3.395  -1.891  1.00  0.00    -0.027 C 
ATOM      3  C   UNL     1      -1.270  -4.296  -3.870  1.00  0.00     0.039 C 
ENDROOT
BRANCH   2   4
ATOM      4  C   UNL     1      -3.106  -3.423  -0.555  1.00  0.00     0.032 C 
BRANCH   4   5
ATOM      5  C   UNL     1      -4.580  -3.801  -0.743  1.00  0.00     0.034 C 
BRANCH   5   6
ATOM      6  C   UNL     1      -5.038  -4.858   0.241  1.00  0.00    -0.077 C 
ATOM      7  C   UNL     1      -5.394  -4.434   1.644  1.00  0.00     0.039 C 
ATOM      8  C   UNL     1      -5.217  -6.163  -0.089  1.00  0.00    -0.023 CG0
ATOM      9  G   UNL     1      -4.878  -6.836  -1.406  1.00  0.00     0.000 G0
ENDBRANCH   5   6
ENDBRANCH   4   5
ENDBRANCH   2   4
BRANCH   1  10
ATOM     10  C   UNL     1      -1.542  -5.764  -1.743  1.00  0.00     0.111 C 
BRANCH  10  11
ATOM     11  C   UNL     1      -2.430  -6.862  -2.275  1.00  0.00     0.163 C 
ATOM     12  O   UNL     1      -2.228  -7.239  -3.462  1.00  0.00    -0.294 OA
BRANCH  11  13
ATOM     13  C   UNL     1      -3.506  -7.531  -1.469  1.00  0.00    -0.002 C 
ATOM     14  C   UNL     1      -3.220  -8.624  -0.696  1.00  0.00    -0.069 C 
ATOM     15  C   UNL     1      -4.208  -9.181   0.302  1.00  0.00     0.039 C 
ATOM     16  C   UNL     1      -1.910  -9.367  -0.835  1.00  0.00     0.039 C 
BRANCH  13  17
ATOM     17  C   UNL     1      -4.868  -6.850  -1.398  1.00  0.00     0.066 CG0
ATOM     18  G   UNL     1      -5.218  -6.173  -0.086  1.00  0.00     0.000 G0
ENDBRANCH  13  17
ENDBRANCH  11  13
ENDBRANCH  10  11
ENDBRANCH   1  10
TORSDOF 0
ENDMDL
