MODEL 1
REMARK VINA RESULT:    -8.370      0.000      0.000
REMARK INTER + INTRA:         -10.353
REMARK INTER:                 -10.328
REMARK INTRA:                  -0.026
REMARK UNBOUND:                -0.026
REMARK SMILES Oc1cc(O)c2cc(O)c(-c3cc(O)c(O)c(O)c3)[o+]c2c1.[Cl-]
REMARK SMILES IDX 10 1 20 2 21 3 22 4 2 5 3 6 4 7 6 8 7 9 8 10 11 11 12 12
REMARK SMILES IDX 13 13 19 14 15 15 17 16 14 17 16 19 18 21 9 23 1 25 5 27
REMARK H PARENT 14 18 16 20 18 22 9 24 1 26 5 28
REMARK Flexibility Score: inf
ROOT
ATOM      1  C   UNL     1      17.467  25.503   0.102  1.00  0.00     0.402 A 
ATOM      2  O   UNL     1      16.938  26.595   0.648  1.00  0.00    -0.202 OA
ATOM      3  C   UNL     1      17.553  27.772   0.671  1.00  0.00     0.368 A 
ATOM      4  C   UNL     1      16.916  28.861   1.271  1.00  0.00     0.162 A 
ATOM      5  C   UNL     1      17.543  30.111   1.311  1.00  0.00     0.128 A 
ATOM      6  C   UNL     1      18.811  30.271   0.749  1.00  0.00     0.093 A 
ATOM      7  C   UNL     1      19.471  29.195   0.142  1.00  0.00     0.136 A 
ATOM      8  C   UNL     1      18.839  27.925   0.096  1.00  0.00     0.125 A 
ATOM      9  C   UNL     1      19.418  26.796  -0.503  1.00  0.00     0.078 A 
ATOM     10  C   UNL     1      18.731  25.578  -0.513  1.00  0.00     0.223 A 
ENDROOT
BRANCH   1  11
ATOM     11  C   UNL     1      16.686  24.247   0.148  1.00  0.00     0.091 A 
ATOM     12  C   UNL     1      17.312  23.058   0.555  1.00  0.00     0.068 A 
ATOM     13  C   UNL     1      16.598  21.852   0.587  1.00  0.00     0.162 A 
ATOM     14  C   UNL     1      15.342  24.206  -0.262  1.00  0.00     0.068 A 
ATOM     15  C   UNL     1      15.254  21.822   0.197  1.00  0.00     0.200 A 
ATOM     16  C   UNL     1      14.624  23.002  -0.233  1.00  0.00     0.162 A 
BRANCH  13  17
ATOM     17  O   UNL     1      17.222  20.678   1.006  1.00  0.00    -0.504 OA
ATOM     18  H   UNL     1      17.777  20.645   1.853  1.00  0.00     0.293 HD
ENDBRANCH  13  17
BRANCH  15  19
ATOM     19  O   UNL     1      14.560  20.613   0.239  1.00  0.00    -0.502 OA
ATOM     20  H   UNL     1      14.942  19.785   0.681  1.00  0.00     0.293 HD
ENDBRANCH  15  19
BRANCH  16  21
ATOM     21  O   UNL     1      13.290  22.973  -0.636  1.00  0.00    -0.504 OA
ATOM     22  H   UNL     1      12.748  23.824  -0.742  1.00  0.00     0.293 HD
ENDBRANCH  16  21
ENDBRANCH   1  11
BRANCH  10  23
ATOM     23  O   UNL     1      19.284  24.468  -1.153  1.00  0.00    -0.500 OA
ATOM     24  H   UNL     1      19.047  23.522  -0.878  1.00  0.00     0.294 HD
ENDBRANCH  10  23
BRANCH   5  25
ATOM     25  O   UNL     1      16.914  31.201   1.909  1.00  0.00    -0.507 OA
ATOM     26  H   UNL     1      17.413  31.825   2.532  1.00  0.00     0.293 HD
ENDBRANCH   5  25
BRANCH   7  27
ATOM     27  O   UNL     1      20.739  29.438  -0.394  1.00  0.00    -0.507 OA
ATOM     28  H   UNL     1      21.464  29.962   0.073  1.00  0.00     0.293 HD
ENDBRANCH   7  27
TORSDOF 7
ENDMDL
MODEL 2
REMARK VINA RESULT:    -8.327      0.189      1.798
REMARK INTER + INTRA:         -10.299
REMARK INTER:                 -10.277
REMARK INTRA:                  -0.022
REMARK UNBOUND:                -0.026
REMARK SMILES Oc1cc(O)c2cc(O)c(-c3cc(O)c(O)c(O)c3)[o+]c2c1.[Cl-]
REMARK SMILES IDX 10 1 20 2 21 3 22 4 2 5 3 6 4 7 6 8 7 9 8 10 11 11 12 12
REMARK SMILES IDX 13 13 19 14 15 15 17 16 14 17 16 19 18 21 9 23 1 25 5 27
REMARK H PARENT 14 18 16 20 18 22 9 24 1 26 5 28
REMARK Flexibility Score: inf
ROOT
ATOM      1  C   UNL     1      17.477  25.594   0.137  1.00  0.00     0.402 A 
ATOM      2  O   UNL     1      16.880  26.689   0.603  1.00  0.00    -0.202 OA
ATOM      3  C   UNL     1      17.474  27.876   0.660  1.00  0.00     0.368 A 
ATOM      4  C   UNL     1      16.766  28.967   1.169  1.00  0.00     0.162 A 
ATOM      5  C   UNL     1      17.368  30.227   1.242  1.00  0.00     0.128 A 
ATOM      6  C   UNL     1      18.683  30.396   0.805  1.00  0.00     0.093 A 
ATOM      7  C   UNL     1      19.415  29.317   0.290  1.00  0.00     0.136 A 
ATOM      8  C   UNL     1      18.808  28.037   0.211  1.00  0.00     0.125 A 
ATOM      9  C   UNL     1      19.459  26.905  -0.302  1.00  0.00     0.078 A 
ATOM     10  C   UNL     1      18.793  25.676  -0.352  1.00  0.00     0.223 A 
ENDROOT
BRANCH   1  11
ATOM     11  C   UNL     1      16.712  24.327   0.135  1.00  0.00     0.091 A 
ATOM     12  C   UNL     1      15.360  24.336  -0.243  1.00  0.00     0.068 A 
ATOM     13  C   UNL     1      14.609  23.153  -0.233  1.00  0.00     0.162 A 
ATOM     14  C   UNL     1      17.295  23.120   0.560  1.00  0.00     0.068 A 
ATOM     15  C   UNL     1      15.201  21.950   0.170  1.00  0.00     0.200 A 
ATOM     16  C   UNL     1      16.547  21.934   0.573  1.00  0.00     0.162 A 
BRANCH  13  17
ATOM     17  O   UNL     1      13.272  23.166  -0.625  1.00  0.00    -0.504 OA
ATOM     18  H   UNL     1      12.672  22.360  -0.495  1.00  0.00     0.293 HD
ENDBRANCH  13  17
BRANCH  15  19
ATOM     19  O   UNL     1      14.439  20.782   0.171  1.00  0.00    -0.502 OA
ATOM     20  H   UNL     1      13.658  20.646  -0.461  1.00  0.00     0.293 HD
ENDBRANCH  15  19
BRANCH  16  21
ATOM     21  O   UNL     1      17.137  20.741   0.989  1.00  0.00    -0.504 OA
ATOM     22  H   UNL     1      16.636  20.072   1.563  1.00  0.00     0.293 HD
ENDBRANCH  16  21
ENDBRANCH   1  11
BRANCH  10  23
ATOM     23  O   UNL     1      19.422  24.562  -0.909  1.00  0.00    -0.500 OA
ATOM     24  H   UNL     1      19.385  23.652  -0.464  1.00  0.00     0.294 HD
ENDBRANCH  10  23
BRANCH   5  25
ATOM     25  O   UNL     1      16.669  31.319   1.750  1.00  0.00    -0.507 OA
ATOM     26  H   UNL     1      16.562  32.175   1.217  1.00  0.00     0.293 HD
ENDBRANCH   5  25
BRANCH   7  27
ATOM     27  O   UNL     1      20.726  29.569  -0.124  1.00  0.00    -0.507 OA
ATOM     28  H   UNL     1      21.541  29.109   0.254  1.00  0.00     0.293 HD
ENDBRANCH   7  27
TORSDOF 7
ENDMDL
MODEL 3
REMARK VINA RESULT:    -8.194      1.263      7.340
REMARK INTER + INTRA:         -10.136
REMARK INTER:                  -9.926
REMARK INTRA:                  -0.210
REMARK UNBOUND:                -0.026
REMARK SMILES Oc1cc(O)c2cc(O)c(-c3cc(O)c(O)c(O)c3)[o+]c2c1.[Cl-]
REMARK SMILES IDX 10 1 20 2 21 3 22 4 2 5 3 6 4 7 6 8 7 9 8 10 11 11 12 12
REMARK SMILES IDX 13 13 19 14 15 15 17 16 14 17 16 19 18 21 9 23 1 25 5 27
REMARK H PARENT 14 18 16 20 18 22 9 24 1 26 5 28
REMARK Flexibility Score: inf
ROOT
ATOM      1  C   UNL     1      17.099  26.146   0.542  1.00  0.00     0.402 A 
ATOM      2  O   UNL     1      17.714  24.965   0.546  1.00  0.00    -0.202 OA
ATOM      3  C   UNL     1      17.066  23.806   0.524  1.00  0.00     0.368 A 
ATOM      4  C   UNL     1      17.800  22.617   0.533  1.00  0.00     0.162 A 
ATOM      5  C   UNL     1      17.143  21.382   0.513  1.00  0.00     0.128 A 
ATOM      6  C   UNL     1      15.748  21.337   0.484  1.00  0.00     0.093 A 
ATOM      7  C   UNL     1      14.989  22.515   0.475  1.00  0.00     0.136 A 
ATOM      8  C   UNL     1      15.650  23.770   0.492  1.00  0.00     0.125 A 
ATOM      9  C   UNL     1      14.973  25.000   0.471  1.00  0.00     0.078 A 
ATOM     10  C   UNL     1      15.694  26.198   0.485  1.00  0.00     0.223 A 
ENDROOT
BRANCH   1  11
ATOM     11  C   UNL     1      17.932  27.369   0.579  1.00  0.00     0.091 A 
ATOM     12  C   UNL     1      18.900  27.576  -0.417  1.00  0.00     0.068 A 
ATOM     13  C   UNL     1      19.715  28.716  -0.393  1.00  0.00     0.162 A 
ATOM     14  C   UNL     1      17.815  28.303   1.623  1.00  0.00     0.068 A 
ATOM     15  C   UNL     1      19.579  29.653   0.638  1.00  0.00     0.200 A 
ATOM     16  C   UNL     1      18.630  29.445   1.652  1.00  0.00     0.162 A 
BRANCH  13  17
ATOM     17  O   UNL     1      20.663  28.923  -1.393  1.00  0.00    -0.504 OA
ATOM     18  H   UNL     1      21.283  28.182  -1.699  1.00  0.00     0.293 HD
ENDBRANCH  13  17
BRANCH  15  19
ATOM     19  O   UNL     1      20.397  30.783   0.644  1.00  0.00    -0.502 OA
ATOM     20  H   UNL     1      21.050  30.974   1.396  1.00  0.00     0.293 HD
ENDBRANCH  15  19
BRANCH  16  21
ATOM     21  O   UNL     1      18.501  30.368   2.688  1.00  0.00    -0.504 OA
ATOM     22  H   UNL     1      18.979  31.262   2.667  1.00  0.00     0.293 HD
ENDBRANCH  16  21
ENDBRANCH   1  11
BRANCH  10  23
ATOM     23  O   UNL     1      15.023  27.419   0.413  1.00  0.00    -0.500 OA
ATOM     24  H   UNL     1      14.266  27.572  -0.242  1.00  0.00     0.294 HD
ENDBRANCH  10  23
BRANCH   5  25
ATOM     25  O   UNL     1      17.869  20.193   0.523  1.00  0.00    -0.507 OA
ATOM     26  H   UNL     1      17.464  19.328   0.862  1.00  0.00     0.293 HD
ENDBRANCH   5  25
BRANCH   7  27
ATOM     27  O   UNL     1      13.598  22.383   0.448  1.00  0.00    -0.507 OA
ATOM     28  H   UNL     1      12.979  22.983  -0.076  1.00  0.00     0.293 HD
ENDBRANCH   7  27
TORSDOF 7
ENDMDL
MODEL 4
REMARK VINA RESULT:    -8.161      1.268      7.390
REMARK INTER + INTRA:         -10.095
REMARK INTER:                  -9.929
REMARK INTRA:                  -0.166
REMARK UNBOUND:                -0.026
REMARK SMILES Oc1cc(O)c2cc(O)c(-c3cc(O)c(O)c(O)c3)[o+]c2c1.[Cl-]
REMARK SMILES IDX 10 1 20 2 21 3 22 4 2 5 3 6 4 7 6 8 7 9 8 10 11 11 12 12
REMARK SMILES IDX 13 13 19 14 15 15 17 16 14 17 16 19 18 21 9 23 1 25 5 27
REMARK H PARENT 14 18 16 20 18 22 9 24 1 26 5 28
REMARK Flexibility Score: inf
ROOT
ATOM      1  C   UNL     1      17.150  26.079   0.527  1.00  0.00     0.402 A 
ATOM      2  O   UNL     1      17.738  24.885   0.557  1.00  0.00    -0.202 OA
ATOM      3  C   UNL     1      17.066  23.739   0.541  1.00  0.00     0.368 A 
ATOM      4  C   UNL     1      17.773  22.535   0.578  1.00  0.00     0.162 A 
ATOM      5  C   UNL     1      17.090  21.315   0.565  1.00  0.00     0.128 A 
ATOM      6  C   UNL     1      15.694  21.300   0.514  1.00  0.00     0.093 A 
ATOM      7  C   UNL     1      14.962  22.494   0.476  1.00  0.00     0.136 A 
ATOM      8  C   UNL     1      15.650  23.735   0.487  1.00  0.00     0.125 A 
ATOM      9  C   UNL     1      15.001  24.978   0.437  1.00  0.00     0.078 A 
ATOM     10  C   UNL     1      15.748  26.160   0.447  1.00  0.00     0.223 A 
ENDROOT
BRANCH   1  11
ATOM     11  C   UNL     1      18.010  27.284   0.560  1.00  0.00     0.091 A 
ATOM     12  C   UNL     1      17.842  28.224   1.588  1.00  0.00     0.068 A 
ATOM     13  C   UNL     1      18.629  29.383   1.628  1.00  0.00     0.162 A 
ATOM     14  C   UNL     1      18.954  27.536  -0.451  1.00  0.00     0.068 A 
ATOM     15  C   UNL     1      19.582  29.619   0.631  1.00  0.00     0.200 A 
ATOM     16  C   UNL     1      19.743  28.695  -0.416  1.00  0.00     0.162 A 
BRANCH  13  17
ATOM     17  O   UNL     1      18.468  30.306   2.660  1.00  0.00    -0.504 OA
ATOM     18  H   UNL     1      18.095  31.233   2.491  1.00  0.00     0.293 HD
ENDBRANCH  13  17
BRANCH  15  19
ATOM     19  O   UNL     1      20.358  30.777   0.689  1.00  0.00    -0.502 OA
ATOM     20  H   UNL     1      21.348  30.775   0.470  1.00  0.00     0.293 HD
ENDBRANCH  15  19
BRANCH  16  21
ATOM     21  O   UNL     1      20.680  28.933  -1.419  1.00  0.00    -0.504 OA
ATOM     22  H   UNL     1      20.412  28.991  -2.395  1.00  0.00     0.293 HD
ENDBRANCH  16  21
ENDBRANCH   1  11
BRANCH  10  23
ATOM     23  O   UNL     1      15.106  27.395   0.347  1.00  0.00    -0.500 OA
ATOM     24  H   UNL     1      15.597  28.228   0.047  1.00  0.00     0.294 HD
ENDBRANCH  10  23
BRANCH   5  25
ATOM     25  O   UNL     1      17.788  20.111   0.603  1.00  0.00    -0.507 OA
ATOM     26  H   UNL     1      18.801  20.086   0.637  1.00  0.00     0.293 HD
ENDBRANCH   5  25
BRANCH   7  27
ATOM     27  O   UNL     1      13.569  22.392   0.429  1.00  0.00    -0.507 OA
ATOM     28  H   UNL     1      13.060  21.845  -0.250  1.00  0.00     0.293 HD
ENDBRANCH   7  27
TORSDOF 7
ENDMDL
MODEL 5
REMARK VINA RESULT:    -7.588      1.710      2.541
REMARK INTER + INTRA:          -9.389
REMARK INTER:                  -9.656
REMARK INTRA:                   0.268
REMARK UNBOUND:                -0.026
REMARK SMILES Oc1cc(O)c2cc(O)c(-c3cc(O)c(O)c(O)c3)[o+]c2c1.[Cl-]
REMARK SMILES IDX 10 1 20 2 21 3 22 4 2 5 3 6 4 7 6 8 7 9 8 10 11 11 12 12
REMARK SMILES IDX 13 13 19 14 15 15 17 16 14 17 16 19 18 21 9 23 1 25 5 27
REMARK H PARENT 14 18 16 20 18 22 9 24 1 26 5 28
REMARK Flexibility Score: inf
ROOT
ATOM      1  C   UNL     1      16.111  26.231   0.609  1.00  0.00     0.402 A 
ATOM      2  O   UNL     1      17.173  26.721   1.244  1.00  0.00    -0.202 OA
ATOM      3  C   UNL     1      17.413  28.021   1.371  1.00  0.00     0.368 A 
ATOM      4  C   UNL     1      18.559  28.438   2.053  1.00  0.00     0.162 A 
ATOM      5  C   UNL     1      18.836  29.801   2.199  1.00  0.00     0.128 A 
ATOM      6  C   UNL     1      17.966  30.749   1.659  1.00  0.00     0.093 A 
ATOM      7  C   UNL     1      16.810  30.357   0.970  1.00  0.00     0.136 A 
ATOM      8  C   UNL     1      16.522  28.975   0.822  1.00  0.00     0.125 A 
ATOM      9  C   UNL     1      15.383  28.491   0.160  1.00  0.00     0.078 A 
ATOM     10  C   UNL     1      15.163  27.114   0.058  1.00  0.00     0.223 A 
ENDROOT
BRANCH   1  11
ATOM     11  C   UNL     1      15.959  24.761   0.527  1.00  0.00     0.091 A 
ATOM     12  C   UNL     1      17.102  23.946   0.551  1.00  0.00     0.068 A 
ATOM     13  C   UNL     1      16.986  22.553   0.453  1.00  0.00     0.162 A 
ATOM     14  C   UNL     1      14.697  24.163   0.367  1.00  0.00     0.068 A 
ATOM     15  C   UNL     1      15.724  21.962   0.315  1.00  0.00     0.200 A 
ATOM     16  C   UNL     1      14.576  22.770   0.267  1.00  0.00     0.162 A 
BRANCH  13  17
ATOM     17  O   UNL     1      18.123  21.749   0.493  1.00  0.00    -0.504 OA
ATOM     18  H   UNL     1      18.898  21.892  -0.144  1.00  0.00     0.293 HD
ENDBRANCH  13  17
BRANCH  15  19
ATOM     19  O   UNL     1      15.628  20.574   0.223  1.00  0.00    -0.502 OA
ATOM     20  H   UNL     1      16.446  19.980   0.148  1.00  0.00     0.293 HD
ENDBRANCH  15  19
BRANCH  16  21
ATOM     21  O   UNL     1      13.318  22.187   0.116  1.00  0.00    -0.504 OA
ATOM     22  H   UNL     1      12.516  22.508   0.646  1.00  0.00     0.293 HD
ENDBRANCH  16  21
ENDBRANCH   1  11
BRANCH  10  23
ATOM     23  O   UNL     1      14.006  26.633  -0.555  1.00  0.00    -0.500 OA
ATOM     24  H   UNL     1      13.096  27.037  -0.365  1.00  0.00     0.294 HD
ENDBRANCH  10  23
BRANCH   5  25
ATOM     25  O   UNL     1      19.977  30.223   2.877  1.00  0.00    -0.507 OA
ATOM     26  H   UNL     1      20.869  29.756   2.758  1.00  0.00     0.293 HD
ENDBRANCH   5  25
BRANCH   7  27
ATOM     27  O   UNL     1      15.992  31.368   0.459  1.00  0.00    -0.507 OA
ATOM     28  H   UNL     1      15.126  31.670   0.881  1.00  0.00     0.293 HD
ENDBRANCH   7  27
TORSDOF 7
ENDMDL
MODEL 6
REMARK VINA RESULT:    -6.985      4.714      6.942
REMARK INTER + INTRA:          -8.645
REMARK INTER:                  -8.262
REMARK INTRA:                  -0.383
REMARK UNBOUND:                -0.026
REMARK SMILES Oc1cc(O)c2cc(O)c(-c3cc(O)c(O)c(O)c3)[o+]c2c1.[Cl-]
REMARK SMILES IDX 10 1 20 2 21 3 22 4 2 5 3 6 4 7 6 8 7 9 8 10 11 11 12 12
REMARK SMILES IDX 13 13 19 14 15 15 17 16 14 17 16 19 18 21 9 23 1 25 5 27
REMARK H PARENT 14 18 16 20 18 22 9 24 1 26 5 28
REMARK Flexibility Score: inf
ROOT
ATOM      1  C   UNL     1      16.539  26.640  -3.531  1.00  0.00     0.402 A 
ATOM      2  O   UNL     1      17.806  26.617  -3.938  1.00  0.00    -0.202 OA
ATOM      3  C   UNL     1      18.166  26.371  -5.193  1.00  0.00     0.368 A 
ATOM      4  C   UNL     1      19.523  26.367  -5.523  1.00  0.00     0.162 A 
ATOM      5  C   UNL     1      19.929  26.108  -6.836  1.00  0.00     0.128 A 
ATOM      6  C   UNL     1      18.973  25.853  -7.821  1.00  0.00     0.093 A 
ATOM      7  C   UNL     1      17.606  25.852  -7.516  1.00  0.00     0.136 A 
ATOM      8  C   UNL     1      17.188  26.116  -6.186  1.00  0.00     0.125 A 
ATOM      9  C   UNL     1      15.842  26.149  -5.792  1.00  0.00     0.078 A 
ATOM     10  C   UNL     1      15.507  26.421  -4.461  1.00  0.00     0.223 A 
ENDROOT
BRANCH   1  11
ATOM     11  C   UNL     1      16.267  26.917  -2.102  1.00  0.00     0.091 A 
ATOM     12  C   UNL     1      16.218  28.245  -1.653  1.00  0.00     0.068 A 
ATOM     13  C   UNL     1      15.982  28.533  -0.301  1.00  0.00     0.162 A 
ATOM     14  C   UNL     1      16.114  25.874  -1.171  1.00  0.00     0.068 A 
ATOM     15  C   UNL     1      15.810  27.491   0.617  1.00  0.00     0.200 A 
ATOM     16  C   UNL     1      15.880  26.156   0.182  1.00  0.00     0.162 A 
BRANCH  13  17
ATOM     17  O   UNL     1      15.919  29.855   0.135  1.00  0.00    -0.504 OA
ATOM     18  H   UNL     1      15.036  30.300   0.356  1.00  0.00     0.293 HD
ENDBRANCH  13  17
BRANCH  15  19
ATOM     19  O   UNL     1      15.573  27.796   1.958  1.00  0.00    -0.502 OA
ATOM     20  H   UNL     1      16.039  28.564   2.427  1.00  0.00     0.293 HD
ENDBRANCH  15  19
BRANCH  16  21
ATOM     21  O   UNL     1      15.723  25.115   1.096  1.00  0.00    -0.504 OA
ATOM     22  H   UNL     1      16.470  24.841   1.724  1.00  0.00     0.293 HD
ENDBRANCH  16  21
ENDBRANCH   1  11
BRANCH  10  23
ATOM     23  O   UNL     1      14.168  26.504  -4.080  1.00  0.00    -0.500 OA
ATOM     24  H   UNL     1      13.491  25.803  -4.357  1.00  0.00     0.294 HD
ENDBRANCH  10  23
BRANCH   5  25
ATOM     25  O   UNL     1      21.281  26.101  -7.172  1.00  0.00    -0.507 OA
ATOM     26  H   UNL     1      21.864  26.920  -7.041  1.00  0.00     0.293 HD
ENDBRANCH   5  25
BRANCH   7  27
ATOM     27  O   UNL     1      16.714  25.584  -8.559  1.00  0.00    -0.507 OA
ATOM     28  H   UNL     1      15.709  25.579  -8.462  1.00  0.00     0.293 HD
ENDBRANCH   7  27
TORSDOF 7
ENDMDL
MODEL 7
REMARK VINA RESULT:    -6.879      4.358      6.104
REMARK INTER + INTRA:          -8.513
REMARK INTER:                  -8.271
REMARK INTRA:                  -0.242
REMARK UNBOUND:                -0.026
REMARK SMILES Oc1cc(O)c2cc(O)c(-c3cc(O)c(O)c(O)c3)[o+]c2c1.[Cl-]
REMARK SMILES IDX 10 1 20 2 21 3 22 4 2 5 3 6 4 7 6 8 7 9 8 10 11 11 12 12
REMARK SMILES IDX 13 13 19 14 15 15 17 16 14 17 16 19 18 21 9 23 1 25 5 27
REMARK H PARENT 14 18 16 20 18 22 9 24 1 26 5 28
REMARK Flexibility Score: inf
ROOT
ATOM      1  C   UNL     1      17.219  26.613  -2.559  1.00  0.00     0.402 A 
ATOM      2  O   UNL     1      16.065  26.610  -3.222  1.00  0.00    -0.202 OA
ATOM      3  C   UNL     1      15.984  26.628  -4.548  1.00  0.00     0.368 A 
ATOM      4  C   UNL     1      14.725  26.626  -5.152  1.00  0.00     0.162 A 
ATOM      5  C   UNL     1      14.611  26.647  -6.546  1.00  0.00     0.128 A 
ATOM      6  C   UNL     1      15.761  26.672  -7.337  1.00  0.00     0.093 A 
ATOM      7  C   UNL     1      17.036  26.675  -6.755  1.00  0.00     0.136 A 
ATOM      8  C   UNL     1      17.157  26.650  -5.341  1.00  0.00     0.125 A 
ATOM      9  C   UNL     1      18.391  26.638  -4.672  1.00  0.00     0.078 A 
ATOM     10  C   UNL     1      18.431  26.609  -3.275  1.00  0.00     0.223 A 
ENDROOT
BRANCH   1  11
ATOM     11  C   UNL     1      17.177  26.601  -1.079  1.00  0.00     0.091 A 
ATOM     12  C   UNL     1      16.559  25.531  -0.414  1.00  0.00     0.068 A 
ATOM     13  C   UNL     1      16.489  25.507   0.985  1.00  0.00     0.162 A 
ATOM     14  C   UNL     1      17.694  27.669  -0.324  1.00  0.00     0.068 A 
ATOM     15  C   UNL     1      17.024  26.563   1.733  1.00  0.00     0.200 A 
ATOM     16  C   UNL     1      17.624  27.650   1.076  1.00  0.00     0.162 A 
BRANCH  13  17
ATOM     17  O   UNL     1      15.887  24.433   1.640  1.00  0.00    -0.504 OA
ATOM     18  H   UNL     1      15.673  23.569   1.157  1.00  0.00     0.293 HD
ENDBRANCH  13  17
BRANCH  15  19
ATOM     19  O   UNL     1      16.947  26.520   3.125  1.00  0.00    -0.502 OA
ATOM     20  H   UNL     1      16.184  26.061   3.610  1.00  0.00     0.293 HD
ENDBRANCH  15  19
BRANCH  16  21
ATOM     21  O   UNL     1      18.146  28.710   1.816  1.00  0.00    -0.504 OA
ATOM     22  H   UNL     1      18.852  29.329   1.434  1.00  0.00     0.293 HD
ENDBRANCH  16  21
ENDBRANCH   1  11
BRANCH  10  23
ATOM     23  O   UNL     1      19.656  26.546  -2.611  1.00  0.00    -0.500 OA
ATOM     24  H   UNL     1      20.374  27.246  -2.751  1.00  0.00     0.294 HD
ENDBRANCH  10  23
BRANCH   5  25
ATOM     25  O   UNL     1      13.359  26.645  -7.156  1.00  0.00    -0.507 OA
ATOM     26  H   UNL     1      12.928  25.787  -7.481  1.00  0.00     0.293 HD
ENDBRANCH   5  25
BRANCH   7  27
ATOM     27  O   UNL     1      18.136  26.703  -7.616  1.00  0.00    -0.507 OA
ATOM     28  H   UNL     1      18.831  25.973  -7.678  1.00  0.00     0.293 HD
ENDBRANCH   7  27
TORSDOF 7
ENDMDL
MODEL 8
REMARK VINA RESULT:    -6.848      7.971      9.525
REMARK INTER + INTRA:          -8.475
REMARK INTER:                  -8.097
REMARK INTRA:                  -0.378
REMARK UNBOUND:                -0.026
REMARK SMILES Oc1cc(O)c2cc(O)c(-c3cc(O)c(O)c(O)c3)[o+]c2c1.[Cl-]
REMARK SMILES IDX 10 1 20 2 21 3 22 4 2 5 3 6 4 7 6 8 7 9 8 10 11 11 12 12
REMARK SMILES IDX 13 13 19 14 15 15 17 16 14 17 16 19 18 21 9 23 1 25 5 27
REMARK H PARENT 14 18 16 20 18 22 9 24 1 26 5 28
REMARK Flexibility Score: inf
ROOT
ATOM      1  C   UNL     1      14.935  26.913  -7.141  1.00  0.00     0.402 A 
ATOM      2  O   UNL     1      15.984  26.867  -7.959  1.00  0.00    -0.202 OA
ATOM      3  C   UNL     1      17.222  26.623  -7.545  1.00  0.00     0.368 A 
ATOM      4  C   UNL     1      18.259  26.598  -8.481  1.00  0.00     0.162 A 
ATOM      5  C   UNL     1      19.572  26.346  -8.072  1.00  0.00     0.128 A 
ATOM      6  C   UNL     1      19.849  26.119  -6.722  1.00  0.00     0.093 A 
ATOM      7  C   UNL     1      18.827  26.138  -5.764  1.00  0.00     0.136 A 
ATOM      8  C   UNL     1      17.492  26.391  -6.174  1.00  0.00     0.125 A 
ATOM      9  C   UNL     1      16.404  26.416  -5.288  1.00  0.00     0.078 A 
ATOM     10  C   UNL     1      15.115  26.668  -5.767  1.00  0.00     0.223 A 
ENDROOT
BRANCH   1  11
ATOM     11  C   UNL     1      13.605  27.204  -7.722  1.00  0.00     0.091 A 
ATOM     12  C   UNL     1      13.128  28.524  -7.730  1.00  0.00     0.068 A 
ATOM     13  C   UNL     1      11.863  28.822  -8.256  1.00  0.00     0.162 A 
ATOM     14  C   UNL     1      12.782  26.177  -8.216  1.00  0.00     0.068 A 
ATOM     15  C   UNL     1      11.057  27.798  -8.766  1.00  0.00     0.200 A 
ATOM     16  C   UNL     1      11.515  26.470  -8.742  1.00  0.00     0.162 A 
BRANCH  13  17
ATOM     17  O   UNL     1      11.402  30.137  -8.274  1.00  0.00    -0.504 OA
ATOM     18  H   UNL     1      10.723  30.452  -8.957  1.00  0.00     0.293 HD
ENDBRANCH  13  17
BRANCH  15  19
ATOM     19  O   UNL     1       9.803  28.113  -9.288  1.00  0.00    -0.502 OA
ATOM     20  H   UNL     1       9.683  28.791 -10.032  1.00  0.00     0.293 HD
ENDBRANCH  15  19
BRANCH  16  21
ATOM     21  O   UNL     1      10.710  25.445  -9.236  1.00  0.00    -0.504 OA
ATOM     22  H   UNL     1      10.159  24.857  -8.619  1.00  0.00     0.293 HD
ENDBRANCH  16  21
ENDBRANCH   1  11
BRANCH  10  23
ATOM     23  O   UNL     1      14.027  26.643  -4.894  1.00  0.00    -0.500 OA
ATOM     24  H   UNL     1      13.827  25.836  -4.315  1.00  0.00     0.294 HD
ENDBRANCH  10  23
BRANCH   5  25
ATOM     25  O   UNL     1      20.612  26.320  -8.999  1.00  0.00    -0.507 OA
ATOM     26  H   UNL     1      20.699  27.031  -9.717  1.00  0.00     0.293 HD
ENDBRANCH   5  25
BRANCH   7  27
ATOM     27  O   UNL     1      19.187  25.904  -4.434  1.00  0.00    -0.507 OA
ATOM     28  H   UNL     1      18.817  25.156  -3.867  1.00  0.00     0.293 HD
ENDBRANCH   7  27
TORSDOF 7
ENDMDL
MODEL 9
REMARK VINA RESULT:    -6.732      5.269      6.330
REMARK INTER + INTRA:          -8.332
REMARK INTER:                  -8.004
REMARK INTRA:                  -0.328
REMARK UNBOUND:                -0.026
REMARK SMILES Oc1cc(O)c2cc(O)c(-c3cc(O)c(O)c(O)c3)[o+]c2c1.[Cl-]
REMARK SMILES IDX 10 1 20 2 21 3 22 4 2 5 3 6 4 7 6 8 7 9 8 10 11 11 12 12
REMARK SMILES IDX 13 13 19 14 15 15 17 16 14 17 16 19 18 21 9 23 1 25 5 27
REMARK H PARENT 14 18 16 20 18 22 9 24 1 26 5 28
REMARK Flexibility Score: inf
ROOT
ATOM      1  C   UNL     1      16.544  26.990  -3.880  1.00  0.00     0.402 A 
ATOM      2  O   UNL     1      15.908  27.618  -2.894  1.00  0.00    -0.202 OA
ATOM      3  C   UNL     1      16.294  27.563  -1.624  1.00  0.00     0.368 A 
ATOM      4  C   UNL     1      15.558  28.254  -0.659  1.00  0.00     0.162 A 
ATOM      5  C   UNL     1      15.942  28.211   0.685  1.00  0.00     0.128 A 
ATOM      6  C   UNL     1      17.065  27.473   1.065  1.00  0.00     0.093 A 
ATOM      7  C   UNL     1      17.820  26.771   0.116  1.00  0.00     0.136 A 
ATOM      8  C   UNL     1      17.436  26.813  -1.250  1.00  0.00     0.125 A 
ATOM      9  C   UNL     1      18.140  26.153  -2.269  1.00  0.00     0.078 A 
ATOM     10  C   UNL     1      17.703  26.245  -3.595  1.00  0.00     0.223 A 
ENDROOT
BRANCH   1  11
ATOM     11  C   UNL     1      16.009  27.121  -5.254  1.00  0.00     0.091 A 
ATOM     12  C   UNL     1      16.626  28.003  -6.155  1.00  0.00     0.068 A 
ATOM     13  C   UNL     1      16.126  28.160  -7.454  1.00  0.00     0.162 A 
ATOM     14  C   UNL     1      14.859  26.422  -5.661  1.00  0.00     0.068 A 
ATOM     15  C   UNL     1      14.992  27.446  -7.860  1.00  0.00     0.200 A 
ATOM     16  C   UNL     1      14.353  26.577  -6.960  1.00  0.00     0.162 A 
BRANCH  13  17
ATOM     17  O   UNL     1      16.752  29.026  -8.349  1.00  0.00    -0.504 OA
ATOM     18  H   UNL     1      16.387  29.952  -8.536  1.00  0.00     0.293 HD
ENDBRANCH  13  17
BRANCH  15  19
ATOM     19  O   UNL     1      14.510  27.612  -9.159  1.00  0.00    -0.502 OA
ATOM     20  H   UNL     1      13.739  28.234  -9.373  1.00  0.00     0.293 HD
ENDBRANCH  15  19
BRANCH  16  21
ATOM     21  O   UNL     1      13.216  25.875  -7.355  1.00  0.00    -0.504 OA
ATOM     22  H   UNL     1      12.284  26.249  -7.217  1.00  0.00     0.293 HD
ENDBRANCH  16  21
ENDBRANCH   1  11
BRANCH  10  23
ATOM     23  O   UNL     1      18.430  25.631  -4.615  1.00  0.00    -0.500 OA
ATOM     24  H   UNL     1      18.754  24.674  -4.536  1.00  0.00     0.294 HD
ENDBRANCH  10  23
BRANCH   5  25
ATOM     25  O   UNL     1      15.212  28.897   1.653  1.00  0.00    -0.507 OA
ATOM     26  H   UNL     1      14.757  29.779   1.448  1.00  0.00     0.293 HD
ENDBRANCH   5  25
BRANCH   7  27
ATOM     27  O   UNL     1      18.927  26.055   0.578  1.00  0.00    -0.507 OA
ATOM     28  H   UNL     1      19.102  25.081   0.375  1.00  0.00     0.293 HD
ENDBRANCH   7  27
TORSDOF 7
ENDMDL
