MODEL 1
REMARK VINA RESULT:    -4.619      0.000      0.000
REMARK INTER + INTRA:          -5.752
REMARK INTER:                  -5.564
REMARK INTRA:                  -0.188
REMARK UNBOUND:                -0.188
REMARK SMILES [NH3+][C@@H](Cc1cnc[nH]1)C(=O)[O-]
REMARK SMILES IDX 3 1 2 2 1 3 9 7 10 8 11 9 4 10 5 11 8 12 6 13 7 14
REMARK H PARENT 1 4 1 5 1 6 8 15
REMARK Flexibility Score: inf
ROOT
ATOM      1  C   UNL     1     -18.404 -14.450  44.280  1.00  0.00     0.127 C 
ENDROOT
BRANCH   1   2
ATOM      2  C   UNL     1     -18.262 -13.634  42.978  1.00  0.00     0.233 C 
BRANCH   2   3
ATOM      3  N   UNL     1     -17.085 -14.046  42.201  1.00  0.00    -0.350 N 
ATOM      4  H   UNL     1     -17.033 -13.484  41.320  1.00  0.00     0.345 HD
ATOM      5  H   UNL     1     -17.168 -15.055  41.940  1.00  0.00     0.345 HD
ATOM      6  H   UNL     1     -16.203 -13.904  42.745  1.00  0.00     0.345 HD
ENDBRANCH   2   3
BRANCH   2   7
ATOM      7  C   UNL     1     -18.240 -12.152  43.257  1.00  0.00     0.099 C 
ATOM      8  O   UNL     1     -19.254 -11.590  43.749  1.00  0.00    -0.544 OA
ATOM      9  O   UNL     1     -17.091 -11.404  43.027  1.00  0.00    -0.544 OA
ENDBRANCH   2   7
ENDBRANCH   1   2
BRANCH   1  10
ATOM     10  C   UNL     1     -19.752 -15.094  44.435  1.00  0.00     0.041 A 
ATOM     11  C   UNL     1     -20.816 -14.992  43.566  1.00  0.00     0.134 A 
ATOM     12  N   UNL     1     -20.128 -15.837  45.487  1.00  0.00    -0.348 N 
ATOM     13  N   UNL     1     -21.863 -15.676  44.068  1.00  0.00    -0.245 NA
ATOM     14  C   UNL     1     -21.406 -16.177  45.237  1.00  0.00     0.196 A 
ATOM     15  H   UNL     1     -19.558 -16.093  46.324  1.00  0.00     0.167 HD
ENDBRANCH   1  10
TORSDOF 4
ENDMDL
MODEL 2
REMARK VINA RESULT:    -4.545      2.954      5.498
REMARK INTER + INTRA:          -5.662
REMARK INTER:                  -5.574
REMARK INTRA:                  -0.089
REMARK UNBOUND:                -0.188
REMARK SMILES [NH3+][C@@H](Cc1cnc[nH]1)C(=O)[O-]
REMARK SMILES IDX 3 1 2 2 1 3 9 7 10 8 11 9 4 10 5 11 8 12 6 13 7 14
REMARK H PARENT 1 4 1 5 1 6 8 15
REMARK Flexibility Score: inf
ROOT
ATOM      1  C   UNL     1     -17.964 -11.796  43.042  1.00  0.00     0.127 C 
ENDROOT
BRANCH   1   2
ATOM      2  C   UNL     1     -17.655 -13.292  43.266  1.00  0.00     0.233 C 
BRANCH   2   3
ATOM      3  N   UNL     1     -17.071 -13.913  42.069  1.00  0.00    -0.350 N 
ATOM      4  H   UNL     1     -17.810 -14.450  41.557  1.00  0.00     0.345 HD
ATOM      5  H   UNL     1     -16.316 -14.581  42.348  1.00  0.00     0.345 HD
ATOM      6  H   UNL     1     -16.670 -13.193  41.425  1.00  0.00     0.345 HD
ENDBRANCH   2   3
BRANCH   2   7
ATOM      7  C   UNL     1     -18.878 -14.044  43.729  1.00  0.00     0.099 C 
ATOM      8  O   UNL     1     -19.177 -15.145  43.196  1.00  0.00    -0.544 OA
ATOM      9  O   UNL     1     -19.652 -13.560  44.777  1.00  0.00    -0.544 OA
ENDBRANCH   2   7
ENDBRANCH   1   2
BRANCH   1  10
ATOM     10  C   UNL     1     -16.732 -10.942  42.947  1.00  0.00     0.041 A 
ATOM     11  C   UNL     1     -16.614  -9.742  42.282  1.00  0.00     0.134 A 
ATOM     12  N   UNL     1     -15.539 -11.261  43.473  1.00  0.00    -0.348 N 
ATOM     13  N   UNL     1     -15.345  -9.300  42.393  1.00  0.00    -0.245 NA
ATOM     14  C   UNL     1     -14.722 -10.250  43.124  1.00  0.00     0.196 A 
ATOM     15  H   UNL     1     -15.293 -12.111  44.027  1.00  0.00     0.167 HD
ENDBRANCH   1  10
TORSDOF 4
ENDMDL
MODEL 3
REMARK VINA RESULT:    -4.538      3.905      5.553
REMARK INTER + INTRA:          -5.654
REMARK INTER:                  -5.476
REMARK INTRA:                  -0.179
REMARK UNBOUND:                -0.188
REMARK SMILES [NH3+][C@@H](Cc1cnc[nH]1)C(=O)[O-]
REMARK SMILES IDX 3 1 2 2 1 3 9 7 10 8 11 9 4 10 5 11 8 12 6 13 7 14
REMARK H PARENT 1 4 1 5 1 6 8 15
REMARK Flexibility Score: inf
ROOT
ATOM      1  C   UNL     1     -15.993  -9.617  42.242  1.00  0.00     0.127 C 
ENDROOT
BRANCH   1   2
ATOM      2  C   UNL     1     -16.711  -8.344  41.746  1.00  0.00     0.233 C 
BRANCH   2   3
ATOM      3  N   UNL     1     -16.249  -7.942  40.411  1.00  0.00    -0.350 N 
ATOM      4  H   UNL     1     -17.066  -7.627  39.838  1.00  0.00     0.345 HD
ATOM      5  H   UNL     1     -15.806  -8.757  39.928  1.00  0.00     0.345 HD
ATOM      6  H   UNL     1     -15.556  -7.160  40.468  1.00  0.00     0.345 HD
ENDBRANCH   2   3
BRANCH   2   7
ATOM      7  C   UNL     1     -16.571  -7.213  42.734  1.00  0.00     0.099 C 
ATOM      8  O   UNL     1     -16.533  -6.022  42.325  1.00  0.00    -0.544 OA
ATOM      9  O   UNL     1     -16.538  -7.465  44.101  1.00  0.00    -0.544 OA
ENDBRANCH   2   7
ENDBRANCH   1   2
BRANCH   1  10
ATOM     10  C   UNL     1     -16.937 -10.723  42.620  1.00  0.00     0.041 A 
ATOM     11  C   UNL     1     -18.217 -10.579  43.108  1.00  0.00     0.134 A 
ATOM     12  N   UNL     1     -16.638 -12.030  42.576  1.00  0.00    -0.348 N 
ATOM     13  N   UNL     1     -18.729 -11.799  43.367  1.00  0.00    -0.245 NA
ATOM     14  C   UNL     1     -17.740 -12.656  43.030  1.00  0.00     0.196 A 
ATOM     15  H   UNL     1     -15.744 -12.470  42.265  1.00  0.00     0.167 HD
ENDBRANCH   1  10
TORSDOF 4
ENDMDL
MODEL 4
REMARK VINA RESULT:    -4.531      6.497      7.687
REMARK INTER + INTRA:          -5.646
REMARK INTER:                  -5.526
REMARK INTRA:                  -0.120
REMARK UNBOUND:                -0.188
REMARK SMILES [NH3+][C@@H](Cc1cnc[nH]1)C(=O)[O-]
REMARK SMILES IDX 3 1 2 2 1 3 9 7 10 8 11 9 4 10 5 11 8 12 6 13 7 14
REMARK H PARENT 1 4 1 5 1 6 8 15
REMARK Flexibility Score: inf
ROOT
ATOM      1  C   UNL     1     -18.943  -8.456  43.807  1.00  0.00     0.127 C 
ENDROOT
BRANCH   1   2
ATOM      2  C   UNL     1     -20.251  -7.676  43.555  1.00  0.00     0.233 C 
BRANCH   2   3
ATOM      3  N   UNL     1     -20.372  -6.512  44.443  1.00  0.00    -0.350 N 
ATOM      4  H   UNL     1     -19.616  -5.823  44.223  1.00  0.00     0.345 HD
ATOM      5  H   UNL     1     -20.261  -6.812  45.438  1.00  0.00     0.345 HD
ATOM      6  H   UNL     1     -21.300  -6.043  44.329  1.00  0.00     0.345 HD
ENDBRANCH   2   3
BRANCH   2   7
ATOM      7  C   UNL     1     -21.458  -8.574  43.666  1.00  0.00     0.099 C 
ATOM      8  O   UNL     1     -21.308  -9.796  43.932  1.00  0.00    -0.544 OA
ATOM      9  O   UNL     1     -22.740  -8.058  43.531  1.00  0.00    -0.544 OA
ENDBRANCH   2   7
ENDBRANCH   1   2
BRANCH   1  10
ATOM     10  C   UNL     1     -17.811  -8.020  42.921  1.00  0.00     0.041 A 
ATOM     11  C   UNL     1     -17.215  -8.763  41.926  1.00  0.00     0.134 A 
ATOM     12  N   UNL     1     -17.182  -6.839  43.011  1.00  0.00    -0.348 N 
ATOM     13  N   UNL     1     -16.211  -8.045  41.382  1.00  0.00    -0.245 NA
ATOM     14  C   UNL     1     -16.222  -6.881  42.068  1.00  0.00     0.196 A 
ATOM     15  H   UNL     1     -17.384  -6.056  43.671  1.00  0.00     0.167 HD
ENDBRANCH   1  10
TORSDOF 4
ENDMDL
MODEL 5
REMARK VINA RESULT:    -4.524      2.612      4.742
REMARK INTER + INTRA:          -5.638
REMARK INTER:                  -5.478
REMARK INTRA:                  -0.160
REMARK UNBOUND:                -0.188
REMARK SMILES [NH3+][C@@H](Cc1cnc[nH]1)C(=O)[O-]
REMARK SMILES IDX 3 1 2 2 1 3 9 7 10 8 11 9 4 10 5 11 8 12 6 13 7 14
REMARK H PARENT 1 4 1 5 1 6 8 15
REMARK Flexibility Score: inf
ROOT
ATOM      1  C   UNL     1     -17.705 -13.126  42.444  1.00  0.00     0.127 C 
ENDROOT
BRANCH   1   2
ATOM      2  C   UNL     1     -18.188 -14.227  43.412  1.00  0.00     0.233 C 
BRANCH   2   3
ATOM      3  N   UNL     1     -17.615 -15.538  43.077  1.00  0.00    -0.350 N 
ATOM      4  H   UNL     1     -17.131 -15.934  43.917  1.00  0.00     0.345 HD
ATOM      5  H   UNL     1     -16.909 -15.431  42.313  1.00  0.00     0.345 HD
ATOM      6  H   UNL     1     -18.356 -16.208  42.767  1.00  0.00     0.345 HD
ENDBRANCH   2   3
BRANCH   2   7
ATOM      7  C   UNL     1     -19.694 -14.289  43.467  1.00  0.00     0.099 C 
ATOM      8  O   UNL     1     -20.332 -14.881  42.556  1.00  0.00    -0.544 OA
ATOM      9  O   UNL     1     -20.387 -13.746  44.542  1.00  0.00    -0.544 OA
ENDBRANCH   2   7
ENDBRANCH   1   2
BRANCH   1  10
ATOM     10  C   UNL     1     -17.329 -11.848  43.138  1.00  0.00     0.041 A 
ATOM     11  C   UNL     1     -18.193 -10.882  43.605  1.00  0.00     0.134 A 
ATOM     12  N   UNL     1     -16.070 -11.442  43.362  1.00  0.00    -0.348 N 
ATOM     13  N   UNL     1     -17.477  -9.868  44.130  1.00  0.00    -0.245 NA
ATOM     14  C   UNL     1     -16.190 -10.244  43.964  1.00  0.00     0.196 A 
ATOM     15  H   UNL     1     -15.186 -11.940  43.117  1.00  0.00     0.167 HD
ENDBRANCH   1  10
TORSDOF 4
ENDMDL
MODEL 6
REMARK VINA RESULT:    -4.464      6.030      7.471
REMARK INTER + INTRA:          -5.565
REMARK INTER:                  -5.393
REMARK INTRA:                  -0.173
REMARK UNBOUND:                -0.188
REMARK SMILES [NH3+][C@@H](Cc1cnc[nH]1)C(=O)[O-]
REMARK SMILES IDX 3 1 2 2 1 3 9 7 10 8 11 9 4 10 5 11 8 12 6 13 7 14
REMARK H PARENT 1 4 1 5 1 6 8 15
REMARK Flexibility Score: inf
ROOT
ATOM      1  C   UNL     1     -20.295  -7.638  44.138  1.00  0.00     0.127 C 
ENDROOT
BRANCH   1   2
ATOM      2  C   UNL     1     -21.522  -7.446  43.222  1.00  0.00     0.233 C 
BRANCH   2   3
ATOM      3  N   UNL     1     -22.182  -6.154  43.455  1.00  0.00    -0.350 N 
ATOM      4  H   UNL     1     -23.157  -6.316  43.797  1.00  0.00     0.345 HD
ATOM      5  H   UNL     1     -22.233  -5.616  42.560  1.00  0.00     0.345 HD
ATOM      6  H   UNL     1     -21.664  -5.588  44.166  1.00  0.00     0.345 HD
ENDBRANCH   2   3
BRANCH   2   7
ATOM      7  C   UNL     1     -22.497  -8.589  43.361  1.00  0.00     0.099 C 
ATOM      8  O   UNL     1     -23.689  -8.447  42.980  1.00  0.00    -0.544 OA
ATOM      9  O   UNL     1     -22.082  -9.818  43.858  1.00  0.00    -0.544 OA
ENDBRANCH   2   7
ENDBRANCH   1   2
BRANCH   1  10
ATOM     10  C   UNL     1     -19.037  -7.969  43.387  1.00  0.00     0.041 A 
ATOM     11  C   UNL     1     -18.812  -9.088  42.616  1.00  0.00     0.134 A 
ATOM     12  N   UNL     1     -17.921  -7.225  43.400  1.00  0.00    -0.348 N 
ATOM     13  N   UNL     1     -17.552  -9.047  42.138  1.00  0.00    -0.245 NA
ATOM     14  C   UNL     1     -17.042  -7.899  42.636  1.00  0.00     0.196 A 
ATOM     15  H   UNL     1     -17.762  -6.322  43.900  1.00  0.00     0.167 HD
ENDBRANCH   1  10
TORSDOF 4
ENDMDL
MODEL 7
REMARK VINA RESULT:    -4.448      5.319      5.985
REMARK INTER + INTRA:          -5.546
REMARK INTER:                  -5.374
REMARK INTRA:                  -0.171
REMARK UNBOUND:                -0.188
REMARK SMILES [NH3+][C@@H](Cc1cnc[nH]1)C(=O)[O-]
REMARK SMILES IDX 3 1 2 2 1 3 9 7 10 8 11 9 4 10 5 11 8 12 6 13 7 14
REMARK H PARENT 1 4 1 5 1 6 8 15
REMARK Flexibility Score: inf
ROOT
ATOM      1  C   UNL     1     -17.087  -9.251  43.979  1.00  0.00     0.127 C 
ENDROOT
BRANCH   1   2
ATOM      2  C   UNL     1     -16.542 -10.156  42.854  1.00  0.00     0.233 C 
BRANCH   2   3
ATOM      3  N   UNL     1     -15.910 -11.370  43.389  1.00  0.00    -0.350 N 
ATOM      4  H   UNL     1     -15.580 -11.971  42.598  1.00  0.00     0.345 HD
ATOM      5  H   UNL     1     -16.607 -11.916  43.946  1.00  0.00     0.345 HD
ATOM      6  H   UNL     1     -15.093 -11.136  43.998  1.00  0.00     0.345 HD
ENDBRANCH   2   3
BRANCH   2   7
ATOM      7  C   UNL     1     -15.597  -9.403  41.951  1.00  0.00     0.099 C 
ATOM      8  O   UNL     1     -14.370  -9.685  41.950  1.00  0.00    -0.544 OA
ATOM      9  O   UNL     1     -16.074  -8.434  41.077  1.00  0.00    -0.544 OA
ENDBRANCH   2   7
ENDBRANCH   1   2
BRANCH   1  10
ATOM     10  C   UNL     1     -18.480  -8.752  43.719  1.00  0.00     0.041 A 
ATOM     11  C   UNL     1     -19.475  -9.415  43.036  1.00  0.00     0.134 A 
ATOM     12  N   UNL     1     -18.940  -7.546  44.086  1.00  0.00    -0.348 N 
ATOM     13  N   UNL     1     -20.568  -8.628  42.977  1.00  0.00    -0.245 NA
ATOM     14  C   UNL     1     -20.205  -7.500  43.627  1.00  0.00     0.196 A 
ATOM     15  H   UNL     1     -18.430  -6.800  44.608  1.00  0.00     0.167 HD
ENDBRANCH   1  10
TORSDOF 4
ENDMDL
MODEL 8
REMARK VINA RESULT:    -4.429      2.845      4.073
REMARK INTER + INTRA:          -5.523
REMARK INTER:                  -5.398
REMARK INTRA:                  -0.124
REMARK UNBOUND:                -0.188
REMARK SMILES [NH3+][C@@H](Cc1cnc[nH]1)C(=O)[O-]
REMARK SMILES IDX 3 1 2 2 1 3 9 7 10 8 11 9 4 10 5 11 8 12 6 13 7 14
REMARK H PARENT 1 4 1 5 1 6 8 15
REMARK Flexibility Score: inf
ROOT
ATOM      1  C   UNL     1     -17.267 -11.301  42.623  1.00  0.00     0.127 C 
ENDROOT
BRANCH   1   2
ATOM      2  C   UNL     1     -15.917 -10.828  43.204  1.00  0.00     0.233 C 
BRANCH   2   3
ATOM      3  N   UNL     1     -16.076 -10.234  44.539  1.00  0.00    -0.350 N 
ATOM      4  H   UNL     1     -16.850 -10.719  45.048  1.00  0.00     0.345 HD
ATOM      5  H   UNL     1     -16.326  -9.223  44.449  1.00  0.00     0.345 HD
ATOM      6  H   UNL     1     -15.196 -10.320  45.099  1.00  0.00     0.345 HD
ENDBRANCH   2   3
BRANCH   2   7
ATOM      7  C   UNL     1     -15.216  -9.879  42.265  1.00  0.00     0.099 C 
ATOM      8  O   UNL     1     -13.970  -9.966  42.099  1.00  0.00    -0.544 OA
ATOM      9  O   UNL     1     -15.936  -8.941  41.537  1.00  0.00    -0.544 OA
ENDBRANCH   2   7
ENDBRANCH   1   2
BRANCH   1  10
ATOM     10  C   UNL     1     -17.627 -12.704  43.021  1.00  0.00     0.041 A 
ATOM     11  C   UNL     1     -18.594 -13.079  43.927  1.00  0.00     0.134 A 
ATOM     12  N   UNL     1     -17.009 -13.808  42.571  1.00  0.00    -0.348 N 
ATOM     13  N   UNL     1     -18.591 -14.422  44.045  1.00  0.00    -0.245 NA
ATOM     14  C   UNL     1     -17.614 -14.830  43.205  1.00  0.00     0.196 A 
ATOM     15  H   UNL     1     -16.225 -13.865  41.885  1.00  0.00     0.167 HD
ENDBRANCH   1  10
TORSDOF 4
ENDMDL
MODEL 9
REMARK VINA RESULT:    -4.400      6.297      6.876
REMARK INTER + INTRA:          -5.488
REMARK INTER:                  -5.345
REMARK INTRA:                  -0.143
REMARK UNBOUND:                -0.188
REMARK SMILES [NH3+][C@@H](Cc1cnc[nH]1)C(=O)[O-]
REMARK SMILES IDX 3 1 2 2 1 3 9 7 10 8 11 9 4 10 5 11 8 12 6 13 7 14
REMARK H PARENT 1 4 1 5 1 6 8 15
REMARK Flexibility Score: inf
ROOT
ATOM      1  C   UNL     1     -21.424  -8.237  43.000  1.00  0.00     0.127 C 
ENDROOT
BRANCH   1   2
ATOM      2  C   UNL     1     -20.288  -7.899  43.988  1.00  0.00     0.233 C 
BRANCH   2   3
ATOM      3  N   UNL     1     -20.307  -6.481  44.376  1.00  0.00    -0.350 N 
ATOM      4  H   UNL     1     -19.717  -6.344  45.229  1.00  0.00     0.345 HD
ATOM      5  H   UNL     1     -21.285  -6.189  44.603  1.00  0.00     0.345 HD
ATOM      6  H   UNL     1     -19.938  -5.874  43.608  1.00  0.00     0.345 HD
ENDBRANCH   2   3
BRANCH   2   7
ATOM      7  C   UNL     1     -18.941  -8.294  43.436  1.00  0.00     0.099 C 
ATOM      8  O   UNL     1     -18.869  -9.136  42.501  1.00  0.00    -0.544 OA
ATOM      9  O   UNL     1     -17.778  -7.701  43.911  1.00  0.00    -0.544 OA
ENDBRANCH   2   7
ENDBRANCH   1   2
BRANCH   1  10
ATOM     10  C   UNL     1     -22.782  -8.266  43.642  1.00  0.00     0.041 A 
ATOM     11  C   UNL     1     -23.205  -9.127  44.630  1.00  0.00     0.134 A 
ATOM     12  N   UNL     1     -23.805  -7.469  43.300  1.00  0.00    -0.348 N 
ATOM     13  N   UNL     1     -24.496  -8.868  44.917  1.00  0.00    -0.245 NA
ATOM     14  C   UNL     1     -24.827  -7.853  44.088  1.00  0.00     0.196 A 
ATOM     15  H   UNL     1     -23.815  -6.717  42.576  1.00  0.00     0.167 HD
ENDBRANCH   1  10
TORSDOF 4
ENDMDL
