MODEL 1
REMARK VINA RESULT:    -4.222      0.000      0.000
REMARK INTER + INTRA:          -6.724
REMARK INTER:                  -6.444
REMARK INTRA:                  -0.280
REMARK UNBOUND:                -0.280
REMARK SMILES CCCCCCCCCCC(=O)[O-]
REMARK SMILES IDX 7 1 8 2 9 3 10 4 11 5 12 6 13 7 6 8 5 9 4 10 3 11 2 12 1 13
REMARK H PARENT
REMARK Flexibility Score: inf
ROOT
ATOM      1  C   UNL     1      -9.190  22.851  14.343  1.00  0.00     0.000 C 
ENDROOT
BRANCH   1   2
ATOM      2  C   UNL     1      -8.029  23.783  13.958  1.00  0.00     0.000 C 
BRANCH   2   3
ATOM      3  C   UNL     1      -8.323  25.275  14.220  1.00  0.00     0.006 C 
BRANCH   3   4
ATOM      4  C   UNL     1      -8.948  25.967  13.003  1.00  0.00     0.053 C 
BRANCH   4   5
ATOM      5  C   UNL     1      -8.913  27.452  13.169  1.00  0.00     0.041 C 
ATOM      6  O   UNL     1      -7.898  28.011  13.664  1.00  0.00    -0.550 OA
ATOM      7  O   UNL     1     -10.020  28.218  12.824  1.00  0.00    -0.550 OA
ENDBRANCH   4   5
ENDBRANCH   3   4
ENDBRANCH   2   3
ENDBRANCH   1   2
BRANCH   1   8
ATOM      8  C   UNL     1      -8.719  21.439  14.728  1.00  0.00     0.000 C 
BRANCH   8   9
ATOM      9  C   UNL     1      -7.196  21.352  14.935  1.00  0.00    -0.000 C 
BRANCH   9  10
ATOM     10  C   UNL     1      -6.607  19.931  14.849  1.00  0.00    -0.000 C 
BRANCH  10  11
ATOM     11  C   UNL     1      -5.069  19.922  14.822  1.00  0.00    -0.000 C 
BRANCH  11  12
ATOM     12  C   UNL     1      -4.505  18.999  13.730  1.00  0.00    -0.003 C 
ATOM     13  C   UNL     1      -3.102  18.487  14.053  1.00  0.00     0.004 C 
ENDBRANCH  11  12
ENDBRANCH  10  11
ENDBRANCH   9  10
ENDBRANCH   8   9
ENDBRANCH   1   8
TORSDOF 9
ENDMDL
MODEL 2
REMARK VINA RESULT:    -4.145      5.778      8.861
REMARK INTER + INTRA:          -6.606
REMARK INTER:                  -6.133
REMARK INTRA:                  -0.473
REMARK UNBOUND:                -0.280
REMARK SMILES CCCCCCCCCCC(=O)[O-]
REMARK SMILES IDX 7 1 8 2 9 3 10 4 11 5 12 6 13 7 6 8 5 9 4 10 3 11 2 12 1 13
REMARK H PARENT
REMARK Flexibility Score: inf
ROOT
ATOM      1  C   UNL     1      -4.568  18.138  14.595  1.00  0.00     0.000 C 
ENDROOT
BRANCH   1   2
ATOM      2  C   UNL     1      -3.963  18.696  13.296  1.00  0.00     0.000 C 
BRANCH   2   3
ATOM      3  C   UNL     1      -2.492  18.282  13.073  1.00  0.00     0.006 C 
BRANCH   3   4
ATOM      4  C   UNL     1      -2.189  16.888  13.636  1.00  0.00     0.053 C 
BRANCH   4   5
ATOM      5  C   UNL     1      -1.926  15.922  12.526  1.00  0.00     0.041 C 
ATOM      6  O   UNL     1      -1.658  14.718  12.783  1.00  0.00    -0.550 OA
ATOM      7  O   UNL     1      -1.927  16.359  11.207  1.00  0.00    -0.550 OA
ENDBRANCH   4   5
ENDBRANCH   3   4
ENDBRANCH   2   3
ENDBRANCH   1   2
BRANCH   1   8
ATOM      8  C   UNL     1      -5.766  18.961  15.097  1.00  0.00     0.000 C 
BRANCH   8   9
ATOM      9  C   UNL     1      -5.672  20.449  14.714  1.00  0.00    -0.000 C 
BRANCH   9  10
ATOM     10  C   UNL     1      -6.926  21.285  15.033  1.00  0.00    -0.000 C 
BRANCH  10  11
ATOM     11  C   UNL     1      -8.231  20.484  14.887  1.00  0.00    -0.000 C 
BRANCH  11  12
ATOM     12  C   UNL     1      -9.356  21.306  14.238  1.00  0.00    -0.003 C 
ATOM     13  C   UNL     1      -9.091  22.811  14.282  1.00  0.00     0.004 C 
ENDBRANCH  11  12
ENDBRANCH  10  11
ENDBRANCH   9  10
ENDBRANCH   8   9
ENDBRANCH   1   8
TORSDOF 9
ENDMDL
MODEL 3
REMARK VINA RESULT:    -3.677      3.231      5.686
REMARK INTER + INTRA:          -5.892
REMARK INTER:                  -5.440
REMARK INTRA:                  -0.452
REMARK UNBOUND:                -0.280
REMARK SMILES CCCCCCCCCCC(=O)[O-]
REMARK SMILES IDX 7 1 8 2 9 3 10 4 11 5 12 6 13 7 6 8 5 9 4 10 3 11 2 12 1 13
REMARK H PARENT
REMARK Flexibility Score: inf
ROOT
ATOM      1  C   UNL     1      -4.414  18.993  13.612  1.00  0.00     0.000 C 
ENDROOT
BRANCH   1   2
ATOM      2  C   UNL     1      -5.567  19.169  14.614  1.00  0.00     0.000 C 
BRANCH   2   3
ATOM      3  C   UNL     1      -6.157  20.595  14.631  1.00  0.00     0.006 C 
BRANCH   3   4
ATOM      4  C   UNL     1      -7.635  20.607  15.042  1.00  0.00     0.053 C 
BRANCH   4   5
ATOM      5  C   UNL     1      -8.322  21.814  14.487  1.00  0.00     0.041 C 
ATOM      6  O   UNL     1      -9.545  21.765  14.188  1.00  0.00    -0.550 OA
ATOM      7  O   UNL     1      -7.603  22.979  14.253  1.00  0.00    -0.550 OA
ENDBRANCH   4   5
ENDBRANCH   3   4
ENDBRANCH   2   3
ENDBRANCH   1   2
BRANCH   1   8
ATOM      8  C   UNL     1      -3.131  18.454  14.267  1.00  0.00     0.000 C 
BRANCH   8   9
ATOM      9  C   UNL     1      -1.861  18.800  13.470  1.00  0.00    -0.000 C 
BRANCH   9  10
ATOM     10  C   UNL     1      -1.116  17.591  12.873  1.00  0.00    -0.000 C 
BRANCH  10  11
ATOM     11  C   UNL     1      -1.973  16.792  11.877  1.00  0.00    -0.000 C 
BRANCH  11  12
ATOM     12  C   UNL     1      -1.946  15.281  12.157  1.00  0.00    -0.003 C 
ATOM     13  C   UNL     1      -2.007  14.954  13.648  1.00  0.00     0.004 C 
ENDBRANCH  11  12
ENDBRANCH  10  11
ENDBRANCH   9  10
ENDBRANCH   8   9
ENDBRANCH   1   8
TORSDOF 9
ENDMDL
MODEL 4
REMARK VINA RESULT:    -3.624      6.759     10.021
REMARK INTER + INTRA:          -5.810
REMARK INTER:                  -5.368
REMARK INTRA:                  -0.443
REMARK UNBOUND:                -0.280
REMARK SMILES CCCCCCCCCCC(=O)[O-]
REMARK SMILES IDX 7 1 8 2 9 3 10 4 11 5 12 6 13 7 6 8 5 9 4 10 3 11 2 12 1 13
REMARK H PARENT
REMARK Flexibility Score: inf
ROOT
ATOM      1  C   UNL     1      -2.567  18.064  12.446  1.00  0.00     0.000 C 
ENDROOT
BRANCH   1   2
ATOM      2  C   UNL     1      -1.408  17.390  13.199  1.00  0.00     0.000 C 
BRANCH   2   3
ATOM      3  C   UNL     1      -0.992  16.029  12.601  1.00  0.00     0.006 C 
BRANCH   3   4
ATOM      4  C   UNL     1      -1.723  15.724  11.288  1.00  0.00     0.053 C 
BRANCH   4   5
ATOM      5  C   UNL     1      -2.149  14.291  11.248  1.00  0.00     0.041 C 
ATOM      6  O   UNL     1      -2.747  13.836  10.237  1.00  0.00    -0.550 OA
ATOM      7  O   UNL     1      -1.931  13.469  12.346  1.00  0.00    -0.550 OA
ENDBRANCH   4   5
ENDBRANCH   3   4
ENDBRANCH   2   3
ENDBRANCH   1   2
BRANCH   1   8
ATOM      8  C   UNL     1      -3.543  18.795  13.382  1.00  0.00     0.000 C 
BRANCH   8   9
ATOM      9  C   UNL     1      -4.190  17.861  14.420  1.00  0.00    -0.000 C 
BRANCH   9  10
ATOM     10  C   UNL     1      -5.486  18.394  15.059  1.00  0.00    -0.000 C 
BRANCH  10  11
ATOM     11  C   UNL     1      -5.834  19.821  14.603  1.00  0.00    -0.000 C 
BRANCH  11  12
ATOM     12  C   UNL     1      -7.233  20.261  15.063  1.00  0.00    -0.003 C 
ATOM     13  C   UNL     1      -7.501  21.744  14.809  1.00  0.00     0.004 C 
ENDBRANCH  11  12
ENDBRANCH  10  11
ENDBRANCH   9  10
ENDBRANCH   8   9
ENDBRANCH   1   8
TORSDOF 9
ENDMDL
MODEL 5
REMARK VINA RESULT:    -3.540      6.245      9.355
REMARK INTER + INTRA:          -5.682
REMARK INTER:                  -5.143
REMARK INTRA:                  -0.539
REMARK UNBOUND:                -0.280
REMARK SMILES CCCCCCCCCCC(=O)[O-]
REMARK SMILES IDX 7 1 8 2 9 3 10 4 11 5 12 6 13 7 6 8 5 9 4 10 3 11 2 12 1 13
REMARK H PARENT
REMARK Flexibility Score: inf
ROOT
ATOM      1  C   UNL     1      -1.746  16.031  11.404  1.00  0.00     0.000 C 
ENDROOT
BRANCH   1   2
ATOM      2  C   UNL     1      -1.679  17.249  12.342  1.00  0.00     0.000 C 
BRANCH   2   3
ATOM      3  C   UNL     1      -2.865  17.336  13.325  1.00  0.00     0.006 C 
BRANCH   3   4
ATOM      4  C   UNL     1      -3.640  18.652  13.186  1.00  0.00     0.053 C 
BRANCH   4   5
ATOM      5  C   UNL     1      -4.774  18.698  14.160  1.00  0.00     0.041 C 
ATOM      6  O   UNL     1      -4.924  17.773  15.002  1.00  0.00    -0.550 OA
ATOM      7  O   UNL     1      -5.696  19.736  14.106  1.00  0.00    -0.550 OA
ENDBRANCH   4   5
ENDBRANCH   3   4
ENDBRANCH   2   3
ENDBRANCH   1   2
BRANCH   1   8
ATOM      8  C   UNL     1      -0.751  14.925  11.791  1.00  0.00     0.000 C 
BRANCH   8   9
ATOM      9  C   UNL     1      -1.271  13.513  11.469  1.00  0.00    -0.000 C 
BRANCH   9  10
ATOM     10  C   UNL     1      -2.567  13.469  10.637  1.00  0.00    -0.000 C 
BRANCH  10  11
ATOM     11  C   UNL     1      -3.549  12.387  11.118  1.00  0.00    -0.000 C 
BRANCH  11  12
ATOM     12  C   UNL     1      -3.238  11.901  12.542  1.00  0.00    -0.003 C 
ATOM     13  C   UNL     1      -4.250  12.400  13.573  1.00  0.00     0.004 C 
ENDBRANCH  11  12
ENDBRANCH  10  11
ENDBRANCH   9  10
ENDBRANCH   8   9
ENDBRANCH   1   8
TORSDOF 9
ENDMDL
MODEL 6
REMARK VINA RESULT:    -3.531      3.647      5.204
REMARK INTER + INTRA:          -5.669
REMARK INTER:                  -5.168
REMARK INTRA:                  -0.501
REMARK UNBOUND:                -0.280
REMARK SMILES CCCCCCCCCCC(=O)[O-]
REMARK SMILES IDX 7 1 8 2 9 3 10 4 11 5 12 6 13 7 6 8 5 9 4 10 3 11 2 12 1 13
REMARK H PARENT
REMARK Flexibility Score: inf
ROOT
ATOM      1  C   UNL     1      -7.834  27.192  14.594  1.00  0.00     0.000 C 
ENDROOT
BRANCH   1   2
ATOM      2  C   UNL     1      -7.215  28.524  14.140  1.00  0.00     0.000 C 
BRANCH   2   3
ATOM      3  C   UNL     1      -5.873  28.848  14.830  1.00  0.00     0.006 C 
BRANCH   3   4
ATOM      4  C   UNL     1      -4.877  27.687  14.738  1.00  0.00     0.053 C 
BRANCH   4   5
ATOM      5  C   UNL     1      -3.528  28.186  14.328  1.00  0.00     0.041 C 
ATOM      6  O   UNL     1      -2.857  28.913  15.107  1.00  0.00    -0.550 OA
ATOM      7  O   UNL     1      -3.031  27.890  13.064  1.00  0.00    -0.550 OA
ENDBRANCH   4   5
ENDBRANCH   3   4
ENDBRANCH   2   3
ENDBRANCH   1   2
BRANCH   1   8
ATOM      8  C   UNL     1      -8.602  26.477  13.470  1.00  0.00     0.000 C 
BRANCH   8   9
ATOM      9  C   UNL     1      -8.707  24.957  13.690  1.00  0.00    -0.000 C 
BRANCH   9  10
ATOM     10  C   UNL     1      -7.495  24.314  14.390  1.00  0.00    -0.000 C 
BRANCH  10  11
ATOM     11  C   UNL     1      -7.778  22.884  14.882  1.00  0.00    -0.000 C 
BRANCH  11  12
ATOM     12  C   UNL     1      -9.183  22.396  14.495  1.00  0.00    -0.003 C 
ATOM     13  C   UNL     1      -9.292  20.872  14.461  1.00  0.00     0.004 C 
ENDBRANCH  11  12
ENDBRANCH  10  11
ENDBRANCH   9  10
ENDBRANCH   8   9
ENDBRANCH   1   8
TORSDOF 9
ENDMDL
MODEL 7
REMARK VINA RESULT:    -3.509      6.514      9.510
REMARK INTER + INTRA:          -5.636
REMARK INTER:                  -5.147
REMARK INTRA:                  -0.488
REMARK UNBOUND:                -0.280
REMARK SMILES CCCCCCCCCCC(=O)[O-]
REMARK SMILES IDX 7 1 8 2 9 3 10 4 11 5 12 6 13 7 6 8 5 9 4 10 3 11 2 12 1 13
REMARK H PARENT
REMARK Flexibility Score: inf
ROOT
ATOM      1  C   UNL     1      -1.794  16.567  11.765  1.00  0.00     0.000 C 
ENDROOT
BRANCH   1   2
ATOM      2  C   UNL     1      -1.223  17.245  13.021  1.00  0.00     0.000 C 
BRANCH   2   3
ATOM      3  C   UNL     1      -1.927  18.570  13.381  1.00  0.00     0.006 C 
BRANCH   3   4
ATOM      4  C   UNL     1      -3.354  18.640  12.823  1.00  0.00     0.053 C 
BRANCH   4   5
ATOM      5  C   UNL     1      -4.354  18.588  13.934  1.00  0.00     0.041 C 
ATOM      6  O   UNL     1      -4.453  17.556  14.650  1.00  0.00    -0.550 OA
ATOM      7  O   UNL     1      -5.211  19.660  14.150  1.00  0.00    -0.550 OA
ENDBRANCH   4   5
ENDBRANCH   3   4
ENDBRANCH   2   3
ENDBRANCH   1   2
BRANCH   1   8
ATOM      8  C   UNL     1      -1.325  15.111  11.607  1.00  0.00     0.000 C 
BRANCH   8   9
ATOM      9  C   UNL     1      -2.103  14.131  12.504  1.00  0.00    -0.000 C 
BRANCH   9  10
ATOM     10  C   UNL     1      -2.908  13.056  11.749  1.00  0.00    -0.000 C 
BRANCH  10  11
ATOM     11  C   UNL     1      -2.550  12.980  10.255  1.00  0.00    -0.000 C 
BRANCH  11  12
ATOM     12  C   UNL     1      -2.059  11.584   9.838  1.00  0.00    -0.003 C 
ATOM     13  C   UNL     1      -1.548  11.541   8.398  1.00  0.00     0.004 C 
ENDBRANCH  11  12
ENDBRANCH  10  11
ENDBRANCH   9  10
ENDBRANCH   8   9
ENDBRANCH   1   8
TORSDOF 9
ENDMDL
MODEL 8
REMARK VINA RESULT:    -3.414      7.685     11.238
REMARK INTER + INTRA:          -5.490
REMARK INTER:                  -4.933
REMARK INTRA:                  -0.556
REMARK UNBOUND:                -0.280
REMARK SMILES CCCCCCCCCCC(=O)[O-]
REMARK SMILES IDX 7 1 8 2 9 3 10 4 11 5 12 6 13 7 6 8 5 9 4 10 3 11 2 12 1 13
REMARK H PARENT
REMARK Flexibility Score: inf
ROOT
ATOM      1  C   UNL     1      -1.771  16.370  11.372  1.00  0.00     0.000 C 
ENDROOT
BRANCH   1   2
ATOM      2  C   UNL     1      -0.468  15.643  11.745  1.00  0.00     0.000 C 
BRANCH   2   3
ATOM      3  C   UNL     1      -0.627  14.112  11.864  1.00  0.00     0.006 C 
BRANCH   3   4
ATOM      4  C   UNL     1      -2.099  13.683  11.903  1.00  0.00     0.053 C 
BRANCH   4   5
ATOM      5  C   UNL     1      -2.364  12.629  10.875  1.00  0.00     0.041 C 
ATOM      6  O   UNL     1      -1.459  12.289  10.068  1.00  0.00    -0.550 OA
ATOM      7  O   UNL     1      -3.625  12.056  10.776  1.00  0.00    -0.550 OA
ENDBRANCH   4   5
ENDBRANCH   3   4
ENDBRANCH   2   3
ENDBRANCH   1   2
BRANCH   1   8
ATOM      8  C   UNL     1      -2.117  17.509  12.344  1.00  0.00     0.000 C 
BRANCH   8   9
ATOM      9  C   UNL     1      -2.244  17.035  13.802  1.00  0.00    -0.000 C 
BRANCH   9  10
ATOM     10  C   UNL     1      -3.633  17.241  14.437  1.00  0.00    -0.000 C 
BRANCH  10  11
ATOM     11  C   UNL     1      -4.317  18.537  13.970  1.00  0.00    -0.000 C 
BRANCH  11  12
ATOM     12  C   UNL     1      -5.523  18.914  14.845  1.00  0.00    -0.003 C 
ATOM     13  C   UNL     1      -6.173  20.231  14.422  1.00  0.00     0.004 C 
ENDBRANCH  11  12
ENDBRANCH  10  11
ENDBRANCH   9  10
ENDBRANCH   8   9
ENDBRANCH   1   8
TORSDOF 9
ENDMDL
MODEL 9
REMARK VINA RESULT:    -3.325      8.371     11.914
REMARK INTER + INTRA:          -5.354
REMARK INTER:                  -5.021
REMARK INTRA:                  -0.332
REMARK UNBOUND:                -0.280
REMARK SMILES CCCCCCCCCCC(=O)[O-]
REMARK SMILES IDX 7 1 8 2 9 3 10 4 11 5 12 6 13 7 6 8 5 9 4 10 3 11 2 12 1 13
REMARK H PARENT
REMARK Flexibility Score: inf
ROOT
ATOM      1  C   UNL     1      -1.510  14.885  11.576  1.00  0.00     0.000 C 
ENDROOT
BRANCH   1   2
ATOM      2  C   UNL     1      -2.513  14.071  10.742  1.00  0.00     0.000 C 
BRANCH   2   3
ATOM      3  C   UNL     1      -2.613  12.591  11.170  1.00  0.00     0.006 C 
BRANCH   3   4
ATOM      4  C   UNL     1      -3.910  12.293  11.932  1.00  0.00     0.053 C 
BRANCH   4   5
ATOM      5  C   UNL     1      -4.360  10.891  11.671  1.00  0.00     0.041 C 
ATOM      6  O   UNL     1      -3.518   9.994  11.400  1.00  0.00    -0.550 OA
ATOM      7  O   UNL     1      -5.715  10.583  11.678  1.00  0.00    -0.550 OA
ENDBRANCH   4   5
ENDBRANCH   3   4
ENDBRANCH   2   3
ENDBRANCH   1   2
BRANCH   1   8
ATOM      8  C   UNL     1      -1.848  16.384  11.619  1.00  0.00     0.000 C 
BRANCH   8   9
ATOM      9  C   UNL     1      -1.086  17.138  12.725  1.00  0.00    -0.000 C 
BRANCH   9  10
ATOM     10  C   UNL     1      -1.704  18.487  13.139  1.00  0.00    -0.000 C 
BRANCH  10  11
ATOM     11  C   UNL     1      -3.195  18.598  12.775  1.00  0.00    -0.000 C 
BRANCH  11  12
ATOM     12  C   UNL     1      -4.115  18.336  13.978  1.00  0.00    -0.003 C 
ATOM     13  C   UNL     1      -5.176  19.421  14.160  1.00  0.00     0.004 C 
ENDBRANCH  11  12
ENDBRANCH  10  11
ENDBRANCH   9  10
ENDBRANCH   8   9
ENDBRANCH   1   8
TORSDOF 9
ENDMDL
