MODEL 1
REMARK VINA RESULT:    -6.086      0.000      0.000
REMARK INTER + INTRA:          -6.680
REMARK INTER:                  -6.619
REMARK INTRA:                  -0.061
REMARK UNBOUND:                -0.061
REMARK SMILES COc1cc2ccc(=O)oc2cc1O
REMARK SMILES IDX 3 1 13 2 12 3 11 4 5 5 4 6 6 7 7 8 8 9 9 10 10 11 2 12 1 13
REMARK SMILES IDX 14 14
REMARK H PARENT 14 15
REMARK Flexibility Score: inf
ROOT
ATOM      1  C   UNL     1      -8.731 -67.384 -30.363  1.00  0.00     0.161 A 
ATOM      2  C   UNL     1     -10.012 -67.545 -30.928  1.00  0.00     0.161 A 
ATOM      3  C   UNL     1     -10.371 -66.828 -32.074  1.00  0.00     0.098 A 
ATOM      4  C   UNL     1      -9.467 -65.947 -32.670  1.00  0.00     0.142 A 
ATOM      5  C   UNL     1      -8.182 -65.778 -32.112  1.00  0.00     0.022 A 
ATOM      6  C   UNL     1      -7.818 -66.495 -30.963  1.00  0.00     0.062 A 
ATOM      7  C   UNL     1      -7.299 -64.888 -32.731  1.00  0.00     0.019 A 
ATOM      8  C   UNL     1      -7.707 -64.198 -33.872  1.00  0.00     0.094 A 
ATOM      9  C   UNL     1      -8.996 -64.416 -34.369  1.00  0.00     0.336 A 
ATOM     10  O   UNL     1      -9.386 -63.804 -35.397  1.00  0.00    -0.246 OA
ATOM     11  O   UNL     1      -9.817 -65.269 -33.760  1.00  0.00    -0.423 OA
ENDROOT
BRANCH   1  12
ATOM     12  O   UNL     1      -8.403 -68.119 -29.211  1.00  0.00    -0.493 OA
ATOM     13  C   UNL     1      -8.554 -67.642 -27.878  1.00  0.00     0.278 C 
ENDBRANCH   1  12
BRANCH   2  14
ATOM     14  O   UNL     1     -10.942 -68.416 -30.362  1.00  0.00    -0.504 OA
ATOM     15  H   UNL     1     -11.713 -68.803 -30.893  1.00  0.00     0.293 HD
ENDBRANCH   2  14
TORSDOF 2
ENDMDL
MODEL 2
REMARK VINA RESULT:    -5.912      6.702      7.906
REMARK INTER + INTRA:          -6.491
REMARK INTER:                  -6.442
REMARK INTRA:                  -0.049
REMARK UNBOUND:                -0.061
REMARK SMILES COc1cc2ccc(=O)oc2cc1O
REMARK SMILES IDX 3 1 13 2 12 3 11 4 5 5 4 6 6 7 7 8 8 9 9 10 10 11 2 12 1 13
REMARK SMILES IDX 14 14
REMARK H PARENT 14 15
REMARK Flexibility Score: inf
ROOT
ATOM      1  C   UNL     1     -15.527 -66.598 -34.691  1.00  0.00     0.161 A 
ATOM      2  C   UNL     1     -16.561 -66.256 -35.586  1.00  0.00     0.161 A 
ATOM      3  C   UNL     1     -16.383 -66.423 -36.964  1.00  0.00     0.098 A 
ATOM      4  C   UNL     1     -15.183 -66.927 -37.467  1.00  0.00     0.142 A 
ATOM      5  C   UNL     1     -14.141 -67.272 -36.579  1.00  0.00     0.022 A 
ATOM      6  C   UNL     1     -14.315 -67.107 -35.198  1.00  0.00     0.062 A 
ATOM      7  C   UNL     1     -12.951 -67.775 -37.112  1.00  0.00     0.019 A 
ATOM      8  C   UNL     1     -12.826 -67.921 -38.494  1.00  0.00     0.094 A 
ATOM      9  C   UNL     1     -13.901 -67.559 -39.313  1.00  0.00     0.336 A 
ATOM     10  O   UNL     1     -13.809 -67.681 -40.562  1.00  0.00    -0.246 OA
ATOM     11  O   UNL     1     -15.023 -67.082 -38.779  1.00  0.00    -0.423 OA
ENDROOT
BRANCH   1  12
ATOM     12  O   UNL     1     -15.739 -66.418 -33.314  1.00  0.00    -0.493 OA
ATOM     13  C   UNL     1     -14.768 -65.906 -32.407  1.00  0.00     0.278 C 
ENDBRANCH   1  12
BRANCH   2  14
ATOM     14  O   UNL     1     -17.774 -65.749 -35.123  1.00  0.00    -0.504 OA
ATOM     15  H   UNL     1     -18.667 -66.115 -35.431  1.00  0.00     0.293 HD
ENDBRANCH   2  14
TORSDOF 2
ENDMDL
MODEL 3
REMARK VINA RESULT:    -5.909      1.228      2.395
REMARK INTER + INTRA:          -6.487
REMARK INTER:                  -6.422
REMARK INTRA:                  -0.065
REMARK UNBOUND:                -0.061
REMARK SMILES COc1cc2ccc(=O)oc2cc1O
REMARK SMILES IDX 3 1 13 2 12 3 11 4 5 5 4 6 6 7 7 8 8 9 9 10 10 11 2 12 1 13
REMARK SMILES IDX 14 14
REMARK H PARENT 14 15
REMARK Flexibility Score: inf
ROOT
ATOM      1  C   UNL     1      -8.753 -67.650 -29.942  1.00  0.00     0.161 A 
ATOM      2  C   UNL     1      -7.630 -66.820 -30.139  1.00  0.00     0.161 A 
ATOM      3  C   UNL     1      -7.583 -65.947 -31.231  1.00  0.00     0.098 A 
ATOM      4  C   UNL     1      -8.644 -65.888 -32.137  1.00  0.00     0.142 A 
ATOM      5  C   UNL     1      -9.772 -66.714 -31.949  1.00  0.00     0.022 A 
ATOM      6  C   UNL     1      -9.824 -67.590 -30.856  1.00  0.00     0.062 A 
ATOM      7  C   UNL     1     -10.818 -66.632 -32.873  1.00  0.00     0.019 A 
ATOM      8  C   UNL     1     -10.719 -65.744 -33.944  1.00  0.00     0.094 A 
ATOM      9  C   UNL     1      -9.570 -64.956 -34.066  1.00  0.00     0.336 A 
ATOM     10  O   UNL     1      -9.460 -64.149 -35.026  1.00  0.00    -0.246 OA
ATOM     11  O   UNL     1      -8.589 -65.054 -33.173  1.00  0.00    -0.423 OA
ENDROOT
BRANCH   1  12
ATOM     12  O   UNL     1      -8.769 -68.514 -28.835  1.00  0.00    -0.493 OA
ATOM     13  C   UNL     1      -9.422 -68.235 -27.601  1.00  0.00     0.278 C 
ENDBRANCH   1  12
BRANCH   2  14
ATOM     14  O   UNL     1      -6.552 -66.851 -29.256  1.00  0.00    -0.504 OA
ATOM     15  H   UNL     1      -6.563 -67.403 -28.407  1.00  0.00     0.293 HD
ENDBRANCH   2  14
TORSDOF 2
ENDMDL
MODEL 4
REMARK VINA RESULT:    -5.881      1.755      5.407
REMARK INTER + INTRA:          -6.457
REMARK INTER:                  -6.412
REMARK INTRA:                  -0.045
REMARK UNBOUND:                -0.061
REMARK SMILES COc1cc2ccc(=O)oc2cc1O
REMARK SMILES IDX 3 1 13 2 12 3 11 4 5 5 4 6 6 7 7 8 8 9 9 10 10 11 2 12 1 13
REMARK SMILES IDX 14 14
REMARK H PARENT 14 15
REMARK Flexibility Score: inf
ROOT
ATOM      1  C   UNL     1      -8.113 -64.200 -34.390  1.00  0.00     0.161 A 
ATOM      2  C   UNL     1      -7.142 -64.685 -33.490  1.00  0.00     0.161 A 
ATOM      3  C   UNL     1      -7.503 -65.585 -32.482  1.00  0.00     0.098 A 
ATOM      4  C   UNL     1      -8.826 -66.012 -32.354  1.00  0.00     0.142 A 
ATOM      5  C   UNL     1      -9.806 -65.533 -33.249  1.00  0.00     0.022 A 
ATOM      6  C   UNL     1      -9.449 -64.631 -34.261  1.00  0.00     0.062 A 
ATOM      7  C   UNL     1     -11.122 -65.979 -33.096  1.00  0.00     0.019 A 
ATOM      8  C   UNL     1     -11.428 -66.876 -32.073  1.00  0.00     0.094 A 
ATOM      9  C   UNL     1     -10.404 -67.309 -31.224  1.00  0.00     0.336 A 
ATOM     10  O   UNL     1     -10.658 -68.118 -30.294  1.00  0.00    -0.246 OA
ATOM     11  O   UNL     1      -9.159 -66.868 -31.391  1.00  0.00    -0.423 OA
ENDROOT
BRANCH   1  12
ATOM     12  O   UNL     1      -7.717 -63.298 -35.391  1.00  0.00    -0.493 OA
ATOM     13  C   UNL     1      -8.364 -63.155 -36.651  1.00  0.00     0.278 C 
ENDBRANCH   1  12
BRANCH   2  14
ATOM     14  O   UNL     1      -5.811 -64.282 -33.586  1.00  0.00    -0.504 OA
ATOM     15  H   UNL     1      -5.149 -64.742 -34.199  1.00  0.00     0.293 HD
ENDBRANCH   2  14
TORSDOF 2
ENDMDL
MODEL 5
REMARK VINA RESULT:    -5.751      1.648      5.344
REMARK INTER + INTRA:          -6.316
REMARK INTER:                  -6.273
REMARK INTRA:                  -0.043
REMARK UNBOUND:                -0.061
REMARK SMILES COc1cc2ccc(=O)oc2cc1O
REMARK SMILES IDX 3 1 13 2 12 3 11 4 5 5 4 6 6 7 7 8 8 9 9 10 10 11 2 12 1 13
REMARK SMILES IDX 14 14
REMARK H PARENT 14 15
REMARK Flexibility Score: inf
ROOT
ATOM      1  C   UNL     1      -7.711 -64.957 -33.040  1.00  0.00     0.161 A 
ATOM      2  C   UNL     1      -6.649 -65.188 -32.143  1.00  0.00     0.161 A 
ATOM      3  C   UNL     1      -6.817 -66.059 -31.062  1.00  0.00     0.098 A 
ATOM      4  C   UNL     1      -8.037 -66.708 -30.859  1.00  0.00     0.142 A 
ATOM      5  C   UNL     1      -9.107 -66.484 -31.751  1.00  0.00     0.022 A 
ATOM      6  C   UNL     1      -8.942 -65.612 -32.836  1.00  0.00     0.062 A 
ATOM      7  C   UNL     1     -10.316 -67.147 -31.521  1.00  0.00     0.019 A 
ATOM      8  C   UNL     1     -10.430 -68.005 -30.428  1.00  0.00     0.094 A 
ATOM      9  C   UNL     1      -9.327 -68.180 -29.585  1.00  0.00     0.336 A 
ATOM     10  O   UNL     1      -9.409 -68.948 -28.593  1.00  0.00    -0.246 OA
ATOM     11  O   UNL     1      -8.188 -67.535 -29.827  1.00  0.00    -0.423 OA
ENDROOT
BRANCH   1  12
ATOM     12  O   UNL     1      -7.508 -64.076 -34.116  1.00  0.00    -0.493 OA
ATOM     13  C   UNL     1      -8.506 -63.721 -35.068  1.00  0.00     0.278 C 
ENDBRANCH   1  12
BRANCH   2  14
ATOM     14  O   UNL     1      -5.416 -64.559 -32.313  1.00  0.00    -0.504 OA
ATOM     15  H   UNL     1      -4.675 -64.963 -32.873  1.00  0.00     0.293 HD
ENDBRANCH   2  14
TORSDOF 2
ENDMDL
MODEL 6
REMARK VINA RESULT:    -5.746      1.153      5.006
REMARK INTER + INTRA:          -6.310
REMARK INTER:                  -6.250
REMARK INTRA:                  -0.061
REMARK UNBOUND:                -0.061
REMARK SMILES COc1cc2ccc(=O)oc2cc1O
REMARK SMILES IDX 3 1 13 2 12 3 11 4 5 5 4 6 6 7 7 8 8 9 9 10 10 11 2 12 1 13
REMARK SMILES IDX 14 14
REMARK H PARENT 14 15
REMARK Flexibility Score: inf
ROOT
ATOM      1  C   UNL     1      -7.910 -64.304 -33.990  1.00  0.00     0.161 A 
ATOM      2  C   UNL     1      -9.237 -64.591 -34.367  1.00  0.00     0.161 A 
ATOM      3  C   UNL     1     -10.007 -65.482 -33.612  1.00  0.00     0.098 A 
ATOM      4  C   UNL     1      -9.471 -66.095 -32.477  1.00  0.00     0.142 A 
ATOM      5  C   UNL     1      -8.144 -65.814 -32.091  1.00  0.00     0.022 A 
ATOM      6  C   UNL     1      -7.369 -64.922 -32.845  1.00  0.00     0.062 A 
ATOM      7  C   UNL     1      -7.635 -66.443 -30.951  1.00  0.00     0.019 A 
ATOM      8  C   UNL     1      -8.446 -67.323 -30.233  1.00  0.00     0.094 A 
ATOM      9  C   UNL     1      -9.753 -67.552 -30.676  1.00  0.00     0.336 A 
ATOM     10  O   UNL     1     -10.501 -68.343 -30.044  1.00  0.00    -0.246 OA
ATOM     11  O   UNL     1     -10.212 -66.941 -31.765  1.00  0.00    -0.423 OA
ENDROOT
BRANCH   1  12
ATOM     12  O   UNL     1      -7.165 -63.405 -34.771  1.00  0.00    -0.493 OA
ATOM     13  C   UNL     1      -6.299 -63.786 -35.835  1.00  0.00     0.278 C 
ENDBRANCH   1  12
BRANCH   2  14
ATOM     14  O   UNL     1      -9.808 -63.999 -35.493  1.00  0.00    -0.504 OA
ATOM     15  H   UNL     1      -9.330 -63.960 -36.385  1.00  0.00     0.293 HD
ENDBRANCH   2  14
TORSDOF 2
ENDMDL
MODEL 7
REMARK VINA RESULT:    -5.649      2.155      3.413
REMARK INTER + INTRA:          -6.205
REMARK INTER:                  -6.142
REMARK INTRA:                  -0.063
REMARK UNBOUND:                -0.061
REMARK SMILES COc1cc2ccc(=O)oc2cc1O
REMARK SMILES IDX 3 1 13 2 12 3 11 4 5 5 4 6 6 7 7 8 8 9 9 10 10 11 2 12 1 13
REMARK SMILES IDX 14 14
REMARK H PARENT 14 15
REMARK Flexibility Score: inf
ROOT
ATOM      1  C   UNL     1     -10.990 -66.553 -32.387  1.00  0.00     0.161 A 
ATOM      2  C   UNL     1     -10.335 -67.274 -31.369  1.00  0.00     0.161 A 
ATOM      3  C   UNL     1      -8.973 -67.066 -31.124  1.00  0.00     0.098 A 
ATOM      4  C   UNL     1      -8.250 -66.145 -31.884  1.00  0.00     0.142 A 
ATOM      5  C   UNL     1      -8.897 -65.419 -32.906  1.00  0.00     0.022 A 
ATOM      6  C   UNL     1     -10.261 -65.624 -33.155  1.00  0.00     0.062 A 
ATOM      7  C   UNL     1      -8.146 -64.504 -33.651  1.00  0.00     0.019 A 
ATOM      8  C   UNL     1      -6.791 -64.335 -33.365  1.00  0.00     0.094 A 
ATOM      9  C   UNL     1      -6.217 -65.090 -32.337  1.00  0.00     0.336 A 
ATOM     10  O   UNL     1      -4.996 -64.954 -32.063  1.00  0.00    -0.246 OA
ATOM     11  O   UNL     1      -6.954 -65.954 -31.644  1.00  0.00    -0.423 OA
ENDROOT
BRANCH   1  12
ATOM     12  O   UNL     1     -12.358 -66.786 -32.606  1.00  0.00    -0.493 OA
ATOM     13  C   UNL     1     -13.397 -65.871 -32.272  1.00  0.00     0.278 C 
ENDBRANCH   1  12
BRANCH   2  14
ATOM     14  O   UNL     1     -11.023 -68.202 -30.588  1.00  0.00    -0.504 OA
ATOM     15  H   UNL     1     -10.591 -69.055 -30.255  1.00  0.00     0.293 HD
ENDBRANCH   2  14
TORSDOF 2
ENDMDL
MODEL 8
REMARK VINA RESULT:    -5.414      2.783      3.426
REMARK INTER + INTRA:          -5.949
REMARK INTER:                  -5.899
REMARK INTRA:                  -0.050
REMARK UNBOUND:                -0.061
REMARK SMILES COc1cc2ccc(=O)oc2cc1O
REMARK SMILES IDX 3 1 13 2 12 3 11 4 5 5 4 6 6 7 7 8 8 9 9 10 10 11 2 12 1 13
REMARK SMILES IDX 14 14
REMARK H PARENT 14 15
REMARK Flexibility Score: inf
ROOT
ATOM      1  C   UNL     1      -9.192 -67.904 -28.118  1.00  0.00     0.161 A 
ATOM      2  C   UNL     1      -9.551 -68.161 -29.456  1.00  0.00     0.161 A 
ATOM      3  C   UNL     1      -8.827 -67.582 -30.503  1.00  0.00     0.098 A 
ATOM      4  C   UNL     1      -7.743 -66.743 -30.236  1.00  0.00     0.142 A 
ATOM      5  C   UNL     1      -7.375 -66.479 -28.899  1.00  0.00     0.022 A 
ATOM      6  C   UNL     1      -8.098 -67.058 -27.847  1.00  0.00     0.062 A 
ATOM      7  C   UNL     1      -6.286 -65.636 -28.663  1.00  0.00     0.019 A 
ATOM      8  C   UNL     1      -5.598 -65.084 -29.744  1.00  0.00     0.094 A 
ATOM      9  C   UNL     1      -6.020 -65.391 -31.042  1.00  0.00     0.336 A 
ATOM     10  O   UNL     1      -5.415 -64.903 -32.032  1.00  0.00    -0.246 OA
ATOM     11  O   UNL     1      -7.061 -66.196 -31.239  1.00  0.00    -0.423 OA
ENDROOT
BRANCH   1  12
ATOM     12  O   UNL     1      -9.940 -68.503 -27.090  1.00  0.00    -0.493 OA
ATOM     13  C   UNL     1     -10.420 -67.819 -25.937  1.00  0.00     0.278 C 
ENDBRANCH   1  12
BRANCH   2  14
ATOM     14  O   UNL     1     -10.627 -68.993 -29.764  1.00  0.00    -0.504 OA
ATOM     15  H   UNL     1     -10.893 -69.203 -30.718  1.00  0.00     0.293 HD
ENDBRANCH   2  14
TORSDOF 2
ENDMDL
MODEL 9
REMARK VINA RESULT:    -5.307      7.450      8.974
REMARK INTER + INTRA:          -5.833
REMARK INTER:                  -5.782
REMARK INTRA:                  -0.052
REMARK UNBOUND:                -0.061
REMARK SMILES COc1cc2ccc(=O)oc2cc1O
REMARK SMILES IDX 3 1 13 2 12 3 11 4 5 5 4 6 6 7 7 8 8 9 9 10 10 11 2 12 1 13
REMARK SMILES IDX 14 14
REMARK H PARENT 14 15
REMARK Flexibility Score: inf
ROOT
ATOM      1  C   UNL     1     -17.134 -66.502 -35.741  1.00  0.00     0.161 A 
ATOM      2  C   UNL     1     -16.040 -66.875 -34.934  1.00  0.00     0.161 A 
ATOM      3  C   UNL     1     -14.829 -67.256 -35.522  1.00  0.00     0.098 A 
ATOM      4  C   UNL     1     -14.690 -67.272 -36.911  1.00  0.00     0.142 A 
ATOM      5  C   UNL     1     -15.779 -66.900 -37.728  1.00  0.00     0.022 A 
ATOM      6  C   UNL     1     -16.994 -66.517 -37.143  1.00  0.00     0.062 A 
ATOM      7  C   UNL     1     -15.610 -66.925 -39.115  1.00  0.00     0.019 A 
ATOM      8  C   UNL     1     -14.381 -67.314 -39.650  1.00  0.00     0.094 A 
ATOM      9  C   UNL     1     -13.346 -67.669 -38.778  1.00  0.00     0.336 A 
ATOM     10  O   UNL     1     -12.230 -68.023 -39.239  1.00  0.00    -0.246 OA
ATOM     11  O   UNL     1     -13.534 -67.636 -37.461  1.00  0.00    -0.423 OA
ENDROOT
BRANCH   1  12
ATOM     12  O   UNL     1     -18.335 -66.124 -35.118  1.00  0.00    -0.493 OA
ATOM     13  C   UNL     1     -19.620 -66.627 -35.470  1.00  0.00     0.278 C 
ENDBRANCH   1  12
BRANCH   2  14
ATOM     14  O   UNL     1     -16.139 -66.872 -33.544  1.00  0.00    -0.504 OA
ATOM     15  H   UNL     1     -15.866 -66.074 -32.983  1.00  0.00     0.293 HD
ENDBRANCH   2  14
TORSDOF 2
ENDMDL
