MODEL 1
REMARK VINA RESULT:    -3.946      0.000      0.000
REMARK INTER + INTRA:          -5.555
REMARK INTER:                  -5.100
REMARK INTRA:                  -0.455
REMARK UNBOUND:                -0.455
REMARK SMILES CCO[C@H]1O[C@H](CO)[C@H](O)[C@@H](O)[C@@H]1O
REMARK SMILES IDX 4 1 13 2 11 3 9 4 6 5 5 6 3 7 2 8 1 9 14 10 12 12 7 14 8 15
REMARK SMILES IDX 10 17
REMARK H PARENT 14 11 12 13 8 16 10 18
REMARK Flexibility Score: inf
ROOT
ATOM      1  C   UNL     1       9.499  43.169  59.424  1.00  0.00     0.281 C 
ATOM      2  C   UNL     1      10.216  43.993  60.525  1.00  0.00     0.202 C 
ATOM      3  C   UNL     1      11.322  43.182  61.239  1.00  0.00     0.179 C 
ATOM      4  C   UNL     1      10.888  41.728  61.541  1.00  0.00     0.177 C 
ATOM      5  C   UNL     1      10.151  41.100  60.329  1.00  0.00     0.178 C 
ATOM      6  O   UNL     1       9.063  41.913  59.922  1.00  0.00    -0.341 OA
ENDROOT
BRANCH   1   7
ATOM      7  O   UNL     1      10.336  42.986  58.289  1.00  0.00    -0.350 OA
BRANCH   7   8
ATOM      8  C   UNL     1      10.468  44.184  57.553  1.00  0.00     0.160 C 
ATOM      9  C   UNL     1      11.928  44.379  57.173  1.00  0.00     0.035 C 
ENDBRANCH   7   8
ENDBRANCH   1   7
BRANCH   2  10
ATOM     10  O   UNL     1       9.276  44.425  61.476  1.00  0.00    -0.385 OA
ATOM     11  H   UNL     1       8.417  43.978  61.259  1.00  0.00     0.211 HD
ENDBRANCH   2  10
BRANCH   3  12
ATOM     12  O   UNL     1      12.526  43.217  60.510  1.00  0.00    -0.387 OA
ATOM     13  H   UNL     1      13.111  43.912  60.904  1.00  0.00     0.211 HD
ENDBRANCH   3  12
BRANCH   5  14
ATOM     14  C   UNL     1       9.617  39.698  60.653  1.00  0.00     0.191 C 
BRANCH  14  15
ATOM     15  O   UNL     1      10.354  39.128  61.699  1.00  0.00    -0.394 OA
ATOM     16  H   UNL     1       9.701  38.930  62.420  1.00  0.00     0.210 HD
ENDBRANCH  14  15
ENDBRANCH   5  14
BRANCH   4  17
ATOM     17  O   UNL     1      10.104  41.679  62.711  1.00  0.00    -0.387 OA
ATOM     18  H   UNL     1       9.750  42.588  62.883  1.00  0.00     0.211 HD
ENDBRANCH   4  17
TORSDOF 7
ENDMDL
MODEL 2
REMARK VINA RESULT:    -3.884      1.575      3.002
REMARK INTER + INTRA:          -5.475
REMARK INTER:                  -5.089
REMARK INTRA:                  -0.386
REMARK UNBOUND:                -0.455
REMARK SMILES CCO[C@H]1O[C@H](CO)[C@H](O)[C@@H](O)[C@@H]1O
REMARK SMILES IDX 4 1 13 2 11 3 9 4 6 5 5 6 3 7 2 8 1 9 14 10 12 12 7 14 8 15
REMARK SMILES IDX 10 17
REMARK H PARENT 14 11 12 13 8 16 10 18
REMARK Flexibility Score: inf
ROOT
ATOM      1  C   UNL     1      12.168  43.181  59.928  1.00  0.00     0.281 C 
ATOM      2  C   UNL     1      12.456  41.725  60.379  1.00  0.00     0.202 C 
ATOM      3  C   UNL     1      11.161  40.938  60.683  1.00  0.00     0.179 C 
ATOM      4  C   UNL     1      10.125  41.782  61.462  1.00  0.00     0.177 C 
ATOM      5  C   UNL     1      10.020  43.216  60.881  1.00  0.00     0.178 C 
ATOM      6  O   UNL     1      11.293  43.837  60.834  1.00  0.00    -0.341 OA
ENDROOT
BRANCH   1   7
ATOM      7  O   UNL     1      11.633  43.217  58.611  1.00  0.00    -0.350 OA
BRANCH   7   8
ATOM      8  C   UNL     1      12.655  43.125  57.641  1.00  0.00     0.160 C 
ATOM      9  C   UNL     1      12.283  43.982  56.442  1.00  0.00     0.035 C 
ENDBRANCH   7   8
ENDBRANCH   1   7
BRANCH   2  10
ATOM     10  O   UNL     1      13.266  41.741  61.527  1.00  0.00    -0.385 OA
ATOM     11  H   UNL     1      13.697  42.634  61.567  1.00  0.00     0.211 HD
ENDBRANCH   2  10
BRANCH   3  12
ATOM     12  O   UNL     1      10.606  40.402  59.506  1.00  0.00    -0.387 OA
ATOM     13  H   UNL     1      11.325  39.946  58.999  1.00  0.00     0.211 HD
ENDBRANCH   3  12
BRANCH   5  14
ATOM     14  C   UNL     1       9.078  44.097  61.712  1.00  0.00     0.191 C 
BRANCH  14  15
ATOM     15  O   UNL     1       8.075  43.316  62.301  1.00  0.00    -0.394 OA
ATOM     16  H   UNL     1       8.290  43.277  63.269  1.00  0.00     0.210 HD
ENDBRANCH  14  15
ENDBRANCH   5  14
BRANCH   4  17
ATOM     17  O   UNL     1      10.432  41.797  62.837  1.00  0.00    -0.387 OA
ATOM     18  H   UNL     1      11.095  41.082  63.012  1.00  0.00     0.211 HD
ENDBRANCH   4  17
TORSDOF 7
ENDMDL
MODEL 3
REMARK VINA RESULT:    -3.862      1.821      4.706
REMARK INTER + INTRA:          -5.446
REMARK INTER:                  -5.003
REMARK INTRA:                  -0.443
REMARK UNBOUND:                -0.455
REMARK SMILES CCO[C@H]1O[C@H](CO)[C@H](O)[C@@H](O)[C@@H]1O
REMARK SMILES IDX 4 1 13 2 11 3 9 4 6 5 5 6 3 7 2 8 1 9 14 10 12 12 7 14 8 15
REMARK SMILES IDX 10 17
REMARK H PARENT 14 11 12 13 8 16 10 18
REMARK Flexibility Score: inf
ROOT
ATOM      1  C   UNL     1      11.825  42.971  59.754  1.00  0.00     0.281 C 
ATOM      2  C   UNL     1      10.382  43.516  59.921  1.00  0.00     0.202 C 
ATOM      3  C   UNL     1       9.546  43.367  58.630  1.00  0.00     0.179 C 
ATOM      4  C   UNL     1      10.351  43.729  57.359  1.00  0.00     0.177 C 
ATOM      5  C   UNL     1      11.779  43.125  57.410  1.00  0.00     0.178 C 
ATOM      6  O   UNL     1      12.448  43.510  58.598  1.00  0.00    -0.341 OA
ENDROOT
BRANCH   1   7
ATOM      7  O   UNL     1      11.837  41.550  59.705  1.00  0.00    -0.350 OA
BRANCH   7   8
ATOM      8  C   UNL     1      11.828  40.993  61.003  1.00  0.00     0.160 C 
ATOM      9  C   UNL     1      10.681  40.002  61.112  1.00  0.00     0.035 C 
ENDBRANCH   7   8
ENDBRANCH   1   7
BRANCH   2  10
ATOM     10  O   UNL     1      10.431  44.872  60.285  1.00  0.00    -0.385 OA
ATOM     11  H   UNL     1      10.021  45.388  59.542  1.00  0.00     0.211 HD
ENDBRANCH   2  10
BRANCH   3  12
ATOM     12  O   UNL     1       8.987  42.079  58.534  1.00  0.00    -0.387 OA
ATOM     13  H   UNL     1       9.368  41.517  59.255  1.00  0.00     0.211 HD
ENDBRANCH   3  12
BRANCH   5  14
ATOM     14  C   UNL     1      12.625  43.567  56.208  1.00  0.00     0.191 C 
BRANCH  14  15
ATOM     15  O   UNL     1      11.805  43.803  55.097  1.00  0.00    -0.394 OA
ATOM     16  H   UNL     1      11.172  44.518  55.368  1.00  0.00     0.210 HD
ENDBRANCH  14  15
ENDBRANCH   5  14
BRANCH   4  17
ATOM     17  O   UNL     1      10.380  45.124  57.173  1.00  0.00    -0.387 OA
ATOM     18  H   UNL     1      10.953  45.518  57.879  1.00  0.00     0.211 HD
ENDBRANCH   4  17
TORSDOF 7
ENDMDL
MODEL 4
REMARK VINA RESULT:    -3.841      9.027     10.476
REMARK INTER + INTRA:          -5.419
REMARK INTER:                  -4.934
REMARK INTRA:                  -0.485
REMARK UNBOUND:                -0.455
REMARK SMILES CCO[C@H]1O[C@H](CO)[C@H](O)[C@@H](O)[C@@H]1O
REMARK SMILES IDX 4 1 13 2 11 3 9 4 6 5 5 6 3 7 2 8 1 9 14 10 12 12 7 14 8 15
REMARK SMILES IDX 10 17
REMARK H PARENT 14 11 12 13 8 16 10 18
REMARK Flexibility Score: inf
ROOT
ATOM      1  C   UNL     1      11.989  33.675  62.605  1.00  0.00     0.281 C 
ATOM      2  C   UNL     1      12.270  34.335  63.980  1.00  0.00     0.202 C 
ATOM      3  C   UNL     1      11.976  33.381  65.160  1.00  0.00     0.179 C 
ATOM      4  C   UNL     1      10.671  32.575  64.958  1.00  0.00     0.177 C 
ATOM      5  C   UNL     1      10.563  32.039  63.506  1.00  0.00     0.178 C 
ATOM      6  O   UNL     1      10.695  33.093  62.568  1.00  0.00    -0.341 OA
ENDROOT
BRANCH   1   7
ATOM      7  O   UNL     1      12.977  32.702  62.289  1.00  0.00    -0.350 OA
BRANCH   7   8
ATOM      8  C   UNL     1      14.248  33.297  62.127  1.00  0.00     0.160 C 
ATOM      9  C   UNL     1      15.314  32.347  62.649  1.00  0.00     0.035 C 
ENDBRANCH   7   8
ENDBRANCH   1   7
BRANCH   2  10
ATOM     10  O   UNL     1      11.483  35.491  64.115  1.00  0.00    -0.385 OA
ATOM     11  H   UNL     1      11.268  35.806  63.199  1.00  0.00     0.211 HD
ENDBRANCH   2  10
BRANCH   3  12
ATOM     12  O   UNL     1      13.071  32.532  65.410  1.00  0.00    -0.387 OA
ATOM     13  H   UNL     1      13.827  32.819  64.839  1.00  0.00     0.211 HD
ENDBRANCH   3  12
BRANCH   5  14
ATOM     14  C   UNL     1       9.223  31.333  63.261  1.00  0.00     0.191 C 
BRANCH  14  15
ATOM     15  O   UNL     1       8.791  30.691  64.429  1.00  0.00    -0.394 OA
ATOM     16  H   UNL     1       8.453  31.406  65.028  1.00  0.00     0.210 HD
ENDBRANCH  14  15
ENDBRANCH   5  14
BRANCH   4  17
ATOM     17  O   UNL     1       9.550  33.351  65.313  1.00  0.00    -0.387 OA
ATOM     18  H   UNL     1       8.844  33.201  64.635  1.00  0.00     0.211 HD
ENDBRANCH   4  17
TORSDOF 7
ENDMDL
MODEL 5
REMARK VINA RESULT:    -3.824      2.097      3.774
REMARK INTER + INTRA:          -5.398
REMARK INTER:                  -4.919
REMARK INTRA:                  -0.479
REMARK UNBOUND:                -0.455
REMARK SMILES CCO[C@H]1O[C@H](CO)[C@H](O)[C@@H](O)[C@@H]1O
REMARK SMILES IDX 4 1 13 2 11 3 9 4 6 5 5 6 3 7 2 8 1 9 14 10 12 12 7 14 8 15
REMARK SMILES IDX 10 17
REMARK H PARENT 14 11 12 13 8 16 10 18
REMARK Flexibility Score: inf
ROOT
ATOM      1  C   UNL     1      11.216  42.854  59.857  1.00  0.00     0.281 C 
ATOM      2  C   UNL     1      10.303  41.601  59.781  1.00  0.00     0.202 C 
ATOM      3  C   UNL     1      10.674  40.539  60.841  1.00  0.00     0.179 C 
ATOM      4  C   UNL     1      12.204  40.356  60.984  1.00  0.00     0.177 C 
ATOM      5  C   UNL     1      12.934  41.724  60.996  1.00  0.00     0.178 C 
ATOM      6  O   UNL     1      12.589  42.491  59.854  1.00  0.00    -0.341 OA
ENDROOT
BRANCH   1   7
ATOM      7  O   UNL     1      10.915  43.642  61.002  1.00  0.00    -0.350 OA
BRANCH   7   8
ATOM      8  C   UNL     1       9.675  44.303  60.856  1.00  0.00     0.160 C 
ATOM      9  C   UNL     1       8.879  44.161  62.144  1.00  0.00     0.035 C 
ENDBRANCH   7   8
ENDBRANCH   1   7
BRANCH   2  10
ATOM     10  O   UNL     1      10.398  41.028  58.501  1.00  0.00    -0.385 OA
ATOM     11  H   UNL     1      11.189  41.434  58.059  1.00  0.00     0.211 HD
ENDBRANCH   2  10
BRANCH   3  12
ATOM     12  O   UNL     1      10.074  40.830  62.080  1.00  0.00    -0.387 OA
ATOM     13  H   UNL     1       9.092  40.739  61.982  1.00  0.00     0.211 HD
ENDBRANCH   3  12
BRANCH   5  14
ATOM     14  C   UNL     1      14.458  41.554  61.026  1.00  0.00     0.191 C 
BRANCH  14  15
ATOM     15  O   UNL     1      14.806  40.423  61.775  1.00  0.00    -0.394 OA
ATOM     16  H   UNL     1      14.068  39.772  61.651  1.00  0.00     0.210 HD
ENDBRANCH  14  15
ENDBRANCH   5  14
BRANCH   4  17
ATOM     17  O   UNL     1      12.697  39.510  59.971  1.00  0.00    -0.387 OA
ATOM     18  H   UNL     1      13.682  39.453  60.069  1.00  0.00     0.211 HD
ENDBRANCH   4  17
TORSDOF 7
ENDMDL
MODEL 6
REMARK VINA RESULT:    -3.786      1.683      2.303
REMARK INTER + INTRA:          -5.348
REMARK INTER:                  -4.877
REMARK INTRA:                  -0.472
REMARK UNBOUND:                -0.455
REMARK SMILES CCO[C@H]1O[C@H](CO)[C@H](O)[C@@H](O)[C@@H]1O
REMARK SMILES IDX 4 1 13 2 11 3 9 4 6 5 5 6 3 7 2 8 1 9 14 10 12 12 7 14 8 15
REMARK SMILES IDX 10 17
REMARK H PARENT 14 11 12 13 8 16 10 18
REMARK Flexibility Score: inf
ROOT
ATOM      1  C   UNL     1       9.487  41.744  59.267  1.00  0.00     0.281 C 
ATOM      2  C   UNL     1       8.830  42.852  60.132  1.00  0.00     0.202 C 
ATOM      3  C   UNL     1       9.874  43.803  60.760  1.00  0.00     0.179 C 
ATOM      4  C   UNL     1      11.110  43.047  61.305  1.00  0.00     0.177 C 
ATOM      5  C   UNL     1      11.582  41.955  60.310  1.00  0.00     0.178 C 
ATOM      6  O   UNL     1      10.518  41.078  59.979  1.00  0.00    -0.341 OA
ENDROOT
BRANCH   1   7
ATOM      7  O   UNL     1       9.991  42.274  58.047  1.00  0.00    -0.350 OA
BRANCH   7   8
ATOM      8  C   UNL     1       8.945  42.735  57.218  1.00  0.00     0.160 C 
ATOM      9  C   UNL     1       9.422  43.953  56.443  1.00  0.00     0.035 C 
ENDBRANCH   7   8
ENDBRANCH   1   7
BRANCH   2  10
ATOM     10  O   UNL     1       8.071  42.260  61.156  1.00  0.00    -0.385 OA
ATOM     11  H   UNL     1       8.468  41.367  61.333  1.00  0.00     0.211 HD
ENDBRANCH   2  10
BRANCH   3  12
ATOM     12  O   UNL     1      10.249  44.813  59.855  1.00  0.00    -0.387 OA
ATOM     13  H   UNL     1      10.922  44.441  59.230  1.00  0.00     0.211 HD
ENDBRANCH   3  12
BRANCH   5  14
ATOM     14  C   UNL     1      12.738  41.125  60.885  1.00  0.00     0.191 C 
BRANCH  14  15
ATOM     15  O   UNL     1      13.658  41.957  61.534  1.00  0.00    -0.394 OA
ATOM     16  H   UNL     1      14.149  41.380  62.174  1.00  0.00     0.210 HD
ENDBRANCH  14  15
ENDBRANCH   5  14
BRANCH   4  17
ATOM     17  O   UNL     1      10.840  42.511  62.579  1.00  0.00    -0.387 OA
ATOM     18  H   UNL     1       9.931  42.117  62.561  1.00  0.00     0.211 HD
ENDBRANCH   4  17
TORSDOF 7
ENDMDL
MODEL 7
REMARK VINA RESULT:    -3.781      1.868      3.241
REMARK INTER + INTRA:          -5.341
REMARK INTER:                  -4.993
REMARK INTRA:                  -0.348
REMARK UNBOUND:                -0.455
REMARK SMILES CCO[C@H]1O[C@H](CO)[C@H](O)[C@@H](O)[C@@H]1O
REMARK SMILES IDX 4 1 13 2 11 3 9 4 6 5 5 6 3 7 2 8 1 9 14 10 12 12 7 14 8 15
REMARK SMILES IDX 10 17
REMARK H PARENT 14 11 12 13 8 16 10 18
REMARK Flexibility Score: inf
ROOT
ATOM      1  C   UNL     1      11.516  42.695  58.223  1.00  0.00     0.281 C 
ATOM      2  C   UNL     1      10.193  42.684  59.033  1.00  0.00     0.202 C 
ATOM      3  C   UNL     1      10.303  43.490  60.348  1.00  0.00     0.179 C 
ATOM      4  C   UNL     1      11.644  43.245  61.081  1.00  0.00     0.177 C 
ATOM      5  C   UNL     1      12.835  43.251  60.087  1.00  0.00     0.178 C 
ATOM      6  O   UNL     1      12.620  42.325  59.035  1.00  0.00    -0.341 OA
ENDROOT
BRANCH   1   7
ATOM      7  O   UNL     1      11.745  43.965  57.626  1.00  0.00    -0.350 OA
BRANCH   7   8
ATOM      8  C   UNL     1      12.465  43.840  56.418  1.00  0.00     0.160 C 
ATOM      9  C   UNL     1      11.569  43.203  55.367  1.00  0.00     0.035 C 
ENDBRANCH   7   8
ENDBRANCH   1   7
BRANCH   2  10
ATOM     10  O   UNL     1       9.837  41.358  59.334  1.00  0.00    -0.385 OA
ATOM     11  H   UNL     1       9.748  40.877  58.470  1.00  0.00     0.211 HD
ENDBRANCH   2  10
BRANCH   3  12
ATOM     12  O   UNL     1      10.086  44.862  60.121  1.00  0.00    -0.387 OA
ATOM     13  H   UNL     1      10.956  45.287  59.913  1.00  0.00     0.211 HD
ENDBRANCH   3  12
BRANCH   5  14
ATOM     14  C   UNL     1      14.157  42.900  60.783  1.00  0.00     0.191 C 
BRANCH  14  15
ATOM     15  O   UNL     1      14.307  43.659  61.951  1.00  0.00    -0.394 OA
ATOM     16  H   UNL     1      15.154  44.165  61.843  1.00  0.00     0.210 HD
ENDBRANCH  14  15
ENDBRANCH   5  14
BRANCH   4  17
ATOM     17  O   UNL     1      11.590  42.050  61.824  1.00  0.00    -0.387 OA
ATOM     18  H   UNL     1      12.091  42.188  62.667  1.00  0.00     0.211 HD
ENDBRANCH   4  17
TORSDOF 7
ENDMDL
MODEL 8
REMARK VINA RESULT:    -3.732     12.081     13.636
REMARK INTER + INTRA:          -5.278
REMARK INTER:                  -4.877
REMARK INTRA:                  -0.401
REMARK UNBOUND:                -0.455
REMARK SMILES CCO[C@H]1O[C@H](CO)[C@H](O)[C@@H](O)[C@@H]1O
REMARK SMILES IDX 4 1 13 2 11 3 9 4 6 5 5 6 3 7 2 8 1 9 14 10 12 12 7 14 8 15
REMARK SMILES IDX 10 17
REMARK H PARENT 14 11 12 13 8 16 10 18
REMARK Flexibility Score: inf
ROOT
ATOM      1  C   UNL     1      23.395  43.660  65.058  1.00  0.00     0.281 C 
ATOM      2  C   UNL     1      22.932  42.888  66.321  1.00  0.00     0.202 C 
ATOM      3  C   UNL     1      22.844  41.364  66.078  1.00  0.00     0.179 C 
ATOM      4  C   UNL     1      22.219  41.019  64.706  1.00  0.00     0.177 C 
ATOM      5  C   UNL     1      22.784  41.933  63.587  1.00  0.00     0.178 C 
ATOM      6  O   UNL     1      22.623  43.301  63.923  1.00  0.00    -0.341 OA
ENDROOT
BRANCH   1   7
ATOM      7  O   UNL     1      24.778  43.448  64.803  1.00  0.00    -0.350 OA
BRANCH   7   8
ATOM      8  C   UNL     1      25.435  44.662  64.503  1.00  0.00     0.160 C 
ATOM      9  C   UNL     1      25.778  44.691  63.022  1.00  0.00     0.035 C 
ENDBRANCH   7   8
ENDBRANCH   1   7
BRANCH   2  10
ATOM     10  O   UNL     1      21.673  43.363  66.726  1.00  0.00    -0.385 OA
ATOM     11  H   UNL     1      21.420  42.859  67.544  1.00  0.00     0.211 HD
ENDBRANCH   2  10
BRANCH   3  12
ATOM     12  O   UNL     1      24.102  40.753  66.237  1.00  0.00    -0.387 OA
ATOM     13  H   UNL     1      24.599  40.832  65.384  1.00  0.00     0.211 HD
ENDBRANCH   3  12
BRANCH   5  14
ATOM     14  C   UNL     1      22.092  41.676  62.242  1.00  0.00     0.191 C 
BRANCH  14  15
ATOM     15  O   UNL     1      20.963  42.495  62.112  1.00  0.00    -0.394 OA
ATOM     16  H   UNL     1      21.108  43.039  61.294  1.00  0.00     0.210 HD
ENDBRANCH  14  15
ENDBRANCH   5  14
BRANCH   4  17
ATOM     17  O   UNL     1      20.813  41.083  64.773  1.00  0.00    -0.387 OA
ATOM     18  H   UNL     1      20.509  41.814  64.177  1.00  0.00     0.211 HD
ENDBRANCH   4  17
TORSDOF 7
ENDMDL
MODEL 9
REMARK VINA RESULT:    -3.629      2.229      4.388
REMARK INTER + INTRA:          -5.145
REMARK INTER:                  -4.811
REMARK INTRA:                  -0.334
REMARK UNBOUND:                -0.455
REMARK SMILES CCO[C@H]1O[C@H](CO)[C@H](O)[C@@H](O)[C@@H]1O
REMARK SMILES IDX 4 1 13 2 11 3 9 4 6 5 5 6 3 7 2 8 1 9 14 10 12 12 7 14 8 15
REMARK SMILES IDX 10 17
REMARK H PARENT 14 11 12 13 8 16 10 18
REMARK Flexibility Score: inf
ROOT
ATOM      1  C   UNL     1      11.129  42.388  60.369  1.00  0.00     0.281 C 
ATOM      2  C   UNL     1      12.303  41.609  61.019  1.00  0.00     0.202 C 
ATOM      3  C   UNL     1      13.680  42.199  60.640  1.00  0.00     0.179 C 
ATOM      4  C   UNL     1      13.765  42.591  59.146  1.00  0.00     0.177 C 
ATOM      5  C   UNL     1      12.476  43.320  58.684  1.00  0.00     0.178 C 
ATOM      6  O   UNL     1      11.326  42.543  58.972  1.00  0.00    -0.341 OA
ENDROOT
BRANCH   1   7
ATOM      7  O   UNL     1      10.948  43.656  60.987  1.00  0.00    -0.350 OA
BRANCH   7   8
ATOM      8  C   UNL     1       9.622  44.117  60.829  1.00  0.00     0.160 C 
ATOM      9  C   UNL     1       8.897  44.014  62.161  1.00  0.00     0.035 C 
ENDBRANCH   7   8
ENDBRANCH   1   7
BRANCH   2  10
ATOM     10  O   UNL     1      12.252  40.263  60.618  1.00  0.00    -0.385 OA
ATOM     11  H   UNL     1      11.524  40.186  59.948  1.00  0.00     0.211 HD
ENDBRANCH   2  10
BRANCH   3  12
ATOM     12  O   UNL     1      14.014  43.283  61.474  1.00  0.00    -0.387 OA
ATOM     13  H   UNL     1      14.992  43.432  61.418  1.00  0.00     0.211 HD
ENDBRANCH   3  12
BRANCH   5  14
ATOM     14  C   UNL     1      12.501  43.615  57.178  1.00  0.00     0.191 C 
BRANCH  14  15
ATOM     15  O   UNL     1      13.777  44.038  56.786  1.00  0.00    -0.394 OA
ATOM     16  H   UNL     1      14.343  43.999  57.601  1.00  0.00     0.210 HD
ENDBRANCH  14  15
ENDBRANCH   5  14
BRANCH   4  17
ATOM     17  O   UNL     1      14.038  41.459  58.353  1.00  0.00    -0.387 OA
ATOM     18  H   UNL     1      14.373  41.771  57.474  1.00  0.00     0.211 HD
ENDBRANCH   4  17
TORSDOF 7
ENDMDL
