MODEL 1
REMARK VINA RESULT:    -4.292      0.000      0.000
REMARK INTER + INTRA:          -9.554
REMARK INTER:                  -7.804
REMARK INTRA:                  -1.750
REMARK UNBOUND:                -1.750
REMARK SMILES CCCCCCCCCCCCCCCC(=O)[O-]
REMARK SMILES IDX 9 1 10 2 11 3 12 4 13 5 14 6 15 7 16 8 17 9 18 10 8 11 7 12
REMARK SMILES IDX 6 13 5 14 4 15 3 16 2 17 1 18
REMARK H PARENT
REMARK Flexibility Score: inf
ROOT
ATOM      1  C   UNL     1      26.751  -0.368  -8.001  1.00  0.00     0.000 C 
ENDROOT
BRANCH   1   2
ATOM      2  C   UNL     1      26.062  -0.865  -9.282  1.00  0.00     0.000 C 
BRANCH   2   3
ATOM      3  C   UNL     1      24.590  -1.255  -9.062  1.00  0.00     0.000 C 
BRANCH   3   4
ATOM      4  C   UNL     1      23.780  -1.489 -10.351  1.00  0.00     0.000 C 
BRANCH   4   5
ATOM      5  C   UNL     1      24.611  -1.269 -11.627  1.00  0.00     0.000 C 
BRANCH   5   6
ATOM      6  C   UNL     1      24.018  -0.180 -12.543  1.00  0.00     0.006 C 
BRANCH   6   7
ATOM      7  C   UNL     1      25.074   0.754 -13.157  1.00  0.00     0.053 C 
BRANCH   7   8
ATOM      8  C   UNL     1      25.293   0.496 -14.615  1.00  0.00     0.041 C 
ATOM      9  O   UNL     1      25.815   1.379 -15.345  1.00  0.00    -0.550 OA
ATOM     10  O   UNL     1      24.916  -0.721 -15.170  1.00  0.00    -0.550 OA
ENDBRANCH   7   8
ENDBRANCH   6   7
ENDBRANCH   5   6
ENDBRANCH   4   5
ENDBRANCH   3   4
ENDBRANCH   2   3
ENDBRANCH   1   2
BRANCH   1  11
ATOM     11  C   UNL     1      27.745  -1.410  -7.471  1.00  0.00     0.000 C 
BRANCH  11  12
ATOM     12  C   UNL     1      27.482  -2.825  -8.019  1.00  0.00    -0.000 C 
BRANCH  12  13
ATOM     13  C   UNL     1      26.572  -3.706  -7.145  1.00  0.00    -0.000 C 
BRANCH  13  14
ATOM     14  C   UNL     1      25.834  -4.789  -7.951  1.00  0.00    -0.000 C 
BRANCH  14  15
ATOM     15  C   UNL     1      26.041  -4.640  -9.467  1.00  0.00    -0.000 C 
BRANCH  15  16
ATOM     16  C   UNL     1      24.776  -4.968 -10.275  1.00  0.00    -0.000 C 
BRANCH  16  17
ATOM     17  C   UNL     1      23.540  -5.000  -9.369  1.00  0.00    -0.003 C 
ATOM     18  C   UNL     1      22.732  -6.276  -9.583  1.00  0.00     0.004 C 
ENDBRANCH  16  17
ENDBRANCH  15  16
ENDBRANCH  14  15
ENDBRANCH  13  14
ENDBRANCH  12  13
ENDBRANCH  11  12
ENDBRANCH   1  11
TORSDOF 14
ENDMDL
MODEL 2
REMARK VINA RESULT:    -4.175      3.598      6.199
REMARK INTER + INTRA:          -9.342
REMARK INTER:                  -7.004
REMARK INTRA:                  -2.338
REMARK UNBOUND:                -1.750
REMARK SMILES CCCCCCCCCCCCCCCC(=O)[O-]
REMARK SMILES IDX 9 1 10 2 11 3 12 4 13 5 14 6 15 7 16 8 17 9 18 10 8 11 7 12
REMARK SMILES IDX 6 13 5 14 4 15 3 16 2 17 1 18
REMARK H PARENT
REMARK Flexibility Score: inf
ROOT
ATOM      1  C   UNL     1      24.079  -4.175  -9.712  1.00  0.00     0.000 C 
ENDROOT
BRANCH   1   2
ATOM      2  C   UNL     1      24.727  -5.461 -10.250  1.00  0.00     0.000 C 
BRANCH   2   3
ATOM      3  C   UNL     1      26.247  -5.332 -10.452  1.00  0.00     0.000 C 
BRANCH   3   4
ATOM      4  C   UNL     1      26.697  -4.060 -11.195  1.00  0.00     0.000 C 
BRANCH   4   5
ATOM      5  C   UNL     1      27.987  -3.454 -10.615  1.00  0.00     0.000 C 
BRANCH   5   6
ATOM      6  C   UNL     1      28.132  -3.702  -9.100  1.00  0.00     0.006 C 
BRANCH   6   7
ATOM      7  C   UNL     1      28.631  -2.476  -8.318  1.00  0.00     0.053 C 
BRANCH   7   8
ATOM      8  C   UNL     1      28.560  -2.670  -6.835  1.00  0.00     0.041 C 
ATOM      9  O   UNL     1      28.448  -3.827  -6.351  1.00  0.00    -0.550 OA
ATOM     10  O   UNL     1      28.614  -1.571  -5.986  1.00  0.00    -0.550 OA
ENDBRANCH   7   8
ENDBRANCH   6   7
ENDBRANCH   5   6
ENDBRANCH   4   5
ENDBRANCH   3   4
ENDBRANCH   2   3
ENDBRANCH   1   2
BRANCH   1  11
ATOM     11  C   UNL     1      24.493  -3.918  -8.256  1.00  0.00     0.000 C 
BRANCH  11  12
ATOM     12  C   UNL     1      24.930  -2.462  -8.004  1.00  0.00    -0.000 C 
BRANCH  12  13
ATOM     13  C   UNL     1      24.413  -1.438  -9.029  1.00  0.00    -0.000 C 
BRANCH  13  14
ATOM     14  C   UNL     1      25.538  -0.581  -9.638  1.00  0.00    -0.000 C 
BRANCH  14  15
ATOM     15  C   UNL     1      25.562  -0.645 -11.173  1.00  0.00    -0.000 C 
BRANCH  15  16
ATOM     16  C   UNL     1      24.163  -0.823 -11.783  1.00  0.00    -0.000 C 
BRANCH  16  17
ATOM     17  C   UNL     1      24.130  -0.330 -13.234  1.00  0.00    -0.003 C 
ATOM     18  C   UNL     1      24.700   1.080 -13.350  1.00  0.00     0.004 C 
ENDBRANCH  16  17
ENDBRANCH  15  16
ENDBRANCH  14  15
ENDBRANCH  13  14
ENDBRANCH  12  13
ENDBRANCH  11  12
ENDBRANCH   1  11
TORSDOF 14
ENDMDL
MODEL 3
REMARK VINA RESULT:    -4.138      3.025      6.142
REMARK INTER + INTRA:          -9.275
REMARK INTER:                  -7.567
REMARK INTRA:                  -1.708
REMARK UNBOUND:                -1.750
REMARK SMILES CCCCCCCCCCCCCCCC(=O)[O-]
REMARK SMILES IDX 9 1 10 2 11 3 12 4 13 5 14 6 15 7 16 8 17 9 18 10 8 11 7 12
REMARK SMILES IDX 6 13 5 14 4 15 3 16 2 17 1 18
REMARK H PARENT
REMARK Flexibility Score: inf
ROOT
ATOM      1  C   UNL     1      26.783  -0.237  -7.884  1.00  0.00     0.000 C 
ENDROOT
BRANCH   1   2
ATOM      2  C   UNL     1      28.089  -0.872  -7.380  1.00  0.00     0.000 C 
BRANCH   2   3
ATOM      3  C   UNL     1      28.202  -2.368  -7.723  1.00  0.00     0.000 C 
BRANCH   3   4
ATOM      4  C   UNL     1      28.168  -3.317  -6.511  1.00  0.00     0.000 C 
BRANCH   4   5
ATOM      5  C   UNL     1      27.336  -4.586  -6.769  1.00  0.00     0.000 C 
BRANCH   5   6
ATOM      6  C   UNL     1      25.991  -4.285  -7.459  1.00  0.00     0.006 C 
BRANCH   6   7
ATOM      7  C   UNL     1      25.837  -4.957  -8.834  1.00  0.00     0.053 C 
BRANCH   7   8
ATOM      8  C   UNL     1      24.550  -5.709  -8.966  1.00  0.00     0.041 C 
ATOM      9  O   UNL     1      24.558  -6.942  -9.217  1.00  0.00    -0.550 OA
ATOM     10  O   UNL     1      23.338  -5.046  -8.815  1.00  0.00    -0.550 OA
ENDBRANCH   7   8
ENDBRANCH   6   7
ENDBRANCH   5   6
ENDBRANCH   4   5
ENDBRANCH   3   4
ENDBRANCH   2   3
ENDBRANCH   1   2
BRANCH   1  11
ATOM     11  C   UNL     1      26.235  -0.995  -9.100  1.00  0.00     0.000 C 
BRANCH  11  12
ATOM     12  C   UNL     1      24.721  -1.269  -9.006  1.00  0.00    -0.000 C 
BRANCH  12  13
ATOM     13  C   UNL     1      24.074  -1.810 -10.293  1.00  0.00    -0.000 C 
BRANCH  13  14
ATOM     14  C   UNL     1      25.108  -2.251 -11.344  1.00  0.00    -0.000 C 
BRANCH  14  15
ATOM     15  C   UNL     1      25.136  -1.324 -12.569  1.00  0.00    -0.000 C 
BRANCH  15  16
ATOM     16  C   UNL     1      24.049  -0.238 -12.518  1.00  0.00    -0.000 C 
BRANCH  16  17
ATOM     17  C   UNL     1      24.539   1.058 -13.174  1.00  0.00    -0.003 C 
ATOM     18  C   UNL     1      25.081   0.796 -14.575  1.00  0.00     0.004 C 
ENDBRANCH  16  17
ENDBRANCH  15  16
ENDBRANCH  14  15
ENDBRANCH  13  14
ENDBRANCH  12  13
ENDBRANCH  11  12
ENDBRANCH   1  11
TORSDOF 14
ENDMDL
MODEL 4
REMARK VINA RESULT:    -4.130      0.964      2.011
REMARK INTER + INTRA:          -9.260
REMARK INTER:                  -7.385
REMARK INTRA:                  -1.876
REMARK UNBOUND:                -1.750
REMARK SMILES CCCCCCCCCCCCCCCC(=O)[O-]
REMARK SMILES IDX 9 1 10 2 11 3 12 4 13 5 14 6 15 7 16 8 17 9 18 10 8 11 7 12
REMARK SMILES IDX 6 13 5 14 4 15 3 16 2 17 1 18
REMARK H PARENT
REMARK Flexibility Score: inf
ROOT
ATOM      1  C   UNL     1      27.085  -2.295  -7.635  1.00  0.00     0.000 C 
ENDROOT
BRANCH   1   2
ATOM      2  C   UNL     1      26.894  -0.835  -8.076  1.00  0.00     0.000 C 
BRANCH   2   3
ATOM      3  C   UNL     1      25.851  -0.676  -9.197  1.00  0.00     0.000 C 
BRANCH   3   4
ATOM      4  C   UNL     1      24.569  -1.509  -9.016  1.00  0.00     0.000 C 
BRANCH   4   5
ATOM      5  C   UNL     1      23.729  -1.600 -10.302  1.00  0.00     0.000 C 
BRANCH   5   6
ATOM      6  C   UNL     1      24.528  -1.218 -11.563  1.00  0.00     0.006 C 
BRANCH   6   7
ATOM      7  C   UNL     1      23.872  -0.107 -12.399  1.00  0.00     0.053 C 
BRANCH   7   8
ATOM      8  C   UNL     1      24.724   0.329 -13.550  1.00  0.00     0.041 C 
ATOM      9  O   UNL     1      25.073  -0.500 -14.431  1.00  0.00    -0.550 OA
ATOM     10  O   UNL     1      25.136   1.652 -13.648  1.00  0.00    -0.550 OA
ENDBRANCH   7   8
ENDBRANCH   6   7
ENDBRANCH   5   6
ENDBRANCH   4   5
ENDBRANCH   3   4
ENDBRANCH   2   3
ENDBRANCH   1   2
BRANCH   1  11
ATOM     11  C   UNL     1      27.917  -3.076  -8.662  1.00  0.00     0.000 C 
BRANCH  11  12
ATOM     12  C   UNL     1      27.208  -4.348  -9.168  1.00  0.00    -0.000 C 
BRANCH  12  13
ATOM     13  C   UNL     1      26.700  -4.279 -10.619  1.00  0.00    -0.000 C 
BRANCH  13  14
ATOM     14  C   UNL     1      25.263  -4.808 -10.775  1.00  0.00    -0.000 C 
BRANCH  14  15
ATOM     15  C   UNL     1      24.748  -5.500  -9.503  1.00  0.00    -0.000 C 
BRANCH  15  16
ATOM     16  C   UNL     1      23.256  -5.237  -9.246  1.00  0.00    -0.000 C 
BRANCH  16  17
ATOM     17  C   UNL     1      22.396  -6.383  -9.791  1.00  0.00    -0.003 C 
ATOM     18  C   UNL     1      23.246  -7.613 -10.095  1.00  0.00     0.004 C 
ENDBRANCH  16  17
ENDBRANCH  15  16
ENDBRANCH  14  15
ENDBRANCH  13  14
ENDBRANCH  12  13
ENDBRANCH  11  12
ENDBRANCH   1  11
TORSDOF 14
ENDMDL
MODEL 5
REMARK VINA RESULT:    -4.108      1.116      1.640
REMARK INTER + INTRA:          -9.221
REMARK INTER:                  -7.665
REMARK INTRA:                  -1.556
REMARK UNBOUND:                -1.750
REMARK SMILES CCCCCCCCCCCCCCCC(=O)[O-]
REMARK SMILES IDX 9 1 10 2 11 3 12 4 13 5 14 6 15 7 16 8 17 9 18 10 8 11 7 12
REMARK SMILES IDX 6 13 5 14 4 15 3 16 2 17 1 18
REMARK H PARENT
REMARK Flexibility Score: inf
ROOT
ATOM      1  C   UNL     1      28.300  -1.352  -6.776  1.00  0.00     0.000 C 
ENDROOT
BRANCH   1   2
ATOM      2  C   UNL     1      27.569  -0.395  -7.732  1.00  0.00     0.000 C 
BRANCH   2   3
ATOM      3  C   UNL     1      26.249  -0.974  -8.271  1.00  0.00     0.000 C 
BRANCH   3   4
ATOM      4  C   UNL     1      26.256  -1.318  -9.772  1.00  0.00     0.000 C 
BRANCH   4   5
ATOM      5  C   UNL     1      25.319  -0.417 -10.596  1.00  0.00     0.000 C 
BRANCH   5   6
ATOM      6  C   UNL     1      24.742  -1.131 -11.834  1.00  0.00     0.006 C 
BRANCH   6   7
ATOM      7  C   UNL     1      24.114  -0.176 -12.862  1.00  0.00     0.053 C 
BRANCH   7   8
ATOM      8  C   UNL     1      25.139   0.563 -13.664  1.00  0.00     0.041 C 
ATOM      9  O   UNL     1      25.242   1.813 -13.566  1.00  0.00    -0.550 OA
ATOM     10  O   UNL     1      25.982  -0.132 -14.524  1.00  0.00    -0.550 OA
ENDBRANCH   7   8
ENDBRANCH   6   7
ENDBRANCH   5   6
ENDBRANCH   4   5
ENDBRANCH   3   4
ENDBRANCH   2   3
ENDBRANCH   1   2
BRANCH   1  11
ATOM     11  C   UNL     1      29.225  -2.302  -7.549  1.00  0.00     0.000 C 
BRANCH  11  12
ATOM     12  C   UNL     1      28.532  -3.615  -7.960  1.00  0.00    -0.000 C 
BRANCH  12  13
ATOM     13  C   UNL     1      27.997  -4.464  -6.793  1.00  0.00    -0.000 C 
BRANCH  13  14
ATOM     14  C   UNL     1      26.460  -4.555  -6.775  1.00  0.00    -0.000 C 
BRANCH  14  15
ATOM     15  C   UNL     1      25.866  -4.771  -8.176  1.00  0.00    -0.000 C 
BRANCH  15  16
ATOM     16  C   UNL     1      24.458  -4.173  -8.323  1.00  0.00    -0.000 C 
BRANCH  16  17
ATOM     17  C   UNL     1      23.818  -4.598  -9.650  1.00  0.00    -0.003 C 
ATOM     18  C   UNL     1      22.982  -5.862  -9.479  1.00  0.00     0.004 C 
ENDBRANCH  16  17
ENDBRANCH  15  16
ENDBRANCH  14  15
ENDBRANCH  13  14
ENDBRANCH  12  13
ENDBRANCH  11  12
ENDBRANCH   1  11
TORSDOF 14
ENDMDL
MODEL 6
REMARK VINA RESULT:    -4.075      1.277      3.589
REMARK INTER + INTRA:          -9.160
REMARK INTER:                  -6.616
REMARK INTRA:                  -2.544
REMARK UNBOUND:                -1.750
REMARK SMILES CCCCCCCCCCCCCCCC(=O)[O-]
REMARK SMILES IDX 9 1 10 2 11 3 12 4 13 5 14 6 15 7 16 8 17 9 18 10 8 11 7 12
REMARK SMILES IDX 6 13 5 14 4 15 3 16 2 17 1 18
REMARK H PARENT
REMARK Flexibility Score: inf
ROOT
ATOM      1  C   UNL     1      24.695  -3.732  -8.005  1.00  0.00     0.000 C 
ENDROOT
BRANCH   1   2
ATOM      2  C   UNL     1      24.854  -2.208  -7.889  1.00  0.00     0.000 C 
BRANCH   2   3
ATOM      3  C   UNL     1      24.446  -1.460  -9.171  1.00  0.00     0.000 C 
BRANCH   3   4
ATOM      4  C   UNL     1      25.544  -0.569  -9.780  1.00  0.00     0.000 C 
BRANCH   4   5
ATOM      5  C   UNL     1      25.880  -0.944 -11.234  1.00  0.00     0.000 C 
BRANCH   5   6
ATOM      6  C   UNL     1      24.627  -1.285 -12.066  1.00  0.00     0.006 C 
BRANCH   6   7
ATOM      7  C   UNL     1      24.013  -0.071 -12.783  1.00  0.00     0.053 C 
BRANCH   7   8
ATOM      8  C   UNL     1      24.951   0.550 -13.771  1.00  0.00     0.041 C 
ATOM      9  O   UNL     1      25.366  -0.114 -14.756  1.00  0.00    -0.550 OA
ATOM     10  O   UNL     1      25.369   1.864 -13.601  1.00  0.00    -0.550 OA
ENDBRANCH   7   8
ENDBRANCH   6   7
ENDBRANCH   5   6
ENDBRANCH   4   5
ENDBRANCH   3   4
ENDBRANCH   2   3
ENDBRANCH   1   2
BRANCH   1  11
ATOM     11  C   UNL     1      24.192  -4.129  -9.400  1.00  0.00     0.000 C 
BRANCH  11  12
ATOM     12  C   UNL     1      25.269  -4.830 -10.250  1.00  0.00    -0.000 C 
BRANCH  12  13
ATOM     13  C   UNL     1      26.665  -4.904  -9.606  1.00  0.00    -0.000 C 
BRANCH  13  14
ATOM     14  C   UNL     1      27.765  -4.285 -10.487  1.00  0.00    -0.000 C 
BRANCH  14  15
ATOM     15  C   UNL     1      28.415  -3.052  -9.840  1.00  0.00    -0.000 C 
BRANCH  15  16
ATOM     16  C   UNL     1      28.432  -3.126  -8.305  1.00  0.00    -0.000 C 
BRANCH  16  17
ATOM     17  C   UNL     1      28.454  -1.722  -7.689  1.00  0.00    -0.003 C 
ATOM     18  C   UNL     1      28.582  -1.788  -6.170  1.00  0.00     0.004 C 
ENDBRANCH  16  17
ENDBRANCH  15  16
ENDBRANCH  14  15
ENDBRANCH  13  14
ENDBRANCH  12  13
ENDBRANCH  11  12
ENDBRANCH   1  11
TORSDOF 14
ENDMDL
MODEL 7
REMARK VINA RESULT:    -4.026      3.345      6.038
REMARK INTER + INTRA:          -9.071
REMARK INTER:                  -6.873
REMARK INTRA:                  -2.198
REMARK UNBOUND:                -1.750
REMARK SMILES CCCCCCCCCCCCCCCC(=O)[O-]
REMARK SMILES IDX 9 1 10 2 11 3 12 4 13 5 14 6 15 7 16 8 17 9 18 10 8 11 7 12
REMARK SMILES IDX 6 13 5 14 4 15 3 16 2 17 1 18
REMARK H PARENT
REMARK Flexibility Score: inf
ROOT
ATOM      1  C   UNL     1      24.877  -2.858  -7.730  1.00  0.00     0.000 C 
ENDROOT
BRANCH   1   2
ATOM      2  C   UNL     1      24.472  -4.201  -8.358  1.00  0.00     0.000 C 
BRANCH   2   3
ATOM      3  C   UNL     1      24.051  -4.073  -9.833  1.00  0.00     0.000 C 
BRANCH   3   4
ATOM      4  C   UNL     1      24.909  -4.878 -10.826  1.00  0.00     0.000 C 
BRANCH   4   5
ATOM      5  C   UNL     1      26.064  -4.054 -11.423  1.00  0.00     0.000 C 
BRANCH   5   6
ATOM      6  C   UNL     1      27.451  -4.595 -11.022  1.00  0.00     0.006 C 
BRANCH   6   7
ATOM      7  C   UNL     1      27.392  -5.794 -10.060  1.00  0.00     0.053 C 
BRANCH   7   8
ATOM      8  C   UNL     1      28.154  -5.553  -8.794  1.00  0.00     0.041 C 
ATOM      9  O   UNL     1      29.292  -5.017  -8.830  1.00  0.00    -0.550 OA
ATOM     10  O   UNL     1      27.606  -5.924  -7.572  1.00  0.00    -0.550 OA
ENDBRANCH   7   8
ENDBRANCH   6   7
ENDBRANCH   5   6
ENDBRANCH   4   5
ENDBRANCH   3   4
ENDBRANCH   2   3
ENDBRANCH   1   2
BRANCH   1  11
ATOM     11  C   UNL     1      26.352  -2.542  -8.010  1.00  0.00     0.000 C 
BRANCH  11  12
ATOM     12  C   UNL     1      26.562  -1.141  -8.617  1.00  0.00    -0.000 C 
BRANCH  12  13
ATOM     13  C   UNL     1      25.347  -0.566  -9.366  1.00  0.00    -0.000 C 
BRANCH  13  14
ATOM     14  C   UNL     1      25.515  -0.603 -10.896  1.00  0.00    -0.000 C 
BRANCH  14  15
ATOM     15  C   UNL     1      24.185  -0.835 -11.629  1.00  0.00    -0.000 C 
BRANCH  15  16
ATOM     16  C   UNL     1      24.251  -0.452 -13.116  1.00  0.00    -0.000 C 
BRANCH  16  17
ATOM     17  C   UNL     1      24.664   1.015 -13.286  1.00  0.00    -0.003 C 
ATOM     18  C   UNL     1      25.510   1.208 -14.541  1.00  0.00     0.004 C 
ENDBRANCH  16  17
ENDBRANCH  15  16
ENDBRANCH  14  15
ENDBRANCH  13  14
ENDBRANCH  12  13
ENDBRANCH  11  12
ENDBRANCH   1  11
TORSDOF 14
ENDMDL
MODEL 8
REMARK VINA RESULT:    -3.975      0.999      1.486
REMARK INTER + INTRA:          -8.978
REMARK INTER:                  -7.120
REMARK INTRA:                  -1.858
REMARK UNBOUND:                -1.750
REMARK SMILES CCCCCCCCCCCCCCCC(=O)[O-]
REMARK SMILES IDX 9 1 10 2 11 3 12 4 13 5 14 6 15 7 16 8 17 9 18 10 8 11 7 12
REMARK SMILES IDX 6 13 5 14 4 15 3 16 2 17 1 18
REMARK H PARENT
REMARK Flexibility Score: inf
ROOT
ATOM      1  C   UNL     1      25.895  -0.643  -9.257  1.00  0.00     0.000 C 
ENDROOT
BRANCH   1   2
ATOM      2  C   UNL     1      24.554  -1.355  -9.021  1.00  0.00     0.000 C 
BRANCH   2   3
ATOM      3  C   UNL     1      23.823  -1.713 -10.327  1.00  0.00     0.000 C 
BRANCH   3   4
ATOM      4  C   UNL     1      24.604  -1.397 -11.616  1.00  0.00     0.000 C 
BRANCH   4   5
ATOM      5  C   UNL     1      23.952  -0.280 -12.451  1.00  0.00     0.000 C 
BRANCH   5   6
ATOM      6  C   UNL     1      24.964   0.791 -12.906  1.00  0.00     0.006 C 
BRANCH   6   7
ATOM      7  C   UNL     1      25.056   0.944 -14.433  1.00  0.00     0.053 C 
BRANCH   7   8
ATOM      8  C   UNL     1      26.294   0.323 -15.001  1.00  0.00     0.041 C 
ATOM      9  O   UNL     1      27.092   1.012 -15.689  1.00  0.00    -0.550 OA
ATOM     10  O   UNL     1      26.566  -1.020 -14.771  1.00  0.00    -0.550 OA
ENDBRANCH   7   8
ENDBRANCH   6   7
ENDBRANCH   5   6
ENDBRANCH   4   5
ENDBRANCH   3   4
ENDBRANCH   2   3
ENDBRANCH   1   2
BRANCH   1  11
ATOM     11  C   UNL     1      26.805  -0.761  -8.027  1.00  0.00     0.000 C 
BRANCH  11  12
ATOM     12  C   UNL     1      27.370  -2.181  -7.831  1.00  0.00    -0.000 C 
BRANCH  12  13
ATOM     13  C   UNL     1      27.776  -2.907  -9.125  1.00  0.00    -0.000 C 
BRANCH  13  14
ATOM     14  C   UNL     1      27.145  -4.306  -9.249  1.00  0.00    -0.000 C 
BRANCH  14  15
ATOM     15  C   UNL     1      26.752  -4.649 -10.695  1.00  0.00    -0.000 C 
BRANCH  15  16
ATOM     16  C   UNL     1      25.251  -4.942 -10.848  1.00  0.00    -0.000 C 
BRANCH  16  17
ATOM     17  C   UNL     1      24.731  -5.771  -9.668  1.00  0.00    -0.003 C 
ATOM     18  C   UNL     1      23.444  -5.179  -9.102  1.00  0.00     0.004 C 
ENDBRANCH  16  17
ENDBRANCH  15  16
ENDBRANCH  14  15
ENDBRANCH  13  14
ENDBRANCH  12  13
ENDBRANCH  11  12
ENDBRANCH   1  11
TORSDOF 14
ENDMDL
MODEL 9
REMARK VINA RESULT:    -3.944      1.360      2.269
REMARK INTER + INTRA:          -8.922
REMARK INTER:                  -6.550
REMARK INTRA:                  -2.372
REMARK UNBOUND:                -1.750
REMARK SMILES CCCCCCCCCCCCCCCC(=O)[O-]
REMARK SMILES IDX 9 1 10 2 11 3 12 4 13 5 14 6 15 7 16 8 17 9 18 10 8 11 7 12
REMARK SMILES IDX 6 13 5 14 4 15 3 16 2 17 1 18
REMARK H PARENT
REMARK Flexibility Score: inf
ROOT
ATOM      1  C   UNL     1      27.921  -3.081 -10.282  1.00  0.00     0.000 C 
ENDROOT
BRANCH   1   2
ATOM      2  C   UNL     1      27.037  -3.783 -11.325  1.00  0.00     0.000 C 
BRANCH   2   3
ATOM      3  C   UNL     1      25.964  -2.858 -11.926  1.00  0.00     0.000 C 
BRANCH   3   4
ATOM      4  C   UNL     1      26.195  -1.355 -11.689  1.00  0.00     0.000 C 
BRANCH   4   5
ATOM      5  C   UNL     1      24.909  -0.608 -11.293  1.00  0.00     0.000 C 
BRANCH   5   6
ATOM      6  C   UNL     1      24.085  -0.152 -12.514  1.00  0.00     0.006 C 
BRANCH   6   7
ATOM      7  C   UNL     1      24.792   0.907 -13.376  1.00  0.00     0.053 C 
BRANCH   7   8
ATOM      8  C   UNL     1      25.113   0.410 -14.751  1.00  0.00     0.041 C 
ATOM      9  O   UNL     1      24.800  -0.760 -15.091  1.00  0.00    -0.550 OA
ATOM     10  O   UNL     1      25.761   1.241 -15.657  1.00  0.00    -0.550 OA
ENDBRANCH   7   8
ENDBRANCH   6   7
ENDBRANCH   5   6
ENDBRANCH   4   5
ENDBRANCH   3   4
ENDBRANCH   2   3
ENDBRANCH   1   2
BRANCH   1  11
ATOM     11  C   UNL     1      28.008  -3.904  -8.990  1.00  0.00     0.000 C 
BRANCH  11  12
ATOM     12  C   UNL     1      27.290  -3.236  -7.801  1.00  0.00    -0.000 C 
BRANCH  12  13
ATOM     13  C   UNL     1      26.362  -2.066  -8.173  1.00  0.00    -0.000 C 
BRANCH  13  14
ATOM     14  C   UNL     1      24.871  -2.409  -8.004  1.00  0.00    -0.000 C 
BRANCH  14  15
ATOM     15  C   UNL     1      24.599  -3.919  -8.096  1.00  0.00    -0.000 C 
BRANCH  15  16
ATOM     16  C   UNL     1      23.838  -4.310  -9.372  1.00  0.00    -0.000 C 
BRANCH  16  17
ATOM     17  C   UNL     1      24.143  -5.759  -9.770  1.00  0.00    -0.003 C 
ATOM     18  C   UNL     1      25.168  -6.385  -8.830  1.00  0.00     0.004 C 
ENDBRANCH  16  17
ENDBRANCH  15  16
ENDBRANCH  14  15
ENDBRANCH  13  14
ENDBRANCH  12  13
ENDBRANCH  11  12
ENDBRANCH   1  11
TORSDOF 14
ENDMDL
