MODEL 1
REMARK VINA RESULT:    -3.206      0.000      0.000
REMARK INTER + INTRA:          -3.595
REMARK INTER:                  -3.581
REMARK INTRA:                  -0.013
REMARK UNBOUND:                -0.013
REMARK SMILES CCCC(=O)[O-]
REMARK SMILES IDX 3 1 4 2 5 3 6 4 2 5 1 6
REMARK H PARENT
REMARK Flexibility Score: inf
ROOT
ATOM      1  C   UNL     1    -117.171 -35.224 -56.832  1.00  0.00     0.052 C 
ENDROOT
BRANCH   1   2
ATOM      2  C   UNL     1    -118.021 -36.342 -56.310  1.00  0.00     0.041 C 
ATOM      3  O   UNL     1    -117.512 -37.471 -56.081  1.00  0.00    -0.550 OA
ATOM      4  O   UNL     1    -119.368 -36.127 -56.046  1.00  0.00    -0.550 OA
ENDBRANCH   1   2
BRANCH   1   5
ATOM      5  C   UNL     1    -115.731 -35.682 -57.096  1.00  0.00     0.003 C 
ATOM      6  C   UNL     1    -115.032 -34.827 -58.151  1.00  0.00     0.004 C 
ENDBRANCH   1   5
TORSDOF 2
ENDMDL
MODEL 2
REMARK VINA RESULT:    -3.153      2.511      3.568
REMARK INTER + INTRA:          -3.535
REMARK INTER:                  -3.530
REMARK INTRA:                  -0.005
REMARK UNBOUND:                -0.013
REMARK SMILES CCCC(=O)[O-]
REMARK SMILES IDX 3 1 4 2 5 3 6 4 2 5 1 6
REMARK H PARENT
REMARK Flexibility Score: inf
ROOT
ATOM      1  C   UNL     1    -116.915 -35.378 -56.793  1.00  0.00     0.052 C 
ENDROOT
BRANCH   1   2
ATOM      2  C   UNL     1    -115.512 -35.478 -57.309  1.00  0.00     0.041 C 
ATOM      3  O   UNL     1    -115.254 -35.189 -58.507  1.00  0.00    -0.550 OA
ATOM      4  O   UNL     1    -114.484 -35.862 -56.457  1.00  0.00    -0.550 OA
ENDBRANCH   1   2
BRANCH   1   5
ATOM      5  C   UNL     1    -117.457 -36.746 -56.359  1.00  0.00     0.003 C 
ATOM      6  C   UNL     1    -118.958 -36.713 -56.073  1.00  0.00     0.004 C 
ENDBRANCH   1   5
TORSDOF 2
ENDMDL
MODEL 3
REMARK VINA RESULT:    -3.000      1.960      3.400
REMARK INTER + INTRA:          -3.364
REMARK INTER:                  -3.349
REMARK INTRA:                  -0.015
REMARK UNBOUND:                -0.013
REMARK SMILES CCCC(=O)[O-]
REMARK SMILES IDX 3 1 4 2 5 3 6 4 2 5 1 6
REMARK H PARENT
REMARK Flexibility Score: inf
ROOT
ATOM      1  C   UNL     1    -118.393 -36.654 -56.084  1.00  0.00     0.052 C 
ENDROOT
BRANCH   1   2
ATOM      2  C   UNL     1    -117.101 -36.050 -56.542  1.00  0.00     0.041 C 
ATOM      3  O   UNL     1    -116.036 -36.719 -56.492  1.00  0.00    -0.550 OA
ATOM      4  O   UNL     1    -117.080 -34.758 -57.052  1.00  0.00    -0.550 OA
ENDBRANCH   1   2
BRANCH   1   5
ATOM      5  C   UNL     1    -119.587 -35.742 -56.396  1.00  0.00     0.003 C 
ATOM      6  C   UNL     1    -120.809 -36.524 -56.874  1.00  0.00     0.004 C 
ENDBRANCH   1   5
TORSDOF 2
ENDMDL
MODEL 4
REMARK VINA RESULT:    -2.951      2.164      2.730
REMARK INTER + INTRA:          -3.309
REMARK INTER:                  -3.300
REMARK INTRA:                  -0.009
REMARK UNBOUND:                -0.013
REMARK SMILES CCCC(=O)[O-]
REMARK SMILES IDX 3 1 4 2 5 3 6 4 2 5 1 6
REMARK H PARENT
REMARK Flexibility Score: inf
ROOT
ATOM      1  C   UNL     1    -119.101 -35.763 -56.418  1.00  0.00     0.052 C 
ENDROOT
BRANCH   1   2
ATOM      2  C   UNL     1    -120.515 -36.242 -56.541  1.00  0.00     0.041 C 
ATOM      3  O   UNL     1    -120.880 -37.297 -55.959  1.00  0.00    -0.550 OA
ATOM      4  O   UNL     1    -121.438 -35.506 -57.274  1.00  0.00    -0.550 OA
ENDBRANCH   1   2
BRANCH   1   5
ATOM      5  C   UNL     1    -118.131 -36.921 -56.153  1.00  0.00     0.003 C 
ATOM      6  C   UNL     1    -116.686 -36.561 -56.495  1.00  0.00     0.004 C 
ENDBRANCH   1   5
TORSDOF 2
ENDMDL
MODEL 5
REMARK VINA RESULT:    -2.921     10.956     11.464
REMARK INTER + INTRA:          -3.276
REMARK INTER:                  -3.269
REMARK INTRA:                  -0.006
REMARK UNBOUND:                -0.013
REMARK SMILES CCCC(=O)[O-]
REMARK SMILES IDX 3 1 4 2 5 3 6 4 2 5 1 6
REMARK H PARENT
REMARK Flexibility Score: inf
ROOT
ATOM      1  C   UNL     1    -112.013 -42.581 -65.055  1.00  0.00     0.052 C 
ENDROOT
BRANCH   1   2
ATOM      2  C   UNL     1    -112.378 -41.182 -65.445  1.00  0.00     0.041 C 
ATOM      3  O   UNL     1    -111.481 -40.358 -65.764  1.00  0.00    -0.550 OA
ATOM      4  O   UNL     1    -113.713 -40.796 -65.485  1.00  0.00    -0.550 OA
ENDBRANCH   1   2
BRANCH   1   5
ATOM      5  C   UNL     1    -112.667 -42.988 -63.729  1.00  0.00     0.003 C 
ATOM      6  C   UNL     1    -111.725 -43.798 -62.839  1.00  0.00     0.004 C 
ENDBRANCH   1   5
TORSDOF 2
ENDMDL
MODEL 6
REMARK VINA RESULT:    -2.880     11.258     11.938
REMARK INTER + INTRA:          -3.230
REMARK INTER:                  -3.191
REMARK INTRA:                  -0.038
REMARK UNBOUND:                -0.013
REMARK SMILES CCCC(=O)[O-]
REMARK SMILES IDX 3 1 4 2 5 3 6 4 2 5 1 6
REMARK H PARENT
REMARK Flexibility Score: inf
ROOT
ATOM      1  C   UNL     1    -113.008 -40.758 -65.933  1.00  0.00     0.052 C 
ENDROOT
BRANCH   1   2
ATOM      2  C   UNL     1    -113.646 -41.076 -67.251  1.00  0.00     0.041 C 
ATOM      3  O   UNL     1    -114.520 -41.979 -67.331  1.00  0.00    -0.550 OA
ATOM      4  O   UNL     1    -113.297 -40.353 -68.385  1.00  0.00    -0.550 OA
ENDBRANCH   1   2
BRANCH   1   5
ATOM      5  C   UNL     1    -113.688 -41.507 -64.780  1.00  0.00     0.003 C 
ATOM      6  C   UNL     1    -112.829 -42.650 -64.240  1.00  0.00     0.004 C 
ENDBRANCH   1   5
TORSDOF 2
ENDMDL
MODEL 7
REMARK VINA RESULT:    -2.856     11.323     11.946
REMARK INTER + INTRA:          -3.203
REMARK INTER:                  -3.165
REMARK INTRA:                  -0.038
REMARK UNBOUND:                -0.013
REMARK SMILES CCCC(=O)[O-]
REMARK SMILES IDX 3 1 4 2 5 3 6 4 2 5 1 6
REMARK H PARENT
REMARK Flexibility Score: inf
ROOT
ATOM      1  C   UNL     1    -113.007 -40.746 -65.927  1.00  0.00     0.052 C 
ENDROOT
BRANCH   1   2
ATOM      2  C   UNL     1    -113.606 -41.079 -67.259  1.00  0.00     0.041 C 
ATOM      3  O   UNL     1    -113.338 -40.376 -68.268  1.00  0.00    -0.550 OA
ATOM      4  O   UNL     1    -114.437 -42.184 -67.391  1.00  0.00    -0.550 OA
ENDBRANCH   1   2
BRANCH   1   5
ATOM      5  C   UNL     1    -113.697 -41.510 -64.789  1.00  0.00     0.003 C 
ATOM      6  C   UNL     1    -112.818 -42.622 -64.217  1.00  0.00     0.004 C 
ENDBRANCH   1   5
TORSDOF 2
ENDMDL
MODEL 8
REMARK VINA RESULT:    -2.841      3.131      4.224
REMARK INTER + INTRA:          -3.187
REMARK INTER:                  -3.164
REMARK INTRA:                  -0.022
REMARK UNBOUND:                -0.013
REMARK SMILES CCCC(=O)[O-]
REMARK SMILES IDX 3 1 4 2 5 3 6 4 2 5 1 6
REMARK H PARENT
REMARK Flexibility Score: inf
ROOT
ATOM      1  C   UNL     1    -120.031 -35.087 -56.747  1.00  0.00     0.052 C 
ENDROOT
BRANCH   1   2
ATOM      2  C   UNL     1    -119.784 -36.469 -56.226  1.00  0.00     0.041 C 
ATOM      3  O   UNL     1    -120.751 -37.241 -55.992  1.00  0.00    -0.550 OA
ATOM      4  O   UNL     1    -118.483 -36.916 -56.028  1.00  0.00    -0.550 OA
ENDBRANCH   1   2
BRANCH   1   5
ATOM      5  C   UNL     1    -121.519 -34.716 -56.685  1.00  0.00     0.003 C 
ATOM      6  C   UNL     1    -121.987 -33.973 -57.936  1.00  0.00     0.004 C 
ENDBRANCH   1   5
TORSDOF 2
ENDMDL
MODEL 9
REMARK VINA RESULT:    -2.822     11.025     11.542
REMARK INTER + INTRA:          -3.165
REMARK INTER:                  -3.130
REMARK INTRA:                  -0.035
REMARK UNBOUND:                -0.013
REMARK SMILES CCCC(=O)[O-]
REMARK SMILES IDX 3 1 4 2 5 3 6 4 2 5 1 6
REMARK H PARENT
REMARK Flexibility Score: inf
ROOT
ATOM      1  C   UNL     1    -112.881 -42.677 -63.956  1.00  0.00     0.052 C 
ENDROOT
BRANCH   1   2
ATOM      2  C   UNL     1    -111.693 -43.476 -63.513  1.00  0.00     0.041 C 
ATOM      3  O   UNL     1    -110.666 -43.540 -64.238  1.00  0.00    -0.550 OA
ATOM      4  O   UNL     1    -111.710 -44.125 -62.284  1.00  0.00    -0.550 OA
ENDBRANCH   1   2
BRANCH   1   5
ATOM      5  C   UNL     1    -112.800 -42.323 -65.447  1.00  0.00     0.003 C 
ATOM      6  C   UNL     1    -112.832 -40.815 -65.690  1.00  0.00     0.004 C 
ENDBRANCH   1   5
TORSDOF 2
ENDMDL
