MODEL 1
REMARK VINA RESULT:    -4.894      0.000      0.000
REMARK INTER + INTRA:         -11.676
REMARK INTER:                  -9.186
REMARK INTRA:                  -2.490
REMARK UNBOUND:                -2.490
REMARK SMILES CCCCCCCCC=CCCCCCCCC(=O)[O-]
REMARK SMILES IDX 10 1 9 2 11 3 12 4 13 5 14 6 15 7 16 8 17 9 18 10 19 11
REMARK SMILES IDX 20 12 8 13 7 14 6 15 5 16 4 17 3 18 2 19 1 20
REMARK H PARENT
REMARK Flexibility Score: inf
ROOT
ATOM      1  C   UNL     1      -6.940 -22.616 -16.376  1.00  0.00    -0.031 C 
ATOM      2  C   UNL     1      -5.722 -22.913 -16.849  1.00  0.00    -0.031 C 
ENDROOT
BRANCH   1   3
ATOM      3  C   UNL     1      -7.729 -21.472 -16.951  1.00  0.00     0.027 C 
BRANCH   3   4
ATOM      4  C   UNL     1      -8.510 -21.909 -18.198  1.00  0.00     0.004 C 
BRANCH   4   5
ATOM      5  C   UNL     1      -7.888 -21.394 -19.509  1.00  0.00     0.000 C 
BRANCH   5   6
ATOM      6  C   UNL     1      -7.689 -22.460 -20.603  1.00  0.00     0.000 C 
BRANCH   6   7
ATOM      7  C   UNL     1      -8.033 -23.881 -20.124  1.00  0.00     0.000 C 
BRANCH   7   8
ATOM      8  C   UNL     1      -6.783 -24.752 -19.897  1.00  0.00     0.006 C 
BRANCH   8   9
ATOM      9  C   UNL     1      -5.468 -24.109 -20.368  1.00  0.00     0.053 C 
BRANCH   9  10
ATOM     10  C   UNL     1      -5.096 -24.540 -21.754  1.00  0.00     0.041 C 
ATOM     11  O   UNL     1      -5.147 -23.720 -22.708  1.00  0.00    -0.550 OA
ATOM     12  O   UNL     1      -4.727 -25.857 -21.997  1.00  0.00    -0.550 OA
ENDBRANCH   9  10
ENDBRANCH   8   9
ENDBRANCH   7   8
ENDBRANCH   6   7
ENDBRANCH   5   6
ENDBRANCH   4   5
ENDBRANCH   3   4
ENDBRANCH   1   3
BRANCH   2  13
ATOM     13  C   UNL     1      -4.910 -24.049 -16.286  1.00  0.00     0.027 C 
BRANCH  13  14
ATOM     14  C   UNL     1      -5.559 -25.421 -16.534  1.00  0.00     0.004 C 
BRANCH  14  15
ATOM     15  C   UNL     1      -5.855 -26.231 -15.255  1.00  0.00     0.000 C 
BRANCH  15  16
ATOM     16  C   UNL     1      -6.383 -25.410 -14.064  1.00  0.00     0.000 C 
BRANCH  16  17
ATOM     17  C   UNL     1      -5.494 -25.529 -12.814  1.00  0.00    -0.000 C 
BRANCH  17  18
ATOM     18  C   UNL     1      -5.499 -24.253 -11.953  1.00  0.00    -0.000 C 
BRANCH  18  19
ATOM     19  C   UNL     1      -5.927 -22.970 -12.689  1.00  0.00    -0.003 C 
ATOM     20  C   UNL     1      -4.744 -22.146 -13.196  1.00  0.00     0.004 C 
ENDBRANCH  18  19
ENDBRANCH  17  18
ENDBRANCH  16  17
ENDBRANCH  15  16
ENDBRANCH  14  15
ENDBRANCH  13  14
ENDBRANCH   2  13
TORSDOF 15
ENDMDL
MODEL 2
REMARK VINA RESULT:    -4.853      3.136      6.309
REMARK INTER + INTRA:         -11.598
REMARK INTER:                  -8.853
REMARK INTRA:                  -2.745
REMARK UNBOUND:                -2.490
REMARK SMILES CCCCCCCCC=CCCCCCCCC(=O)[O-]
REMARK SMILES IDX 10 1 9 2 11 3 12 4 13 5 14 6 15 7 16 8 17 9 18 10 19 11
REMARK SMILES IDX 20 12 8 13 7 14 6 15 5 16 4 17 3 18 2 19 1 20
REMARK H PARENT
REMARK Flexibility Score: inf
ROOT
ATOM      1  C   UNL     1      -8.061 -23.508 -19.481  1.00  0.00    -0.031 C 
ATOM      2  C   UNL     1      -6.976 -24.238 -19.182  1.00  0.00    -0.031 C 
ENDROOT
BRANCH   1   3
ATOM      3  C   UNL     1      -8.574 -22.470 -18.521  1.00  0.00     0.027 C 
BRANCH   3   4
ATOM      4  C   UNL     1      -7.542 -22.168 -17.426  1.00  0.00     0.004 C 
BRANCH   4   5
ATOM      5  C   UNL     1      -8.025 -21.110 -16.418  1.00  0.00     0.000 C 
BRANCH   5   6
ATOM      6  C   UNL     1      -6.990 -20.030 -16.055  1.00  0.00     0.000 C 
BRANCH   6   7
ATOM      7  C   UNL     1      -5.539 -20.514 -16.211  1.00  0.00     0.000 C 
BRANCH   7   8
ATOM      8  C   UNL     1      -4.722 -20.374 -14.912  1.00  0.00     0.006 C 
BRANCH   8   9
ATOM      9  C   UNL     1      -4.692 -21.642 -14.042  1.00  0.00     0.053 C 
BRANCH   9  10
ATOM     10  C   UNL     1      -4.246 -22.845 -14.814  1.00  0.00     0.041 C 
ATOM     11  O   UNL     1      -3.079 -22.898 -15.285  1.00  0.00    -0.550 OA
ATOM     12  O   UNL     1      -5.129 -23.891 -15.043  1.00  0.00    -0.550 OA
ENDBRANCH   9  10
ENDBRANCH   8   9
ENDBRANCH   7   8
ENDBRANCH   6   7
ENDBRANCH   5   6
ENDBRANCH   4   5
ENDBRANCH   3   4
ENDBRANCH   1   3
BRANCH   2  13
ATOM     13  C   UNL     1      -6.446 -25.287 -20.123  1.00  0.00     0.027 C 
BRANCH  13  14
ATOM     14  C   UNL     1      -5.215 -24.810 -20.911  1.00  0.00     0.004 C 
BRANCH  14  15
ATOM     15  C   UNL     1      -5.542 -23.969 -22.164  1.00  0.00     0.000 C 
BRANCH  15  16
ATOM     16  C   UNL     1      -5.154 -22.481 -22.077  1.00  0.00     0.000 C 
BRANCH  16  17
ATOM     17  C   UNL     1      -4.327 -22.151 -20.822  1.00  0.00    -0.000 C 
BRANCH  17  18
ATOM     18  C   UNL     1      -4.974 -21.061 -19.949  1.00  0.00    -0.000 C 
BRANCH  18  19
ATOM     19  C   UNL     1      -6.273 -20.457 -20.515  1.00  0.00    -0.003 C 
ATOM     20  C   UNL     1      -6.685 -19.160 -19.820  1.00  0.00     0.004 C 
ENDBRANCH  18  19
ENDBRANCH  17  18
ENDBRANCH  16  17
ENDBRANCH  15  16
ENDBRANCH  14  15
ENDBRANCH  13  14
ENDBRANCH   2  13
TORSDOF 15
ENDMDL
MODEL 3
REMARK VINA RESULT:    -4.797      1.812      3.003
REMARK INTER + INTRA:         -11.493
REMARK INTER:                  -8.963
REMARK INTRA:                  -2.531
REMARK UNBOUND:                -2.490
REMARK SMILES CCCCCCCCC=CCCCCCCCC(=O)[O-]
REMARK SMILES IDX 10 1 9 2 11 3 12 4 13 5 14 6 15 7 16 8 17 9 18 10 19 11
REMARK SMILES IDX 20 12 8 13 7 14 6 15 5 16 4 17 3 18 2 19 1 20
REMARK H PARENT
REMARK Flexibility Score: inf
ROOT
ATOM      1  C   UNL     1      -7.574 -21.519 -16.301  1.00  0.00    -0.031 C 
ATOM      2  C   UNL     1      -8.263 -20.838 -15.374  1.00  0.00    -0.031 C 
ENDROOT
BRANCH   1   3
ATOM      3  C   UNL     1      -8.033 -21.544 -17.732  1.00  0.00     0.027 C 
BRANCH   3   4
ATOM      4  C   UNL     1      -7.738 -22.901 -18.386  1.00  0.00     0.004 C 
BRANCH   4   5
ATOM      5  C   UNL     1      -6.501 -23.599 -17.793  1.00  0.00     0.000 C 
BRANCH   5   6
ATOM      6  C   UNL     1      -5.985 -24.809 -18.593  1.00  0.00     0.000 C 
BRANCH   6   7
ATOM      7  C   UNL     1      -6.590 -24.896 -20.005  1.00  0.00     0.000 C 
BRANCH   7   8
ATOM      8  C   UNL     1      -5.521 -25.066 -21.101  1.00  0.00     0.006 C 
BRANCH   8   9
ATOM      9  C   UNL     1      -5.382 -23.859 -22.044  1.00  0.00     0.053 C 
BRANCH   9  10
ATOM     10  C   UNL     1      -5.044 -22.602 -21.304  1.00  0.00     0.041 C 
ATOM     11  O   UNL     1      -5.842 -21.628 -21.310  1.00  0.00    -0.550 OA
ATOM     12  O   UNL     1      -3.831 -22.493 -20.637  1.00  0.00    -0.550 OA
ENDBRANCH   9  10
ENDBRANCH   8   9
ENDBRANCH   7   8
ENDBRANCH   6   7
ENDBRANCH   5   6
ENDBRANCH   4   5
ENDBRANCH   3   4
ENDBRANCH   1   3
BRANCH   2  13
ATOM     13  C   UNL     1      -7.827 -20.803 -13.933  1.00  0.00     0.027 C 
BRANCH  13  14
ATOM     14  C   UNL     1      -8.062 -22.140 -13.209  1.00  0.00     0.004 C 
BRANCH  14  15
ATOM     15  C   UNL     1      -6.776 -22.925 -12.877  1.00  0.00     0.000 C 
BRANCH  15  16
ATOM     16  C   UNL     1      -6.437 -24.072 -13.847  1.00  0.00     0.000 C 
BRANCH  16  17
ATOM     17  C   UNL     1      -5.081 -23.882 -14.547  1.00  0.00    -0.000 C 
BRANCH  17  18
ATOM     18  C   UNL     1      -4.403 -22.547 -14.188  1.00  0.00    -0.000 C 
BRANCH  18  19
ATOM     19  C   UNL     1      -4.041 -21.655 -15.389  1.00  0.00    -0.003 C 
ATOM     20  C   UNL     1      -4.367 -20.179 -15.161  1.00  0.00     0.004 C 
ENDBRANCH  18  19
ENDBRANCH  17  18
ENDBRANCH  16  17
ENDBRANCH  15  16
ENDBRANCH  14  15
ENDBRANCH  13  14
ENDBRANCH   2  13
TORSDOF 15
ENDMDL
MODEL 4
REMARK VINA RESULT:    -4.792      3.344      7.165
REMARK INTER + INTRA:         -11.485
REMARK INTER:                  -8.856
REMARK INTRA:                  -2.629
REMARK UNBOUND:                -2.490
REMARK SMILES CCCCCCCCC=CCCCCCCCC(=O)[O-]
REMARK SMILES IDX 10 1 9 2 11 3 12 4 13 5 14 6 15 7 16 8 17 9 18 10 19 11
REMARK SMILES IDX 20 12 8 13 7 14 6 15 5 16 4 17 3 18 2 19 1 20
REMARK H PARENT
REMARK Flexibility Score: inf
ROOT
ATOM      1  C   UNL     1      -6.121 -23.779 -16.874  1.00  0.00    -0.031 C 
ATOM      2  C   UNL     1      -5.975 -22.450 -16.975  1.00  0.00    -0.031 C 
ENDROOT
BRANCH   1   3
ATOM      3  C   UNL     1      -5.111 -24.607 -16.129  1.00  0.00     0.027 C 
BRANCH   3   4
ATOM      4  C   UNL     1      -5.758 -25.861 -15.525  1.00  0.00     0.004 C 
BRANCH   4   5
ATOM      5  C   UNL     1      -5.806 -25.833 -13.987  1.00  0.00     0.000 C 
BRANCH   5   6
ATOM      6  C   UNL     1      -6.861 -24.889 -13.381  1.00  0.00     0.000 C 
BRANCH   6   7
ATOM      7  C   UNL     1      -6.243 -23.773 -12.522  1.00  0.00     0.000 C 
BRANCH   7   8
ATOM      8  C   UNL     1      -6.189 -22.418 -13.255  1.00  0.00     0.006 C 
BRANCH   8   9
ATOM      9  C   UNL     1      -7.564 -21.860 -13.657  1.00  0.00     0.053 C 
BRANCH   9  10
ATOM     10  C   UNL     1      -7.518 -20.387 -13.923  1.00  0.00     0.041 C 
ATOM     11  O   UNL     1      -8.483 -19.652 -13.586  1.00  0.00    -0.550 OA
ATOM     12  O   UNL     1      -6.424 -19.831 -14.574  1.00  0.00    -0.550 OA
ENDBRANCH   9  10
ENDBRANCH   8   9
ENDBRANCH   7   8
ENDBRANCH   6   7
ENDBRANCH   5   6
ENDBRANCH   4   5
ENDBRANCH   3   4
ENDBRANCH   1   3
BRANCH   2  13
ATOM     13  C   UNL     1      -6.970 -21.600 -17.719  1.00  0.00     0.027 C 
BRANCH  13  14
ATOM     14  C   UNL     1      -8.253 -22.367 -18.081  1.00  0.00     0.004 C 
BRANCH  14  15
ATOM     15  C   UNL     1      -8.403 -22.696 -19.581  1.00  0.00     0.000 C 
BRANCH  15  16
ATOM     16  C   UNL     1      -7.648 -21.756 -20.539  1.00  0.00     0.000 C 
BRANCH  16  17
ATOM     17  C   UNL     1      -6.620 -22.494 -21.414  1.00  0.00    -0.000 C 
BRANCH  17  18
ATOM     18  C   UNL     1      -6.433 -23.966 -21.005  1.00  0.00    -0.000 C 
BRANCH  18  19
ATOM     19  C   UNL     1      -5.093 -24.287 -20.317  1.00  0.00    -0.003 C 
ATOM     20  C   UNL     1      -4.059 -23.172 -20.467  1.00  0.00     0.004 C 
ENDBRANCH  18  19
ENDBRANCH  17  18
ENDBRANCH  16  17
ENDBRANCH  15  16
ENDBRANCH  14  15
ENDBRANCH  13  14
ENDBRANCH   2  13
TORSDOF 15
ENDMDL
MODEL 5
REMARK VINA RESULT:    -4.792      1.799      2.291
REMARK INTER + INTRA:         -11.484
REMARK INTER:                  -8.830
REMARK INTRA:                  -2.654
REMARK UNBOUND:                -2.490
REMARK SMILES CCCCCCCCC=CCCCCCCCC(=O)[O-]
REMARK SMILES IDX 10 1 9 2 11 3 12 4 13 5 14 6 15 7 16 8 17 9 18 10 19 11
REMARK SMILES IDX 20 12 8 13 7 14 6 15 5 16 4 17 3 18 2 19 1 20
REMARK H PARENT
REMARK Flexibility Score: inf
ROOT
ATOM      1  C   UNL     1      -6.899 -22.957 -17.072  1.00  0.00    -0.031 C 
ATOM      2  C   UNL     1      -5.566 -22.809 -17.072  1.00  0.00    -0.031 C 
ENDROOT
BRANCH   1   3
ATOM      3  C   UNL     1      -7.774 -22.022 -17.860  1.00  0.00     0.027 C 
BRANCH   3   4
ATOM      4  C   UNL     1      -8.445 -22.748 -19.034  1.00  0.00     0.004 C 
BRANCH   4   5
ATOM      5  C   UNL     1      -7.945 -22.264 -20.407  1.00  0.00     0.000 C 
BRANCH   5   6
ATOM      6  C   UNL     1      -7.182 -23.315 -21.234  1.00  0.00     0.000 C 
BRANCH   6   7
ATOM      7  C   UNL     1      -6.476 -24.367 -20.361  1.00  0.00     0.000 C 
BRANCH   7   8
ATOM      8  C   UNL     1      -4.975 -24.497 -20.682  1.00  0.00     0.006 C 
BRANCH   8   9
ATOM      9  C   UNL     1      -4.365 -23.267 -21.375  1.00  0.00     0.053 C 
BRANCH   9  10
ATOM     10  C   UNL     1      -3.867 -22.255 -20.389  1.00  0.00     0.041 C 
ATOM     11  O   UNL     1      -2.908 -22.535 -19.623  1.00  0.00    -0.550 OA
ATOM     12  O   UNL     1      -4.486 -21.015 -20.293  1.00  0.00    -0.550 OA
ENDBRANCH   9  10
ENDBRANCH   8   9
ENDBRANCH   7   8
ENDBRANCH   6   7
ENDBRANCH   5   6
ENDBRANCH   4   5
ENDBRANCH   3   4
ENDBRANCH   1   3
BRANCH   2  13
ATOM     13  C   UNL     1      -4.669 -23.728 -16.287  1.00  0.00     0.027 C 
BRANCH  13  14
ATOM     14  C   UNL     1      -5.409 -24.968 -15.755  1.00  0.00     0.004 C 
BRANCH  14  15
ATOM     15  C   UNL     1      -5.750 -24.916 -14.251  1.00  0.00     0.000 C 
BRANCH  15  16
ATOM     16  C   UNL     1      -5.008 -23.833 -13.446  1.00  0.00     0.000 C 
BRANCH  16  17
ATOM     17  C   UNL     1      -5.962 -22.860 -12.731  1.00  0.00    -0.000 C 
BRANCH  17  18
ATOM     18  C   UNL     1      -7.398 -22.917 -13.283  1.00  0.00    -0.000 C 
BRANCH  18  19
ATOM     19  C   UNL     1      -7.966 -21.569 -13.763  1.00  0.00    -0.003 C 
ATOM     20  C   UNL     1      -6.882 -20.577 -14.186  1.00  0.00     0.004 C 
ENDBRANCH  18  19
ENDBRANCH  17  18
ENDBRANCH  16  17
ENDBRANCH  15  16
ENDBRANCH  14  15
ENDBRANCH  13  14
ENDBRANCH   2  13
TORSDOF 15
ENDMDL
MODEL 6
REMARK VINA RESULT:    -4.789      3.721      6.727
REMARK INTER + INTRA:         -11.479
REMARK INTER:                  -8.685
REMARK INTRA:                  -2.794
REMARK UNBOUND:                -2.490
REMARK SMILES CCCCCCCCC=CCCCCCCCC(=O)[O-]
REMARK SMILES IDX 10 1 9 2 11 3 12 4 13 5 14 6 15 7 16 8 17 9 18 10 19 11
REMARK SMILES IDX 20 12 8 13 7 14 6 15 5 16 4 17 3 18 2 19 1 20
REMARK H PARENT
REMARK Flexibility Score: inf
ROOT
ATOM      1  C   UNL     1      -5.728 -24.931 -18.070  1.00  0.00    -0.031 C 
ATOM      2  C   UNL     1      -6.439 -25.028 -19.203  1.00  0.00    -0.031 C 
ENDROOT
BRANCH   1   3
ATOM      3  C   UNL     1      -5.978 -25.873 -16.925  1.00  0.00     0.027 C 
BRANCH   3   4
ATOM      4  C   UNL     1      -5.576 -25.239 -15.587  1.00  0.00     0.004 C 
BRANCH   4   5
ATOM      5  C   UNL     1      -4.810 -23.914 -15.754  1.00  0.00     0.000 C 
BRANCH   5   6
ATOM      6  C   UNL     1      -5.059 -22.869 -14.652  1.00  0.00     0.000 C 
BRANCH   6   7
ATOM      7  C   UNL     1      -5.597 -23.487 -13.350  1.00  0.00     0.000 C 
BRANCH   7   8
ATOM      8  C   UNL     1      -7.055 -23.085 -13.057  1.00  0.00     0.006 C 
BRANCH   8   9
ATOM      9  C   UNL     1      -7.448 -21.696 -13.586  1.00  0.00     0.053 C 
BRANCH   9  10
ATOM     10  C   UNL     1      -8.870 -21.352 -13.266  1.00  0.00     0.041 C 
ATOM     11  O   UNL     1      -9.392 -21.752 -12.192  1.00  0.00    -0.550 OA
ATOM     12  O   UNL     1      -9.629 -20.621 -14.170  1.00  0.00    -0.550 OA
ENDBRANCH   9  10
ENDBRANCH   8   9
ENDBRANCH   7   8
ENDBRANCH   6   7
ENDBRANCH   5   6
ENDBRANCH   4   5
ENDBRANCH   3   4
ENDBRANCH   1   3
BRANCH   2  13
ATOM     13  C   UNL     1      -6.212 -24.093 -20.361  1.00  0.00     0.027 C 
BRANCH  13  14
ATOM     14  C   UNL     1      -7.433 -23.203 -20.652  1.00  0.00     0.004 C 
BRANCH  14  15
ATOM     15  C   UNL     1      -8.553 -23.283 -19.594  1.00  0.00     0.000 C 
BRANCH  15  16
ATOM     16  C   UNL     1      -8.728 -22.025 -18.723  1.00  0.00     0.000 C 
BRANCH  16  17
ATOM     17  C   UNL     1      -8.021 -22.138 -17.361  1.00  0.00    -0.000 C 
BRANCH  17  18
ATOM     18  C   UNL     1      -6.942 -21.059 -17.156  1.00  0.00    -0.000 C 
BRANCH  18  19
ATOM     19  C   UNL     1      -6.248 -20.577 -18.444  1.00  0.00    -0.003 C 
ATOM     20  C   UNL     1      -4.842 -21.151 -18.618  1.00  0.00     0.004 C 
ENDBRANCH  18  19
ENDBRANCH  17  18
ENDBRANCH  16  17
ENDBRANCH  15  16
ENDBRANCH  14  15
ENDBRANCH  13  14
ENDBRANCH   2  13
TORSDOF 15
ENDMDL
MODEL 7
REMARK VINA RESULT:    -4.783      2.825      4.822
REMARK INTER + INTRA:         -11.468
REMARK INTER:                  -9.047
REMARK INTRA:                  -2.420
REMARK UNBOUND:                -2.490
REMARK SMILES CCCCCCCCC=CCCCCCCCC(=O)[O-]
REMARK SMILES IDX 10 1 9 2 11 3 12 4 13 5 14 6 15 7 16 8 17 9 18 10 19 11
REMARK SMILES IDX 20 12 8 13 7 14 6 15 5 16 4 17 3 18 2 19 1 20
REMARK H PARENT
REMARK Flexibility Score: inf
ROOT
ATOM      1  C   UNL     1      -5.875 -24.632 -18.348  1.00  0.00    -0.031 C 
ATOM      2  C   UNL     1      -5.805 -25.343 -17.214  1.00  0.00    -0.031 C 
ENDROOT
BRANCH   1   3
ATOM      3  C   UNL     1      -6.536 -25.203 -19.572  1.00  0.00     0.027 C 
BRANCH   3   4
ATOM      4  C   UNL     1      -5.682 -24.967 -20.825  1.00  0.00     0.004 C 
BRANCH   4   5
ATOM      5  C   UNL     1      -6.156 -23.763 -21.659  1.00  0.00     0.000 C 
BRANCH   5   6
ATOM      6  C   UNL     1      -5.282 -22.500 -21.544  1.00  0.00     0.000 C 
BRANCH   6   7
ATOM      7  C   UNL     1      -3.906 -22.780 -20.916  1.00  0.00     0.000 C 
BRANCH   7   8
ATOM      8  C   UNL     1      -3.641 -21.929 -19.659  1.00  0.00     0.006 C 
BRANCH   8   9
ATOM      9  C   UNL     1      -2.698 -20.737 -19.887  1.00  0.00     0.053 C 
BRANCH   9  10
ATOM     10  C   UNL     1      -1.284 -21.056 -19.510  1.00  0.00     0.041 C 
ATOM     11  O   UNL     1      -0.339 -20.765 -20.289  1.00  0.00    -0.550 OA
ATOM     12  O   UNL     1      -1.015 -21.707 -18.313  1.00  0.00    -0.550 OA
ENDBRANCH   9  10
ENDBRANCH   8   9
ENDBRANCH   7   8
ENDBRANCH   6   7
ENDBRANCH   5   6
ENDBRANCH   4   5
ENDBRANCH   3   4
ENDBRANCH   1   3
BRANCH   2  13
ATOM     13  C   UNL     1      -5.143 -24.796 -15.977  1.00  0.00     0.027 C 
BRANCH  13  14
ATOM     14  C   UNL     1      -6.113 -23.998 -15.089  1.00  0.00     0.004 C 
BRANCH  14  15
ATOM     15  C   UNL     1      -6.110 -22.476 -15.341  1.00  0.00     0.000 C 
BRANCH  15  16
ATOM     16  C   UNL     1      -7.470 -21.777 -15.165  1.00  0.00     0.000 C 
BRANCH  16  17
ATOM     17  C   UNL     1      -8.012 -21.184 -16.478  1.00  0.00    -0.000 C 
BRANCH  17  18
ATOM     18  C   UNL     1      -7.046 -21.369 -17.662  1.00  0.00    -0.000 C 
BRANCH  18  19
ATOM     19  C   UNL     1      -7.722 -21.536 -19.035  1.00  0.00    -0.003 C 
ATOM     20  C   UNL     1      -8.890 -22.522 -19.014  1.00  0.00     0.004 C 
ENDBRANCH  18  19
ENDBRANCH  17  18
ENDBRANCH  16  17
ENDBRANCH  15  16
ENDBRANCH  14  15
ENDBRANCH  13  14
ENDBRANCH   2  13
TORSDOF 15
ENDMDL
MODEL 8
REMARK VINA RESULT:    -4.734      2.108      3.809
REMARK INTER + INTRA:         -11.375
REMARK INTER:                  -8.977
REMARK INTRA:                  -2.398
REMARK UNBOUND:                -2.490
REMARK SMILES CCCCCCCCC=CCCCCCCCC(=O)[O-]
REMARK SMILES IDX 10 1 9 2 11 3 12 4 13 5 14 6 15 7 16 8 17 9 18 10 19 11
REMARK SMILES IDX 20 12 8 13 7 14 6 15 5 16 4 17 3 18 2 19 1 20
REMARK H PARENT
REMARK Flexibility Score: inf
ROOT
ATOM      1  C   UNL     1      -7.915 -22.571 -17.977  1.00  0.00    -0.031 C 
ATOM      2  C   UNL     1      -8.008 -21.455 -17.240  1.00  0.00    -0.031 C 
ENDROOT
BRANCH   1   3
ATOM      3  C   UNL     1      -8.746 -22.741 -19.219  1.00  0.00     0.027 C 
BRANCH   3   4
ATOM      4  C   UNL     1      -8.053 -23.667 -20.228  1.00  0.00     0.004 C 
BRANCH   4   5
ATOM      5  C   UNL     1      -6.969 -24.552 -19.587  1.00  0.00     0.000 C 
BRANCH   5   6
ATOM      6  C   UNL     1      -5.843 -25.000 -20.536  1.00  0.00     0.000 C 
BRANCH   6   7
ATOM      7  C   UNL     1      -4.874 -23.860 -20.896  1.00  0.00     0.000 C 
BRANCH   7   8
ATOM      8  C   UNL     1      -4.487 -23.001 -19.677  1.00  0.00     0.006 C 
BRANCH   8   9
ATOM      9  C   UNL     1      -4.108 -21.551 -20.018  1.00  0.00     0.053 C 
BRANCH   9  10
ATOM     10  C   UNL     1      -5.235 -20.599 -19.763  1.00  0.00     0.041 C 
ATOM     11  O   UNL     1      -5.216 -19.849 -18.752  1.00  0.00    -0.550 OA
ATOM     12  O   UNL     1      -6.325 -20.567 -20.623  1.00  0.00    -0.550 OA
ENDBRANCH   9  10
ENDBRANCH   8   9
ENDBRANCH   7   8
ENDBRANCH   6   7
ENDBRANCH   5   6
ENDBRANCH   4   5
ENDBRANCH   3   4
ENDBRANCH   1   3
BRANCH   2  13
ATOM     13  C   UNL     1      -7.191 -21.265 -15.989  1.00  0.00     0.027 C 
BRANCH  13  14
ATOM     14  C   UNL     1      -8.052 -20.901 -14.768  1.00  0.00     0.004 C 
BRANCH  14  15
ATOM     15  C   UNL     1      -7.946 -21.892 -13.590  1.00  0.00     0.000 C 
BRANCH  15  16
ATOM     16  C   UNL     1      -6.596 -22.621 -13.464  1.00  0.00     0.000 C 
BRANCH  16  17
ATOM     17  C   UNL     1      -6.660 -24.086 -13.932  1.00  0.00    -0.000 C 
BRANCH  17  18
ATOM     18  C   UNL     1      -5.367 -24.550 -14.625  1.00  0.00    -0.000 C 
BRANCH  18  19
ATOM     19  C   UNL     1      -5.493 -24.809 -16.137  1.00  0.00    -0.003 C 
ATOM     20  C   UNL     1      -5.774 -26.273 -16.474  1.00  0.00     0.004 C 
ENDBRANCH  18  19
ENDBRANCH  17  18
ENDBRANCH  16  17
ENDBRANCH  15  16
ENDBRANCH  14  15
ENDBRANCH  13  14
ENDBRANCH   2  13
TORSDOF 15
ENDMDL
MODEL 9
REMARK VINA RESULT:    -4.712      3.653      6.172
REMARK INTER + INTRA:         -11.334
REMARK INTER:                  -8.740
REMARK INTRA:                  -2.594
REMARK UNBOUND:                -2.490
REMARK SMILES CCCCCCCCC=CCCCCCCCC(=O)[O-]
REMARK SMILES IDX 10 1 9 2 11 3 12 4 13 5 14 6 15 7 16 8 17 9 18 10 19 11
REMARK SMILES IDX 20 12 8 13 7 14 6 15 5 16 4 17 3 18 2 19 1 20
REMARK H PARENT
REMARK Flexibility Score: inf
ROOT
ATOM      1  C   UNL     1      -7.475 -23.595 -20.314  1.00  0.00    -0.031 C 
ATOM      2  C   UNL     1      -6.550 -24.501 -19.966  1.00  0.00    -0.031 C 
ENDROOT
BRANCH   1   3
ATOM      3  C   UNL     1      -8.376 -22.982 -19.278  1.00  0.00     0.027 C 
BRANCH   3   4
ATOM      4  C   UNL     1      -7.919 -21.562 -18.915  1.00  0.00     0.004 C 
BRANCH   4   5
ATOM      5  C   UNL     1      -6.877 -21.536 -17.782  1.00  0.00     0.000 C 
BRANCH   5   6
ATOM      6  C   UNL     1      -7.203 -22.429 -16.571  1.00  0.00     0.000 C 
BRANCH   6   7
ATOM      7  C   UNL     1      -6.148 -23.522 -16.331  1.00  0.00     0.000 C 
BRANCH   7   8
ATOM      8  C   UNL     1      -4.758 -23.137 -16.871  1.00  0.00     0.006 C 
BRANCH   8   9
ATOM      9  C   UNL     1      -3.747 -22.727 -15.786  1.00  0.00     0.053 C 
BRANCH   9  10
ATOM     10  C   UNL     1      -4.172 -21.488 -15.060  1.00  0.00     0.041 C 
ATOM     11  O   UNL     1      -4.693 -21.570 -13.917  1.00  0.00    -0.550 OA
ATOM     12  O   UNL     1      -4.024 -20.245 -15.662  1.00  0.00    -0.550 OA
ENDBRANCH   9  10
ENDBRANCH   8   9
ENDBRANCH   7   8
ENDBRANCH   6   7
ENDBRANCH   5   6
ENDBRANCH   4   5
ENDBRANCH   3   4
ENDBRANCH   1   3
BRANCH   2  13
ATOM     13  C   UNL     1      -5.640 -25.133 -20.985  1.00  0.00     0.027 C 
BRANCH  13  14
ATOM     14  C   UNL     1      -4.610 -24.143 -21.556  1.00  0.00     0.004 C 
BRANCH  14  15
ATOM     15  C   UNL     1      -3.934 -23.242 -20.502  1.00  0.00     0.000 C 
BRANCH  15  16
ATOM     16  C   UNL     1      -4.162 -21.730 -20.685  1.00  0.00     0.000 C 
BRANCH  16  17
ATOM     17  C   UNL     1      -3.573 -20.893 -19.537  1.00  0.00    -0.000 C 
BRANCH  17  18
ATOM     18  C   UNL     1      -2.270 -20.173 -19.928  1.00  0.00    -0.000 C 
BRANCH  18  19
ATOM     19  C   UNL     1      -0.981 -20.982 -19.692  1.00  0.00    -0.003 C 
ATOM     20  C   UNL     1      -0.981 -21.735 -18.362  1.00  0.00     0.004 C 
ENDBRANCH  18  19
ENDBRANCH  17  18
ENDBRANCH  16  17
ENDBRANCH  15  16
ENDBRANCH  14  15
ENDBRANCH  13  14
ENDBRANCH   2  13
TORSDOF 15
ENDMDL
