MODEL 1
REMARK VINA RESULT:    -6.117      0.000      0.000
REMARK INTER + INTRA:          -7.676
REMARK INTER:                  -7.369
REMARK INTRA:                  -0.307
REMARK UNBOUND:                -0.307
REMARK SMILES O=c1c(O)c(-c2ccc(O)c(O)c2)oc2cc(O)cc(O)c12
REMARK SMILES IDX 5 1 3 2 2 3 1 4 22 5 20 6 19 7 17 8 16 9 15 10 14 11 6 12
REMARK SMILES IDX 7 13 8 14 9 15 13 16 11 17 10 18 12 20 4 22 21 24 18 26
REMARK H PARENT 10 19 12 21 4 23 21 25 18 27
REMARK Flexibility Score: inf
ROOT
ATOM      1  C   UNL     1     -22.873  16.185  -1.538  1.00  0.00     0.180 A 
ATOM      2  C   UNL     1     -23.132  15.856  -2.883  1.00  0.00     0.208 A 
ATOM      3  C   UNL     1     -22.459  14.764  -3.455  1.00  0.00     0.238 A 
ATOM      4  O   UNL     1     -22.690  14.452  -4.654  1.00  0.00    -0.285 OA
ATOM      5  C   UNL     1     -21.528  14.037  -2.684  1.00  0.00     0.111 A 
ATOM      6  C   UNL     1     -20.806  12.927  -3.186  1.00  0.00     0.134 A 
ATOM      7  C   UNL     1     -19.891  12.261  -2.358  1.00  0.00     0.093 A 
ATOM      8  C   UNL     1     -19.683  12.681  -1.042  1.00  0.00     0.123 A 
ATOM      9  C   UNL     1     -20.395  13.776  -0.540  1.00  0.00     0.094 A 
ATOM     10  C   UNL     1     -21.313  14.452  -1.349  1.00  0.00     0.146 A 
ATOM     11  O   UNL     1     -21.979  15.485  -0.846  1.00  0.00    -0.452 OA
ENDROOT
BRANCH   1  12
ATOM     12  C   UNL     1     -23.556  17.309  -0.859  1.00  0.00     0.025 A 
ATOM     13  C   UNL     1     -24.663  17.094  -0.020  1.00  0.00     0.016 A 
ATOM     14  C   UNL     1     -25.276  18.168   0.630  1.00  0.00     0.051 A 
ATOM     15  C   UNL     1     -24.788  19.468   0.465  1.00  0.00     0.157 A 
ATOM     16  C   UNL     1     -23.055  18.613  -1.006  1.00  0.00     0.062 A 
ATOM     17  C   UNL     1     -23.670  19.693  -0.355  1.00  0.00     0.158 A 
BRANCH  15  18
ATOM     18  O   UNL     1     -25.422  20.520   1.124  1.00  0.00    -0.504 OA
ATOM     19  H   UNL     1     -24.927  21.131   1.763  1.00  0.00     0.293 HD
ENDBRANCH  15  18
BRANCH  17  20
ATOM     20  O   UNL     1     -23.173  20.984  -0.520  1.00  0.00    -0.504 OA
ATOM     21  H   UNL     1     -22.934  21.567   0.275  1.00  0.00     0.293 HD
ENDBRANCH  17  20
ENDBRANCH   1  12
BRANCH   2  22
ATOM     22  O   UNL     1     -24.021  16.622  -3.640  1.00  0.00    -0.502 OA
ATOM     23  H   UNL     1     -24.505  17.425  -3.259  1.00  0.00     0.293 HD
ENDBRANCH   2  22
BRANCH   6  24
ATOM     24  O   UNL     1     -20.990  12.484  -4.496  1.00  0.00    -0.507 OA
ATOM     25  H   UNL     1     -21.720  11.823  -4.739  1.00  0.00     0.293 HD
ENDBRANCH   6  24
BRANCH   8  26
ATOM     26  O   UNL     1     -18.767  12.002  -0.241  1.00  0.00    -0.508 OA
ATOM     27  H   UNL     1     -18.901  11.916   0.761  1.00  0.00     0.293 HD
ENDBRANCH   8  26
TORSDOF 6
ENDMDL
MODEL 2
REMARK VINA RESULT:    -6.052      1.681      6.873
REMARK INTER + INTRA:          -7.597
REMARK INTER:                  -7.276
REMARK INTRA:                  -0.321
REMARK UNBOUND:                -0.307
REMARK SMILES O=c1c(O)c(-c2ccc(O)c(O)c2)oc2cc(O)cc(O)c12
REMARK SMILES IDX 5 1 3 2 2 3 1 4 22 5 20 6 19 7 17 8 16 9 15 10 14 11 6 12
REMARK SMILES IDX 7 13 8 14 9 15 13 16 11 17 10 18 12 20 4 22 21 24 18 26
REMARK H PARENT 10 19 12 21 4 23 21 25 18 27
REMARK Flexibility Score: inf
ROOT
ATOM      1  C   UNL     1     -23.008  16.239  -1.485  1.00  0.00     0.180 A 
ATOM      2  C   UNL     1     -24.294  16.336  -0.918  1.00  0.00     0.208 A 
ATOM      3  C   UNL     1     -24.690  17.553  -0.341  1.00  0.00     0.238 A 
ATOM      4  O   UNL     1     -25.842  17.656   0.159  1.00  0.00    -0.285 OA
ATOM      5  C   UNL     1     -23.792  18.640  -0.321  1.00  0.00     0.111 A 
ATOM      6  C   UNL     1     -24.113  19.899   0.244  1.00  0.00     0.134 A 
ATOM      7  C   UNL     1     -23.160  20.928   0.234  1.00  0.00     0.093 A 
ATOM      8  C   UNL     1     -21.898  20.726  -0.330  1.00  0.00     0.123 A 
ATOM      9  C   UNL     1     -21.576  19.486  -0.891  1.00  0.00     0.094 A 
ATOM     10  C   UNL     1     -22.512  18.448  -0.891  1.00  0.00     0.146 A 
ATOM     11  O   UNL     1     -22.183  17.281  -1.435  1.00  0.00    -0.452 OA
ENDROOT
BRANCH   1  12
ATOM     12  C   UNL     1     -22.524  14.997  -2.129  1.00  0.00     0.025 A 
ATOM     13  C   UNL     1     -21.929  13.968  -1.379  1.00  0.00     0.016 A 
ATOM     14  C   UNL     1     -21.503  12.793  -2.005  1.00  0.00     0.051 A 
ATOM     15  C   UNL     1     -21.676  12.622  -3.381  1.00  0.00     0.157 A 
ATOM     16  C   UNL     1     -22.717  14.812  -3.508  1.00  0.00     0.062 A 
ATOM     17  C   UNL     1     -22.289  13.635  -4.138  1.00  0.00     0.158 A 
BRANCH  15  18
ATOM     18  O   UNL     1     -21.240  11.440  -3.978  1.00  0.00    -0.504 OA
ATOM     19  H   UNL     1     -21.335  10.540  -3.525  1.00  0.00     0.293 HD
ENDBRANCH  15  18
BRANCH  17  20
ATOM     20  O   UNL     1     -22.472  13.468  -5.509  1.00  0.00    -0.504 OA
ATOM     21  H   UNL     1     -21.739  13.686  -6.174  1.00  0.00     0.293 HD
ENDBRANCH  17  20
ENDBRANCH   1  12
BRANCH   2  22
ATOM     22  O   UNL     1     -25.146  15.230  -0.908  1.00  0.00    -0.502 OA
ATOM     23  H   UNL     1     -25.933  15.144  -1.539  1.00  0.00     0.293 HD
ENDBRANCH   2  22
BRANCH   6  24
ATOM     24  O   UNL     1     -25.364  20.132   0.815  1.00  0.00    -0.507 OA
ATOM     25  H   UNL     1     -25.817  21.037   0.757  1.00  0.00     0.293 HD
ENDBRANCH   6  24
BRANCH   8  26
ATOM     26  O   UNL     1     -20.970  21.766  -0.327  1.00  0.00    -0.508 OA
ATOM     27  H   UNL     1     -20.024  21.631   0.011  1.00  0.00     0.293 HD
ENDBRANCH   8  26
TORSDOF 6
ENDMDL
MODEL 3
REMARK VINA RESULT:    -5.963      2.454      3.640
REMARK INTER + INTRA:          -7.490
REMARK INTER:                  -7.222
REMARK INTRA:                  -0.268
REMARK UNBOUND:                -0.307
REMARK SMILES O=c1c(O)c(-c2ccc(O)c(O)c2)oc2cc(O)cc(O)c12
REMARK SMILES IDX 5 1 3 2 2 3 1 4 22 5 20 6 19 7 17 8 16 9 15 10 14 11 6 12
REMARK SMILES IDX 7 13 8 14 9 15 13 16 11 17 10 18 12 20 4 22 21 24 18 26
REMARK H PARENT 10 19 12 21 4 23 21 25 18 27
REMARK Flexibility Score: inf
ROOT
ATOM      1  C   UNL     1     -22.916  16.374  -1.317  1.00  0.00     0.180 A 
ATOM      2  C   UNL     1     -24.245  16.137  -0.913  1.00  0.00     0.208 A 
ATOM      3  C   UNL     1     -24.901  14.988  -1.383  1.00  0.00     0.238 A 
ATOM      4  O   UNL     1     -26.086  14.759  -1.020  1.00  0.00    -0.285 OA
ATOM      5  C   UNL     1     -24.230  14.112  -2.261  1.00  0.00     0.111 A 
ATOM      6  C   UNL     1     -24.822  12.936  -2.783  1.00  0.00     0.134 A 
ATOM      7  C   UNL     1     -24.091  12.120  -3.659  1.00  0.00     0.093 A 
ATOM      8  C   UNL     1     -22.784  12.455  -4.022  1.00  0.00     0.123 A 
ATOM      9  C   UNL     1     -22.194  13.615  -3.509  1.00  0.00     0.094 A 
ATOM     10  C   UNL     1     -22.906  14.440  -2.634  1.00  0.00     0.146 A 
ATOM     11  O   UNL     1     -22.320  15.533  -2.157  1.00  0.00    -0.452 OA
ENDROOT
BRANCH   1  12
ATOM     12  C   UNL     1     -22.152  17.553  -0.849  1.00  0.00     0.025 A 
ATOM     13  C   UNL     1     -21.131  17.430   0.109  1.00  0.00     0.016 A 
ATOM     14  C   UNL     1     -20.406  18.552   0.517  1.00  0.00     0.051 A 
ATOM     15  C   UNL     1     -20.677  19.808  -0.033  1.00  0.00     0.157 A 
ATOM     16  C   UNL     1     -22.408  18.812  -1.416  1.00  0.00     0.062 A 
ATOM     17  C   UNL     1     -21.682  19.940  -1.007  1.00  0.00     0.158 A 
BRANCH  15  18
ATOM     18  O   UNL     1     -19.939  20.911   0.395  1.00  0.00    -0.504 OA
ATOM     19  H   UNL     1     -19.664  21.653  -0.237  1.00  0.00     0.293 HD
ENDBRANCH  15  18
BRANCH  17  20
ATOM     20  O   UNL     1     -21.954  21.188  -1.565  1.00  0.00    -0.504 OA
ATOM     21  H   UNL     1     -21.539  21.479  -2.443  1.00  0.00     0.293 HD
ENDBRANCH  17  20
ENDBRANCH   1  12
BRANCH   2  22
ATOM     22  O   UNL     1     -24.904  17.046  -0.082  1.00  0.00    -0.502 OA
ATOM     23  H   UNL     1     -25.254  16.790   0.833  1.00  0.00     0.293 HD
ENDBRANCH   2  22
BRANCH   6  24
ATOM     24  O   UNL     1     -26.125  12.574  -2.439  1.00  0.00    -0.507 OA
ATOM     25  H   UNL     1     -26.339  11.666  -2.042  1.00  0.00     0.293 HD
ENDBRANCH   6  24
BRANCH   8  26
ATOM     26  O   UNL     1     -22.080  11.627  -4.895  1.00  0.00    -0.508 OA
ATOM     27  H   UNL     1     -21.067  11.596  -4.894  1.00  0.00     0.293 HD
ENDBRANCH   8  26
TORSDOF 6
ENDMDL
MODEL 4
REMARK VINA RESULT:    -5.943      2.392      3.218
REMARK INTER + INTRA:          -7.466
REMARK INTER:                  -7.735
REMARK INTRA:                   0.269
REMARK UNBOUND:                -0.307
REMARK SMILES O=c1c(O)c(-c2ccc(O)c(O)c2)oc2cc(O)cc(O)c12
REMARK SMILES IDX 5 1 3 2 2 3 1 4 22 5 20 6 19 7 17 8 16 9 15 10 14 11 6 12
REMARK SMILES IDX 7 13 8 14 9 15 13 16 11 17 10 18 12 20 4 22 21 24 18 26
REMARK H PARENT 10 19 12 21 4 23 21 25 18 27
REMARK Flexibility Score: inf
ROOT
ATOM      1  C   UNL     1     -23.565  16.508  -1.441  1.00  0.00     0.180 A 
ATOM      2  C   UNL     1     -24.459  15.540  -0.942  1.00  0.00     0.208 A 
ATOM      3  C   UNL     1     -24.514  14.282  -1.564  1.00  0.00     0.238 A 
ATOM      4  O   UNL     1     -25.301  13.404  -1.120  1.00  0.00    -0.285 OA
ATOM      5  C   UNL     1     -23.694  14.022  -2.683  1.00  0.00     0.111 A 
ATOM      6  C   UNL     1     -23.693  12.783  -3.369  1.00  0.00     0.134 A 
ATOM      7  C   UNL     1     -22.855  12.605  -4.479  1.00  0.00     0.093 A 
ATOM      8  C   UNL     1     -22.021  13.637  -4.916  1.00  0.00     0.123 A 
ATOM      9  C   UNL     1     -22.017  14.862  -4.242  1.00  0.00     0.094 A 
ATOM     10  C   UNL     1     -22.844  15.059  -3.132  1.00  0.00     0.146 A 
ATOM     11  O   UNL     1     -22.818  16.231  -2.507  1.00  0.00    -0.452 OA
ENDROOT
BRANCH   1  12
ATOM     12  C   UNL     1     -23.436  17.849  -0.828  1.00  0.00     0.025 A 
ATOM     13  C   UNL     1     -22.213  18.541  -0.831  1.00  0.00     0.016 A 
ATOM     14  C   UNL     1     -22.121  19.816  -0.268  1.00  0.00     0.051 A 
ATOM     15  C   UNL     1     -23.248  20.425   0.292  1.00  0.00     0.157 A 
ATOM     16  C   UNL     1     -24.571  18.472  -0.283  1.00  0.00     0.062 A 
ATOM     17  C   UNL     1     -24.481  19.751   0.283  1.00  0.00     0.158 A 
BRANCH  15  18
ATOM     18  O   UNL     1     -23.126  21.698   0.849  1.00  0.00    -0.504 OA
ATOM     19  H   UNL     1     -22.254  22.034   1.238  1.00  0.00     0.293 HD
ENDBRANCH  15  18
BRANCH  17  20
ATOM     20  O   UNL     1     -25.610  20.355   0.834  1.00  0.00    -0.504 OA
ATOM     21  H   UNL     1     -26.495  20.377   0.340  1.00  0.00     0.293 HD
ENDBRANCH  17  20
ENDBRANCH   1  12
BRANCH   2  22
ATOM     22  O   UNL     1     -25.295  15.839   0.136  1.00  0.00    -0.502 OA
ATOM     23  H   UNL     1     -26.023  16.541   0.080  1.00  0.00     0.293 HD
ENDBRANCH   2  22
BRANCH   6  24
ATOM     24  O   UNL     1     -24.514  11.733  -2.958  1.00  0.00    -0.507 OA
ATOM     25  H   UNL     1     -24.698  10.934  -3.554  1.00  0.00     0.293 HD
ENDBRANCH   6  24
BRANCH   8  26
ATOM     26  O   UNL     1     -21.198  13.434  -6.023  1.00  0.00    -0.508 OA
ATOM     27  H   UNL     1     -20.720  14.204  -6.476  1.00  0.00     0.293 HD
ENDBRANCH   8  26
TORSDOF 6
ENDMDL
MODEL 5
REMARK VINA RESULT:    -5.646      1.138      2.822
REMARK INTER + INTRA:          -7.109
REMARK INTER:                  -6.802
REMARK INTRA:                  -0.307
REMARK UNBOUND:                -0.307
REMARK SMILES O=c1c(O)c(-c2ccc(O)c(O)c2)oc2cc(O)cc(O)c12
REMARK SMILES IDX 5 1 3 2 2 3 1 4 22 5 20 6 19 7 17 8 16 9 15 10 14 11 6 12
REMARK SMILES IDX 7 13 8 14 9 15 13 16 11 17 10 18 12 20 4 22 21 24 18 26
REMARK H PARENT 10 19 12 21 4 23 21 25 18 27
REMARK Flexibility Score: inf
ROOT
ATOM      1  C   UNL     1     -22.353  16.161  -0.815  1.00  0.00     0.180 A 
ATOM      2  C   UNL     1     -21.233  15.736  -0.074  1.00  0.00     0.208 A 
ATOM      3  C   UNL     1     -20.480  14.649  -0.547  1.00  0.00     0.238 A 
ATOM      4  O   UNL     1     -19.469  14.266   0.101  1.00  0.00    -0.285 OA
ATOM      5  C   UNL     1     -20.869  13.996  -1.735  1.00  0.00     0.111 A 
ATOM      6  C   UNL     1     -20.168  12.891  -2.277  1.00  0.00     0.134 A 
ATOM      7  C   UNL     1     -20.624  12.290  -3.458  1.00  0.00     0.093 A 
ATOM      8  C   UNL     1     -21.764  12.768  -4.108  1.00  0.00     0.123 A 
ATOM      9  C   UNL     1     -22.461  13.860  -3.578  1.00  0.00     0.094 A 
ATOM     10  C   UNL     1     -22.021  14.474  -2.402  1.00  0.00     0.146 A 
ATOM     11  O   UNL     1     -22.698  15.512  -1.923  1.00  0.00    -0.452 OA
ENDROOT
BRANCH   1  12
ATOM     12  C   UNL     1     -23.184  17.310  -0.392  1.00  0.00     0.025 A 
ATOM     13  C   UNL     1     -24.365  17.126   0.348  1.00  0.00     0.016 A 
ATOM     14  C   UNL     1     -25.121  18.228   0.759  1.00  0.00     0.051 A 
ATOM     15  C   UNL     1     -24.705  19.526   0.450  1.00  0.00     0.157 A 
ATOM     16  C   UNL     1     -22.758  18.617  -0.682  1.00  0.00     0.062 A 
ATOM     17  C   UNL     1     -23.515  19.724  -0.272  1.00  0.00     0.158 A 
BRANCH  15  18
ATOM     18  O   UNL     1     -25.480  20.606   0.871  1.00  0.00    -0.504 OA
ATOM     19  H   UNL     1     -26.410  20.484   1.254  1.00  0.00     0.293 HD
ENDBRANCH  15  18
BRANCH  17  20
ATOM     20  O   UNL     1     -23.090  21.015  -0.577  1.00  0.00    -0.504 OA
ATOM     21  H   UNL     1     -23.031  21.343  -1.535  1.00  0.00     0.293 HD
ENDBRANCH  17  20
ENDBRANCH   1  12
BRANCH   2  22
ATOM     22  O   UNL     1     -20.897  16.369   1.125  1.00  0.00    -0.502 OA
ATOM     23  H   UNL     1     -21.218  17.301   1.355  1.00  0.00     0.293 HD
ENDBRANCH   2  22
BRANCH   6  24
ATOM     24  O   UNL     1     -19.026  12.389  -1.652  1.00  0.00    -0.507 OA
ATOM     25  H   UNL     1     -19.045  12.053  -0.696  1.00  0.00     0.293 HD
ENDBRANCH   6  24
BRANCH   8  26
ATOM     26  O   UNL     1     -22.197  12.152  -5.281  1.00  0.00    -0.508 OA
ATOM     27  H   UNL     1     -22.912  11.434  -5.269  1.00  0.00     0.293 HD
ENDBRANCH   8  26
TORSDOF 6
ENDMDL
MODEL 6
REMARK VINA RESULT:    -5.498      2.204      2.551
REMARK INTER + INTRA:          -6.930
REMARK INTER:                  -6.736
REMARK INTRA:                  -0.194
REMARK UNBOUND:                -0.307
REMARK SMILES O=c1c(O)c(-c2ccc(O)c(O)c2)oc2cc(O)cc(O)c12
REMARK SMILES IDX 5 1 3 2 2 3 1 4 22 5 20 6 19 7 17 8 16 9 15 10 14 11 6 12
REMARK SMILES IDX 7 13 8 14 9 15 13 16 11 17 10 18 12 20 4 22 21 24 18 26
REMARK H PARENT 10 19 12 21 4 23 21 25 18 27
REMARK Flexibility Score: inf
ROOT
ATOM      1  C   UNL     1     -23.145  16.715  -1.798  1.00  0.00     0.180 A 
ATOM      2  C   UNL     1     -22.848  16.660  -3.175  1.00  0.00     0.208 A 
ATOM      3  C   UNL     1     -22.869  15.415  -3.824  1.00  0.00     0.238 A 
ATOM      4  O   UNL     1     -22.616  15.354  -5.057  1.00  0.00    -0.285 OA
ATOM      5  C   UNL     1     -23.165  14.249  -3.086  1.00  0.00     0.111 A 
ATOM      6  C   UNL     1     -23.203  12.957  -3.664  1.00  0.00     0.134 A 
ATOM      7  C   UNL     1     -23.496  11.845  -2.862  1.00  0.00     0.093 A 
ATOM      8  C   UNL     1     -23.751  11.998  -1.497  1.00  0.00     0.123 A 
ATOM      9  C   UNL     1     -23.716  13.273  -0.921  1.00  0.00     0.094 A 
ATOM     10  C   UNL     1     -23.428  14.394  -1.704  1.00  0.00     0.146 A 
ATOM     11  O   UNL     1     -23.406  15.593  -1.133  1.00  0.00    -0.452 OA
ENDROOT
BRANCH   1  12
ATOM     12  C   UNL     1     -23.162  17.991  -1.048  1.00  0.00     0.025 A 
ATOM     13  C   UNL     1     -21.983  18.723  -0.824  1.00  0.00     0.016 A 
ATOM     14  C   UNL     1     -22.027  19.938  -0.135  1.00  0.00     0.051 A 
ATOM     15  C   UNL     1     -23.244  20.446   0.327  1.00  0.00     0.157 A 
ATOM     16  C   UNL     1     -24.386  18.515  -0.602  1.00  0.00     0.062 A 
ATOM     17  C   UNL     1     -24.432  19.733   0.091  1.00  0.00     0.158 A 
BRANCH  15  18
ATOM     18  O   UNL     1     -23.257  21.660   1.014  1.00  0.00    -0.504 OA
ATOM     19  H   UNL     1     -22.512  22.339   0.920  1.00  0.00     0.293 HD
ENDBRANCH  15  18
BRANCH  17  20
ATOM     20  O   UNL     1     -25.650  20.237   0.542  1.00  0.00    -0.504 OA
ATOM     21  H   UNL     1     -26.390  20.494  -0.101  1.00  0.00     0.293 HD
ENDBRANCH  17  20
ENDBRANCH   1  12
BRANCH   2  22
ATOM     22  O   UNL     1     -22.510  17.822  -3.871  1.00  0.00    -0.502 OA
ATOM     23  H   UNL     1     -23.164  18.583  -4.007  1.00  0.00     0.293 HD
ENDBRANCH   2  22
BRANCH   6  24
ATOM     24  O   UNL     1     -22.952  12.770  -5.024  1.00  0.00    -0.507 OA
ATOM     25  H   UNL     1     -22.633  13.528  -5.617  1.00  0.00     0.293 HD
ENDBRANCH   6  24
BRANCH   8  26
ATOM     26  O   UNL     1     -24.039  10.877  -0.721  1.00  0.00    -0.508 OA
ATOM     27  H   UNL     1     -23.866  10.864   0.277  1.00  0.00     0.293 HD
ENDBRANCH   8  26
TORSDOF 6
ENDMDL
MODEL 7
REMARK VINA RESULT:    -5.313      3.900      8.084
REMARK INTER + INTRA:          -6.707
REMARK INTER:                  -7.149
REMARK INTRA:                   0.443
REMARK UNBOUND:                -0.307
REMARK SMILES O=c1c(O)c(-c2ccc(O)c(O)c2)oc2cc(O)cc(O)c12
REMARK SMILES IDX 5 1 3 2 2 3 1 4 22 5 20 6 19 7 17 8 16 9 15 10 14 11 6 12
REMARK SMILES IDX 7 13 8 14 9 15 13 16 11 17 10 18 12 20 4 22 21 24 18 26
REMARK H PARENT 10 19 12 21 4 23 21 25 18 27
REMARK Flexibility Score: inf
ROOT
ATOM      1  C   UNL     1     -18.088  15.165   0.657  1.00  0.00     0.180 A 
ATOM      2  C   UNL     1     -19.305  14.456   0.655  1.00  0.00     0.208 A 
ATOM      3  C   UNL     1     -20.505  15.168   0.496  1.00  0.00     0.238 A 
ATOM      4  O   UNL     1     -21.600  14.544   0.482  1.00  0.00    -0.285 OA
ATOM      5  C   UNL     1     -20.470  16.572   0.364  1.00  0.00     0.111 A 
ATOM      6  C   UNL     1     -21.633  17.363   0.204  1.00  0.00     0.134 A 
ATOM      7  C   UNL     1     -21.515  18.756   0.088  1.00  0.00     0.093 A 
ATOM      8  C   UNL     1     -20.262  19.372   0.128  1.00  0.00     0.123 A 
ATOM      9  C   UNL     1     -19.109  18.595   0.285  1.00  0.00     0.094 A 
ATOM     10  C   UNL     1     -19.206  17.205   0.401  1.00  0.00     0.146 A 
ATOM     11  O   UNL     1     -18.095  16.490   0.544  1.00  0.00    -0.452 OA
ENDROOT
BRANCH   1  12
ATOM     12  C   UNL     1     -16.782  14.484   0.801  1.00  0.00     0.025 A 
ATOM     13  C   UNL     1     -16.681  13.082   0.781  1.00  0.00     0.016 A 
ATOM     14  C   UNL     1     -15.434  12.461   0.893  1.00  0.00     0.051 A 
ATOM     15  C   UNL     1     -14.271  13.227   1.013  1.00  0.00     0.157 A 
ATOM     16  C   UNL     1     -15.609  15.251   0.900  1.00  0.00     0.062 A 
ATOM     17  C   UNL     1     -14.357  14.629   1.013  1.00  0.00     0.158 A 
BRANCH  15  18
ATOM     18  O   UNL     1     -13.041  12.580   1.125  1.00  0.00    -0.504 OA
ATOM     19  H   UNL     1     -12.196  12.955   0.712  1.00  0.00     0.293 HD
ENDBRANCH  15  18
BRANCH  17  20
ATOM     20  O   UNL     1     -13.201  15.400   1.125  1.00  0.00    -0.504 OA
ATOM     21  H   UNL     1     -13.240  16.389   1.343  1.00  0.00     0.293 HD
ENDBRANCH  17  20
ENDBRANCH   1  12
BRANCH   2  22
ATOM     22  O   UNL     1     -19.316  13.071   0.838  1.00  0.00    -0.502 OA
ATOM     23  H   UNL     1     -20.155  12.515   0.723  1.00  0.00     0.293 HD
ENDBRANCH   2  22
BRANCH   6  24
ATOM     24  O   UNL     1     -22.899  16.779   0.160  1.00  0.00    -0.507 OA
ATOM     25  H   UNL     1     -23.024  15.774   0.177  1.00  0.00     0.293 HD
ENDBRANCH   6  24
BRANCH   8  26
ATOM     26  O   UNL     1     -20.173  20.757   0.011  1.00  0.00    -0.508 OA
ATOM     27  H   UNL     1     -20.707  21.266  -0.684  1.00  0.00     0.293 HD
ENDBRANCH   8  26
TORSDOF 6
ENDMDL
MODEL 8
REMARK VINA RESULT:    -5.288      2.829      7.427
REMARK INTER + INTRA:          -6.677
REMARK INTER:                  -6.974
REMARK INTRA:                   0.298
REMARK UNBOUND:                -0.307
REMARK SMILES O=c1c(O)c(-c2ccc(O)c(O)c2)oc2cc(O)cc(O)c12
REMARK SMILES IDX 5 1 3 2 2 3 1 4 22 5 20 6 19 7 17 8 16 9 15 10 14 11 6 12
REMARK SMILES IDX 7 13 8 14 9 15 13 16 11 17 10 18 12 20 4 22 21 24 18 26
REMARK H PARENT 10 19 12 21 4 23 21 25 18 27
REMARK Flexibility Score: inf
ROOT
ATOM      1  C   UNL     1     -20.194  16.972   0.080  1.00  0.00     0.180 A 
ATOM      2  C   UNL     1     -19.748  18.309   0.090  1.00  0.00     0.208 A 
ATOM      3  C   UNL     1     -20.697  19.339   0.185  1.00  0.00     0.238 A 
ATOM      4  O   UNL     1     -20.310  20.538   0.206  1.00  0.00    -0.285 OA
ATOM      5  C   UNL     1     -22.069  19.020   0.248  1.00  0.00     0.111 A 
ATOM      6  C   UNL     1     -23.088  19.999   0.342  1.00  0.00     0.134 A 
ATOM      7  C   UNL     1     -24.432  19.601   0.391  1.00  0.00     0.093 A 
ATOM      8  C   UNL     1     -24.777  18.248   0.348  1.00  0.00     0.123 A 
ATOM      9  C   UNL     1     -23.775  17.276   0.257  1.00  0.00     0.094 A 
ATOM     10  C   UNL     1     -22.429  17.653   0.209  1.00  0.00     0.146 A 
ATOM     11  O   UNL     1     -21.497  16.710   0.127  1.00  0.00    -0.452 OA
ENDROOT
BRANCH   1  12
ATOM     12  C   UNL     1     -19.255  15.831   0.001  1.00  0.00     0.025 A 
ATOM     13  C   UNL     1     -19.597  14.646  -0.674  1.00  0.00     0.016 A 
ATOM     14  C   UNL     1     -18.684  13.592  -0.757  1.00  0.00     0.051 A 
ATOM     15  C   UNL     1     -17.415  13.707  -0.183  1.00  0.00     0.157 A 
ATOM     16  C   UNL     1     -17.971  15.952   0.558  1.00  0.00     0.062 A 
ATOM     17  C   UNL     1     -17.054  14.894   0.477  1.00  0.00     0.158 A 
BRANCH  15  18
ATOM     18  O   UNL     1     -16.526  12.637  -0.280  1.00  0.00    -0.504 OA
ATOM     19  H   UNL     1     -16.369  11.996   0.488  1.00  0.00     0.293 HD
ENDBRANCH  15  18
BRANCH  17  20
ATOM     20  O   UNL     1     -15.788  15.020   1.045  1.00  0.00    -0.504 OA
ATOM     21  H   UNL     1     -15.485  15.883   1.483  1.00  0.00     0.293 HD
ENDBRANCH  17  20
ENDBRANCH   1  12
BRANCH   2  22
ATOM     22  O   UNL     1     -18.387  18.600  -0.023  1.00  0.00    -0.502 OA
ATOM     23  H   UNL     1     -17.669  17.988   0.344  1.00  0.00     0.293 HD
ENDBRANCH   2  22
BRANCH   6  24
ATOM     24  O   UNL     1     -22.777  21.358   0.386  1.00  0.00    -0.507 OA
ATOM     25  H   UNL     1     -23.256  22.034  -0.197  1.00  0.00     0.293 HD
ENDBRANCH   6  24
BRANCH   8  26
ATOM     26  O   UNL     1     -26.120  17.879   0.397  1.00  0.00    -0.508 OA
ATOM     27  H   UNL     1     -26.653  17.702  -0.447  1.00  0.00     0.293 HD
ENDBRANCH   8  26
TORSDOF 6
ENDMDL
MODEL 9
REMARK VINA RESULT:    -5.238      1.514      6.914
REMARK INTER + INTRA:          -6.617
REMARK INTER:                  -6.390
REMARK INTRA:                  -0.228
REMARK UNBOUND:                -0.307
REMARK SMILES O=c1c(O)c(-c2ccc(O)c(O)c2)oc2cc(O)cc(O)c12
REMARK SMILES IDX 5 1 3 2 2 3 1 4 22 5 20 6 19 7 17 8 16 9 15 10 14 11 6 12
REMARK SMILES IDX 7 13 8 14 9 15 13 16 11 17 10 18 12 20 4 22 21 24 18 26
REMARK H PARENT 10 19 12 21 4 23 21 25 18 27
REMARK Flexibility Score: inf
ROOT
ATOM      1  C   UNL     1     -22.185  15.528  -1.079  1.00  0.00     0.180 A 
ATOM      2  C   UNL     1     -23.567  15.385  -0.845  1.00  0.00     0.208 A 
ATOM      3  C   UNL     1     -24.327  16.530  -0.558  1.00  0.00     0.238 A 
ATOM      4  O   UNL     1     -25.566  16.417  -0.357  1.00  0.00    -0.285 OA
ATOM      5  C   UNL     1     -23.694  17.788  -0.488  1.00  0.00     0.111 A 
ATOM      6  C   UNL     1     -24.388  18.989  -0.200  1.00  0.00     0.134 A 
ATOM      7  C   UNL     1     -23.684  20.201  -0.139  1.00  0.00     0.093 A 
ATOM      8  C   UNL     1     -22.305  20.236  -0.360  1.00  0.00     0.123 A 
ATOM      9  C   UNL     1     -21.615  19.054  -0.647  1.00  0.00     0.094 A 
ATOM     10  C   UNL     1     -22.299  17.836  -0.713  1.00  0.00     0.146 A 
ATOM     11  O   UNL     1     -21.620  16.729  -0.991  1.00  0.00    -0.452 OA
ENDROOT
BRANCH   1  12
ATOM     12  C   UNL     1     -21.320  14.372  -1.407  1.00  0.00     0.025 A 
ATOM     13  C   UNL     1     -20.410  13.850  -0.471  1.00  0.00     0.016 A 
ATOM     14  C   UNL     1     -19.622  12.742  -0.794  1.00  0.00     0.051 A 
ATOM     15  C   UNL     1     -19.738  12.132  -2.046  1.00  0.00     0.157 A 
ATOM     16  C   UNL     1     -21.450  13.743  -2.656  1.00  0.00     0.062 A 
ATOM     17  C   UNL     1     -20.659  12.632  -2.983  1.00  0.00     0.158 A 
BRANCH  15  18
ATOM     18  O   UNL     1     -18.937  11.029  -2.342  1.00  0.00    -0.504 OA
ATOM     19  H   UNL     1     -18.144  11.092  -2.968  1.00  0.00     0.293 HD
ENDBRANCH  15  18
BRANCH  17  20
ATOM     20  O   UNL     1     -20.786  12.025  -4.231  1.00  0.00    -0.504 OA
ATOM     21  H   UNL     1     -21.268  12.481  -4.997  1.00  0.00     0.293 HD
ENDBRANCH  17  20
ENDBRANCH   1  12
BRANCH   2  22
ATOM     22  O   UNL     1     -24.161  14.122  -0.872  1.00  0.00    -0.502 OA
ATOM     23  H   UNL     1     -24.816  13.815  -0.164  1.00  0.00     0.293 HD
ENDBRANCH   2  22
BRANCH   6  24
ATOM     24  O   UNL     1     -25.765  18.987   0.027  1.00  0.00    -0.507 OA
ATOM     25  H   UNL     1     -26.286  18.124   0.133  1.00  0.00     0.293 HD
ENDBRANCH   6  24
BRANCH   8  26
ATOM     26  O   UNL     1     -21.630  21.453  -0.294  1.00  0.00    -0.508 OA
ATOM     27  H   UNL     1     -20.737  21.590  -0.753  1.00  0.00     0.293 HD
ENDBRANCH   8  26
TORSDOF 6
ENDMDL
