MODEL 1
REMARK VINA RESULT:    -3.704      0.000      0.000
REMARK INTER + INTRA:          -4.445
REMARK INTER:                  -4.353
REMARK INTRA:                  -0.091
REMARK UNBOUND:                -0.091
REMARK SMILES O=C([O-])CCC(=O)[O-]
REMARK SMILES IDX 4 1 2 2 1 3 3 4 5 5 6 6 7 7 8 8
REMARK H PARENT
REMARK Flexibility Score: inf
ROOT
ATOM      1  C   UNL     1      45.368  13.547  12.146  1.00  0.00     0.059 C 
ENDROOT
BRANCH   1   2
ATOM      2  C   UNL     1      46.360  14.475  11.514  1.00  0.00     0.042 C 
ATOM      3  O   UNL     1      46.680  15.548  12.088  1.00  0.00    -0.550 OA
ATOM      4  O   UNL     1      46.960  14.134  10.308  1.00  0.00    -0.550 OA
ENDBRANCH   1   2
BRANCH   1   5
ATOM      5  C   UNL     1      45.136  12.300  11.286  1.00  0.00     0.059 C 
BRANCH   5   6
ATOM      6  C   UNL     1      45.957  11.141  11.763  1.00  0.00     0.042 C 
ATOM      7  O   UNL     1      46.597  10.435  10.939  1.00  0.00    -0.550 OA
ATOM      8  O   UNL     1      46.048  10.866  13.121  1.00  0.00    -0.550 OA
ENDBRANCH   5   6
ENDBRANCH   1   5
TORSDOF 3
ENDMDL
MODEL 2
REMARK VINA RESULT:    -3.699      0.281      3.810
REMARK INTER + INTRA:          -4.439
REMARK INTER:                  -4.354
REMARK INTRA:                  -0.085
REMARK UNBOUND:                -0.091
REMARK SMILES O=C([O-])CCC(=O)[O-]
REMARK SMILES IDX 4 1 2 2 1 3 3 4 5 5 6 6 7 7 8 8
REMARK H PARENT
REMARK Flexibility Score: inf
ROOT
ATOM      1  C   UNL     1      45.239  12.332  11.493  1.00  0.00     0.059 C 
ENDROOT
BRANCH   1   2
ATOM      2  C   UNL     1      46.050  11.117  11.825  1.00  0.00     0.042 C 
ATOM      3  O   UNL     1      46.361  10.296  10.923  1.00  0.00    -0.550 OA
ATOM      4  O   UNL     1      46.496  10.913  13.125  1.00  0.00    -0.550 OA
ENDBRANCH   1   2
BRANCH   1   5
ATOM      5  C   UNL     1      45.619  13.522  12.379  1.00  0.00     0.059 C 
BRANCH   5   6
ATOM      6  C   UNL     1      46.420  14.538  11.624  1.00  0.00     0.042 C 
ATOM      7  O   UNL     1      46.770  14.314  10.435  1.00  0.00    -0.550 OA
ATOM      8  O   UNL     1      46.746  15.750  12.221  1.00  0.00    -0.550 OA
ENDBRANCH   5   6
ENDBRANCH   1   5
TORSDOF 3
ENDMDL
MODEL 3
REMARK VINA RESULT:    -3.198     17.182     18.598
REMARK INTER + INTRA:          -3.850
REMARK INTER:                  -3.697
REMARK INTRA:                  -0.154
REMARK UNBOUND:                -0.091
REMARK SMILES O=C([O-])CCC(=O)[O-]
REMARK SMILES IDX 4 1 2 2 1 3 3 4 5 5 6 6 7 7 8 8
REMARK H PARENT
REMARK Flexibility Score: inf
ROOT
ATOM      1  C   UNL     1      42.642  27.403   0.743  1.00  0.00     0.059 C 
ENDROOT
BRANCH   1   2
ATOM      2  C   UNL     1      43.728  27.277   1.768  1.00  0.00     0.042 C 
ATOM      3  O   UNL     1      44.146  28.296   2.378  1.00  0.00    -0.550 OA
ATOM      4  O   UNL     1      44.250  26.027   2.076  1.00  0.00    -0.550 OA
ENDBRANCH   1   2
BRANCH   1   5
ATOM      5  C   UNL     1      43.182  27.938  -0.587  1.00  0.00     0.059 C 
BRANCH   5   6
ATOM      6  C   UNL     1      44.167  26.992  -1.203  1.00  0.00     0.042 C 
ATOM      7  O   UNL     1      45.373  27.330  -1.338  1.00  0.00    -0.550 OA
ATOM      8  O   UNL     1      43.761  25.721  -1.591  1.00  0.00    -0.550 OA
ENDBRANCH   5   6
ENDBRANCH   1   5
TORSDOF 3
ENDMDL
MODEL 4
REMARK VINA RESULT:    -3.184     17.202     18.621
REMARK INTER + INTRA:          -3.834
REMARK INTER:                  -3.676
REMARK INTRA:                  -0.158
REMARK UNBOUND:                -0.091
REMARK SMILES O=C([O-])CCC(=O)[O-]
REMARK SMILES IDX 4 1 2 2 1 3 3 4 5 5 6 6 7 7 8 8
REMARK H PARENT
REMARK Flexibility Score: inf
ROOT
ATOM      1  C   UNL     1      43.107  27.906  -0.614  1.00  0.00     0.059 C 
ENDROOT
BRANCH   1   2
ATOM      2  C   UNL     1      44.104  26.973  -1.231  1.00  0.00     0.042 C 
ATOM      3  O   UNL     1      45.296  27.341  -1.403  1.00  0.00    -0.550 OA
ATOM      4  O   UNL     1      43.726  25.682  -1.578  1.00  0.00    -0.550 OA
ENDBRANCH   1   2
BRANCH   1   5
ATOM      5  C   UNL     1      42.629  27.398   0.750  1.00  0.00     0.059 C 
BRANCH   5   6
ATOM      6  C   UNL     1      43.761  27.288   1.725  1.00  0.00     0.042 C 
ATOM      7  O   UNL     1      44.238  28.321   2.263  1.00  0.00    -0.550 OA
ATOM      8  O   UNL     1      44.261  26.039   2.070  1.00  0.00    -0.550 OA
ENDBRANCH   5   6
ENDBRANCH   1   5
TORSDOF 3
ENDMDL
MODEL 5
REMARK VINA RESULT:    -3.066     19.900     21.468
REMARK INTER + INTRA:          -3.696
REMARK INTER:                  -3.668
REMARK INTRA:                  -0.028
REMARK UNBOUND:                -0.091
REMARK SMILES O=C([O-])CCC(=O)[O-]
REMARK SMILES IDX 4 1 2 2 1 3 3 4 5 5 6 6 7 7 8 8
REMARK H PARENT
REMARK Flexibility Score: inf
ROOT
ATOM      1  C   UNL     1      43.718  27.582  -3.209  1.00  0.00     0.059 C 
ENDROOT
BRANCH   1   2
ATOM      2  C   UNL     1      44.410  26.892  -2.073  1.00  0.00     0.042 C 
ATOM      3  O   UNL     1      45.585  27.214  -1.756  1.00  0.00    -0.550 OA
ATOM      4  O   UNL     1      43.739  25.922  -1.338  1.00  0.00    -0.550 OA
ENDBRANCH   1   2
BRANCH   1   5
ATOM      5  C   UNL     1      43.740  26.730  -4.482  1.00  0.00     0.059 C 
BRANCH   5   6
ATOM      6  C   UNL     1      42.977  27.381  -5.595  1.00  0.00     0.042 C 
ATOM      7  O   UNL     1      43.431  27.364  -6.770  1.00  0.00    -0.550 OA
ATOM      8  O   UNL     1      41.746  27.971  -5.341  1.00  0.00    -0.550 OA
ENDBRANCH   5   6
ENDBRANCH   1   5
TORSDOF 3
ENDMDL
MODEL 6
REMARK VINA RESULT:    -3.061     19.798     21.297
REMARK INTER + INTRA:          -3.689
REMARK INTER:                  -3.657
REMARK INTRA:                  -0.032
REMARK UNBOUND:                -0.091
REMARK SMILES O=C([O-])CCC(=O)[O-]
REMARK SMILES IDX 4 1 2 2 1 3 3 4 5 5 6 6 7 7 8 8
REMARK H PARENT
REMARK Flexibility Score: inf
ROOT
ATOM      1  C   UNL     1      43.702  26.727  -4.292  1.00  0.00     0.059 C 
ENDROOT
BRANCH   1   2
ATOM      2  C   UNL     1      42.911  27.346  -5.403  1.00  0.00     0.042 C 
ATOM      3  O   UNL     1      41.802  27.893  -5.165  1.00  0.00    -0.550 OA
ATOM      4  O   UNL     1      43.418  27.353  -6.697  1.00  0.00    -0.550 OA
ENDBRANCH   1   2
BRANCH   1   5
ATOM      5  C   UNL     1      43.770  27.646  -3.069  1.00  0.00     0.059 C 
BRANCH   5   6
ATOM      6  C   UNL     1      44.401  26.959  -1.896  1.00  0.00     0.042 C 
ATOM      7  O   UNL     1      43.806  26.010  -1.320  1.00  0.00    -0.550 OA
ATOM      8  O   UNL     1      45.666  27.340  -1.466  1.00  0.00    -0.550 OA
ENDBRANCH   5   6
ENDBRANCH   1   5
TORSDOF 3
ENDMDL
MODEL 7
REMARK VINA RESULT:    -3.021     16.673     18.278
REMARK INTER + INTRA:          -3.642
REMARK INTER:                  -3.485
REMARK INTRA:                  -0.158
REMARK UNBOUND:                -0.091
REMARK SMILES O=C([O-])CCC(=O)[O-]
REMARK SMILES IDX 4 1 2 2 1 3 3 4 5 5 6 6 7 7 8 8
REMARK H PARENT
REMARK Flexibility Score: inf
ROOT
ATOM      1  C   UNL     1      42.852  27.091   0.395  1.00  0.00     0.059 C 
ENDROOT
BRANCH   1   2
ATOM      2  C   UNL     1      43.630  27.183  -0.883  1.00  0.00     0.042 C 
ATOM      3  O   UNL     1      43.988  28.305  -1.328  1.00  0.00    -0.550 OA
ATOM      4  O   UNL     1      43.993  26.026  -1.560  1.00  0.00    -0.550 OA
ENDBRANCH   1   2
BRANCH   1   5
ATOM      5  C   UNL     1      43.650  27.641   1.581  1.00  0.00     0.059 C 
BRANCH   5   6
ATOM      6  C   UNL     1      44.823  26.768   1.909  1.00  0.00     0.042 C 
ATOM      7  O   UNL     1      44.653  25.676   2.512  1.00  0.00    -0.550 OA
ATOM      8  O   UNL     1      46.100  27.143   1.511  1.00  0.00    -0.550 OA
ENDBRANCH   5   6
ENDBRANCH   1   5
TORSDOF 3
ENDMDL
MODEL 8
REMARK VINA RESULT:    -3.008     15.809     17.557
REMARK INTER + INTRA:          -3.627
REMARK INTER:                  -3.599
REMARK INTRA:                  -0.028
REMARK UNBOUND:                -0.091
REMARK SMILES O=C([O-])CCC(=O)[O-]
REMARK SMILES IDX 4 1 2 2 1 3 3 4 5 5 6 6 7 7 8 8
REMARK H PARENT
REMARK Flexibility Score: inf
ROOT
ATOM      1  C   UNL     1      44.093  26.740   2.219  1.00  0.00     0.059 C 
ENDROOT
BRANCH   1   2
ATOM      2  C   UNL     1      45.174  26.173   3.088  1.00  0.00     0.042 C 
ATOM      3  O   UNL     1      45.896  26.936   3.782  1.00  0.00    -0.550 OA
ATOM      4  O   UNL     1      45.357  24.798   3.160  1.00  0.00    -0.550 OA
ENDBRANCH   1   2
BRANCH   1   5
ATOM      5  C   UNL     1      44.651  27.253   0.888  1.00  0.00     0.059 C 
BRANCH   5   6
ATOM      6  C   UNL     1      43.694  27.014  -0.240  1.00  0.00     0.042 C 
ATOM      7  O   UNL     1      42.556  27.552  -0.231  1.00  0.00    -0.550 OA
ATOM      8  O   UNL     1      44.076  26.229  -1.321  1.00  0.00    -0.550 OA
ENDBRANCH   5   6
ENDBRANCH   1   5
TORSDOF 3
ENDMDL
MODEL 9
REMARK VINA RESULT:    -2.897     19.158     20.636
REMARK INTER + INTRA:          -3.496
REMARK INTER:                  -3.420
REMARK INTRA:                  -0.076
REMARK UNBOUND:                -0.091
REMARK SMILES O=C([O-])CCC(=O)[O-]
REMARK SMILES IDX 4 1 2 2 1 3 3 4 5 5 6 6 7 7 8 8
REMARK H PARENT
REMARK Flexibility Score: inf
ROOT
ATOM      1  C   UNL     1      43.928  28.352  -2.652  1.00  0.00     0.059 C 
ENDROOT
BRANCH   1   2
ATOM      2  C   UNL     1      42.677  28.905  -3.264  1.00  0.00     0.042 C 
ATOM      3  O   UNL     1      41.940  29.686  -2.607  1.00  0.00    -0.550 OA
ATOM      4  O   UNL     1      42.347  28.588  -4.575  1.00  0.00    -0.550 OA
ENDBRANCH   1   2
BRANCH   1   5
ATOM      5  C   UNL     1      43.812  28.253  -1.128  1.00  0.00     0.059 C 
BRANCH   5   6
ATOM      6  C   UNL     1      43.789  26.827  -0.668  1.00  0.00     0.042 C 
ATOM      7  O   UNL     1      43.616  26.555   0.549  1.00  0.00    -0.550 OA
ATOM      8  O   UNL     1      43.917  25.797  -1.591  1.00  0.00    -0.550 OA
ENDBRANCH   5   6
ENDBRANCH   1   5
TORSDOF 3
ENDMDL
