MODEL 1
REMARK VINA RESULT:    -5.032      0.000      0.000
REMARK INTER + INTRA:          -5.188
REMARK INTER:                  -5.474
REMARK INTRA:                   0.286
REMARK UNBOUND:                 0.286
REMARK SMILES COc1cc2ccc(=O)oc2cc1O
REMARK SMILES IDX 3 1 13 2 12 3 11 4 5 5 4 6 6 7 7 8 8 9 9 10 10 11 2 12 1 13
REMARK SMILES IDX 14 14
REMARK H PARENT 14 15
REMARK Flexibility Score: inf
ROOT
ATOM      1  C   UNL     1      41.946  20.400  -1.507  1.00  0.00     0.161 A 
ATOM      2  C   UNL     1      42.232  19.038  -1.289  1.00  0.00     0.161 A 
ATOM      3  C   UNL     1      43.004  18.324  -2.212  1.00  0.00     0.098 A 
ATOM      4  C   UNL     1      43.499  18.953  -3.358  1.00  0.00     0.142 A 
ATOM      5  C   UNL     1      43.218  20.316  -3.584  1.00  0.00     0.022 A 
ATOM      6  C   UNL     1      42.445  21.035  -2.663  1.00  0.00     0.062 A 
ATOM      7  C   UNL     1      43.727  20.917  -4.740  1.00  0.00     0.019 A 
ATOM      8  C   UNL     1      44.490  20.159  -5.628  1.00  0.00     0.094 A 
ATOM      9  C   UNL     1      44.728  18.812  -5.337  1.00  0.00     0.336 A 
ATOM     10  O   UNL     1      45.414  18.111  -6.125  1.00  0.00    -0.246 OA
ATOM     11  O   UNL     1      44.232  18.264  -4.230  1.00  0.00    -0.423 OA
ENDROOT
BRANCH   1  12
ATOM     12  O   UNL     1      41.169  21.087  -0.560  1.00  0.00    -0.493 OA
ATOM     13  C   UNL     1      39.875  20.678  -0.126  1.00  0.00     0.278 C 
ENDBRANCH   1  12
BRANCH   2  14
ATOM     14  O   UNL     1      41.756  18.375  -0.158  1.00  0.00    -0.504 OA
ATOM     15  H   UNL     1      41.743  18.809   0.757  1.00  0.00     0.293 HD
ENDBRANCH   2  14
TORSDOF 2
ENDMDL
MODEL 2
REMARK VINA RESULT:    -4.571      1.119      1.250
REMARK INTER + INTRA:          -4.685
REMARK INTER:                  -4.638
REMARK INTRA:                  -0.048
REMARK UNBOUND:                 0.286
REMARK SMILES COc1cc2ccc(=O)oc2cc1O
REMARK SMILES IDX 3 1 13 2 12 3 11 4 5 5 4 6 6 7 7 8 8 9 9 10 10 11 2 12 1 13
REMARK SMILES IDX 14 14
REMARK H PARENT 14 15
REMARK Flexibility Score: inf
ROOT
ATOM      1  C   UNL     1      42.015  19.398  -2.295  1.00  0.00     0.161 A 
ATOM      2  C   UNL     1      42.476  18.144  -1.849  1.00  0.00     0.161 A 
ATOM      3  C   UNL     1      43.475  17.468  -2.557  1.00  0.00     0.098 A 
ATOM      4  C   UNL     1      44.027  18.028  -3.713  1.00  0.00     0.142 A 
ATOM      5  C   UNL     1      43.572  19.283  -4.167  1.00  0.00     0.022 A 
ATOM      6  C   UNL     1      42.571  19.963  -3.462  1.00  0.00     0.062 A 
ATOM      7  C   UNL     1      44.142  19.818  -5.327  1.00  0.00     0.019 A 
ATOM      8  C   UNL     1      45.135  19.101  -5.995  1.00  0.00     0.094 A 
ATOM      9  C   UNL     1      45.536  17.862  -5.484  1.00  0.00     0.336 A 
ATOM     10  O   UNL     1      46.431  17.201  -6.072  1.00  0.00    -0.246 OA
ATOM     11  O   UNL     1      44.977  17.376  -4.379  1.00  0.00    -0.423 OA
ENDROOT
BRANCH   1  12
ATOM     12  O   UNL     1      41.011  20.050  -1.561  1.00  0.00    -0.493 OA
ATOM     13  C   UNL     1      41.252  20.939  -0.474  1.00  0.00     0.278 C 
ENDBRANCH   1  12
BRANCH   2  14
ATOM     14  O   UNL     1      41.951  17.553  -0.701  1.00  0.00    -0.504 OA
ATOM     15  H   UNL     1      41.495  16.648  -0.719  1.00  0.00     0.293 HD
ENDBRANCH   2  14
TORSDOF 2
ENDMDL
MODEL 3
REMARK VINA RESULT:    -4.566      1.855      4.982
REMARK INTER + INTRA:          -4.680
REMARK INTER:                  -4.631
REMARK INTRA:                  -0.049
REMARK UNBOUND:                 0.286
REMARK SMILES COc1cc2ccc(=O)oc2cc1O
REMARK SMILES IDX 3 1 13 2 12 3 11 4 5 5 4 6 6 7 7 8 8 9 9 10 10 11 2 12 1 13
REMARK SMILES IDX 14 14
REMARK H PARENT 14 15
REMARK Flexibility Score: inf
ROOT
ATOM      1  C   UNL     1      43.982  16.912  -3.315  1.00  0.00     0.161 A 
ATOM      2  C   UNL     1      43.051  16.206  -2.528  1.00  0.00     0.161 A 
ATOM      3  C   UNL     1      42.123  16.898  -1.743  1.00  0.00     0.098 A 
ATOM      4  C   UNL     1      42.108  18.295  -1.730  1.00  0.00     0.142 A 
ATOM      5  C   UNL     1      43.036  19.011  -2.514  1.00  0.00     0.022 A 
ATOM      6  C   UNL     1      43.968  18.322  -3.302  1.00  0.00     0.062 A 
ATOM      7  C   UNL     1      42.998  20.409  -2.480  1.00  0.00     0.019 A 
ATOM      8  C   UNL     1      42.052  21.049  -1.679  1.00  0.00     0.094 A 
ATOM      9  C   UNL     1      41.163  20.272  -0.929  1.00  0.00     0.336 A 
ATOM     10  O   UNL     1      40.302  20.831  -0.201  1.00  0.00    -0.246 OA
ATOM     11  O   UNL     1      41.221  18.944  -0.980  1.00  0.00    -0.423 OA
ENDROOT
BRANCH   1  12
ATOM     12  O   UNL     1      44.899  16.186  -4.092  1.00  0.00    -0.493 OA
ATOM     13  C   UNL     1      46.280  16.510  -4.226  1.00  0.00     0.278 C 
ENDBRANCH   1  12
BRANCH   2  14
ATOM     14  O   UNL     1      43.033  14.811  -2.514  1.00  0.00    -0.504 OA
ATOM     15  H   UNL     1      43.743  14.266  -2.039  1.00  0.00     0.293 HD
ENDBRANCH   2  14
TORSDOF 2
ENDMDL
MODEL 4
REMARK VINA RESULT:    -4.564      6.852      9.308
REMARK INTER + INTRA:          -4.678
REMARK INTER:                  -4.631
REMARK INTRA:                  -0.047
REMARK UNBOUND:                 0.286
REMARK SMILES COc1cc2ccc(=O)oc2cc1O
REMARK SMILES IDX 3 1 13 2 12 3 11 4 5 5 4 6 6 7 7 8 8 9 9 10 10 11 2 12 1 13
REMARK SMILES IDX 14 14
REMARK H PARENT 14 15
REMARK Flexibility Score: inf
ROOT
ATOM      1  C   UNL     1      49.732  15.307  -4.672  1.00  0.00     0.161 A 
ATOM      2  C   UNL     1      48.536  15.929  -4.265  1.00  0.00     0.161 A 
ATOM      3  C   UNL     1      47.613  15.234  -3.475  1.00  0.00     0.098 A 
ATOM      4  C   UNL     1      47.868  13.917  -3.083  1.00  0.00     0.142 A 
ATOM      5  C   UNL     1      49.062  13.286  -3.486  1.00  0.00     0.022 A 
ATOM      6  C   UNL     1      49.989  13.978  -4.276  1.00  0.00     0.062 A 
ATOM      7  C   UNL     1      49.289  11.967  -3.077  1.00  0.00     0.019 A 
ATOM      8  C   UNL     1      48.335  11.320  -2.291  1.00  0.00     0.094 A 
ATOM      9  C   UNL     1      47.174  12.011  -1.930  1.00  0.00     0.336 A 
ATOM     10  O   UNL     1      46.302  11.445  -1.220  1.00  0.00    -0.246 OA
ATOM     11  O   UNL     1      46.983  13.265  -2.331  1.00  0.00    -0.423 OA
ENDROOT
BRANCH   1  12
ATOM     12  O   UNL     1      50.636  16.033  -5.464  1.00  0.00    -0.493 OA
ATOM     13  C   UNL     1      52.054  15.929  -5.375  1.00  0.00     0.278 C 
ENDBRANCH   1  12
BRANCH   2  14
ATOM     14  O   UNL     1      48.246  17.242  -4.637  1.00  0.00    -0.504 OA
ATOM     15  H   UNL     1      47.500  17.774  -4.205  1.00  0.00     0.293 HD
ENDBRANCH   2  14
TORSDOF 2
ENDMDL
MODEL 5
REMARK VINA RESULT:    -4.401      6.433      7.871
REMARK INTER + INTRA:          -4.500
REMARK INTER:                  -4.447
REMARK INTRA:                  -0.053
REMARK UNBOUND:                 0.286
REMARK SMILES COc1cc2ccc(=O)oc2cc1O
REMARK SMILES IDX 3 1 13 2 12 3 11 4 5 5 4 6 6 7 7 8 8 9 9 10 10 11 2 12 1 13
REMARK SMILES IDX 14 14
REMARK H PARENT 14 15
REMARK Flexibility Score: inf
ROOT
ATOM      1  C   UNL     1      47.534  13.051  -2.657  1.00  0.00     0.161 A 
ATOM      2  C   UNL     1      48.872  12.843  -3.044  1.00  0.00     0.161 A 
ATOM      3  C   UNL     1      49.533  13.790  -3.833  1.00  0.00     0.098 A 
ATOM      4  C   UNL     1      48.875  14.952  -4.246  1.00  0.00     0.142 A 
ATOM      5  C   UNL     1      47.535  15.169  -3.863  1.00  0.00     0.022 A 
ATOM      6  C   UNL     1      46.869  14.223  -3.074  1.00  0.00     0.062 A 
ATOM      7  C   UNL     1      46.903  16.341  -4.292  1.00  0.00     0.019 A 
ATOM      8  C   UNL     1      47.608  17.252  -5.078  1.00  0.00     0.094 A 
ATOM      9  C   UNL     1      48.936  16.969  -5.417  1.00  0.00     0.336 A 
ATOM     10  O   UNL     1      49.589  17.778  -6.125  1.00  0.00    -0.246 OA
ATOM     11  O   UNL     1      49.514  15.847  -4.996  1.00  0.00    -0.423 OA
ENDROOT
BRANCH   1  12
ATOM     12  O   UNL     1      46.900  12.080  -1.865  1.00  0.00    -0.493 OA
ATOM     13  C   UNL     1      45.647  11.477  -2.173  1.00  0.00     0.278 C 
ENDBRANCH   1  12
BRANCH   2  14
ATOM     14  O   UNL     1      49.563  11.696  -2.653  1.00  0.00    -0.504 OA
ATOM     15  H   UNL     1      50.106  11.143  -3.305  1.00  0.00     0.293 HD
ENDBRANCH   2  14
TORSDOF 2
ENDMDL
MODEL 6
REMARK VINA RESULT:    -4.396      5.690      8.128
REMARK INTER + INTRA:          -4.495
REMARK INTER:                  -4.452
REMARK INTRA:                  -0.043
REMARK UNBOUND:                 0.286
REMARK SMILES COc1cc2ccc(=O)oc2cc1O
REMARK SMILES IDX 3 1 13 2 12 3 11 4 5 5 4 6 6 7 7 8 8 9 9 10 10 11 2 12 1 13
REMARK SMILES IDX 14 14
REMARK H PARENT 14 15
REMARK Flexibility Score: inf
ROOT
ATOM      1  C   UNL     1      49.294  13.917  -3.858  1.00  0.00     0.161 A 
ATOM      2  C   UNL     1      48.655  13.122  -2.887  1.00  0.00     0.161 A 
ATOM      3  C   UNL     1      47.389  13.475  -2.408  1.00  0.00     0.098 A 
ATOM      4  C   UNL     1      46.745  14.619  -2.887  1.00  0.00     0.142 A 
ATOM      5  C   UNL     1      47.376  15.422  -3.859  1.00  0.00     0.022 A 
ATOM      6  C   UNL     1      48.644  15.072  -4.342  1.00  0.00     0.062 A 
ATOM      7  C   UNL     1      46.707  16.561  -4.320  1.00  0.00     0.019 A 
ATOM      8  C   UNL     1      45.447  16.868  -3.808  1.00  0.00     0.094 A 
ATOM      9  C   UNL     1      44.883  16.024  -2.845  1.00  0.00     0.336 A 
ATOM     10  O   UNL     1      43.746  16.284  -2.371  1.00  0.00    -0.246 OA
ATOM     11  O   UNL     1      45.541  14.947  -2.425  1.00  0.00    -0.423 OA
ENDROOT
BRANCH   1  12
ATOM     12  O   UNL     1      50.565  13.532  -4.317  1.00  0.00    -0.493 OA
ATOM     13  C   UNL     1      51.323  14.247  -5.289  1.00  0.00     0.278 C 
ENDBRANCH   1  12
BRANCH   2  14
ATOM     14  O   UNL     1      49.265  11.973  -2.384  1.00  0.00    -0.504 OA
ATOM     15  H   UNL     1      49.024  11.045  -2.711  1.00  0.00     0.293 HD
ENDBRANCH   2  14
TORSDOF 2
ENDMDL
MODEL 7
REMARK VINA RESULT:    -4.396      6.651      8.513
REMARK INTER + INTRA:          -4.495
REMARK INTER:                  -4.438
REMARK INTRA:                  -0.057
REMARK UNBOUND:                 0.286
REMARK SMILES COc1cc2ccc(=O)oc2cc1O
REMARK SMILES IDX 3 1 13 2 12 3 11 4 5 5 4 6 6 7 7 8 8 9 9 10 10 11 2 12 1 13
REMARK SMILES IDX 14 14
REMARK H PARENT 14 15
REMARK Flexibility Score: inf
ROOT
ATOM      1  C   UNL     1      47.614  13.456  -3.066  1.00  0.00     0.161 A 
ATOM      2  C   UNL     1      47.295  14.822  -3.196  1.00  0.00     0.161 A 
ATOM      3  C   UNL     1      48.171  15.691  -3.855  1.00  0.00     0.098 A 
ATOM      4  C   UNL     1      49.371  15.214  -4.391  1.00  0.00     0.142 A 
ATOM      5  C   UNL     1      49.699  13.848  -4.266  1.00  0.00     0.022 A 
ATOM      6  C   UNL     1      48.824  12.975  -3.607  1.00  0.00     0.062 A 
ATOM      7  C   UNL     1      50.906  13.401  -4.813  1.00  0.00     0.019 A 
ATOM      8  C   UNL     1      51.744  14.309  -5.459  1.00  0.00     0.094 A 
ATOM      9  C   UNL     1      51.351  15.650  -5.545  1.00  0.00     0.336 A 
ATOM     10  O   UNL     1      52.093  16.485  -6.125  1.00  0.00    -0.246 OA
ATOM     11  O   UNL     1      50.197  16.049  -5.017  1.00  0.00    -0.423 OA
ENDROOT
BRANCH   1  12
ATOM     12  O   UNL     1      46.711  12.612  -2.398  1.00  0.00    -0.493 OA
ATOM     13  C   UNL     1      47.027  11.845  -1.240  1.00  0.00     0.278 C 
ENDBRANCH   1  12
BRANCH   2  14
ATOM     14  O   UNL     1      46.108  15.335  -2.675  1.00  0.00    -0.504 OA
ATOM     15  H   UNL     1      45.875  16.320  -2.728  1.00  0.00     0.293 HD
ENDBRANCH   2  14
TORSDOF 2
ENDMDL
MODEL 8
REMARK VINA RESULT:    -4.196      6.977      8.715
REMARK INTER + INTRA:          -4.278
REMARK INTER:                  -4.235
REMARK INTRA:                  -0.043
REMARK UNBOUND:                 0.286
REMARK SMILES COc1cc2ccc(=O)oc2cc1O
REMARK SMILES IDX 3 1 13 2 12 3 11 4 5 5 4 6 6 7 7 8 8 9 9 10 10 11 2 12 1 13
REMARK SMILES IDX 14 14
REMARK H PARENT 14 15
REMARK Flexibility Score: inf
ROOT
ATOM      1  C   UNL     1      49.058  15.286  -4.529  1.00  0.00     0.161 A 
ATOM      2  C   UNL     1      49.834  14.214  -4.049  1.00  0.00     0.161 A 
ATOM      3  C   UNL     1      49.221  13.126  -3.417  1.00  0.00     0.098 A 
ATOM      4  C   UNL     1      47.833  13.091  -3.256  1.00  0.00     0.142 A 
ATOM      5  C   UNL     1      47.047  14.160  -3.734  1.00  0.00     0.022 A 
ATOM      6  C   UNL     1      47.657  15.251  -4.366  1.00  0.00     0.062 A 
ATOM      7  C   UNL     1      45.661  14.097  -3.558  1.00  0.00     0.019 A 
ATOM      8  C   UNL     1      45.101  12.990  -2.921  1.00  0.00     0.094 A 
ATOM      9  C   UNL     1      45.944  11.967  -2.474  1.00  0.00     0.336 A 
ATOM     10  O   UNL     1      45.458  10.960  -1.898  1.00  0.00    -0.246 OA
ATOM     11  O   UNL     1      47.260  12.052  -2.654  1.00  0.00    -0.423 OA
ENDROOT
BRANCH   1  12
ATOM     12  O   UNL     1      49.705  16.362  -5.158  1.00  0.00    -0.493 OA
ATOM     13  C   UNL     1      49.038  17.452  -5.786  1.00  0.00     0.278 C 
ENDBRANCH   1  12
BRANCH   2  14
ATOM     14  O   UNL     1      51.222  14.212  -4.190  1.00  0.00    -0.504 OA
ATOM     15  H   UNL     1      51.694  14.761  -4.898  1.00  0.00     0.293 HD
ENDBRANCH   2  14
TORSDOF 2
ENDMDL
MODEL 9
REMARK VINA RESULT:    -4.193      5.856      8.129
REMARK INTER + INTRA:          -4.274
REMARK INTER:                  -4.229
REMARK INTRA:                  -0.045
REMARK UNBOUND:                 0.286
REMARK SMILES COc1cc2ccc(=O)oc2cc1O
REMARK SMILES IDX 3 1 13 2 12 3 11 4 5 5 4 6 6 7 7 8 8 9 9 10 10 11 2 12 1 13
REMARK SMILES IDX 14 14
REMARK H PARENT 14 15
REMARK Flexibility Score: inf
ROOT
ATOM      1  C   UNL     1      48.655  12.998  -2.950  1.00  0.00     0.161 A 
ATOM      2  C   UNL     1      49.415  13.828  -3.796  1.00  0.00     0.161 A 
ATOM      3  C   UNL     1      48.863  15.006  -4.311  1.00  0.00     0.098 A 
ATOM      4  C   UNL     1      47.552  15.371  -3.992  1.00  0.00     0.142 A 
ATOM      5  C   UNL     1      46.782  14.546  -3.146  1.00  0.00     0.022 A 
ATOM      6  C   UNL     1      47.332  13.366  -2.628  1.00  0.00     0.062 A 
ATOM      7  C   UNL     1      45.473  14.937  -2.845  1.00  0.00     0.019 A 
ATOM      8  C   UNL     1      44.971  16.121  -3.386  1.00  0.00     0.094 A 
ATOM      9  C   UNL     1      45.794  16.889  -4.217  1.00  0.00     0.336 A 
ATOM     10  O   UNL     1      45.359  17.960  -4.714  1.00  0.00    -0.246 OA
ATOM     11  O   UNL     1      47.035  16.493  -4.487  1.00  0.00    -0.423 OA
ENDROOT
BRANCH   1  12
ATOM     12  O   UNL     1      49.241  11.823  -2.450  1.00  0.00    -0.493 OA
ATOM     13  C   UNL     1      48.844  11.170  -1.248  1.00  0.00     0.278 C 
ENDBRANCH   1  12
BRANCH   2  14
ATOM     14  O   UNL     1      50.727  13.498  -4.137  1.00  0.00    -0.504 OA
ATOM     15  H   UNL     1      51.343  14.149  -4.608  1.00  0.00     0.293 HD
ENDBRANCH   2  14
TORSDOF 2
ENDMDL
