MODEL 1
REMARK VINA RESULT:    -5.102      0.000      0.000
REMARK INTER + INTRA:          -6.601
REMARK INTER:                  -6.295
REMARK INTRA:                  -0.307
REMARK UNBOUND:                -0.307
REMARK SMILES O=c1c(O)c(-c2cc(O)c(O)c(O)c2)oc2cc(O)cc(O)c12
REMARK SMILES IDX 5 1 3 2 2 3 1 4 23 5 21 6 20 7 18 8 17 9 16 10 15 11 6 12
REMARK SMILES IDX 7 13 8 14 14 15 10 16 12 17 9 18 11 20 13 22 4 24 22 26
REMARK SMILES IDX 19 28
REMARK H PARENT 9 19 11 21 13 23 4 25 22 27 19 29
REMARK Flexibility Score: inf
ROOT
ATOM      1  C   UNL     1       3.368  12.465 -22.518  1.00  0.00     0.180 A 
ATOM      2  C   UNL     1       2.199  13.243 -22.567  1.00  0.00     0.208 A 
ATOM      3  C   UNL     1       1.923  14.126 -21.510  1.00  0.00     0.238 A 
ATOM      4  O   UNL     1       0.903  14.859 -21.586  1.00  0.00    -0.285 OA
ATOM      5  C   UNL     1       2.812  14.208 -20.411  1.00  0.00     0.111 A 
ATOM      6  C   UNL     1       2.611  15.038 -19.267  1.00  0.00     0.134 A 
ATOM      7  C   UNL     1       3.619  15.137 -18.301  1.00  0.00     0.093 A 
ATOM      8  C   UNL     1       4.792  14.385 -18.404  1.00  0.00     0.123 A 
ATOM      9  C   UNL     1       4.971  13.527 -19.487  1.00  0.00     0.094 A 
ATOM     10  C   UNL     1       3.999  13.435 -20.486  1.00  0.00     0.146 A 
ATOM     11  O   UNL     1       4.214  12.613 -21.505  1.00  0.00    -0.452 OA
ENDROOT
BRANCH   1  12
ATOM     12  C   UNL     1       3.713  11.495 -23.582  1.00  0.00     0.029 A 
ATOM     13  C   UNL     1       3.472  10.127 -23.375  1.00  0.00     0.062 A 
ATOM     14  C   UNL     1       3.769   9.191 -24.370  1.00  0.00     0.162 A 
ATOM     15  C   UNL     1       4.226  11.918 -24.820  1.00  0.00     0.062 A 
ATOM     16  C   UNL     1       4.301   9.617 -25.599  1.00  0.00     0.200 A 
ATOM     17  C   UNL     1       4.524  10.987 -25.824  1.00  0.00     0.162 A 
BRANCH  14  18
ATOM     18  O   UNL     1       3.528   7.841 -24.120  1.00  0.00    -0.504 OA
ATOM     19  H   UNL     1       2.697   7.369 -24.457  1.00  0.00     0.293 HD
ENDBRANCH  14  18
BRANCH  16  20
ATOM     20  O   UNL     1       4.597   8.677 -26.585  1.00  0.00    -0.502 OA
ATOM     21  H   UNL     1       3.877   8.221 -27.133  1.00  0.00     0.293 HD
ENDBRANCH  16  20
BRANCH  17  22
ATOM     22  O   UNL     1       5.038  11.418 -27.046  1.00  0.00    -0.504 OA
ATOM     23  H   UNL     1       6.002  11.715 -27.142  1.00  0.00     0.293 HD
ENDBRANCH  17  22
ENDBRANCH   1  12
BRANCH   2  24
ATOM     24  O   UNL     1       1.347  13.163 -23.672  1.00  0.00    -0.502 OA
ATOM     25  H   UNL     1       1.230  13.927 -24.326  1.00  0.00     0.293 HD
ENDBRANCH   2  24
BRANCH   6  26
ATOM     26  O   UNL     1       1.438  15.758 -19.021  1.00  0.00    -0.507 OA
ATOM     27  H   UNL     1       0.940  15.761 -18.145  1.00  0.00     0.293 HD
ENDBRANCH   6  26
BRANCH   8  28
ATOM     28  O   UNL     1       5.784  14.478 -17.430  1.00  0.00    -0.508 OA
ATOM     29  H   UNL     1       6.641  14.995 -17.593  1.00  0.00     0.293 HD
ENDBRANCH   8  28
TORSDOF 7
ENDMDL
MODEL 2
REMARK VINA RESULT:    -5.097      2.543      7.174
REMARK INTER + INTRA:          -6.596
REMARK INTER:                  -6.258
REMARK INTRA:                  -0.338
REMARK UNBOUND:                -0.307
REMARK SMILES O=c1c(O)c(-c2cc(O)c(O)c(O)c2)oc2cc(O)cc(O)c12
REMARK SMILES IDX 5 1 3 2 2 3 1 4 23 5 21 6 20 7 18 8 17 9 16 10 15 11 6 12
REMARK SMILES IDX 7 13 8 14 14 15 10 16 12 17 9 18 11 20 13 22 4 24 22 26
REMARK SMILES IDX 19 28
REMARK H PARENT 9 19 11 21 13 23 4 25 22 27 19 29
REMARK Flexibility Score: inf
ROOT
ATOM      1  C   UNL     1       5.122  11.219 -22.934  1.00  0.00     0.180 A 
ATOM      2  C   UNL     1       4.352  10.239 -23.585  1.00  0.00     0.208 A 
ATOM      3  C   UNL     1       4.911   9.542 -24.669  1.00  0.00     0.238 A 
ATOM      4  O   UNL     1       4.236   8.629 -25.212  1.00  0.00    -0.285 OA
ATOM      5  C   UNL     1       6.226   9.844 -25.098  1.00  0.00     0.111 A 
ATOM      6  C   UNL     1       6.877   9.229 -26.209  1.00  0.00     0.134 A 
ATOM      7  C   UNL     1       8.224   9.511 -26.463  1.00  0.00     0.093 A 
ATOM      8  C   UNL     1       8.925  10.437 -25.685  1.00  0.00     0.123 A 
ATOM      9  C   UNL     1       8.280  11.087 -24.635  1.00  0.00     0.094 A 
ATOM     10  C   UNL     1       6.947  10.798 -24.335  1.00  0.00     0.146 A 
ATOM     11  O   UNL     1       6.374  11.433 -23.319  1.00  0.00    -0.452 OA
ENDROOT
BRANCH   1  12
ATOM     12  C   UNL     1       4.593  12.011 -21.802  1.00  0.00     0.029 A 
ATOM     13  C   UNL     1       5.009  11.712 -20.495  1.00  0.00     0.062 A 
ATOM     14  C   UNL     1       4.542  12.458 -19.408  1.00  0.00     0.162 A 
ATOM     15  C   UNL     1       3.726  13.097 -22.010  1.00  0.00     0.062 A 
ATOM     16  C   UNL     1       3.659  13.530 -19.619  1.00  0.00     0.200 A 
ATOM     17  C   UNL     1       3.254  13.852 -20.927  1.00  0.00     0.162 A 
BRANCH  14  18
ATOM     18  O   UNL     1       4.968  12.119 -18.124  1.00  0.00    -0.504 OA
ATOM     19  H   UNL     1       5.933  12.217 -17.833  1.00  0.00     0.293 HD
ENDBRANCH  14  18
BRANCH  16  20
ATOM     20  O   UNL     1       3.194  14.267 -18.530  1.00  0.00    -0.502 OA
ATOM     21  H   UNL     1       2.416  13.957 -17.960  1.00  0.00     0.293 HD
ENDBRANCH  16  20
BRANCH  17  22
ATOM     22  O   UNL     1       2.389  14.922 -21.146  1.00  0.00    -0.504 OA
ATOM     23  H   UNL     1       2.167  15.586 -20.413  1.00  0.00     0.293 HD
ENDBRANCH  17  22
ENDBRANCH   1  12
BRANCH   2  24
ATOM     24  O   UNL     1       3.064   9.941 -23.131  1.00  0.00    -0.502 OA
ATOM     25  H   UNL     1       2.794  10.033 -22.160  1.00  0.00     0.293 HD
ENDBRANCH   2  24
BRANCH   6  26
ATOM     26  O   UNL     1       6.242   8.362 -27.104  1.00  0.00    -0.507 OA
ATOM     27  H   UNL     1       6.675   7.557 -27.528  1.00  0.00     0.293 HD
ENDBRANCH   6  26
BRANCH   8  28
ATOM     28  O   UNL     1      10.262  10.723 -25.954  1.00  0.00    -0.508 OA
ATOM     29  H   UNL     1      10.988  10.026 -25.835  1.00  0.00     0.293 HD
ENDBRANCH   8  28
TORSDOF 7
ENDMDL
MODEL 3
REMARK VINA RESULT:    -5.039      2.545      7.334
REMARK INTER + INTRA:          -6.524
REMARK INTER:                  -6.206
REMARK INTRA:                  -0.318
REMARK UNBOUND:                -0.307
REMARK SMILES O=c1c(O)c(-c2cc(O)c(O)c(O)c2)oc2cc(O)cc(O)c12
REMARK SMILES IDX 5 1 3 2 2 3 1 4 23 5 21 6 20 7 18 8 17 9 16 10 15 11 6 12
REMARK SMILES IDX 7 13 8 14 14 15 10 16 12 17 9 18 11 20 13 22 4 24 22 26
REMARK SMILES IDX 19 28
REMARK H PARENT 9 19 11 21 13 23 4 25 22 27 19 29
REMARK Flexibility Score: inf
ROOT
ATOM      1  C   UNL     1       5.205  11.253 -22.956  1.00  0.00     0.180 A 
ATOM      2  C   UNL     1       4.414  10.268 -23.572  1.00  0.00     0.208 A 
ATOM      3  C   UNL     1       4.941   9.552 -24.660  1.00  0.00     0.238 A 
ATOM      4  O   UNL     1       4.248   8.635 -25.173  1.00  0.00    -0.285 OA
ATOM      5  C   UNL     1       6.246   9.841 -25.127  1.00  0.00     0.111 A 
ATOM      6  C   UNL     1       6.866   9.207 -26.245  1.00  0.00     0.134 A 
ATOM      7  C   UNL     1       8.208   9.479 -26.537  1.00  0.00     0.093 A 
ATOM      8  C   UNL     1       8.932  10.412 -25.791  1.00  0.00     0.123 A 
ATOM      9  C   UNL     1       8.318  11.080 -24.734  1.00  0.00     0.094 A 
ATOM     10  C   UNL     1       6.992  10.803 -24.396  1.00  0.00     0.146 A 
ATOM     11  O   UNL     1       6.448  11.454 -23.376  1.00  0.00    -0.452 OA
ENDROOT
BRANCH   1  12
ATOM     12  C   UNL     1       4.709  12.064 -21.822  1.00  0.00     0.029 A 
ATOM     13  C   UNL     1       3.815  13.119 -22.065  1.00  0.00     0.062 A 
ATOM     14  C   UNL     1       3.315  13.889 -21.010  1.00  0.00     0.162 A 
ATOM     15  C   UNL     1       5.069  11.766 -20.497  1.00  0.00     0.062 A 
ATOM     16  C   UNL     1       3.694  13.600 -19.688  1.00  0.00     0.200 A 
ATOM     17  C   UNL     1       4.571  12.531 -19.432  1.00  0.00     0.162 A 
BRANCH  14  18
ATOM     18  O   UNL     1       2.440  14.936 -21.295  1.00  0.00    -0.504 OA
ATOM     19  H   UNL     1       2.762  15.888 -21.423  1.00  0.00     0.293 HD
ENDBRANCH  14  18
BRANCH  16  20
ATOM     20  O   UNL     1       3.193  14.374 -18.642  1.00  0.00    -0.502 OA
ATOM     21  H   UNL     1       2.203  14.431 -18.437  1.00  0.00     0.293 HD
ENDBRANCH  16  20
BRANCH  17  22
ATOM     22  O   UNL     1       4.941  12.230 -18.123  1.00  0.00    -0.504 OA
ATOM     23  H   UNL     1       5.708  11.601 -17.918  1.00  0.00     0.293 HD
ENDBRANCH  17  22
ENDBRANCH   1  12
BRANCH   2  24
ATOM     24  O   UNL     1       3.136   9.983 -23.082  1.00  0.00    -0.502 OA
ATOM     25  H   UNL     1       2.312  10.487 -23.383  1.00  0.00     0.293 HD
ENDBRANCH   2  24
BRANCH   6  26
ATOM     26  O   UNL     1       6.204   8.331 -27.111  1.00  0.00    -0.507 OA
ATOM     27  H   UNL     1       5.244   8.429 -27.403  1.00  0.00     0.293 HD
ENDBRANCH   6  26
BRANCH   8  28
ATOM     28  O   UNL     1      10.263  10.687 -26.098  1.00  0.00    -0.508 OA
ATOM     29  H   UNL     1      10.871  11.164 -25.442  1.00  0.00     0.293 HD
ENDBRANCH   8  28
TORSDOF 7
ENDMDL
MODEL 4
REMARK VINA RESULT:    -4.864      3.584      7.263
REMARK INTER + INTRA:          -6.309
REMARK INTER:                  -6.019
REMARK INTRA:                  -0.289
REMARK UNBOUND:                -0.307
REMARK SMILES O=c1c(O)c(-c2cc(O)c(O)c(O)c2)oc2cc(O)cc(O)c12
REMARK SMILES IDX 5 1 3 2 2 3 1 4 23 5 21 6 20 7 18 8 17 9 16 10 15 11 6 12
REMARK SMILES IDX 7 13 8 14 14 15 10 16 12 17 9 18 11 20 13 22 4 24 22 26
REMARK SMILES IDX 19 28
REMARK H PARENT 9 19 11 21 13 23 4 25 22 27 19 29
REMARK Flexibility Score: inf
ROOT
ATOM      1  C   UNL     1       6.152  11.490 -22.656  1.00  0.00     0.180 A 
ATOM      2  C   UNL     1       7.053  12.568 -22.712  1.00  0.00     0.208 A 
ATOM      3  C   UNL     1       8.102  12.532 -23.645  1.00  0.00     0.238 A 
ATOM      4  O   UNL     1       8.873  13.524 -23.727  1.00  0.00    -0.285 OA
ATOM      5  C   UNL     1       8.246  11.412 -24.499  1.00  0.00     0.111 A 
ATOM      6  C   UNL     1       9.295  11.251 -25.454  1.00  0.00     0.134 A 
ATOM      7  C   UNL     1       9.265  10.164 -26.336  1.00  0.00     0.093 A 
ATOM      8  C   UNL     1       8.260   9.197 -26.253  1.00  0.00     0.123 A 
ATOM      9  C   UNL     1       7.265   9.314 -25.285  1.00  0.00     0.094 A 
ATOM     10  C   UNL     1       7.248  10.407 -24.416  1.00  0.00     0.146 A 
ATOM     11  O   UNL     1       6.276  10.485 -23.515  1.00  0.00    -0.452 OA
ENDROOT
BRANCH   1  12
ATOM     12  C   UNL     1       5.037  11.446 -21.684  1.00  0.00     0.029 A 
ATOM     13  C   UNL     1       5.144  10.630 -20.546  1.00  0.00     0.062 A 
ATOM     14  C   UNL     1       4.116  10.585 -19.600  1.00  0.00     0.162 A 
ATOM     15  C   UNL     1       3.894  12.247 -21.844  1.00  0.00     0.062 A 
ATOM     16  C   UNL     1       2.965  11.372 -19.775  1.00  0.00     0.200 A 
ATOM     17  C   UNL     1       2.859  12.210 -20.900  1.00  0.00     0.162 A 
BRANCH  14  18
ATOM     18  O   UNL     1       4.255   9.750 -18.492  1.00  0.00    -0.504 OA
ATOM     19  H   UNL     1       4.751   8.868 -18.539  1.00  0.00     0.293 HD
ENDBRANCH  14  18
BRANCH  16  20
ATOM     20  O   UNL     1       1.942  11.319 -18.829  1.00  0.00    -0.502 OA
ATOM     21  H   UNL     1       1.243  10.585 -18.829  1.00  0.00     0.293 HD
ENDBRANCH  16  20
BRANCH  17  22
ATOM     22  O   UNL     1       1.727  13.005 -21.073  1.00  0.00    -0.504 OA
ATOM     23  H   UNL     1       1.199  12.998 -21.938  1.00  0.00     0.293 HD
ENDBRANCH  17  22
ENDBRANCH   1  12
BRANCH   2  24
ATOM     24  O   UNL     1       6.879  13.674 -21.875  1.00  0.00    -0.502 OA
ATOM     25  H   UNL     1       6.027  13.833 -21.353  1.00  0.00     0.293 HD
ENDBRANCH   2  24
BRANCH   6  26
ATOM     26  O   UNL     1      10.395  12.108 -25.557  1.00  0.00    -0.507 OA
ATOM     27  H   UNL     1      11.180  11.963 -26.173  1.00  0.00     0.293 HD
ENDBRANCH   6  26
BRANCH   8  28
ATOM     28  O   UNL     1       8.246   8.110 -27.125  1.00  0.00    -0.508 OA
ATOM     29  H   UNL     1       8.064   8.227 -28.115  1.00  0.00     0.293 HD
ENDBRANCH   8  28
TORSDOF 7
ENDMDL
MODEL 5
REMARK VINA RESULT:    -4.863      3.122      7.156
REMARK INTER + INTRA:          -6.307
REMARK INTER:                  -6.184
REMARK INTRA:                  -0.123
REMARK UNBOUND:                -0.307
REMARK SMILES O=c1c(O)c(-c2cc(O)c(O)c(O)c2)oc2cc(O)cc(O)c12
REMARK SMILES IDX 5 1 3 2 2 3 1 4 23 5 21 6 20 7 18 8 17 9 16 10 15 11 6 12
REMARK SMILES IDX 7 13 8 14 14 15 10 16 12 17 9 18 11 20 13 22 4 24 22 26
REMARK SMILES IDX 19 28
REMARK H PARENT 9 19 11 21 13 23 4 25 22 27 19 29
REMARK Flexibility Score: inf
ROOT
ATOM      1  C   UNL     1       5.534  11.008 -22.329  1.00  0.00     0.180 A 
ATOM      2  C   UNL     1       5.336   9.769 -22.962  1.00  0.00     0.208 A 
ATOM      3  C   UNL     1       6.208   9.383 -23.994  1.00  0.00     0.238 A 
ATOM      4  O   UNL     1       6.057   8.250 -24.520  1.00  0.00    -0.285 OA
ATOM      5  C   UNL     1       7.257  10.248 -24.389  1.00  0.00     0.111 A 
ATOM      6  C   UNL     1       8.174   9.977 -25.448  1.00  0.00     0.134 A 
ATOM      7  C   UNL     1       9.253  10.843 -25.666  1.00  0.00     0.093 A 
ATOM      8  C   UNL     1       9.408  12.005 -24.905  1.00  0.00     0.123 A 
ATOM      9  C   UNL     1       8.484  12.308 -23.908  1.00  0.00     0.094 A 
ATOM     10  C   UNL     1       7.419  11.444 -23.643  1.00  0.00     0.146 A 
ATOM     11  O   UNL     1       6.567  11.766 -22.678  1.00  0.00    -0.452 OA
ENDROOT
BRANCH   1  12
ATOM     12  C   UNL     1       4.643  11.493 -21.251  1.00  0.00     0.029 A 
ATOM     13  C   UNL     1       5.196  11.901 -20.027  1.00  0.00     0.062 A 
ATOM     14  C   UNL     1       4.380  12.384 -19.000  1.00  0.00     0.162 A 
ATOM     15  C   UNL     1       3.256  11.608 -21.446  1.00  0.00     0.062 A 
ATOM     16  C   UNL     1       2.991  12.478 -19.192  1.00  0.00     0.200 A 
ATOM     17  C   UNL     1       2.430  12.093 -20.423  1.00  0.00     0.162 A 
BRANCH  14  18
ATOM     18  O   UNL     1       4.967  12.766 -17.795  1.00  0.00    -0.504 OA
ATOM     19  H   UNL     1       5.526  13.606 -17.709  1.00  0.00     0.293 HD
ENDBRANCH  14  18
BRANCH  16  20
ATOM     20  O   UNL     1       2.183  12.957 -18.161  1.00  0.00    -0.502 OA
ATOM     21  H   UNL     1       1.371  12.449 -17.829  1.00  0.00     0.293 HD
ENDBRANCH  16  20
BRANCH  17  22
ATOM     22  O   UNL     1       1.055  12.197 -20.625  1.00  0.00    -0.504 OA
ATOM     23  H   UNL     1       0.486  12.845 -20.093  1.00  0.00     0.293 HD
ENDBRANCH  17  22
ENDBRANCH   1  12
BRANCH   2  24
ATOM     24  O   UNL     1       4.307   8.921 -22.542  1.00  0.00    -0.502 OA
ATOM     25  H   UNL     1       3.908   8.211 -23.142  1.00  0.00     0.293 HD
ENDBRANCH   2  24
BRANCH   6  26
ATOM     26  O   UNL     1       8.056   8.895 -26.325  1.00  0.00    -0.507 OA
ATOM     27  H   UNL     1       7.254   8.287 -26.382  1.00  0.00     0.293 HD
ENDBRANCH   6  26
BRANCH   8  28
ATOM     28  O   UNL     1      10.476  12.869 -25.139  1.00  0.00    -0.508 OA
ATOM     29  H   UNL     1      10.328  13.831 -25.419  1.00  0.00     0.293 HD
ENDBRANCH   8  28
TORSDOF 7
ENDMDL
MODEL 6
REMARK VINA RESULT:    -4.823      3.342      4.721
REMARK INTER + INTRA:          -6.258
REMARK INTER:                  -5.895
REMARK INTRA:                  -0.363
REMARK UNBOUND:                -0.307
REMARK SMILES O=c1c(O)c(-c2cc(O)c(O)c(O)c2)oc2cc(O)cc(O)c12
REMARK SMILES IDX 5 1 3 2 2 3 1 4 23 5 21 6 20 7 18 8 17 9 16 10 15 11 6 12
REMARK SMILES IDX 7 13 8 14 14 15 10 16 12 17 9 18 11 20 13 22 4 24 22 26
REMARK SMILES IDX 19 28
REMARK H PARENT 9 19 11 21 13 23 4 25 22 27 19 29
REMARK Flexibility Score: inf
ROOT
ATOM      1  C   UNL     1       6.361  11.327 -22.703  1.00  0.00     0.180 A 
ATOM      2  C   UNL     1       6.544  10.943 -21.364  1.00  0.00     0.208 A 
ATOM      3  C   UNL     1       5.540  11.238 -20.426  1.00  0.00     0.238 A 
ATOM      4  O   UNL     1       5.687  10.845 -19.240  1.00  0.00    -0.285 OA
ATOM      5  C   UNL     1       4.373  11.927 -20.838  1.00  0.00     0.111 A 
ATOM      6  C   UNL     1       3.311  12.313 -19.966  1.00  0.00     0.134 A 
ATOM      7  C   UNL     1       2.146  12.873 -20.503  1.00  0.00     0.093 A 
ATOM      8  C   UNL     1       2.033  13.123 -21.874  1.00  0.00     0.123 A 
ATOM      9  C   UNL     1       3.089  12.804 -22.724  1.00  0.00     0.094 A 
ATOM     10  C   UNL     1       4.249  12.210 -22.223  1.00  0.00     0.146 A 
ATOM     11  O   UNL     1       5.227  11.912 -23.069  1.00  0.00    -0.452 OA
ENDROOT
BRANCH   1  12
ATOM     12  C   UNL     1       7.384  11.073 -23.742  1.00  0.00     0.029 A 
ATOM     13  C   UNL     1       7.258   9.951 -24.577  1.00  0.00     0.062 A 
ATOM     14  C   UNL     1       8.198   9.698 -25.580  1.00  0.00     0.162 A 
ATOM     15  C   UNL     1       8.451  11.962 -23.951  1.00  0.00     0.062 A 
ATOM     16  C   UNL     1       9.275  10.580 -25.772  1.00  0.00     0.200 A 
ATOM     17  C   UNL     1       9.398  11.718 -24.956  1.00  0.00     0.162 A 
BRANCH  14  18
ATOM     18  O   UNL     1       8.045   8.565 -26.379  1.00  0.00    -0.504 OA
ATOM     19  H   UNL     1       7.257   7.936 -26.277  1.00  0.00     0.293 HD
ENDBRANCH  14  18
BRANCH  16  20
ATOM     20  O   UNL     1      10.211  10.319 -26.772  1.00  0.00    -0.502 OA
ATOM     21  H   UNL     1      10.662  11.058 -27.298  1.00  0.00     0.293 HD
ENDBRANCH  16  20
BRANCH  17  22
ATOM     22  O   UNL     1      10.456  12.604 -25.148  1.00  0.00    -0.504 OA
ATOM     23  H   UNL     1      11.115  12.815 -24.408  1.00  0.00     0.293 HD
ENDBRANCH  17  22
ENDBRANCH   1  12
BRANCH   2  24
ATOM     24  O   UNL     1       7.694  10.245 -20.983  1.00  0.00    -0.502 OA
ATOM     25  H   UNL     1       8.497  10.146 -21.591  1.00  0.00     0.293 HD
ENDBRANCH   2  24
BRANCH   6  26
ATOM     26  O   UNL     1       3.361  12.193 -18.574  1.00  0.00    -0.507 OA
ATOM     27  H   UNL     1       3.569  11.341 -18.078  1.00  0.00     0.293 HD
ENDBRANCH   6  26
BRANCH   8  28
ATOM     28  O   UNL     1       0.876  13.695 -22.398  1.00  0.00    -0.508 OA
ATOM     29  H   UNL     1       0.040  13.810 -21.837  1.00  0.00     0.293 HD
ENDBRANCH   8  28
TORSDOF 7
ENDMDL
MODEL 7
REMARK VINA RESULT:    -4.741      5.230      7.583
REMARK INTER + INTRA:          -6.157
REMARK INTER:                  -6.239
REMARK INTRA:                   0.082
REMARK UNBOUND:                -0.307
REMARK SMILES O=c1c(O)c(-c2cc(O)c(O)c(O)c2)oc2cc(O)cc(O)c12
REMARK SMILES IDX 5 1 3 2 2 3 1 4 23 5 21 6 20 7 18 8 17 9 16 10 15 11 6 12
REMARK SMILES IDX 7 13 8 14 14 15 10 16 12 17 9 18 11 20 13 22 4 24 22 26
REMARK SMILES IDX 19 28
REMARK H PARENT 9 19 11 21 13 23 4 25 22 27 19 29
REMARK Flexibility Score: inf
ROOT
ATOM      1  C   UNL     1       8.488  10.948 -24.878  1.00  0.00     0.180 A 
ATOM      2  C   UNL     1       9.434  10.512 -25.822  1.00  0.00     0.208 A 
ATOM      3  C   UNL     1      10.616  11.252 -25.994  1.00  0.00     0.238 A 
ATOM      4  O   UNL     1      11.482  10.826 -26.801  1.00  0.00    -0.285 OA
ATOM      5  C   UNL     1      10.829  12.425 -25.231  1.00  0.00     0.111 A 
ATOM      6  C   UNL     1      11.971  13.273 -25.352  1.00  0.00     0.134 A 
ATOM      7  C   UNL     1      12.140  14.336 -24.456  1.00  0.00     0.093 A 
ATOM      8  C   UNL     1      11.175  14.621 -23.487  1.00  0.00     0.123 A 
ATOM      9  C   UNL     1      10.028  13.834 -23.400  1.00  0.00     0.094 A 
ATOM     10  C   UNL     1       9.849  12.745 -24.256  1.00  0.00     0.146 A 
ATOM     11  O   UNL     1       8.747  12.016 -24.133  1.00  0.00    -0.452 OA
ENDROOT
BRANCH   1  12
ATOM     12  C   UNL     1       7.209  10.236 -24.658  1.00  0.00     0.029 A 
ATOM     13  C   UNL     1       6.471   9.784 -25.764  1.00  0.00     0.062 A 
ATOM     14  C   UNL     1       5.270   9.090 -25.585  1.00  0.00     0.162 A 
ATOM     15  C   UNL     1       6.743   9.951 -23.364  1.00  0.00     0.062 A 
ATOM     16  C   UNL     1       4.798   8.825 -24.288  1.00  0.00     0.200 A 
ATOM     17  C   UNL     1       5.541   9.255 -23.175  1.00  0.00     0.162 A 
BRANCH  14  18
ATOM     18  O   UNL     1       4.560   8.670 -26.709  1.00  0.00    -0.504 OA
ATOM     19  H   UNL     1       5.001   8.551 -27.613  1.00  0.00     0.293 HD
ENDBRANCH  14  18
BRANCH  16  20
ATOM     20  O   UNL     1       3.597   8.136 -24.119  1.00  0.00    -0.502 OA
ATOM     21  H   UNL     1       2.702   8.538 -24.371  1.00  0.00     0.293 HD
ENDBRANCH  16  20
BRANCH  17  22
ATOM     22  O   UNL     1       5.086   8.984 -21.886  1.00  0.00    -0.504 OA
ATOM     23  H   UNL     1       5.713   8.983 -21.089  1.00  0.00     0.293 HD
ENDBRANCH  17  22
ENDBRANCH   1  12
BRANCH   2  24
ATOM     24  O   UNL     1       9.213   9.339 -26.548  1.00  0.00    -0.502 OA
ATOM     25  H   UNL     1       9.529   8.432 -26.227  1.00  0.00     0.293 HD
ENDBRANCH   2  24
BRANCH   6  26
ATOM     26  O   UNL     1      12.946  13.133 -26.344  1.00  0.00    -0.507 OA
ATOM     27  H   UNL     1      13.270  12.251 -26.710  1.00  0.00     0.293 HD
ENDBRANCH   6  26
BRANCH   8  28
ATOM     28  O   UNL     1      11.344  15.689 -22.609  1.00  0.00    -0.508 OA
ATOM     29  H   UNL     1      11.367  15.552 -21.605  1.00  0.00     0.293 HD
ENDBRANCH   8  28
TORSDOF 7
ENDMDL
MODEL 8
REMARK VINA RESULT:    -4.735      3.257      4.824
REMARK INTER + INTRA:          -6.148
REMARK INTER:                  -5.800
REMARK INTRA:                  -0.348
REMARK UNBOUND:                -0.307
REMARK SMILES O=c1c(O)c(-c2cc(O)c(O)c(O)c2)oc2cc(O)cc(O)c12
REMARK SMILES IDX 5 1 3 2 2 3 1 4 23 5 21 6 20 7 18 8 17 9 16 10 15 11 6 12
REMARK SMILES IDX 7 13 8 14 14 15 10 16 12 17 9 18 11 20 13 22 4 24 22 26
REMARK SMILES IDX 19 28
REMARK H PARENT 9 19 11 21 13 23 4 25 22 27 19 29
REMARK Flexibility Score: inf
ROOT
ATOM      1  C   UNL     1       6.266  11.399 -22.754  1.00  0.00     0.180 A 
ATOM      2  C   UNL     1       6.486  10.985 -21.429  1.00  0.00     0.208 A 
ATOM      3  C   UNL     1       5.528  11.295 -20.449  1.00  0.00     0.238 A 
ATOM      4  O   UNL     1       5.706  10.875 -19.276  1.00  0.00    -0.285 OA
ATOM      5  C   UNL     1       4.370  12.026 -20.805  1.00  0.00     0.111 A 
ATOM      6  C   UNL     1       3.353  12.430 -19.887  1.00  0.00     0.134 A 
ATOM      7  C   UNL     1       2.188  13.037 -20.371  1.00  0.00     0.093 A 
ATOM      8  C   UNL     1       2.032  13.314 -21.731  1.00  0.00     0.123 A 
ATOM      9  C   UNL     1       3.045  12.978 -22.627  1.00  0.00     0.094 A 
ATOM     10  C   UNL     1       4.203  12.338 -22.179  1.00  0.00     0.146 A 
ATOM     11  O   UNL     1       5.138  12.026 -23.067  1.00  0.00    -0.452 OA
ENDROOT
BRANCH   1  12
ATOM     12  C   UNL     1       7.241  11.131 -23.835  1.00  0.00     0.029 A 
ATOM     13  C   UNL     1       8.335  11.994 -24.008  1.00  0.00     0.062 A 
ATOM     14  C   UNL     1       9.283  11.754 -25.007  1.00  0.00     0.162 A 
ATOM     15  C   UNL     1       7.128   9.999 -24.658  1.00  0.00     0.062 A 
ATOM     16  C   UNL     1       9.154  10.631 -25.842  1.00  0.00     0.200 A 
ATOM     17  C   UNL     1       8.075   9.748 -25.662  1.00  0.00     0.162 A 
BRANCH  14  18
ATOM     18  O   UNL     1      10.347  12.643 -25.156  1.00  0.00    -0.504 OA
ATOM     19  H   UNL     1      10.212  13.601 -25.457  1.00  0.00     0.293 HD
ENDBRANCH  14  18
BRANCH  16  20
ATOM     20  O   UNL     1      10.102  10.400 -26.839  1.00  0.00    -0.502 OA
ATOM     21  H   UNL     1      10.742   9.615 -26.806  1.00  0.00     0.293 HD
ENDBRANCH  16  20
BRANCH  17  22
ATOM     22  O   UNL     1       7.948   8.625 -26.477  1.00  0.00    -0.504 OA
ATOM     23  H   UNL     1       7.540   7.763 -26.135  1.00  0.00     0.293 HD
ENDBRANCH  17  22
ENDBRANCH   1  12
BRANCH   2  24
ATOM     24  O   UNL     1       7.626  10.244 -21.104  1.00  0.00    -0.502 OA
ATOM     25  H   UNL     1       8.532  10.429 -21.517  1.00  0.00     0.293 HD
ENDBRANCH   2  24
BRANCH   6  26
ATOM     26  O   UNL     1       3.451  12.284 -18.500  1.00  0.00    -0.507 OA
ATOM     27  H   UNL     1       4.282  12.471 -17.961  1.00  0.00     0.293 HD
ENDBRANCH   6  26
BRANCH   8  28
ATOM     28  O   UNL     1       0.875  13.932 -22.202  1.00  0.00    -0.508 OA
ATOM     29  H   UNL     1      -0.002  13.870 -21.698  1.00  0.00     0.293 HD
ENDBRANCH   8  28
TORSDOF 7
ENDMDL
MODEL 9
REMARK VINA RESULT:    -4.477      3.316      4.575
REMARK INTER + INTRA:          -5.830
REMARK INTER:                  -5.674
REMARK INTRA:                  -0.157
REMARK UNBOUND:                -0.307
REMARK SMILES O=c1c(O)c(-c2cc(O)c(O)c(O)c2)oc2cc(O)cc(O)c12
REMARK SMILES IDX 5 1 3 2 2 3 1 4 23 5 21 6 20 7 18 8 17 9 16 10 15 11 6 12
REMARK SMILES IDX 7 13 8 14 14 15 10 16 12 17 9 18 11 20 13 22 4 24 22 26
REMARK SMILES IDX 19 28
REMARK H PARENT 9 19 11 21 13 23 4 25 22 27 19 29
REMARK Flexibility Score: inf
ROOT
ATOM      1  C   UNL     1       6.035  10.678 -23.935  1.00  0.00     0.180 A 
ATOM      2  C   UNL     1       4.734  10.739 -24.463  1.00  0.00     0.208 A 
ATOM      3  C   UNL     1       3.654  10.952 -23.591  1.00  0.00     0.238 A 
ATOM      4  O   UNL     1       2.498  11.058 -24.077  1.00  0.00    -0.285 OA
ATOM      5  C   UNL     1       3.887  11.086 -22.201  1.00  0.00     0.111 A 
ATOM      6  C   UNL     1       2.864  11.264 -21.222  1.00  0.00     0.134 A 
ATOM      7  C   UNL     1       3.218  11.516 -19.891  1.00  0.00     0.093 A 
ATOM      8  C   UNL     1       4.557  11.530 -19.492  1.00  0.00     0.123 A 
ATOM      9  C   UNL     1       5.561  11.298 -20.431  1.00  0.00     0.094 A 
ATOM     10  C   UNL     1       5.240  11.080 -21.772  1.00  0.00     0.146 A 
ATOM     11  O   UNL     1       6.227  10.873 -22.635  1.00  0.00    -0.452 OA
ENDROOT
BRANCH   1  12
ATOM     12  C   UNL     1       7.220  10.432 -24.787  1.00  0.00     0.029 A 
ATOM     13  C   UNL     1       8.283  11.350 -24.775  1.00  0.00     0.062 A 
ATOM     14  C   UNL     1       9.423  11.132 -25.554  1.00  0.00     0.162 A 
ATOM     15  C   UNL     1       7.332   9.269 -25.567  1.00  0.00     0.062 A 
ATOM     16  C   UNL     1       9.522   9.977 -26.348  1.00  0.00     0.200 A 
ATOM     17  C   UNL     1       8.472   9.041 -26.349  1.00  0.00     0.162 A 
BRANCH  14  18
ATOM     18  O   UNL     1      10.450  12.075 -25.525  1.00  0.00    -0.504 OA
ATOM     19  H   UNL     1      10.846  12.468 -26.371  1.00  0.00     0.293 HD
ENDBRANCH  14  18
BRANCH  16  20
ATOM     20  O   UNL     1      10.661   9.769 -27.125  1.00  0.00    -0.502 OA
ATOM     21  H   UNL     1      10.797   8.925 -27.670  1.00  0.00     0.293 HD
ENDBRANCH  16  20
BRANCH  17  22
ATOM     22  O   UNL     1       8.569   7.886 -27.124  1.00  0.00    -0.504 OA
ATOM     23  H   UNL     1       9.035   7.054 -26.783  1.00  0.00     0.293 HD
ENDBRANCH  17  22
ENDBRANCH   1  12
BRANCH   2  24
ATOM     24  O   UNL     1       4.529  10.626 -25.841  1.00  0.00    -0.502 OA
ATOM     25  H   UNL     1       4.463  11.432 -26.449  1.00  0.00     0.293 HD
ENDBRANCH   2  24
BRANCH   6  26
ATOM     26  O   UNL     1       1.496  11.176 -21.497  1.00  0.00    -0.507 OA
ATOM     27  H   UNL     1       0.821  10.710 -20.911  1.00  0.00     0.293 HD
ENDBRANCH   6  26
BRANCH   8  28
ATOM     28  O   UNL     1       4.901  11.767 -18.163  1.00  0.00    -0.508 OA
ATOM     29  H   UNL     1       5.001  12.708 -17.801  1.00  0.00     0.293 HD
ENDBRANCH   8  28
TORSDOF 7
ENDMDL
