MODEL 1
REMARK VINA RESULT:    -4.259      0.000      0.000
REMARK INTER + INTRA:         -10.212
REMARK INTER:                  -8.244
REMARK INTRA:                  -1.968
REMARK UNBOUND:                -1.968
REMARK SMILES CCCCCCCCCCCCCCCCCC(=O)[O-]
REMARK SMILES IDX 10 1 11 2 12 3 13 4 14 5 15 6 16 7 17 8 18 9 19 10 20 11
REMARK SMILES IDX 9 12 8 13 7 14 6 15 5 16 4 17 3 18 2 19 1 20
REMARK H PARENT
REMARK Flexibility Score: inf
ROOT
ATOM      1  C   UNL     1      -6.442 -38.459  -9.116  1.00  0.00     0.000 C 
ENDROOT
BRANCH   1   2
ATOM      2  C   UNL     1      -6.013 -39.349 -10.296  1.00  0.00     0.000 C 
BRANCH   2   3
ATOM      3  C   UNL     1      -6.701 -40.724 -10.282  1.00  0.00     0.000 C 
BRANCH   3   4
ATOM      4  C   UNL     1      -7.554 -40.967 -11.541  1.00  0.00     0.000 C 
BRANCH   4   5
ATOM      5  C   UNL     1      -7.656 -39.719 -12.432  1.00  0.00     0.000 C 
BRANCH   5   6
ATOM      6  C   UNL     1      -7.183 -39.985 -13.872  1.00  0.00     0.000 C 
BRANCH   6   7
ATOM      7  C   UNL     1      -6.154 -41.127 -13.959  1.00  0.00     0.006 C 
BRANCH   7   8
ATOM      8  C   UNL     1      -6.412 -42.128 -15.097  1.00  0.00     0.053 C 
BRANCH   8   9
ATOM      9  C   UNL     1      -5.620 -41.801 -16.326  1.00  0.00     0.041 C 
ATOM     10  O   UNL     1      -4.509 -42.356 -16.530  1.00  0.00    -0.550 OA
ATOM     11  O   UNL     1      -6.096 -40.860 -17.230  1.00  0.00    -0.550 OA
ENDBRANCH   8   9
ENDBRANCH   7   8
ENDBRANCH   6   7
ENDBRANCH   5   6
ENDBRANCH   4   5
ENDBRANCH   3   4
ENDBRANCH   2   3
ENDBRANCH   1   2
BRANCH   1  12
ATOM     12  C   UNL     1      -7.957 -38.551  -8.830  1.00  0.00     0.000 C 
BRANCH  12  13
ATOM     13  C   UNL     1      -8.694 -37.204  -8.955  1.00  0.00    -0.000 C 
BRANCH  13  14
ATOM     14  C   UNL     1      -8.719 -36.604 -10.374  1.00  0.00    -0.000 C 
BRANCH  14  15
ATOM     15  C   UNL     1      -8.289 -35.128 -10.462  1.00  0.00    -0.000 C 
BRANCH  15  16
ATOM     16  C   UNL     1      -6.766 -34.942 -10.372  1.00  0.00    -0.000 C 
BRANCH  16  17
ATOM     17  C   UNL     1      -6.387 -34.104  -9.146  1.00  0.00    -0.000 C 
BRANCH  17  18
ATOM     18  C   UNL     1      -5.482 -34.898  -8.193  1.00  0.00    -0.000 C 
BRANCH  18  19
ATOM     19  C   UNL     1      -4.379 -35.670  -8.932  1.00  0.00    -0.003 C 
ATOM     20  C   UNL     1      -3.092 -35.791  -8.116  1.00  0.00     0.004 C 
ENDBRANCH  18  19
ENDBRANCH  17  18
ENDBRANCH  16  17
ENDBRANCH  15  16
ENDBRANCH  14  15
ENDBRANCH  13  14
ENDBRANCH  12  13
ENDBRANCH   1  12
TORSDOF 16
ENDMDL
MODEL 2
REMARK VINA RESULT:    -4.193      2.013      2.934
REMARK INTER + INTRA:         -10.082
REMARK INTER:                  -8.528
REMARK INTRA:                  -1.554
REMARK UNBOUND:                -1.968
REMARK SMILES CCCCCCCCCCCCCCCCCC(=O)[O-]
REMARK SMILES IDX 10 1 11 2 12 3 13 4 14 5 15 6 16 7 17 8 18 9 19 10 20 11
REMARK SMILES IDX 9 12 8 13 7 14 6 15 5 16 4 17 3 18 2 19 1 20
REMARK H PARENT
REMARK Flexibility Score: inf
ROOT
ATOM      1  C   UNL     1      -5.934 -39.675 -11.038  1.00  0.00     0.000 C 
ENDROOT
BRANCH   1   2
ATOM      2  C   UNL     1      -6.817 -40.501 -11.990  1.00  0.00     0.000 C 
BRANCH   2   3
ATOM      3  C   UNL     1      -7.322 -39.683 -13.190  1.00  0.00     0.000 C 
BRANCH   3   4
ATOM      4  C   UNL     1      -7.906 -40.572 -14.303  1.00  0.00     0.000 C 
BRANCH   4   5
ATOM      5  C   UNL     1      -6.842 -41.463 -14.963  1.00  0.00     0.000 C 
BRANCH   5   6
ATOM      6  C   UNL     1      -6.259 -40.836 -16.242  1.00  0.00     0.000 C 
BRANCH   6   7
ATOM      7  C   UNL     1      -7.344 -40.462 -17.268  1.00  0.00     0.006 C 
BRANCH   7   8
ATOM      8  C   UNL     1      -7.035 -39.198 -18.087  1.00  0.00     0.053 C 
BRANCH   8   9
ATOM      9  C   UNL     1      -7.898 -38.041 -17.684  1.00  0.00     0.041 C 
ATOM     10  O   UNL     1      -8.104 -37.798 -16.466  1.00  0.00    -0.550 OA
ATOM     11  O   UNL     1      -8.498 -37.250 -18.655  1.00  0.00    -0.550 OA
ENDBRANCH   8   9
ENDBRANCH   7   8
ENDBRANCH   6   7
ENDBRANCH   5   6
ENDBRANCH   4   5
ENDBRANCH   3   4
ENDBRANCH   2   3
ENDBRANCH   1   2
BRANCH   1  12
ATOM     12  C   UNL     1      -6.466 -39.681  -9.588  1.00  0.00     0.000 C 
BRANCH  12  13
ATOM     13  C   UNL     1      -7.051 -38.329  -9.137  1.00  0.00    -0.000 C 
BRANCH  13  14
ATOM     14  C   UNL     1      -7.480 -37.389 -10.280  1.00  0.00    -0.000 C 
BRANCH  14  15
ATOM     15  C   UNL     1      -8.436 -36.255  -9.864  1.00  0.00    -0.000 C 
BRANCH  15  16
ATOM     16  C   UNL     1      -7.990 -34.878 -10.381  1.00  0.00    -0.000 C 
BRANCH  16  17
ATOM     17  C   UNL     1      -6.461 -34.772 -10.412  1.00  0.00    -0.000 C 
BRANCH  17  18
ATOM     18  C   UNL     1      -5.927 -34.133  -9.123  1.00  0.00    -0.000 C 
BRANCH  18  19
ATOM     19  C   UNL     1      -5.234 -35.148  -8.203  1.00  0.00    -0.003 C 
ATOM     20  C   UNL     1      -4.110 -35.912  -8.904  1.00  0.00     0.004 C 
ENDBRANCH  18  19
ENDBRANCH  17  18
ENDBRANCH  16  17
ENDBRANCH  15  16
ENDBRANCH  14  15
ENDBRANCH  13  14
ENDBRANCH  12  13
ENDBRANCH   1  12
TORSDOF 16
ENDMDL
MODEL 3
REMARK VINA RESULT:    -4.170      2.008      3.655
REMARK INTER + INTRA:         -10.039
REMARK INTER:                  -8.549
REMARK INTRA:                  -1.490
REMARK UNBOUND:                -1.968
REMARK SMILES CCCCCCCCCCCCCCCCCC(=O)[O-]
REMARK SMILES IDX 10 1 11 2 12 3 13 4 14 5 15 6 16 7 17 8 18 9 19 10 20 11
REMARK SMILES IDX 9 12 8 13 7 14 6 15 5 16 4 17 3 18 2 19 1 20
REMARK H PARENT
REMARK Flexibility Score: inf
ROOT
ATOM      1  C   UNL     1      -5.283 -38.764 -10.452  1.00  0.00     0.000 C 
ENDROOT
BRANCH   1   2
ATOM      2  C   UNL     1      -6.539 -39.232 -11.209  1.00  0.00     0.000 C 
BRANCH   2   3
ATOM      3  C   UNL     1      -6.723 -40.758 -11.165  1.00  0.00     0.000 C 
BRANCH   3   4
ATOM      4  C   UNL     1      -7.190 -41.334 -12.514  1.00  0.00     0.000 C 
BRANCH   4   5
ATOM      5  C   UNL     1      -7.441 -40.240 -13.564  1.00  0.00     0.000 C 
BRANCH   5   6
ATOM      6  C   UNL     1      -6.683 -40.502 -14.878  1.00  0.00     0.000 C 
BRANCH   6   7
ATOM      7  C   UNL     1      -7.387 -39.889 -16.103  1.00  0.00     0.006 C 
BRANCH   7   8
ATOM      8  C   UNL     1      -8.123 -38.569 -15.817  1.00  0.00     0.053 C 
BRANCH   8   9
ATOM      9  C   UNL     1      -8.299 -37.744 -17.055  1.00  0.00     0.041 C 
ATOM     10  O   UNL     1      -9.328 -37.033 -17.201  1.00  0.00    -0.550 OA
ATOM     11  O   UNL     1      -7.341 -37.783 -18.059  1.00  0.00    -0.550 OA
ENDBRANCH   8   9
ENDBRANCH   7   8
ENDBRANCH   6   7
ENDBRANCH   5   6
ENDBRANCH   4   5
ENDBRANCH   3   4
ENDBRANCH   2   3
ENDBRANCH   1   2
BRANCH   1  12
ATOM     12  C   UNL     1      -5.608 -37.710  -9.370  1.00  0.00     0.000 C 
BRANCH  12  13
ATOM     13  C   UNL     1      -4.727 -36.448  -9.450  1.00  0.00    -0.000 C 
BRANCH  13  14
ATOM     14  C   UNL     1      -4.970 -35.410  -8.337  1.00  0.00    -0.000 C 
BRANCH  14  15
ATOM     15  C   UNL     1      -6.172 -34.477  -8.572  1.00  0.00    -0.000 C 
BRANCH  15  16
ATOM     16  C   UNL     1      -6.484 -34.266 -10.062  1.00  0.00    -0.000 C 
BRANCH  16  17
ATOM     17  C   UNL     1      -7.885 -34.781 -10.408  1.00  0.00    -0.000 C 
BRANCH  17  18
ATOM     18  C   UNL     1      -8.552 -35.426  -9.185  1.00  0.00    -0.000 C 
BRANCH  18  19
ATOM     19  C   UNL     1      -9.841 -36.181  -9.543  1.00  0.00    -0.003 C 
ATOM     20  C   UNL     1      -9.598 -37.662  -9.836  1.00  0.00     0.004 C 
ENDBRANCH  18  19
ENDBRANCH  17  18
ENDBRANCH  16  17
ENDBRANCH  15  16
ENDBRANCH  14  15
ENDBRANCH  13  14
ENDBRANCH  12  13
ENDBRANCH   1  12
TORSDOF 16
ENDMDL
MODEL 4
REMARK VINA RESULT:    -4.116      1.788      2.148
REMARK INTER + INTRA:          -9.934
REMARK INTER:                  -8.068
REMARK INTRA:                  -1.867
REMARK UNBOUND:                -1.968
REMARK SMILES CCCCCCCCCCCCCCCCCC(=O)[O-]
REMARK SMILES IDX 10 1 11 2 12 3 13 4 14 5 15 6 16 7 17 8 18 9 19 10 20 11
REMARK SMILES IDX 9 12 8 13 7 14 6 15 5 16 4 17 3 18 2 19 1 20
REMARK H PARENT
REMARK Flexibility Score: inf
ROOT
ATOM      1  C   UNL     1      -6.719 -38.575  -8.991  1.00  0.00     0.000 C 
ENDROOT
BRANCH   1   2
ATOM      2  C   UNL     1      -6.528 -39.570 -10.150  1.00  0.00     0.000 C 
BRANCH   2   3
ATOM      3  C   UNL     1      -7.743 -40.491 -10.346  1.00  0.00     0.000 C 
BRANCH   3   4
ATOM      4  C   UNL     1      -8.545 -40.145 -11.614  1.00  0.00     0.000 C 
BRANCH   4   5
ATOM      5  C   UNL     1      -7.786 -39.186 -12.546  1.00  0.00     0.000 C 
BRANCH   5   6
ATOM      6  C   UNL     1      -7.317 -39.873 -13.841  1.00  0.00     0.000 C 
BRANCH   6   7
ATOM      7  C   UNL     1      -8.194 -39.513 -15.055  1.00  0.00     0.006 C 
BRANCH   7   8
ATOM      8  C   UNL     1      -7.437 -39.463 -16.392  1.00  0.00     0.053 C 
BRANCH   8   9
ATOM      9  C   UNL     1      -7.811 -38.261 -17.205  1.00  0.00     0.041 C 
ATOM     10  O   UNL     1      -8.604 -37.402 -16.739  1.00  0.00    -0.550 OA
ATOM     11  O   UNL     1      -7.306 -38.106 -18.490  1.00  0.00    -0.550 OA
ENDBRANCH   8   9
ENDBRANCH   7   8
ENDBRANCH   6   7
ENDBRANCH   5   6
ENDBRANCH   4   5
ENDBRANCH   3   4
ENDBRANCH   2   3
ENDBRANCH   1   2
BRANCH   1  12
ATOM     12  C   UNL     1      -8.193 -38.469  -8.542  1.00  0.00     0.000 C 
BRANCH  12  13
ATOM     13  C   UNL     1      -8.774 -37.046  -8.652  1.00  0.00    -0.000 C 
BRANCH  13  14
ATOM     14  C   UNL     1      -9.056 -36.565 -10.088  1.00  0.00    -0.000 C 
BRANCH  14  15
ATOM     15  C   UNL     1      -8.506 -35.166 -10.424  1.00  0.00    -0.000 C 
BRANCH  15  16
ATOM     16  C   UNL     1      -6.971 -35.106 -10.405  1.00  0.00    -0.000 C 
BRANCH  16  17
ATOM     17  C   UNL     1      -6.474 -34.067  -9.394  1.00  0.00    -0.000 C 
BRANCH  17  18
ATOM     18  C   UNL     1      -5.488 -34.695  -8.399  1.00  0.00    -0.000 C 
BRANCH  18  19
ATOM     19  C   UNL     1      -4.494 -35.651  -9.074  1.00  0.00    -0.003 C 
ATOM     20  C   UNL     1      -3.204 -35.828  -8.273  1.00  0.00     0.004 C 
ENDBRANCH  18  19
ENDBRANCH  17  18
ENDBRANCH  16  17
ENDBRANCH  15  16
ENDBRANCH  14  15
ENDBRANCH  13  14
ENDBRANCH  12  13
ENDBRANCH   1  12
TORSDOF 16
ENDMDL
MODEL 5
REMARK VINA RESULT:    -4.101      3.169      5.005
REMARK INTER + INTRA:          -9.905
REMARK INTER:                  -8.764
REMARK INTRA:                  -1.141
REMARK UNBOUND:                -1.968
REMARK SMILES CCCCCCCCCCCCCCCCCC(=O)[O-]
REMARK SMILES IDX 10 1 11 2 12 3 13 4 14 5 15 6 16 7 17 8 18 9 19 10 20 11
REMARK SMILES IDX 9 12 8 13 7 14 6 15 5 16 4 17 3 18 2 19 1 20
REMARK H PARENT
REMARK Flexibility Score: inf
ROOT
ATOM      1  C   UNL     1      -7.405 -39.758 -14.050  1.00  0.00     0.000 C 
ENDROOT
BRANCH   1   2
ATOM      2  C   UNL     1      -6.461 -40.908 -14.444  1.00  0.00     0.000 C 
BRANCH   2   3
ATOM      3  C   UNL     1      -6.773 -41.481 -15.835  1.00  0.00     0.000 C 
BRANCH   3   4
ATOM      4  C   UNL     1      -6.274 -40.571 -16.972  1.00  0.00     0.000 C 
BRANCH   4   5
ATOM      5  C   UNL     1      -7.365 -40.282 -18.016  1.00  0.00     0.000 C 
BRANCH   5   6
ATOM      6  C   UNL     1      -8.567 -39.531 -17.417  1.00  0.00     0.000 C 
BRANCH   6   7
ATOM      7  C   UNL     1      -8.296 -38.027 -17.230  1.00  0.00     0.006 C 
BRANCH   7   8
ATOM      8  C   UNL     1      -9.540 -37.135 -17.374  1.00  0.00     0.053 C 
BRANCH   8   9
ATOM      9  C   UNL     1      -9.356 -36.077 -18.419  1.00  0.00     0.041 C 
ATOM     10  O   UNL     1      -9.134 -36.400 -19.615  1.00  0.00    -0.550 OA
ATOM     11  O   UNL     1      -9.401 -34.735 -18.066  1.00  0.00    -0.550 OA
ENDBRANCH   8   9
ENDBRANCH   7   8
ENDBRANCH   6   7
ENDBRANCH   5   6
ENDBRANCH   4   5
ENDBRANCH   3   4
ENDBRANCH   2   3
ENDBRANCH   1   2
BRANCH   1  12
ATOM     12  C   UNL     1      -7.425 -39.509 -12.525  1.00  0.00     0.000 C 
BRANCH  12  13
ATOM     13  C   UNL     1      -6.305 -40.243 -11.763  1.00  0.00    -0.000 C 
BRANCH  13  14
ATOM     14  C   UNL     1      -5.591 -39.404 -10.685  1.00  0.00    -0.000 C 
BRANCH  14  15
ATOM     15  C   UNL     1      -6.438 -39.095  -9.437  1.00  0.00    -0.000 C 
BRANCH  15  16
ATOM     16  C   UNL     1      -6.384 -37.614  -9.029  1.00  0.00    -0.000 C 
BRANCH  16  17
ATOM     17  C   UNL     1      -5.306 -36.865  -9.822  1.00  0.00    -0.000 C 
BRANCH  17  18
ATOM     18  C   UNL     1      -4.590 -35.834  -8.939  1.00  0.00    -0.000 C 
BRANCH  18  19
ATOM     19  C   UNL     1      -5.553 -34.798  -8.339  1.00  0.00    -0.003 C 
ATOM     20  C   UNL     1      -6.274 -33.972  -9.405  1.00  0.00     0.004 C 
ENDBRANCH  18  19
ENDBRANCH  17  18
ENDBRANCH  16  17
ENDBRANCH  15  16
ENDBRANCH  14  15
ENDBRANCH  13  14
ENDBRANCH  12  13
ENDBRANCH   1  12
TORSDOF 16
ENDMDL
MODEL 6
REMARK VINA RESULT:    -4.086      2.592      4.147
REMARK INTER + INTRA:          -9.875
REMARK INTER:                  -8.726
REMARK INTRA:                  -1.149
REMARK UNBOUND:                -1.968
REMARK SMILES CCCCCCCCCCCCCCCCCC(=O)[O-]
REMARK SMILES IDX 10 1 11 2 12 3 13 4 14 5 15 6 16 7 17 8 18 9 19 10 20 11
REMARK SMILES IDX 9 12 8 13 7 14 6 15 5 16 4 17 3 18 2 19 1 20
REMARK H PARENT
REMARK Flexibility Score: inf
ROOT
ATOM      1  C   UNL     1      -6.830 -40.238 -12.987  1.00  0.00     0.000 C 
ENDROOT
BRANCH   1   2
ATOM      2  C   UNL     1      -7.502 -39.440 -14.119  1.00  0.00     0.000 C 
BRANCH   2   3
ATOM      3  C   UNL     1      -7.241 -40.046 -15.507  1.00  0.00     0.000 C 
BRANCH   3   4
ATOM      4  C   UNL     1      -6.179 -41.160 -15.472  1.00  0.00     0.000 C 
BRANCH   4   5
ATOM      5  C   UNL     1      -5.704 -41.563 -16.878  1.00  0.00     0.000 C 
BRANCH   5   6
ATOM      6  C   UNL     1      -6.220 -40.608 -17.969  1.00  0.00     0.000 C 
BRANCH   6   7
ATOM      7  C   UNL     1      -5.702 -40.974 -19.372  1.00  0.00     0.006 C 
BRANCH   7   8
ATOM      8  C   UNL     1      -5.317 -39.766 -20.241  1.00  0.00     0.053 C 
BRANCH   8   9
ATOM      9  C   UNL     1      -4.801 -40.181 -21.585  1.00  0.00     0.041 C 
ATOM     10  O   UNL     1      -3.759 -40.882 -21.675  1.00  0.00    -0.550 OA
ATOM     11  O   UNL     1      -5.454 -39.769 -22.739  1.00  0.00    -0.550 OA
ENDBRANCH   8   9
ENDBRANCH   7   8
ENDBRANCH   6   7
ENDBRANCH   5   6
ENDBRANCH   4   5
ENDBRANCH   3   4
ENDBRANCH   2   3
ENDBRANCH   1   2
BRANCH   1  12
ATOM     12  C   UNL     1      -7.069 -39.604 -11.598  1.00  0.00     0.000 C 
BRANCH  12  13
ATOM     13  C   UNL     1      -5.775 -39.357 -10.799  1.00  0.00    -0.000 C 
BRANCH  13  14
ATOM     14  C   UNL     1      -5.962 -38.596  -9.472  1.00  0.00    -0.000 C 
BRANCH  14  15
ATOM     15  C   UNL     1      -7.386 -38.066  -9.223  1.00  0.00    -0.000 C 
BRANCH  15  16
ATOM     16  C   UNL     1      -7.420 -36.556  -8.938  1.00  0.00    -0.000 C 
BRANCH  16  17
ATOM     17  C   UNL     1      -6.931 -35.757 -10.151  1.00  0.00    -0.000 C 
BRANCH  17  18
ATOM     18  C   UNL     1      -5.923 -34.678  -9.730  1.00  0.00    -0.000 C 
BRANCH  18  19
ATOM     19  C   UNL     1      -5.200 -35.024  -8.420  1.00  0.00    -0.003 C 
ATOM     20  C   UNL     1      -3.836 -35.674  -8.651  1.00  0.00     0.004 C 
ENDBRANCH  18  19
ENDBRANCH  17  18
ENDBRANCH  16  17
ENDBRANCH  15  16
ENDBRANCH  14  15
ENDBRANCH  13  14
ENDBRANCH  12  13
ENDBRANCH   1  12
TORSDOF 16
ENDMDL
MODEL 7
REMARK VINA RESULT:    -4.080      4.575      8.424
REMARK INTER + INTRA:          -9.865
REMARK INTER:                  -8.856
REMARK INTRA:                  -1.009
REMARK UNBOUND:                -1.968
REMARK SMILES CCCCCCCCCCCCCCCCCC(=O)[O-]
REMARK SMILES IDX 10 1 11 2 12 3 13 4 14 5 15 6 16 7 17 8 18 9 19 10 20 11
REMARK SMILES IDX 9 12 8 13 7 14 6 15 5 16 4 17 3 18 2 19 1 20
REMARK H PARENT
REMARK Flexibility Score: inf
ROOT
ATOM      1  C   UNL     1      -8.366 -39.814 -13.834  1.00  0.00     0.000 C 
ENDROOT
BRANCH   1   2
ATOM      2  C   UNL     1      -7.796 -39.288 -12.505  1.00  0.00     0.000 C 
BRANCH   2   3
ATOM      3  C   UNL     1      -6.604 -40.117 -12.001  1.00  0.00     0.000 C 
BRANCH   3   4
ATOM      4  C   UNL     1      -6.335 -39.909 -10.500  1.00  0.00     0.000 C 
BRANCH   4   5
ATOM      5  C   UNL     1      -5.234 -38.866 -10.240  1.00  0.00     0.000 C 
BRANCH   5   6
ATOM      6  C   UNL     1      -5.742 -37.668  -9.418  1.00  0.00     0.000 C 
BRANCH   6   7
ATOM      7  C   UNL     1      -4.801 -36.452  -9.497  1.00  0.00     0.006 C 
BRANCH   7   8
ATOM      8  C   UNL     1      -5.218 -35.268  -8.609  1.00  0.00     0.053 C 
BRANCH   8   9
ATOM      9  C   UNL     1      -6.163 -34.342  -9.313  1.00  0.00     0.041 C 
ATOM     10  O   UNL     1      -6.339 -34.441 -10.555  1.00  0.00    -0.550 OA
ATOM     11  O   UNL     1      -6.827 -33.352  -8.600  1.00  0.00    -0.550 OA
ENDBRANCH   8   9
ENDBRANCH   7   8
ENDBRANCH   6   7
ENDBRANCH   5   6
ENDBRANCH   4   5
ENDBRANCH   3   4
ENDBRANCH   2   3
ENDBRANCH   1   2
BRANCH   1  12
ATOM     12  C   UNL     1      -7.503 -39.404 -15.048  1.00  0.00     0.000 C 
BRANCH  12  13
ATOM     13  C   UNL     1      -6.804 -40.590 -15.741  1.00  0.00    -0.000 C 
BRANCH  13  14
ATOM     14  C   UNL     1      -6.540 -40.403 -17.247  1.00  0.00    -0.000 C 
BRANCH  14  15
ATOM     15  C   UNL     1      -7.777 -40.024 -18.081  1.00  0.00    -0.000 C 
BRANCH  15  16
ATOM     16  C   UNL     1      -7.497 -38.902 -19.093  1.00  0.00    -0.000 C 
BRANCH  16  17
ATOM     17  C   UNL     1      -7.223 -37.574 -18.378  1.00  0.00    -0.000 C 
BRANCH  17  18
ATOM     18  C   UNL     1      -8.535 -36.861 -18.019  1.00  0.00    -0.000 C 
BRANCH  18  19
ATOM     19  C   UNL     1      -9.629 -37.070 -19.076  1.00  0.00    -0.003 C 
ATOM     20  C   UNL     1     -10.105 -35.759 -19.704  1.00  0.00     0.004 C 
ENDBRANCH  18  19
ENDBRANCH  17  18
ENDBRANCH  16  17
ENDBRANCH  15  16
ENDBRANCH  14  15
ENDBRANCH  13  14
ENDBRANCH  12  13
ENDBRANCH   1  12
TORSDOF 16
ENDMDL
MODEL 8
REMARK VINA RESULT:    -4.080      1.868      2.469
REMARK INTER + INTRA:          -9.864
REMARK INTER:                  -8.119
REMARK INTRA:                  -1.745
REMARK UNBOUND:                -1.968
REMARK SMILES CCCCCCCCCCCCCCCCCC(=O)[O-]
REMARK SMILES IDX 10 1 11 2 12 3 13 4 14 5 15 6 16 7 17 8 18 9 19 10 20 11
REMARK SMILES IDX 9 12 8 13 7 14 6 15 5 16 4 17 3 18 2 19 1 20
REMARK H PARENT
REMARK Flexibility Score: inf
ROOT
ATOM      1  C   UNL     1      -5.924 -38.835 -10.034  1.00  0.00     0.000 C 
ENDROOT
BRANCH   1   2
ATOM      2  C   UNL     1      -6.062 -39.717 -11.288  1.00  0.00     0.000 C 
BRANCH   2   3
ATOM      3  C   UNL     1      -7.279 -39.339 -12.147  1.00  0.00     0.000 C 
BRANCH   3   4
ATOM      4  C   UNL     1      -7.297 -40.076 -13.499  1.00  0.00     0.000 C 
BRANCH   4   5
ATOM      5  C   UNL     1      -6.351 -41.287 -13.520  1.00  0.00     0.000 C 
BRANCH   5   6
ATOM      6  C   UNL     1      -5.818 -41.593 -14.931  1.00  0.00     0.000 C 
BRANCH   6   7
ATOM      7  C   UNL     1      -4.881 -42.814 -14.961  1.00  0.00     0.006 C 
BRANCH   7   8
ATOM      8  C   UNL     1      -5.605 -44.169 -14.991  1.00  0.00     0.053 C 
BRANCH   8   9
ATOM      9  C   UNL     1      -5.454 -44.918 -13.702  1.00  0.00     0.041 C 
ATOM     10  O   UNL     1      -4.550 -45.785 -13.575  1.00  0.00    -0.550 OA
ATOM     11  O   UNL     1      -6.329 -44.677 -12.651  1.00  0.00    -0.550 OA
ENDBRANCH   8   9
ENDBRANCH   7   8
ENDBRANCH   6   7
ENDBRANCH   5   6
ENDBRANCH   4   5
ENDBRANCH   3   4
ENDBRANCH   2   3
ENDBRANCH   1   2
BRANCH   1  12
ATOM     12  C   UNL     1      -7.037 -39.105  -8.998  1.00  0.00     0.000 C 
BRANCH  12  13
ATOM     13  C   UNL     1      -7.803 -37.840  -8.567  1.00  0.00    -0.000 C 
BRANCH  13  14
ATOM     14  C   UNL     1      -9.009 -37.474  -9.453  1.00  0.00    -0.000 C 
BRANCH  14  15
ATOM     15  C   UNL     1      -8.747 -36.350 -10.473  1.00  0.00    -0.000 C 
BRANCH  15  16
ATOM     16  C   UNL     1      -8.134 -35.094  -9.835  1.00  0.00    -0.000 C 
BRANCH  16  17
ATOM     17  C   UNL     1      -6.705 -34.863 -10.341  1.00  0.00    -0.000 C 
BRANCH  17  18
ATOM     18  C   UNL     1      -5.860 -34.130  -9.289  1.00  0.00    -0.000 C 
BRANCH  18  19
ATOM     19  C   UNL     1      -5.246 -35.083  -8.254  1.00  0.00    -0.003 C 
ATOM     20  C   UNL     1      -4.076 -35.893  -8.815  1.00  0.00     0.004 C 
ENDBRANCH  18  19
ENDBRANCH  17  18
ENDBRANCH  16  17
ENDBRANCH  15  16
ENDBRANCH  14  15
ENDBRANCH  13  14
ENDBRANCH  12  13
ENDBRANCH   1  12
TORSDOF 16
ENDMDL
MODEL 9
REMARK VINA RESULT:    -3.998      2.708      4.193
REMARK INTER + INTRA:          -9.707
REMARK INTER:                  -7.987
REMARK INTRA:                  -1.720
REMARK UNBOUND:                -1.968
REMARK SMILES CCCCCCCCCCCCCCCCCC(=O)[O-]
REMARK SMILES IDX 10 1 11 2 12 3 13 4 14 5 15 6 16 7 17 8 18 9 19 10 20 11
REMARK SMILES IDX 9 12 8 13 7 14 6 15 5 16 4 17 3 18 2 19 1 20
REMARK H PARENT
REMARK Flexibility Score: inf
ROOT
ATOM      1  C   UNL     1      -5.448 -39.158 -10.162  1.00  0.00     0.000 C 
ENDROOT
BRANCH   1   2
ATOM      2  C   UNL     1      -6.392 -39.445 -11.343  1.00  0.00     0.000 C 
BRANCH   2   3
ATOM      3  C   UNL     1      -7.024 -40.844 -11.270  1.00  0.00     0.000 C 
BRANCH   3   4
ATOM      4  C   UNL     1      -8.045 -40.970 -10.124  1.00  0.00     0.000 C 
BRANCH   4   5
ATOM      5  C   UNL     1      -8.148 -42.406  -9.585  1.00  0.00     0.000 C 
BRANCH   5   6
ATOM      6  C   UNL     1      -6.947 -43.276  -9.994  1.00  0.00     0.000 C 
BRANCH   6   7
ATOM      7  C   UNL     1      -7.353 -44.711 -10.372  1.00  0.00     0.006 C 
BRANCH   7   8
ATOM      8  C   UNL     1      -6.969 -45.124 -11.803  1.00  0.00     0.053 C 
BRANCH   8   9
ATOM      9  C   UNL     1      -5.532 -45.537 -11.902  1.00  0.00     0.041 C 
ATOM     10  O   UNL     1      -4.923 -45.960 -10.885  1.00  0.00    -0.550 OA
ATOM     11  O   UNL     1      -4.859 -45.428 -13.112  1.00  0.00    -0.550 OA
ENDBRANCH   8   9
ENDBRANCH   7   8
ENDBRANCH   6   7
ENDBRANCH   5   6
ENDBRANCH   4   5
ENDBRANCH   3   4
ENDBRANCH   2   3
ENDBRANCH   1   2
BRANCH   1  12
ATOM     12  C   UNL     1      -5.838 -37.877  -9.393  1.00  0.00     0.000 C 
BRANCH  12  13
ATOM     13  C   UNL     1      -4.876 -36.696  -9.627  1.00  0.00    -0.000 C 
BRANCH  13  14
ATOM     14  C   UNL     1      -4.896 -35.611  -8.533  1.00  0.00    -0.000 C 
BRANCH  14  15
ATOM     15  C   UNL     1      -6.039 -34.587  -8.656  1.00  0.00    -0.000 C 
BRANCH  15  16
ATOM     16  C   UNL     1      -6.450 -34.320 -10.113  1.00  0.00    -0.000 C 
BRANCH  16  17
ATOM     17  C   UNL     1      -7.892 -34.772 -10.368  1.00  0.00    -0.000 C 
BRANCH  17  18
ATOM     18  C   UNL     1      -8.517 -35.363  -9.097  1.00  0.00    -0.000 C 
BRANCH  18  19
ATOM     19  C   UNL     1      -9.564 -36.445  -9.400  1.00  0.00    -0.003 C 
ATOM     20  C   UNL     1      -9.280 -37.195 -10.702  1.00  0.00     0.004 C 
ENDBRANCH  18  19
ENDBRANCH  17  18
ENDBRANCH  16  17
ENDBRANCH  15  16
ENDBRANCH  14  15
ENDBRANCH  13  14
ENDBRANCH  12  13
ENDBRANCH   1  12
TORSDOF 16
ENDMDL
