MODEL 1
REMARK VINA RESULT:    -4.883      0.000      0.000
REMARK INTER + INTRA:          -4.883
REMARK INTER:                  -4.883
REMARK INTRA:                   0.000
REMARK UNBOUND:                 0.000
REMARK SMILES CC1=CC(=O)[C@H]2C[C@@H]1C2(C)C
REMARK SMILES IDX 1 1 2 2 3 3 4 4 5 5 6 6 7 7 8 8 9 9 10 10 11 11
REMARK H PARENT
REMARK Flexibility Score: inf
ROOT
ATOM      1  C   UNL     1      10.038 -17.836  18.363  1.00  0.00     0.040 C 
ATOM      2  C   UNL     1      11.005 -18.123  19.467  1.00  0.00    -0.066 C 
ATOM      3  C   UNL     1      12.345 -18.199  19.232  1.00  0.00     0.047 C 
ATOM      4  C   UNL     1      13.208 -18.522  20.415  1.00  0.00     0.159 C 
ATOM      5  O   UNL     1      14.455 -18.659  20.319  1.00  0.00    -0.295 OA
ATOM      6  C   UNL     1      12.466 -18.676  21.743  1.00  0.00     0.067 C 
ATOM      7  C   UNL     1      11.501 -17.471  21.779  1.00  0.00     0.021 C 
ATOM      8  C   UNL     1      10.540 -18.327  20.924  1.00  0.00     0.022 C 
ATOM      9  C   UNL     1      11.229 -19.590  21.516  1.00  0.00    -0.019 C 
ATOM     10  C   UNL     1      11.389 -20.837  20.601  1.00  0.00     0.012 C 
ATOM     11  C   UNL     1      10.580 -20.046  22.848  1.00  0.00     0.012 C 
ENDROOT
TORSDOF 0
ENDMDL
MODEL 2
REMARK VINA RESULT:    -4.881      2.300      3.139
REMARK INTER + INTRA:          -4.881
REMARK INTER:                  -4.881
REMARK INTRA:                   0.000
REMARK UNBOUND:                 0.000
REMARK SMILES CC1=CC(=O)[C@H]2C[C@@H]1C2(C)C
REMARK SMILES IDX 1 1 2 2 3 3 4 4 5 5 6 6 7 7 8 8 9 9 10 10 11 11
REMARK H PARENT
REMARK Flexibility Score: inf
ROOT
ATOM      1  C   UNL     1       8.047 -17.438  20.723  1.00  0.00     0.040 C 
ATOM      2  C   UNL     1       9.139 -17.950  19.839  1.00  0.00    -0.066 C 
ATOM      3  C   UNL     1       8.892 -18.328  18.554  1.00  0.00     0.047 C 
ATOM      4  C   UNL     1      10.065 -18.852  17.780  1.00  0.00     0.159 C 
ATOM      5  O   UNL     1       9.956 -19.270  16.599  1.00  0.00    -0.295 OA
ATOM      6  C   UNL     1      11.397 -18.847  18.529  1.00  0.00     0.067 C 
ATOM      7  C   UNL     1      11.453 -17.454  19.192  1.00  0.00     0.021 C 
ATOM      8  C   UNL     1      10.599 -18.058  20.330  1.00  0.00     0.022 C 
ATOM      9  C   UNL     1      11.174 -19.452  19.944  1.00  0.00    -0.019 C 
ATOM     10  C   UNL     1      10.246 -20.692  20.079  1.00  0.00     0.012 C 
ATOM     11  C   UNL     1      12.508 -19.761  20.671  1.00  0.00     0.012 C 
ENDROOT
TORSDOF 0
ENDMDL
MODEL 3
REMARK VINA RESULT:    -4.880      1.638      3.471
REMARK INTER + INTRA:          -4.880
REMARK INTER:                  -4.880
REMARK INTRA:                   0.000
REMARK UNBOUND:                 0.000
REMARK SMILES CC1=CC(=O)[C@H]2C[C@@H]1C2(C)C
REMARK SMILES IDX 1 1 2 2 3 3 4 4 5 5 6 6 7 7 8 8 9 9 10 10 11 11
REMARK H PARENT
REMARK Flexibility Score: inf
ROOT
ATOM      1  C   UNL     1      10.596 -21.249  21.089  1.00  0.00     0.040 C 
ATOM      2  C   UNL     1      10.648 -20.030  20.225  1.00  0.00    -0.066 C 
ATOM      3  C   UNL     1      11.755 -19.236  20.186  1.00  0.00     0.047 C 
ATOM      4  C   UNL     1      11.672 -18.027  19.304  1.00  0.00     0.159 C 
ATOM      5  O   UNL     1      12.612 -17.196  19.214  1.00  0.00    -0.295 OA
ATOM      6  C   UNL     1      10.365 -17.874  18.525  1.00  0.00     0.067 C 
ATOM      7  C   UNL     1      10.098 -19.284  17.954  1.00  0.00     0.021 C 
ATOM      8  C   UNL     1       9.464 -19.622  19.323  1.00  0.00     0.022 C 
ATOM      9  C   UNL     1       9.177 -18.103  19.501  1.00  0.00    -0.019 C 
ATOM     10  C   UNL     1       9.269 -17.501  20.932  1.00  0.00     0.012 C 
ATOM     11  C   UNL     1       7.817 -17.684  18.884  1.00  0.00     0.012 C 
ENDROOT
TORSDOF 0
ENDMDL
MODEL 4
REMARK VINA RESULT:    -4.820     11.414     12.721
REMARK INTER + INTRA:          -4.820
REMARK INTER:                  -4.820
REMARK INTRA:                   0.000
REMARK UNBOUND:                 0.000
REMARK SMILES CC1=CC(=O)[C@H]2C[C@@H]1C2(C)C
REMARK SMILES IDX 1 1 2 2 3 3 4 4 5 5 6 6 7 7 8 8 9 9 10 10 11 11
REMARK H PARENT
REMARK Flexibility Score: inf
ROOT
ATOM      1  C   UNL     1      23.118 -11.445  25.232  1.00  0.00     0.040 C 
ATOM      2  C   UNL     1      21.639 -11.505  25.443  1.00  0.00    -0.066 C 
ATOM      3  C   UNL     1      20.821 -10.506  25.007  1.00  0.00     0.047 C 
ATOM      4  C   UNL     1      19.360 -10.669  25.305  1.00  0.00     0.159 C 
ATOM      5  O   UNL     1      18.510  -9.796  24.991  1.00  0.00    -0.295 OA
ATOM      6  C   UNL     1      18.979 -11.964  26.021  1.00  0.00     0.067 C 
ATOM      7  C   UNL     1      19.752 -13.060  25.256  1.00  0.00     0.021 C 
ATOM      8  C   UNL     1      20.965 -12.703  26.144  1.00  0.00     0.022 C 
ATOM      9  C   UNL     1      19.958 -12.181  27.210  1.00  0.00    -0.019 C 
ATOM     10  C   UNL     1      20.367 -10.948  28.064  1.00  0.00     0.012 C 
ATOM     11  C   UNL     1      19.482 -13.301  28.170  1.00  0.00     0.012 C 
ENDROOT
TORSDOF 0
ENDMDL
MODEL 5
REMARK VINA RESULT:    -4.764      1.921      3.215
REMARK INTER + INTRA:          -4.764
REMARK INTER:                  -4.764
REMARK INTRA:                   0.000
REMARK UNBOUND:                 0.000
REMARK SMILES CC1=CC(=O)[C@H]2C[C@@H]1C2(C)C
REMARK SMILES IDX 1 1 2 2 3 3 4 4 5 5 6 6 7 7 8 8 9 9 10 10 11 11
REMARK H PARENT
REMARK Flexibility Score: inf
ROOT
ATOM      1  C   UNL     1      13.430 -17.946  19.174  1.00  0.00     0.040 C 
ATOM      2  C   UNL     1      12.129 -18.493  19.667  1.00  0.00    -0.066 C 
ATOM      3  C   UNL     1      12.051 -19.727  20.240  1.00  0.00     0.047 C 
ATOM      4  C   UNL     1      10.685 -20.174  20.667  1.00  0.00     0.159 C 
ATOM      5  O   UNL     1      10.477 -21.308  21.170  1.00  0.00    -0.295 OA
ATOM      6  C   UNL     1       9.565 -19.158  20.443  1.00  0.00     0.067 C 
ATOM      7  C   UNL     1      10.154 -17.827  20.959  1.00  0.00     0.021 C 
ATOM      8  C   UNL     1      10.818 -17.684  19.572  1.00  0.00     0.022 C 
ATOM      9  C   UNL     1       9.690 -18.591  19.001  1.00  0.00    -0.019 C 
ATOM     10  C   UNL     1      10.049 -19.573  17.849  1.00  0.00     0.012 C 
ATOM     11  C   UNL     1       8.439 -17.779  18.575  1.00  0.00     0.012 C 
ENDROOT
TORSDOF 0
ENDMDL
MODEL 6
REMARK VINA RESULT:    -4.721      1.483      3.362
REMARK INTER + INTRA:          -4.721
REMARK INTER:                  -4.721
REMARK INTRA:                   0.000
REMARK UNBOUND:                 0.000
REMARK SMILES CC1=CC(=O)[C@H]2C[C@@H]1C2(C)C
REMARK SMILES IDX 1 1 2 2 3 3 4 4 5 5 6 6 7 7 8 8 9 9 10 10 11 11
REMARK H PARENT
REMARK Flexibility Score: inf
ROOT
ATOM      1  C   UNL     1      11.022 -16.967  22.828  1.00  0.00     0.040 C 
ATOM      2  C   UNL     1      10.852 -18.031  21.792  1.00  0.00    -0.066 C 
ATOM      3  C   UNL     1      11.534 -19.208  21.867  1.00  0.00     0.047 C 
ATOM      4  C   UNL     1      11.299 -20.182  20.751  1.00  0.00     0.159 C 
ATOM      5  O   UNL     1      11.900 -21.286  20.685  1.00  0.00    -0.295 OA
ATOM      6  C   UNL     1      10.283 -19.739  19.699  1.00  0.00     0.067 C 
ATOM      7  C   UNL     1       9.099 -19.188  20.525  1.00  0.00     0.021 C 
ATOM      8  C   UNL     1       9.885 -17.860  20.602  1.00  0.00     0.022 C 
ATOM      9  C   UNL     1      10.604 -18.274  19.286  1.00  0.00    -0.019 C 
ATOM     10  C   UNL     1      12.093 -17.868  19.103  1.00  0.00     0.012 C 
ATOM     11  C   UNL     1       9.821 -17.833  18.022  1.00  0.00     0.012 C 
ENDROOT
TORSDOF 0
ENDMDL
MODEL 7
REMARK VINA RESULT:    -4.710      2.243      3.269
REMARK INTER + INTRA:          -4.710
REMARK INTER:                  -4.710
REMARK INTRA:                   0.000
REMARK UNBOUND:                 0.000
REMARK SMILES CC1=CC(=O)[C@H]2C[C@@H]1C2(C)C
REMARK SMILES IDX 1 1 2 2 3 3 4 4 5 5 6 6 7 7 8 8 9 9 10 10 11 11
REMARK H PARENT
REMARK Flexibility Score: inf
ROOT
ATOM      1  C   UNL     1      13.179 -17.914  18.961  1.00  0.00     0.040 C 
ATOM      2  C   UNL     1      11.768 -18.307  19.261  1.00  0.00    -0.066 C 
ATOM      3  C   UNL     1      10.715 -17.660  18.688  1.00  0.00     0.047 C 
ATOM      4  C   UNL     1       9.349 -18.129  19.093  1.00  0.00     0.159 C 
ATOM      5  O   UNL     1       8.299 -17.585  18.665  1.00  0.00    -0.295 OA
ATOM      6  C   UNL     1       9.324 -19.309  20.065  1.00  0.00     0.067 C 
ATOM      7  C   UNL     1      10.355 -20.300  19.482  1.00  0.00     0.021 C 
ATOM      8  C   UNL     1      11.434 -19.473  20.217  1.00  0.00     0.022 C 
ATOM      9  C   UNL     1      10.330 -19.024  21.216  1.00  0.00    -0.019 C 
ATOM     10  C   UNL     1      10.404 -17.583  21.794  1.00  0.00     0.012 C 
ATOM     11  C   UNL     1      10.168 -20.014  22.399  1.00  0.00     0.012 C 
ENDROOT
TORSDOF 0
ENDMDL
MODEL 8
REMARK VINA RESULT:    -4.477      1.647      2.513
REMARK INTER + INTRA:          -4.477
REMARK INTER:                  -4.477
REMARK INTRA:                   0.000
REMARK UNBOUND:                 0.000
REMARK SMILES CC1=CC(=O)[C@H]2C[C@@H]1C2(C)C
REMARK SMILES IDX 1 1 2 2 3 3 4 4 5 5 6 6 7 7 8 8 9 9 10 10 11 11
REMARK H PARENT
REMARK Flexibility Score: inf
ROOT
ATOM      1  C   UNL     1       9.649 -18.406  17.850  1.00  0.00     0.040 C 
ATOM      2  C   UNL     1      10.418 -18.859  19.049  1.00  0.00    -0.066 C 
ATOM      3  C   UNL     1      10.417 -20.165  19.440  1.00  0.00     0.047 C 
ATOM      4  C   UNL     1      11.203 -20.487  20.675  1.00  0.00     0.159 C 
ATOM      5  O   UNL     1      11.246 -21.647  21.160  1.00  0.00    -0.295 OA
ATOM      6  C   UNL     1      11.943 -19.307  21.306  1.00  0.00     0.067 C 
ATOM      7  C   UNL     1      12.615 -18.599  20.109  1.00  0.00     0.021 C 
ATOM      8  C   UNL     1      11.265 -17.880  19.890  1.00  0.00     0.022 C 
ATOM      9  C   UNL     1      10.965 -18.102  21.401  1.00  0.00    -0.019 C 
ATOM     10  C   UNL     1       9.495 -18.374  21.826  1.00  0.00     0.012 C 
ATOM     11  C   UNL     1      11.523 -16.958  22.286  1.00  0.00     0.012 C 
ENDROOT
TORSDOF 0
ENDMDL
MODEL 9
REMARK VINA RESULT:    -4.474      1.698      2.175
REMARK INTER + INTRA:          -4.474
REMARK INTER:                  -4.474
REMARK INTRA:                   0.000
REMARK UNBOUND:                 0.000
REMARK SMILES CC1=CC(=O)[C@H]2C[C@@H]1C2(C)C
REMARK SMILES IDX 1 1 2 2 3 3 4 4 5 5 6 6 7 7 8 8 9 9 10 10 11 11
REMARK H PARENT
REMARK Flexibility Score: inf
ROOT
ATOM      1  C   UNL     1      10.085 -19.112  16.993  1.00  0.00     0.040 C 
ATOM      2  C   UNL     1      10.152 -18.796  18.452  1.00  0.00    -0.066 C 
ATOM      3  C   UNL     1      11.285 -18.293  19.017  1.00  0.00     0.047 C 
ATOM      4  C   UNL     1      11.236 -18.046  20.495  1.00  0.00     0.159 C 
ATOM      5  O   UNL     1      12.230 -17.622  21.138  1.00  0.00    -0.295 OA
ATOM      6  C   UNL     1       9.896 -18.350  21.165  1.00  0.00     0.067 C 
ATOM      7  C   UNL     1       8.850 -17.710  20.225  1.00  0.00     0.021 C 
ATOM      8  C   UNL     1       8.941 -19.005  19.387  1.00  0.00     0.022 C 
ATOM      9  C   UNL     1       9.402 -19.742  20.677  1.00  0.00    -0.019 C 
ATOM     10  C   UNL     1      10.444 -20.887  20.536  1.00  0.00     0.012 C 
ATOM     11  C   UNL     1       8.208 -20.270  21.512  1.00  0.00     0.012 C 
ENDROOT
TORSDOF 0
ENDMDL
