MODEL 1
REMARK VINA RESULT:    -3.025      0.000      0.000
REMARK INTER + INTRA:          -3.855
REMARK INTER:                  -3.732
REMARK INTRA:                  -0.123
REMARK UNBOUND:                -0.123
REMARK SMILES CCCCCC(=O)[O-]
REMARK SMILES IDX 4 1 5 2 6 3 7 4 8 5 3 6 2 7 1 8
REMARK H PARENT
REMARK Flexibility Score: inf
ROOT
ATOM      1  C   UNL     1      61.787  33.274  60.823  1.00  0.00     0.006 C 
ENDROOT
BRANCH   1   2
ATOM      2  C   UNL     1      62.576  31.967  60.954  1.00  0.00     0.053 C 
BRANCH   2   3
ATOM      3  C   UNL     1      61.807  30.970  61.761  1.00  0.00     0.041 C 
ATOM      4  O   UNL     1      60.612  31.201  62.082  1.00  0.00    -0.550 OA
ATOM      5  O   UNL     1      62.394  29.762  62.117  1.00  0.00    -0.550 OA
ENDBRANCH   2   3
ENDBRANCH   1   2
BRANCH   1   6
ATOM      6  C   UNL     1      62.727  34.489  60.870  1.00  0.00     0.000 C 
BRANCH   6   7
ATOM      7  C   UNL     1      64.129  34.131  61.384  1.00  0.00    -0.003 C 
ATOM      8  C   UNL     1      64.856  35.326  62.000  1.00  0.00     0.004 C 
ENDBRANCH   6   7
ENDBRANCH   1   6
TORSDOF 4
ENDMDL
MODEL 2
REMARK VINA RESULT:    -2.982     13.490     14.493
REMARK INTER + INTRA:          -3.802
REMARK INTER:                  -3.676
REMARK INTRA:                  -0.126
REMARK UNBOUND:                -0.123
REMARK SMILES CCCCCC(=O)[O-]
REMARK SMILES IDX 4 1 5 2 6 3 7 4 8 5 3 6 2 7 1 8
REMARK H PARENT
REMARK Flexibility Score: inf
ROOT
ATOM      1  C   UNL     1      56.635  28.604  50.359  1.00  0.00     0.006 C 
ENDROOT
BRANCH   1   2
ATOM      2  C   UNL     1      57.885  27.718  50.305  1.00  0.00     0.053 C 
BRANCH   2   3
ATOM      3  C   UNL     1      58.897  28.298  49.369  1.00  0.00     0.041 C 
ATOM      4  O   UNL     1      58.770  29.479  48.951  1.00  0.00    -0.550 OA
ATOM      5  O   UNL     1      60.009  27.552  48.998  1.00  0.00    -0.550 OA
ENDBRANCH   2   3
ENDBRANCH   1   2
BRANCH   1   6
ATOM      6  C   UNL     1      55.358  27.752  50.324  1.00  0.00     0.000 C 
BRANCH   6   7
ATOM      7  C   UNL     1      55.633  26.291  49.938  1.00  0.00    -0.003 C 
ATOM      8  C   UNL     1      54.385  25.568  49.429  1.00  0.00     0.004 C 
ENDBRANCH   6   7
ENDBRANCH   1   6
TORSDOF 4
ENDMDL
MODEL 3
REMARK VINA RESULT:    -2.951      1.542      1.865
REMARK INTER + INTRA:          -3.764
REMARK INTER:                  -3.622
REMARK INTRA:                  -0.142
REMARK UNBOUND:                -0.123
REMARK SMILES CCCCCC(=O)[O-]
REMARK SMILES IDX 4 1 5 2 6 3 7 4 8 5 3 6 2 7 1 8
REMARK H PARENT
REMARK Flexibility Score: inf
ROOT
ATOM      1  C   UNL     1      61.197  31.709  60.564  1.00  0.00     0.006 C 
ENDROOT
BRANCH   1   2
ATOM      2  C   UNL     1      61.167  30.981  61.912  1.00  0.00     0.053 C 
BRANCH   2   3
ATOM      3  C   UNL     1      62.265  29.967  61.984  1.00  0.00     0.041 C 
ATOM      4  O   UNL     1      61.991  28.739  62.030  1.00  0.00    -0.550 OA
ATOM      5  O   UNL     1      63.592  30.375  61.950  1.00  0.00    -0.550 OA
ENDBRANCH   2   3
ENDBRANCH   1   2
BRANCH   1   6
ATOM      6  C   UNL     1      61.347  33.224  60.763  1.00  0.00     0.000 C 
BRANCH   6   7
ATOM      7  C   UNL     1      62.814  33.661  60.888  1.00  0.00    -0.003 C 
ATOM      8  C   UNL     1      62.965  35.158  61.163  1.00  0.00     0.004 C 
ENDBRANCH   6   7
ENDBRANCH   1   6
TORSDOF 4
ENDMDL
MODEL 4
REMARK VINA RESULT:    -2.917      1.142      2.093
REMARK INTER + INTRA:          -3.723
REMARK INTER:                  -3.610
REMARK INTRA:                  -0.113
REMARK UNBOUND:                -0.123
REMARK SMILES CCCCCC(=O)[O-]
REMARK SMILES IDX 4 1 5 2 6 3 7 4 8 5 3 6 2 7 1 8
REMARK H PARENT
REMARK Flexibility Score: inf
ROOT
ATOM      1  C   UNL     1      64.301  32.573  60.986  1.00  0.00     0.006 C 
ENDROOT
BRANCH   1   2
ATOM      2  C   UNL     1      62.988  31.801  60.823  1.00  0.00     0.053 C 
BRANCH   2   3
ATOM      3  C   UNL     1      63.015  30.544  61.633  1.00  0.00     0.041 C 
ATOM      4  O   UNL     1      64.077  29.873  61.726  1.00  0.00    -0.550 OA
ATOM      5  O   UNL     1      61.882  30.138  62.326  1.00  0.00    -0.550 OA
ENDBRANCH   2   3
ENDBRANCH   1   2
BRANCH   1   6
ATOM      6  C   UNL     1      64.033  34.048  61.318  1.00  0.00     0.000 C 
BRANCH   6   7
ATOM      7  C   UNL     1      62.615  34.493  60.928  1.00  0.00    -0.003 C 
ATOM      8  C   UNL     1      62.353  35.968  61.231  1.00  0.00     0.004 C 
ENDBRANCH   6   7
ENDBRANCH   1   6
TORSDOF 4
ENDMDL
MODEL 5
REMARK VINA RESULT:    -2.909      2.841      4.330
REMARK INTER + INTRA:          -3.712
REMARK INTER:                  -3.641
REMARK INTRA:                  -0.071
REMARK UNBOUND:                -0.123
REMARK SMILES CCCCCC(=O)[O-]
REMARK SMILES IDX 4 1 5 2 6 3 7 4 8 5 3 6 2 7 1 8
REMARK H PARENT
REMARK Flexibility Score: inf
ROOT
ATOM      1  C   UNL     1      62.349  32.891  60.827  1.00  0.00     0.006 C 
ENDROOT
BRANCH   1   2
ATOM      2  C   UNL     1      62.050  34.394  60.835  1.00  0.00     0.053 C 
BRANCH   2   3
ATOM      3  C   UNL     1      63.224  35.158  61.361  1.00  0.00     0.041 C 
ATOM      4  O   UNL     1      63.158  36.408  61.494  1.00  0.00    -0.550 OA
ATOM      5  O   UNL     1      64.374  34.484  61.752  1.00  0.00    -0.550 OA
ENDBRANCH   2   3
ENDBRANCH   1   2
BRANCH   1   6
ATOM      6  C   UNL     1      61.050  32.074  60.746  1.00  0.00     0.000 C 
BRANCH   6   7
ATOM      7  C   UNL     1      60.887  31.105  61.927  1.00  0.00    -0.003 C 
ATOM      8  C   UNL     1      62.062  30.138  62.066  1.00  0.00     0.004 C 
ENDBRANCH   6   7
ENDBRANCH   1   6
TORSDOF 4
ENDMDL
MODEL 6
REMARK VINA RESULT:    -2.841      1.607      2.178
REMARK INTER + INTRA:          -3.629
REMARK INTER:                  -3.551
REMARK INTRA:                  -0.078
REMARK UNBOUND:                -0.123
REMARK SMILES CCCCCC(=O)[O-]
REMARK SMILES IDX 4 1 5 2 6 3 7 4 8 5 3 6 2 7 1 8
REMARK H PARENT
REMARK Flexibility Score: inf
ROOT
ATOM      1  C   UNL     1      63.969  33.683  61.211  1.00  0.00     0.006 C 
ENDROOT
BRANCH   1   2
ATOM      2  C   UNL     1      63.193  32.405  60.876  1.00  0.00     0.053 C 
BRANCH   2   3
ATOM      3  C   UNL     1      64.015  31.195  61.190  1.00  0.00     0.041 C 
ATOM      4  O   UNL     1      63.593  30.336  62.008  1.00  0.00    -0.550 OA
ATOM      5  O   UNL     1      65.227  30.991  60.543  1.00  0.00    -0.550 OA
ENDBRANCH   2   3
ENDBRANCH   1   2
BRANCH   1   6
ATOM      6  C   UNL     1      63.043  34.908  61.188  1.00  0.00     0.000 C 
BRANCH   6   7
ATOM      7  C   UNL     1      63.760  36.199  61.611  1.00  0.00    -0.003 C 
ATOM      8  C   UNL     1      65.227  35.968  61.976  1.00  0.00     0.004 C 
ENDBRANCH   6   7
ENDBRANCH   1   6
TORSDOF 4
ENDMDL
MODEL 7
REMARK VINA RESULT:    -2.780     13.664     14.012
REMARK INTER + INTRA:          -3.554
REMARK INTER:                  -3.457
REMARK INTRA:                  -0.097
REMARK UNBOUND:                -0.123
REMARK SMILES CCCCCC(=O)[O-]
REMARK SMILES IDX 4 1 5 2 6 3 7 4 8 5 3 6 2 7 1 8
REMARK H PARENT
REMARK Flexibility Score: inf
ROOT
ATOM      1  C   UNL     1      57.418  28.050  50.387  1.00  0.00     0.006 C 
ENDROOT
BRANCH   1   2
ATOM      2  C   UNL     1      56.041  28.709  50.519  1.00  0.00     0.053 C 
BRANCH   2   3
ATOM      3  C   UNL     1      54.967  27.771  50.069  1.00  0.00     0.041 C 
ATOM      4  O   UNL     1      53.797  28.194  49.874  1.00  0.00    -0.550 OA
ATOM      5  O   UNL     1      55.267  26.439  49.816  1.00  0.00    -0.550 OA
ENDBRANCH   2   3
ENDBRANCH   1   2
BRANCH   1   6
ATOM      6  C   UNL     1      58.379  28.944  49.588  1.00  0.00     0.000 C 
BRANCH   6   7
ATOM      7  C   UNL     1      59.684  28.223  49.216  1.00  0.00    -0.003 C 
ATOM      8  C   UNL     1      59.580  26.704  49.352  1.00  0.00     0.004 C 
ENDBRANCH   6   7
ENDBRANCH   1   6
TORSDOF 4
ENDMDL
MODEL 8
REMARK VINA RESULT:    -2.748      2.911      4.288
REMARK INTER + INTRA:          -3.514
REMARK INTER:                  -3.387
REMARK INTRA:                  -0.127
REMARK UNBOUND:                -0.123
REMARK SMILES CCCCCC(=O)[O-]
REMARK SMILES IDX 4 1 5 2 6 3 7 4 8 5 3 6 2 7 1 8
REMARK H PARENT
REMARK Flexibility Score: inf
ROOT
ATOM      1  C   UNL     1      62.373  34.579  60.105  1.00  0.00     0.006 C 
ENDROOT
BRANCH   1   2
ATOM      2  C   UNL     1      62.964  35.374  61.273  1.00  0.00     0.053 C 
BRANCH   2   3
ATOM      3  C   UNL     1      64.318  34.848  61.632  1.00  0.00     0.041 C 
ATOM      4  O   UNL     1      64.572  33.620  61.517  1.00  0.00    -0.550 OA
ATOM      5  O   UNL     1      65.316  35.721  62.048  1.00  0.00    -0.550 OA
ENDBRANCH   2   3
ENDBRANCH   1   2
BRANCH   1   6
ATOM      6  C   UNL     1      61.211  33.692  60.577  1.00  0.00     0.000 C 
BRANCH   6   7
ATOM      7  C   UNL     1      61.565  32.197  60.561  1.00  0.00    -0.003 C 
ATOM      8  C   UNL     1      60.857  31.409  61.663  1.00  0.00     0.004 C 
ENDBRANCH   6   7
ENDBRANCH   1   6
TORSDOF 4
ENDMDL
MODEL 9
REMARK VINA RESULT:    -2.660      3.791      4.668
REMARK INTER + INTRA:          -3.406
REMARK INTER:                  -3.251
REMARK INTRA:                  -0.155
REMARK UNBOUND:                -0.123
REMARK SMILES CCCCCC(=O)[O-]
REMARK SMILES IDX 4 1 5 2 6 3 7 4 8 5 3 6 2 7 1 8
REMARK H PARENT
REMARK Flexibility Score: inf
ROOT
ATOM      1  C   UNL     1      63.542  34.139  60.416  1.00  0.00     0.006 C 
ENDROOT
BRANCH   1   2
ATOM      2  C   UNL     1      64.432  34.376  61.641  1.00  0.00     0.053 C 
BRANCH   2   3
ATOM      3  C   UNL     1      65.065  35.729  61.576  1.00  0.00     0.041 C 
ATOM      4  O   UNL     1      64.930  36.539  62.530  1.00  0.00    -0.550 OA
ATOM      5  O   UNL     1      65.846  36.080  60.481  1.00  0.00    -0.550 OA
ENDBRANCH   2   3
ENDBRANCH   1   2
BRANCH   1   6
ATOM      6  C   UNL     1      62.089  33.873  60.836  1.00  0.00     0.000 C 
BRANCH   6   7
ATOM      7  C   UNL     1      61.124  34.965  60.351  1.00  0.00    -0.003 C 
ATOM      8  C   UNL     1      61.411  36.330  60.977  1.00  0.00     0.004 C 
ENDBRANCH   6   7
ENDBRANCH   1   6
TORSDOF 4
ENDMDL
