MODEL 1
REMARK VINA RESULT:    -5.366      0.000      0.000
REMARK INTER + INTRA:          -5.888
REMARK INTER:                  -5.836
REMARK INTRA:                  -0.052
REMARK UNBOUND:                -0.052
REMARK SMILES COc1cc2ccc(=O)oc2cc1O
REMARK SMILES IDX 3 1 13 2 12 3 11 4 5 5 4 6 6 7 7 8 8 9 9 10 10 11 2 12 1 13
REMARK SMILES IDX 14 14
REMARK H PARENT 14 15
REMARK Flexibility Score: inf
ROOT
ATOM      1  C   UNL     1      54.140 112.954  45.989  1.00  0.00     0.161 A 
ATOM      2  C   UNL     1      54.123 112.738  47.376  1.00  0.00     0.161 A 
ATOM      3  C   UNL     1      52.935 112.906  48.104  1.00  0.00     0.098 A 
ATOM      4  C   UNL     1      51.760 113.291  47.455  1.00  0.00     0.142 A 
ATOM      5  C   UNL     1      51.768 113.510  46.062  1.00  0.00     0.022 A 
ATOM      6  C   UNL     1      52.954 113.342  45.332  1.00  0.00     0.062 A 
ATOM      7  C   UNL     1      50.575 113.895  45.440  1.00  0.00     0.019 A 
ATOM      8  C   UNL     1      49.422 114.049  46.209  1.00  0.00     0.094 A 
ATOM      9  C   UNL     1      49.489 113.814  47.586  1.00  0.00     0.336 A 
ATOM     10  O   UNL     1      48.459 113.947  48.296  1.00  0.00    -0.246 OA
ATOM     11  O   UNL     1      50.638 113.450  48.152  1.00  0.00    -0.423 OA
ENDROOT
BRANCH   1  12
ATOM     12  O   UNL     1      55.350 112.773  45.300  1.00  0.00    -0.493 OA
ATOM     13  C   UNL     1      55.474 112.106  44.049  1.00  0.00     0.278 C 
ENDBRANCH   1  12
BRANCH   2  14
ATOM     14  O   UNL     1      55.294 112.354  48.026  1.00  0.00    -0.504 OA
ATOM     15  H   UNL     1      56.208 112.611  47.670  1.00  0.00     0.293 HD
ENDBRANCH   2  14
TORSDOF 2
ENDMDL
MODEL 2
REMARK VINA RESULT:    -4.961      1.724      5.343
REMARK INTER + INTRA:          -5.448
REMARK INTER:                  -5.398
REMARK INTRA:                  -0.050
REMARK UNBOUND:                -0.052
REMARK SMILES COc1cc2ccc(=O)oc2cc1O
REMARK SMILES IDX 3 1 13 2 12 3 11 4 5 5 4 6 6 7 7 8 8 9 9 10 10 11 2 12 1 13
REMARK SMILES IDX 14 14
REMARK H PARENT 14 15
REMARK Flexibility Score: inf
ROOT
ATOM      1  C   UNL     1      50.057 114.029  46.290  1.00  0.00     0.161 A 
ATOM      2  C   UNL     1      50.500 114.073  44.958  1.00  0.00     0.161 A 
ATOM      3  C   UNL     1      51.873 114.069  44.669  1.00  0.00     0.098 A 
ATOM      4  C   UNL     1      52.811 114.023  45.702  1.00  0.00     0.142 A 
ATOM      5  C   UNL     1      52.374 113.979  47.043  1.00  0.00     0.022 A 
ATOM      6  C   UNL     1      51.003 113.982  47.334  1.00  0.00     0.062 A 
ATOM      7  C   UNL     1      53.337 113.934  48.057  1.00  0.00     0.019 A 
ATOM      8  C   UNL     1      54.689 113.933  47.716  1.00  0.00     0.094 A 
ATOM      9  C   UNL     1      55.048 113.977  46.364  1.00  0.00     0.336 A 
ATOM     10  O   UNL     1      56.264 113.977  46.037  1.00  0.00    -0.246 OA
ATOM     11  O   UNL     1      54.111 114.021  45.420  1.00  0.00    -0.423 OA
ENDROOT
BRANCH   1  12
ATOM     12  O   UNL     1      48.675 114.034  46.533  1.00  0.00    -0.493 OA
ATOM     13  C   UNL     1      48.032 113.269  47.547  1.00  0.00     0.278 C 
ENDBRANCH   1  12
BRANCH   2  14
ATOM     14  O   UNL     1      49.567 114.118  43.925  1.00  0.00    -0.504 OA
ATOM     15  H   UNL     1      49.182 114.996  43.594  1.00  0.00     0.293 HD
ENDBRANCH   2  14
TORSDOF 2
ENDMDL
MODEL 3
REMARK VINA RESULT:    -4.837      1.785      2.901
REMARK INTER + INTRA:          -5.312
REMARK INTER:                  -5.264
REMARK INTRA:                  -0.048
REMARK UNBOUND:                -0.052
REMARK SMILES COc1cc2ccc(=O)oc2cc1O
REMARK SMILES IDX 3 1 13 2 12 3 11 4 5 5 4 6 6 7 7 8 8 9 9 10 10 11 2 12 1 13
REMARK SMILES IDX 14 14
REMARK H PARENT 14 15
REMARK Flexibility Score: inf
ROOT
ATOM      1  C   UNL     1      54.729 113.023  47.435  1.00  0.00     0.161 A 
ATOM      2  C   UNL     1      54.967 112.944  46.054  1.00  0.00     0.161 A 
ATOM      3  C   UNL     1      53.923 113.160  45.142  1.00  0.00     0.098 A 
ATOM      4  C   UNL     1      52.637 113.454  45.601  1.00  0.00     0.142 A 
ATOM      5  C   UNL     1      52.389 113.536  46.987  1.00  0.00     0.022 A 
ATOM      6  C   UNL     1      53.432 113.321  47.900  1.00  0.00     0.062 A 
ATOM      7  C   UNL     1      51.091 113.833  47.416  1.00  0.00     0.019 A 
ATOM      8  C   UNL     1      50.088 114.038  46.469  1.00  0.00     0.094 A 
ATOM      9  C   UNL     1      50.408 113.942  45.111  1.00  0.00     0.336 A 
ATOM     10  O   UNL     1      49.516 114.125  44.242  1.00  0.00    -0.246 OA
ATOM     11  O   UNL     1      51.651 113.657  44.731  1.00  0.00    -0.423 OA
ENDROOT
BRANCH   1  12
ATOM     12  O   UNL     1      55.803 112.800  48.311  1.00  0.00    -0.493 OA
ATOM     13  C   UNL     1      55.961 113.440  49.573  1.00  0.00     0.278 C 
ENDBRANCH   1  12
BRANCH   2  14
ATOM     14  O   UNL     1      56.249 112.650  45.594  1.00  0.00    -0.504 OA
ATOM     15  H   UNL     1      56.517 111.707  45.334  1.00  0.00     0.293 HD
ENDBRANCH   2  14
TORSDOF 2
ENDMDL
MODEL 4
REMARK VINA RESULT:    -4.793      9.842     10.662
REMARK INTER + INTRA:          -5.265
REMARK INTER:                  -5.234
REMARK INTRA:                  -0.031
REMARK UNBOUND:                -0.052
REMARK SMILES COc1cc2ccc(=O)oc2cc1O
REMARK SMILES IDX 3 1 13 2 12 3 11 4 5 5 4 6 6 7 7 8 8 9 9 10 10 11 2 12 1 13
REMARK SMILES IDX 14 14
REMARK H PARENT 14 15
REMARK Flexibility Score: inf
ROOT
ATOM      1  C   UNL     1      48.765 105.665  52.203  1.00  0.00     0.161 A 
ATOM      2  C   UNL     1      47.508 105.048  52.312  1.00  0.00     0.161 A 
ATOM      3  C   UNL     1      46.455 105.698  52.973  1.00  0.00     0.098 A 
ATOM      4  C   UNL     1      46.648 106.965  53.530  1.00  0.00     0.142 A 
ATOM      5  C   UNL     1      47.908 107.591  53.425  1.00  0.00     0.022 A 
ATOM      6  C   UNL     1      48.961 106.943  52.764  1.00  0.00     0.062 A 
ATOM      7  C   UNL     1      48.071 108.860  53.993  1.00  0.00     0.019 A 
ATOM      8  C   UNL     1      46.993 109.463  54.639  1.00  0.00     0.094 A 
ATOM      9  C   UNL     1      45.773 108.781  54.704  1.00  0.00     0.336 A 
ATOM     10  O   UNL     1      44.788 109.310  55.283  1.00  0.00    -0.246 OA
ATOM     11  O   UNL     1      45.646 107.575  54.156  1.00  0.00    -0.423 OA
ENDROOT
BRANCH   1  12
ATOM     12  O   UNL     1      49.789 104.978  51.533  1.00  0.00    -0.493 OA
ATOM     13  C   UNL     1      50.690 104.067  52.154  1.00  0.00     0.278 C 
ENDBRANCH   1  12
BRANCH   2  14
ATOM     14  O   UNL     1      47.313 103.785  51.757  1.00  0.00    -0.504 OA
ATOM     15  H   UNL     1      46.642 103.132  52.147  1.00  0.00     0.293 HD
ENDBRANCH   2  14
TORSDOF 2
ENDMDL
MODEL 5
REMARK VINA RESULT:    -4.713      9.450     10.867
REMARK INTER + INTRA:          -5.178
REMARK INTER:                  -5.114
REMARK INTRA:                  -0.065
REMARK UNBOUND:                -0.052
REMARK SMILES COc1cc2ccc(=O)oc2cc1O
REMARK SMILES IDX 3 1 13 2 12 3 11 4 5 5 4 6 6 7 7 8 8 9 9 10 10 11 2 12 1 13
REMARK SMILES IDX 14 14
REMARK H PARENT 14 15
REMARK Flexibility Score: inf
ROOT
ATOM      1  C   UNL     1      46.933 108.723  53.932  1.00  0.00     0.161 A 
ATOM      2  C   UNL     1      48.311 108.988  53.978  1.00  0.00     0.161 A 
ATOM      3  C   UNL     1      49.230 108.035  53.512  1.00  0.00     0.098 A 
ATOM      4  C   UNL     1      48.782 106.816  52.999  1.00  0.00     0.142 A 
ATOM      5  C   UNL     1      47.399 106.543  52.949  1.00  0.00     0.022 A 
ATOM      6  C   UNL     1      46.479 107.494  53.414  1.00  0.00     0.062 A 
ATOM      7  C   UNL     1      46.980 105.313  52.430  1.00  0.00     0.019 A 
ATOM      8  C   UNL     1      47.934 104.401  51.980  1.00  0.00     0.094 A 
ATOM      9  C   UNL     1      49.289 104.740  52.060  1.00  0.00     0.336 A 
ATOM     10  O   UNL     1      50.164 103.930  51.659  1.00  0.00    -0.246 OA
ATOM     11  O   UNL     1      49.659 105.917  52.560  1.00  0.00    -0.423 OA
ENDROOT
BRANCH   1  12
ATOM     12  O   UNL     1      46.050 109.705  54.409  1.00  0.00    -0.493 OA
ATOM     13  C   UNL     1      45.233 110.525  53.580  1.00  0.00     0.278 C 
ENDBRANCH   1  12
BRANCH   2  14
ATOM     14  O   UNL     1      48.761 110.203  54.489  1.00  0.00    -0.504 OA
ATOM     15  H   UNL     1      48.644 110.444  55.467  1.00  0.00     0.293 HD
ENDBRANCH   2  14
TORSDOF 2
ENDMDL
MODEL 6
REMARK VINA RESULT:    -4.657      2.012      3.675
REMARK INTER + INTRA:          -5.117
REMARK INTER:                  -5.072
REMARK INTRA:                  -0.045
REMARK UNBOUND:                -0.052
REMARK SMILES COc1cc2ccc(=O)oc2cc1O
REMARK SMILES IDX 3 1 13 2 12 3 11 4 5 5 4 6 6 7 7 8 8 9 9 10 10 11 2 12 1 13
REMARK SMILES IDX 14 14
REMARK H PARENT 14 15
REMARK Flexibility Score: inf
ROOT
ATOM      1  C   UNL     1      51.545 113.488  46.803  1.00  0.00     0.161 A 
ATOM      2  C   UNL     1      50.856 113.905  45.654  1.00  0.00     0.161 A 
ATOM      3  C   UNL     1      49.467 114.101  45.694  1.00  0.00     0.098 A 
ATOM      4  C   UNL     1      48.758 113.883  46.878  1.00  0.00     0.142 A 
ATOM      5  C   UNL     1      49.444 113.464  48.037  1.00  0.00     0.022 A 
ATOM      6  C   UNL     1      50.832 113.267  47.999  1.00  0.00     0.062 A 
ATOM      7  C   UNL     1      48.708 113.254  49.208  1.00  0.00     0.019 A 
ATOM      8  C   UNL     1      47.329 113.463  49.196  1.00  0.00     0.094 A 
ATOM      9  C   UNL     1      46.717 113.879  48.008  1.00  0.00     0.336 A 
ATOM     10  O   UNL     1      45.474 114.073  47.978  1.00  0.00    -0.246 OA
ATOM     11  O   UNL     1      47.442 114.071  46.909  1.00  0.00    -0.423 OA
ENDROOT
BRANCH   1  12
ATOM     12  O   UNL     1      52.935 113.304  46.717  1.00  0.00    -0.493 OA
ATOM     13  C   UNL     1      53.774 112.974  47.819  1.00  0.00     0.278 C 
ENDBRANCH   1  12
BRANCH   2  14
ATOM     14  O   UNL     1      51.559 114.123  44.472  1.00  0.00    -0.504 OA
ATOM     15  H   UNL     1      52.573 114.118  44.448  1.00  0.00     0.293 HD
ENDBRANCH   2  14
TORSDOF 2
ENDMDL
MODEL 7
REMARK VINA RESULT:    -4.483      8.629      9.725
REMARK INTER + INTRA:          -4.928
REMARK INTER:                  -4.880
REMARK INTRA:                  -0.047
REMARK UNBOUND:                -0.052
REMARK SMILES COc1cc2ccc(=O)oc2cc1O
REMARK SMILES IDX 3 1 13 2 12 3 11 4 5 5 4 6 6 7 7 8 8 9 9 10 10 11 2 12 1 13
REMARK SMILES IDX 14 14
REMARK H PARENT 14 15
REMARK Flexibility Score: inf
ROOT
ATOM      1  C   UNL     1      46.384 110.637  54.002  1.00  0.00     0.161 A 
ATOM      2  C   UNL     1      45.416 109.839  53.373  1.00  0.00     0.161 A 
ATOM      3  C   UNL     1      44.723 110.320  52.251  1.00  0.00     0.098 A 
ATOM      4  C   UNL     1      44.989 111.597  51.753  1.00  0.00     0.142 A 
ATOM      5  C   UNL     1      45.961 112.405  52.380  1.00  0.00     0.022 A 
ATOM      6  C   UNL     1      46.655 111.925  53.500  1.00  0.00     0.062 A 
ATOM      7  C   UNL     1      46.206 113.679  51.858  1.00  0.00     0.019 A 
ATOM      8  C   UNL     1      45.490 114.110  50.742  1.00  0.00     0.094 A 
ATOM      9  C   UNL     1      44.542 113.254  50.172  1.00  0.00     0.336 A 
ATOM     10  O   UNL     1      43.886 113.625  49.164  1.00  0.00    -0.246 OA
ATOM     11  O   UNL     1      44.328 112.047  50.690  1.00  0.00    -0.423 OA
ENDROOT
BRANCH   1  12
ATOM     12  O   UNL     1      47.053 110.115  55.121  1.00  0.00    -0.493 OA
ATOM     13  C   UNL     1      47.589 110.901  56.180  1.00  0.00     0.278 C 
ENDBRANCH   1  12
BRANCH   2  14
ATOM     14  O   UNL     1      45.148 108.564  53.867  1.00  0.00    -0.504 OA
ATOM     15  H   UNL     1      44.272 108.092  53.673  1.00  0.00     0.293 HD
ENDBRANCH   2  14
TORSDOF 2
ENDMDL
MODEL 8
REMARK VINA RESULT:    -4.248      6.087      9.026
REMARK INTER + INTRA:          -4.672
REMARK INTER:                  -4.607
REMARK INTRA:                  -0.065
REMARK UNBOUND:                -0.052
REMARK SMILES COc1cc2ccc(=O)oc2cc1O
REMARK SMILES IDX 3 1 13 2 12 3 11 4 5 5 4 6 6 7 7 8 8 9 9 10 10 11 2 12 1 13
REMARK SMILES IDX 14 14
REMARK H PARENT 14 15
REMARK Flexibility Score: inf
ROOT
ATOM      1  C   UNL     1      46.077 113.374  50.000  1.00  0.00     0.161 A 
ATOM      2  C   UNL     1      44.730 112.983  50.043  1.00  0.00     0.161 A 
ATOM      3  C   UNL     1      44.245 112.232  51.125  1.00  0.00     0.098 A 
ATOM      4  C   UNL     1      45.099 111.866  52.167  1.00  0.00     0.142 A 
ATOM      5  C   UNL     1      46.454 112.255  52.132  1.00  0.00     0.022 A 
ATOM      6  C   UNL     1      46.940 113.006  51.052  1.00  0.00     0.062 A 
ATOM      7  C   UNL     1      47.285 111.874  53.191  1.00  0.00     0.019 A 
ATOM      8  C   UNL     1      46.754 111.127  54.242  1.00  0.00     0.094 A 
ATOM      9  C   UNL     1      45.400 110.778  54.210  1.00  0.00     0.336 A 
ATOM     10  O   UNL     1      44.903 110.105  55.150  1.00  0.00    -0.246 OA
ATOM     11  O   UNL     1      44.632 111.154  53.190  1.00  0.00    -0.423 OA
ENDROOT
BRANCH   1  12
ATOM     12  O   UNL     1      46.519 114.125  48.899  1.00  0.00    -0.493 OA
ATOM     13  C   UNL     1      47.313 113.607  47.837  1.00  0.00     0.278 C 
ENDBRANCH   1  12
BRANCH   2  14
ATOM     14  O   UNL     1      43.875 113.346  49.004  1.00  0.00    -0.504 OA
ATOM     15  H   UNL     1      42.884 113.135  49.033  1.00  0.00     0.293 HD
ENDBRANCH   2  14
TORSDOF 2
ENDMDL
MODEL 9
REMARK VINA RESULT:    -3.966      2.279      6.009
REMARK INTER + INTRA:          -4.366
REMARK INTER:                  -4.321
REMARK INTRA:                  -0.045
REMARK UNBOUND:                -0.052
REMARK SMILES COc1cc2ccc(=O)oc2cc1O
REMARK SMILES IDX 3 1 13 2 12 3 11 4 5 5 4 6 6 7 7 8 8 9 9 10 10 11 2 12 1 13
REMARK SMILES IDX 14 14
REMARK H PARENT 14 15
REMARK Flexibility Score: inf
ROOT
ATOM      1  C   UNL     1      47.004 113.609  48.361  1.00  0.00     0.161 A 
ATOM      2  C   UNL     1      47.861 113.195  49.393  1.00  0.00     0.161 A 
ATOM      3  C   UNL     1      49.242 113.094  49.168  1.00  0.00     0.098 A 
ATOM      4  C   UNL     1      49.777 113.404  47.916  1.00  0.00     0.142 A 
ATOM      5  C   UNL     1      48.922 113.822  46.874  1.00  0.00     0.022 A 
ATOM      6  C   UNL     1      47.542 113.923  47.097  1.00  0.00     0.062 A 
ATOM      7  C   UNL     1      49.487 114.125  45.630  1.00  0.00     0.019 A 
ATOM      8  C   UNL     1      50.866 114.009  45.458  1.00  0.00     0.094 A 
ATOM      9  C   UNL     1      51.651 113.589  46.537  1.00  0.00     0.336 A 
ATOM     10  O   UNL     1      52.897 113.479  46.401  1.00  0.00    -0.246 OA
ATOM     11  O   UNL     1      51.087 113.306  47.709  1.00  0.00    -0.423 OA
ENDROOT
BRANCH   1  12
ATOM     12  O   UNL     1      45.629 113.696  48.631  1.00  0.00    -0.493 OA
ATOM     13  C   UNL     1      44.625 113.897  47.643  1.00  0.00     0.278 C 
ENDBRANCH   1  12
BRANCH   2  14
ATOM     14  O   UNL     1      47.331 112.885  50.644  1.00  0.00    -0.504 OA
ATOM     15  H   UNL     1      47.359 113.547  51.412  1.00  0.00     0.293 HD
ENDBRANCH   2  14
TORSDOF 2
ENDMDL
