MODEL 1
REMARK VINA RESULT:    -3.119      0.000      0.000
REMARK INTER + INTRA:          -7.130
REMARK INTER:                  -5.398
REMARK INTRA:                  -1.732
REMARK UNBOUND:                -1.732
REMARK SMILES CCCCCCCCCCCCCCO
REMARK SMILES IDX 8 1 7 2 6 3 5 4 4 5 3 6 2 7 1 8 9 9 10 10 11 11 12 12 13 13
REMARK SMILES IDX 14 14 15 15
REMARK H PARENT 15 16
REMARK Flexibility Score: inf
ROOT
ATOM      1  C   UNL     1      27.610 -22.486  20.822  1.00  0.00     0.000 C 
ENDROOT
BRANCH   1   2
ATOM      2  C   UNL     1      28.985 -23.046  20.421  1.00  0.00    -0.000 C 
BRANCH   2   3
ATOM      3  C   UNL     1      30.071 -21.959  20.329  1.00  0.00    -0.000 C 
BRANCH   3   4
ATOM      4  C   UNL     1      30.778 -21.616  21.657  1.00  0.00    -0.000 C 
BRANCH   4   5
ATOM      5  C   UNL     1      30.500 -20.201  22.197  1.00  0.00    -0.000 C 
BRANCH   5   6
ATOM      6  C   UNL     1      29.510 -19.416  21.319  1.00  0.00    -0.000 C 
BRANCH   6   7
ATOM      7  C   UNL     1      28.468 -18.652  22.151  1.00  0.00    -0.003 C 
ATOM      8  C   UNL     1      27.887 -17.450  21.408  1.00  0.00     0.004 C 
ENDBRANCH   6   7
ENDBRANCH   5   6
ENDBRANCH   4   5
ENDBRANCH   3   4
ENDBRANCH   2   3
ENDBRANCH   1   2
BRANCH   1   9
ATOM      9  C   UNL     1      27.112 -23.028  22.174  1.00  0.00     0.000 C 
BRANCH   9  10
ATOM     10  C   UNL     1      27.234 -22.055  23.362  1.00  0.00     0.000 C 
BRANCH  10  11
ATOM     11  C   UNL     1      28.380 -22.419  24.320  1.00  0.00     0.000 C 
BRANCH  11  12
ATOM     12  C   UNL     1      28.272 -21.692  25.671  1.00  0.00     0.002 C 
BRANCH  12  13
ATOM     13  C   UNL     1      28.611 -20.197  25.569  1.00  0.00     0.028 C 
BRANCH  13  14
ATOM     14  C   UNL     1      29.971 -19.881  26.201  1.00  0.00     0.156 C 
BRANCH  14  15
ATOM     15  O   UNL     1      30.334 -20.868  27.129  1.00  0.00    -0.396 OA
ATOM     16  H   UNL     1      29.599 -21.536  27.136  1.00  0.00     0.210 HD
ENDBRANCH  14  15
ENDBRANCH  13  14
ENDBRANCH  12  13
ENDBRANCH  11  12
ENDBRANCH  10  11
ENDBRANCH   9  10
ENDBRANCH   1   9
TORSDOF 13
ENDMDL
MODEL 2
REMARK VINA RESULT:    -3.113      1.421      2.888
REMARK INTER + INTRA:          -7.119
REMARK INTER:                  -5.517
REMARK INTRA:                  -1.602
REMARK UNBOUND:                -1.732
REMARK SMILES CCCCCCCCCCCCCCO
REMARK SMILES IDX 8 1 7 2 6 3 5 4 4 5 3 6 2 7 1 8 9 9 10 10 11 11 12 12 13 13
REMARK SMILES IDX 14 14 15 15
REMARK H PARENT 15 16
REMARK Flexibility Score: inf
ROOT
ATOM      1  C   UNL     1      26.698 -20.959  23.457  1.00  0.00     0.000 C 
ENDROOT
BRANCH   1   2
ATOM      2  C   UNL     1      26.546 -21.295  21.964  1.00  0.00    -0.000 C 
BRANCH   2   3
ATOM      3  C   UNL     1      26.985 -22.731  21.625  1.00  0.00    -0.000 C 
BRANCH   3   4
ATOM      4  C   UNL     1      27.925 -22.865  20.408  1.00  0.00    -0.000 C 
BRANCH   4   5
ATOM      5  C   UNL     1      29.208 -22.017  20.479  1.00  0.00    -0.000 C 
BRANCH   5   6
ATOM      6  C   UNL     1      30.102 -22.393  21.673  1.00  0.00    -0.000 C 
BRANCH   6   7
ATOM      7  C   UNL     1      30.913 -21.199  22.199  1.00  0.00    -0.003 C 
ATOM      8  C   UNL     1      30.138 -19.883  22.127  1.00  0.00     0.004 C 
ENDBRANCH   6   7
ENDBRANCH   5   6
ENDBRANCH   4   5
ENDBRANCH   3   4
ENDBRANCH   2   3
ENDBRANCH   1   2
BRANCH   1   9
ATOM      9  C   UNL     1      27.116 -22.173  24.306  1.00  0.00     0.000 C 
BRANCH   9  10
ATOM     10  C   UNL     1      28.512 -22.080  24.951  1.00  0.00     0.000 C 
BRANCH  10  11
ATOM     11  C   UNL     1      28.526 -21.226  26.230  1.00  0.00     0.000 C 
BRANCH  11  12
ATOM     12  C   UNL     1      29.646 -20.172  26.223  1.00  0.00     0.002 C 
BRANCH  12  13
ATOM     13  C   UNL     1      30.369 -20.067  27.575  1.00  0.00     0.028 C 
BRANCH  13  14
ATOM     14  C   UNL     1      29.480 -20.543  28.730  1.00  0.00     0.156 C 
BRANCH  14  15
ATOM     15  O   UNL     1      30.129 -21.529  29.488  1.00  0.00    -0.396 OA
ATOM     16  H   UNL     1      30.773 -21.977  28.880  1.00  0.00     0.210 HD
ENDBRANCH  14  15
ENDBRANCH  13  14
ENDBRANCH  12  13
ENDBRANCH  11  12
ENDBRANCH  10  11
ENDBRANCH   9  10
ENDBRANCH   1   9
TORSDOF 13
ENDMDL
MODEL 3
REMARK VINA RESULT:    -3.054      2.408      4.549
REMARK INTER + INTRA:          -7.018
REMARK INTER:                  -5.346
REMARK INTRA:                  -1.672
REMARK UNBOUND:                -1.732
REMARK SMILES CCCCCCCCCCCCCCO
REMARK SMILES IDX 8 1 7 2 6 3 5 4 4 5 3 6 2 7 1 8 9 9 10 10 11 11 12 12 13 13
REMARK SMILES IDX 14 14 15 15
REMARK H PARENT 15 16
REMARK Flexibility Score: inf
ROOT
ATOM      1  C   UNL     1      30.040 -22.413  22.134  1.00  0.00     0.000 C 
ENDROOT
BRANCH   1   2
ATOM      2  C   UNL     1      29.462 -22.813  20.767  1.00  0.00    -0.000 C 
BRANCH   2   3
ATOM      3  C   UNL     1      27.924 -22.881  20.762  1.00  0.00    -0.000 C 
BRANCH   3   4
ATOM      4  C   UNL     1      27.203 -21.559  21.103  1.00  0.00    -0.000 C 
BRANCH   4   5
ATOM      5  C   UNL     1      26.288 -21.616  22.339  1.00  0.00    -0.000 C 
BRANCH   5   6
ATOM      6  C   UNL     1      26.483 -22.901  23.162  1.00  0.00    -0.000 C 
BRANCH   6   7
ATOM      7  C   UNL     1      26.589 -22.623  24.670  1.00  0.00    -0.003 C 
ATOM      8  C   UNL     1      27.994 -22.195  25.093  1.00  0.00     0.004 C 
ENDBRANCH   6   7
ENDBRANCH   5   6
ENDBRANCH   4   5
ENDBRANCH   3   4
ENDBRANCH   2   3
ENDBRANCH   1   2
BRANCH   1   9
ATOM      9  C   UNL     1      31.015 -21.225  22.050  1.00  0.00     0.000 C 
BRANCH   9  10
ATOM     10  C   UNL     1      30.358 -19.833  21.999  1.00  0.00     0.000 C 
BRANCH  10  11
ATOM     11  C   UNL     1      29.583 -19.487  23.282  1.00  0.00     0.000 C 
BRANCH  11  12
ATOM     12  C   UNL     1      28.389 -18.555  23.016  1.00  0.00     0.002 C 
BRANCH  12  13
ATOM     13  C   UNL     1      28.787 -17.071  23.005  1.00  0.00     0.028 C 
BRANCH  13  14
ATOM     14  C   UNL     1      28.557 -16.434  21.630  1.00  0.00     0.156 C 
BRANCH  14  15
ATOM     15  O   UNL     1      29.523 -15.451  21.365  1.00  0.00    -0.396 OA
ATOM     16  H   UNL     1      30.329 -15.927  21.036  1.00  0.00     0.210 HD
ENDBRANCH  14  15
ENDBRANCH  13  14
ENDBRANCH  12  13
ENDBRANCH  11  12
ENDBRANCH  10  11
ENDBRANCH   9  10
ENDBRANCH   1   9
TORSDOF 13
ENDMDL
MODEL 4
REMARK VINA RESULT:    -2.957      1.195      2.997
REMARK INTER + INTRA:          -6.850
REMARK INTER:                  -5.074
REMARK INTRA:                  -1.776
REMARK UNBOUND:                -1.732
REMARK SMILES CCCCCCCCCCCCCCO
REMARK SMILES IDX 8 1 7 2 6 3 5 4 4 5 3 6 2 7 1 8 9 9 10 10 11 11 12 12 13 13
REMARK SMILES IDX 14 14 15 15
REMARK H PARENT 15 16
REMARK Flexibility Score: inf
ROOT
ATOM      1  C   UNL     1      27.131 -19.858  22.675  1.00  0.00     0.000 C 
ENDROOT
BRANCH   1   2
ATOM      2  C   UNL     1      28.063 -18.638  22.751  1.00  0.00    -0.000 C 
BRANCH   2   3
ATOM      3  C   UNL     1      29.543 -19.024  22.926  1.00  0.00    -0.000 C 
BRANCH   3   4
ATOM      4  C   UNL     1      30.130 -19.916  21.811  1.00  0.00    -0.000 C 
BRANCH   4   5
ATOM      5  C   UNL     1      30.867 -21.174  22.305  1.00  0.00    -0.000 C 
BRANCH   5   6
ATOM      6  C   UNL     1      30.001 -22.443  22.210  1.00  0.00    -0.000 C 
BRANCH   6   7
ATOM      7  C   UNL     1      29.417 -22.651  20.805  1.00  0.00    -0.003 C 
ATOM      8  C   UNL     1      27.907 -22.891  20.824  1.00  0.00     0.004 C 
ENDBRANCH   6   7
ENDBRANCH   5   6
ENDBRANCH   4   5
ENDBRANCH   3   4
ENDBRANCH   2   3
ENDBRANCH   1   2
BRANCH   1   9
ATOM      9  C   UNL     1      26.085 -19.888  23.804  1.00  0.00     0.000 C 
BRANCH   9  10
ATOM     10  C   UNL     1      26.168 -21.100  24.750  1.00  0.00     0.000 C 
BRANCH  10  11
ATOM     11  C   UNL     1      27.403 -21.980  24.492  1.00  0.00     0.000 C 
BRANCH  11  12
ATOM     12  C   UNL     1      28.466 -21.841  25.595  1.00  0.00     0.002 C 
BRANCH  12  13
ATOM     13  C   UNL     1      28.469 -20.448  26.243  1.00  0.00     0.028 C 
BRANCH  13  14
ATOM     14  C   UNL     1      29.896 -19.940  26.485  1.00  0.00     0.156 C 
BRANCH  14  15
ATOM     15  O   UNL     1      30.643 -20.876  27.216  1.00  0.00    -0.396 OA
ATOM     16  H   UNL     1      31.451 -20.401  27.543  1.00  0.00     0.210 HD
ENDBRANCH  14  15
ENDBRANCH  13  14
ENDBRANCH  12  13
ENDBRANCH  11  12
ENDBRANCH  10  11
ENDBRANCH   9  10
ENDBRANCH   1   9
TORSDOF 13
ENDMDL
MODEL 5
REMARK VINA RESULT:    -2.929      1.306      2.335
REMARK INTER + INTRA:          -6.802
REMARK INTER:                  -5.170
REMARK INTRA:                  -1.632
REMARK UNBOUND:                -1.732
REMARK SMILES CCCCCCCCCCCCCCO
REMARK SMILES IDX 8 1 7 2 6 3 5 4 4 5 3 6 2 7 1 8 9 9 10 10 11 11 12 12 13 13
REMARK SMILES IDX 14 14 15 15
REMARK H PARENT 15 16
REMARK Flexibility Score: inf
ROOT
ATOM      1  C   UNL     1      29.581 -22.346  21.928  1.00  0.00     0.000 C 
ENDROOT
BRANCH   1   2
ATOM      2  C   UNL     1      30.774 -21.387  21.776  1.00  0.00    -0.000 C 
BRANCH   2   3
ATOM      3  C   UNL     1      30.407 -19.922  22.073  1.00  0.00    -0.000 C 
BRANCH   3   4
ATOM      4  C   UNL     1      29.307 -19.321  21.173  1.00  0.00    -0.000 C 
BRANCH   4   5
ATOM      5  C   UNL     1      28.238 -18.497  21.913  1.00  0.00    -0.000 C 
BRANCH   5   6
ATOM      6  C   UNL     1      28.014 -18.977  23.357  1.00  0.00    -0.000 C 
BRANCH   6   7
ATOM      7  C   UNL     1      28.246 -17.863  24.389  1.00  0.00    -0.003 C 
ATOM      8  C   UNL     1      29.602 -17.977  25.085  1.00  0.00     0.004 C 
ENDBRANCH   6   7
ENDBRANCH   5   6
ENDBRANCH   4   5
ENDBRANCH   3   4
ENDBRANCH   2   3
ENDBRANCH   1   2
BRANCH   1   9
ATOM      9  C   UNL     1      29.225 -22.634  23.397  1.00  0.00     0.000 C 
BRANCH   9  10
ATOM     10  C   UNL     1      27.719 -22.677  23.716  1.00  0.00     0.000 C 
BRANCH  10  11
ATOM     11  C   UNL     1      27.399 -22.264  25.163  1.00  0.00     0.000 C 
BRANCH  11  12
ATOM     12  C   UNL     1      28.542 -21.467  25.814  1.00  0.00     0.002 C 
BRANCH  12  13
ATOM     13  C   UNL     1      28.300 -21.196  27.307  1.00  0.00     0.028 C 
BRANCH  13  14
ATOM     14  C   UNL     1      29.529 -20.566  27.973  1.00  0.00     0.156 C 
BRANCH  14  15
ATOM     15  O   UNL     1      30.687 -20.808  27.219  1.00  0.00    -0.396 OA
ATOM     16  H   UNL     1      30.389 -21.209  26.361  1.00  0.00     0.210 HD
ENDBRANCH  14  15
ENDBRANCH  13  14
ENDBRANCH  12  13
ENDBRANCH  11  12
ENDBRANCH  10  11
ENDBRANCH   9  10
ENDBRANCH   1   9
TORSDOF 13
ENDMDL
MODEL 6
REMARK VINA RESULT:    -2.924      2.002      5.164
REMARK INTER + INTRA:          -6.793
REMARK INTER:                  -5.092
REMARK INTRA:                  -1.701
REMARK UNBOUND:                -1.732
REMARK SMILES CCCCCCCCCCCCCCO
REMARK SMILES IDX 8 1 7 2 6 3 5 4 4 5 3 6 2 7 1 8 9 9 10 10 11 11 12 12 13 13
REMARK SMILES IDX 14 14 15 15
REMARK H PARENT 15 16
REMARK Flexibility Score: inf
ROOT
ATOM      1  C   UNL     1      27.298 -20.188  24.050  1.00  0.00     0.000 C 
ENDROOT
BRANCH   1   2
ATOM      2  C   UNL     1      27.607 -18.821  24.681  1.00  0.00    -0.000 C 
BRANCH   2   3
ATOM      3  C   UNL     1      28.975 -18.781  25.387  1.00  0.00    -0.000 C 
BRANCH   3   4
ATOM      4  C   UNL     1      29.561 -20.156  25.770  1.00  0.00    -0.000 C 
BRANCH   4   5
ATOM      5  C   UNL     1      30.111 -20.254  27.204  1.00  0.00    -0.000 C 
BRANCH   5   6
ATOM      6  C   UNL     1      29.135 -20.951  28.168  1.00  0.00    -0.000 C 
BRANCH   6   7
ATOM      7  C   UNL     1      27.972 -21.634  27.432  1.00  0.00    -0.003 C 
ATOM      8  C   UNL     1      26.605 -21.121  27.884  1.00  0.00     0.004 C 
ENDBRANCH   6   7
ENDBRANCH   5   6
ENDBRANCH   4   5
ENDBRANCH   3   4
ENDBRANCH   2   3
ENDBRANCH   1   2
BRANCH   1   9
ATOM      9  C   UNL     1      27.062 -20.110  22.531  1.00  0.00     0.000 C 
BRANCH   9  10
ATOM     10  C   UNL     1      28.001 -19.159  21.765  1.00  0.00     0.000 C 
BRANCH  10  11
ATOM     11  C   UNL     1      29.196 -19.886  21.123  1.00  0.00     0.000 C 
BRANCH  11  12
ATOM     12  C   UNL     1      30.386 -20.028  22.086  1.00  0.00     0.002 C 
BRANCH  12  13
ATOM     13  C   UNL     1      30.989 -21.441  22.079  1.00  0.00     0.028 C 
BRANCH  13  14
ATOM     14  C   UNL     1      29.901 -22.520  22.058  1.00  0.00     0.156 C 
BRANCH  14  15
ATOM     15  O   UNL     1      29.595 -22.949  23.358  1.00  0.00    -0.396 OA
ATOM     16  H   UNL     1      30.162 -23.744  23.536  1.00  0.00     0.210 HD
ENDBRANCH  14  15
ENDBRANCH  13  14
ENDBRANCH  12  13
ENDBRANCH  11  12
ENDBRANCH  10  11
ENDBRANCH   9  10
ENDBRANCH   1   9
TORSDOF 13
ENDMDL
MODEL 7
REMARK VINA RESULT:    -2.912      2.177      4.319
REMARK INTER + INTRA:          -6.772
REMARK INTER:                  -5.121
REMARK INTRA:                  -1.651
REMARK UNBOUND:                -1.732
REMARK SMILES CCCCCCCCCCCCCCO
REMARK SMILES IDX 8 1 7 2 6 3 5 4 4 5 3 6 2 7 1 8 9 9 10 10 11 11 12 12 13 13
REMARK SMILES IDX 14 14 15 15
REMARK H PARENT 15 16
REMARK Flexibility Score: inf
ROOT
ATOM      1  C   UNL     1      26.064 -21.172  23.695  1.00  0.00     0.000 C 
ENDROOT
BRANCH   1   2
ATOM      2  C   UNL     1      25.951 -22.417  24.590  1.00  0.00    -0.000 C 
BRANCH   2   3
ATOM      3  C   UNL     1      26.949 -22.405  25.763  1.00  0.00    -0.000 C 
BRANCH   3   4
ATOM      4  C   UNL     1      28.377 -21.935  25.411  1.00  0.00    -0.000 C 
BRANCH   4   5
ATOM      5  C   UNL     1      28.992 -20.928  26.399  1.00  0.00    -0.000 C 
BRANCH   5   6
ATOM      6  C   UNL     1      28.976 -19.486  25.863  1.00  0.00    -0.000 C 
BRANCH   6   7
ATOM      7  C   UNL     1      29.261 -19.418  24.354  1.00  0.00    -0.003 C 
ATOM      8  C   UNL     1      29.607 -18.006  23.883  1.00  0.00     0.004 C 
ENDBRANCH   6   7
ENDBRANCH   5   6
ENDBRANCH   4   5
ENDBRANCH   3   4
ENDBRANCH   2   3
ENDBRANCH   1   2
BRANCH   1   9
ATOM      9  C   UNL     1      26.517 -21.503  22.261  1.00  0.00     0.000 C 
BRANCH   9  10
ATOM     10  C   UNL     1      27.269 -20.375  21.529  1.00  0.00     0.000 C 
BRANCH  10  11
ATOM     11  C   UNL     1      28.517 -20.874  20.781  1.00  0.00     0.000 C 
BRANCH  11  12
ATOM     12  C   UNL     1      28.914 -22.303  21.184  1.00  0.00     0.002 C 
BRANCH  12  13
ATOM     13  C   UNL     1      30.123 -22.338  22.132  1.00  0.00     0.028 C 
BRANCH  13  14
ATOM     14  C   UNL     1      31.097 -21.188  21.848  1.00  0.00     0.156 C 
BRANCH  14  15
ATOM     15  O   UNL     1      32.280 -21.665  21.265  1.00  0.00    -0.396 OA
ATOM     16  H   UNL     1      32.210 -22.655  21.251  1.00  0.00     0.210 HD
ENDBRANCH  14  15
ENDBRANCH  13  14
ENDBRANCH  12  13
ENDBRANCH  11  12
ENDBRANCH  10  11
ENDBRANCH   9  10
ENDBRANCH   1   9
TORSDOF 13
ENDMDL
MODEL 8
REMARK VINA RESULT:    -2.905      1.493      3.508
REMARK INTER + INTRA:          -6.761
REMARK INTER:                  -5.089
REMARK INTRA:                  -1.672
REMARK UNBOUND:                -1.732
REMARK SMILES CCCCCCCCCCCCCCO
REMARK SMILES IDX 8 1 7 2 6 3 5 4 4 5 3 6 2 7 1 8 9 9 10 10 11 11 12 12 13 13
REMARK SMILES IDX 14 14 15 15
REMARK H PARENT 15 16
REMARK Flexibility Score: inf
ROOT
ATOM      1  C   UNL     1      29.668 -22.811  21.125  1.00  0.00     0.000 C 
ENDROOT
BRANCH   1   2
ATOM      2  C   UNL     1      28.710 -22.817  19.922  1.00  0.00    -0.000 C 
BRANCH   2   3
ATOM      3  C   UNL     1      27.230 -22.917  20.336  1.00  0.00    -0.000 C 
BRANCH   3   4
ATOM      4  C   UNL     1      26.633 -21.643  20.969  1.00  0.00    -0.000 C 
BRANCH   4   5
ATOM      5  C   UNL     1      25.908 -21.859  22.309  1.00  0.00    -0.000 C 
BRANCH   5   6
ATOM      6  C   UNL     1      26.520 -23.004  23.135  1.00  0.00    -0.000 C 
BRANCH   6   7
ATOM      7  C   UNL     1      26.580 -22.678  24.636  1.00  0.00    -0.003 C 
ATOM      8  C   UNL     1      25.841 -21.388  24.989  1.00  0.00     0.004 C 
ENDBRANCH   6   7
ENDBRANCH   5   6
ENDBRANCH   4   5
ENDBRANCH   3   4
ENDBRANCH   2   3
ENDBRANCH   1   2
BRANCH   1   9
ATOM      9  C   UNL     1      30.706 -21.676  21.061  1.00  0.00     0.000 C 
BRANCH   9  10
ATOM     10  C   UNL     1      30.582 -20.604  22.160  1.00  0.00     0.000 C 
BRANCH  10  11
ATOM     11  C   UNL     1      29.505 -20.940  23.207  1.00  0.00     0.000 C 
BRANCH  11  12
ATOM     12  C   UNL     1      28.987 -19.691  23.940  1.00  0.00     0.002 C 
BRANCH  12  13
ATOM     13  C   UNL     1      29.582 -19.542  25.350  1.00  0.00     0.028 C 
BRANCH  13  14
ATOM     14  C   UNL     1      29.251 -20.751  26.233  1.00  0.00     0.156 C 
BRANCH  14  15
ATOM     15  O   UNL     1      30.263 -20.971  27.180  1.00  0.00    -0.396 OA
ATOM     16  H   UNL     1      30.783 -20.127  27.242  1.00  0.00     0.210 HD
ENDBRANCH  14  15
ENDBRANCH  13  14
ENDBRANCH  12  13
ENDBRANCH  11  12
ENDBRANCH  10  11
ENDBRANCH   9  10
ENDBRANCH   1   9
TORSDOF 13
ENDMDL
MODEL 9
REMARK VINA RESULT:    -2.861      2.030      4.314
REMARK INTER + INTRA:          -6.683
REMARK INTER:                  -4.948
REMARK INTRA:                  -1.735
REMARK UNBOUND:                -1.732
REMARK SMILES CCCCCCCCCCCCCCO
REMARK SMILES IDX 8 1 7 2 6 3 5 4 4 5 3 6 2 7 1 8 9 9 10 10 11 11 12 12 13 13
REMARK SMILES IDX 14 14 15 15
REMARK H PARENT 15 16
REMARK Flexibility Score: inf
ROOT
ATOM      1  C   UNL     1      28.228 -22.953  20.159  1.00  0.00     0.000 C 
ENDROOT
BRANCH   1   2
ATOM      2  C   UNL     1      27.323 -22.904  21.401  1.00  0.00    -0.000 C 
BRANCH   2   3
ATOM      3  C   UNL     1      26.577 -21.565  21.547  1.00  0.00    -0.000 C 
BRANCH   3   4
ATOM      4  C   UNL     1      25.940 -21.310  22.929  1.00  0.00    -0.000 C 
BRANCH   4   5
ATOM      5  C   UNL     1      25.890 -22.536  23.859  1.00  0.00    -0.000 C 
BRANCH   5   6
ATOM      6  C   UNL     1      26.623 -22.299  25.192  1.00  0.00    -0.000 C 
BRANCH   6   7
ATOM      7  C   UNL     1      28.146 -22.199  25.014  1.00  0.00    -0.003 C 
ATOM      8  C   UNL     1      28.766 -21.090  25.864  1.00  0.00     0.004 C 
ENDBRANCH   6   7
ENDBRANCH   5   6
ENDBRANCH   4   5
ENDBRANCH   3   4
ENDBRANCH   2   3
ENDBRANCH   1   2
BRANCH   1   9
ATOM      9  C   UNL     1      29.721 -22.791  20.497  1.00  0.00     0.000 C 
BRANCH   9  10
ATOM     10  C   UNL     1      30.034 -22.453  21.966  1.00  0.00     0.000 C 
BRANCH  10  11
ATOM     11  C   UNL     1      30.795 -21.125  22.127  1.00  0.00     0.000 C 
BRANCH  11  12
ATOM     12  C   UNL     1      29.922 -19.902  21.800  1.00  0.00     0.002 C 
BRANCH  12  13
ATOM     13  C   UNL     1      29.660 -19.016  23.028  1.00  0.00     0.028 C 
BRANCH  13  14
ATOM     14  C   UNL     1      28.224 -18.480  23.043  1.00  0.00     0.156 C 
BRANCH  14  15
ATOM     15  O   UNL     1      27.784 -18.189  21.742  1.00  0.00    -0.396 OA
ATOM     16  H   UNL     1      27.703 -17.201  21.684  1.00  0.00     0.210 HD
ENDBRANCH  14  15
ENDBRANCH  13  14
ENDBRANCH  12  13
ENDBRANCH  11  12
ENDBRANCH  10  11
ENDBRANCH   9  10
ENDBRANCH   1   9
TORSDOF 13
ENDMDL
