MODEL 1
REMARK VINA RESULT:    -2.878      0.000      0.000
REMARK INTER + INTRA:          -4.796
REMARK INTER:                  -4.392
REMARK INTRA:                  -0.404
REMARK UNBOUND:                -0.404
REMARK SMILES CC1=CCC[C@H](C)C(=O)C[C@@H](C(C)C)C(=O)C1
REMARK SMILES IDX 8 1 9 2 6 3 7 4 5 5 4 6 3 7 2 8 1 9 10 11 11 12 15 13 16 14
REMARK SMILES IDX 17 15 12 17 13 18 14 19
REMARK H PARENT
REMARK Flexibility Score: 70.00
ROOT
ATOM      1  C   UNL     1      14.055 -48.627  -7.563  1.00  0.00     0.136 C 
ATOM      2  O   UNL     1      13.974 -47.822  -8.480  1.00  0.00    -0.299 OA
ENDROOT
BRANCH   1   3
ATOM      3  C   UNL     1      15.188 -49.671  -7.543  1.00  0.00     0.053 C 
ATOM      4  C   UNL     1      16.385 -49.281  -8.418  1.00  0.00     0.016 C 
BRANCH   3   5
ATOM      5  C   UNL     1      15.584 -49.751  -6.085  1.00  0.00     0.015 C 
BRANCH   5   6
ATOM      6  C   UNL     1      16.684 -49.017  -5.373  1.00  0.00     0.028 C 
BRANCH   6   7
ATOM      7  C   UNL     1      16.447 -49.170  -3.864  1.00  0.00    -0.028 C 
ATOM      8  C   UNL     1      15.712 -48.377  -3.000  1.00  0.00    -0.070 CG0
ATOM      9  C   UNL     1      15.790 -48.751  -1.538  1.00  0.00     0.039 C 
ATOM     10  G   UNL     1      14.799 -47.169  -3.357  1.00  0.00     0.000 G0
ENDBRANCH   6   7
ENDBRANCH   5   6
ENDBRANCH   3   5
ENDBRANCH   1   3
BRANCH   1  11
ATOM     11  C   UNL     1      13.041 -48.544  -6.413  1.00  0.00     0.087 C 
BRANCH  11  12
ATOM     12  C   UNL     1      13.131 -47.262  -5.493  1.00  0.00     0.066 C 
BRANCH  12  13
ATOM     13  C   UNL     1      13.455 -47.516  -3.999  1.00  0.00     0.140 C 
ATOM     14  O   UNL     1      12.628 -48.119  -3.330  1.00  0.00    -0.299 OA
BRANCH  13  15
ATOM     15  C   UNL     1      14.800 -47.159  -3.338  1.00  0.00     0.106 CG0
ATOM     16  G   UNL     1      15.710 -48.376  -3.006  1.00  0.00     0.000 G0
ENDBRANCH  13  15
ENDBRANCH  12  13
BRANCH  12  17
ATOM     17  C   UNL     1      11.852 -46.363  -5.599  1.00  0.00    -0.006 C 
ATOM     18  C   UNL     1      12.004 -45.302  -6.708  1.00  0.00     0.008 C 
ATOM     19  C   UNL     1      10.566 -47.168  -5.870  1.00  0.00     0.008 C 
ENDBRANCH  12  17
ENDBRANCH  11  12
ENDBRANCH   1  11
TORSDOF 1
ENDMDL
MODEL 2
REMARK VINA RESULT:    -2.853      2.488      4.634
REMARK INTER + INTRA:          -4.758
REMARK INTER:                  -4.775
REMARK INTRA:                   0.017
REMARK UNBOUND:                -0.404
REMARK SMILES CC1=CCC[C@H](C)C(=O)C[C@@H](C(C)C)C(=O)C1
REMARK SMILES IDX 8 1 9 2 6 3 7 4 5 5 4 6 3 7 2 8 1 9 10 11 11 12 15 13 16 14
REMARK SMILES IDX 17 15 12 17 13 18 14 19
REMARK H PARENT
REMARK Flexibility Score: 70.00
ROOT
ATOM      1  C   UNL     1      17.850 -48.624  -2.831  1.00  0.00     0.136 C 
ATOM      2  O   UNL     1      18.440 -47.629  -3.227  1.00  0.00    -0.299 OA
ENDROOT
BRANCH   1   3
ATOM      3  C   UNL     1      18.288 -49.321  -1.528  1.00  0.00     0.053 C 
ATOM      4  C   UNL     1      19.610 -48.781  -0.969  1.00  0.00     0.016 C 
BRANCH   3   5
ATOM      5  C   UNL     1      17.146 -49.056  -0.572  1.00  0.00     0.015 C 
BRANCH   5   6
ATOM      6  C   UNL     1      16.095 -50.012  -0.083  1.00  0.00     0.028 C 
BRANCH   6   7
ATOM      7  C   UNL     1      14.846 -49.191   0.270  1.00  0.00    -0.028 C 
ATOM      8  C   UNL     1      13.894 -48.631  -0.563  1.00  0.00    -0.070 CG0
ATOM      9  C   UNL     1      12.852 -47.773   0.117  1.00  0.00     0.039 C 
ATOM     10  G   UNL     1      13.754 -48.799  -2.103  1.00  0.00     0.000 G0
ENDBRANCH   6   7
ENDBRANCH   5   6
ENDBRANCH   3   5
ENDBRANCH   1   3
BRANCH   1  11
ATOM     11  C   UNL     1      16.640 -49.134  -3.628  1.00  0.00     0.087 C 
BRANCH  11  12
ATOM     12  C   UNL     1      15.560 -48.052  -4.025  1.00  0.00     0.066 C 
BRANCH  12  13
ATOM     13  C   UNL     1      14.487 -47.733  -2.953  1.00  0.00     0.140 C 
ATOM     14  O   UNL     1      14.126 -46.571  -2.834  1.00  0.00    -0.299 OA
BRANCH  13  15
ATOM     15  C   UNL     1      13.765 -48.805  -2.114  1.00  0.00     0.106 CG0
ATOM     16  G   UNL     1      13.887 -48.624  -0.574  1.00  0.00     0.000 G0
ENDBRANCH  13  15
ENDBRANCH  12  13
BRANCH  12  17
ATOM     17  C   UNL     1      14.851 -48.390  -5.381  1.00  0.00    -0.006 C 
ATOM     18  C   UNL     1      13.667 -47.438  -5.646  1.00  0.00     0.008 C 
ATOM     19  C   UNL     1      15.801 -48.332  -6.593  1.00  0.00     0.008 C 
ENDBRANCH  12  17
ENDBRANCH  11  12
ENDBRANCH   1  11
TORSDOF 1
ENDMDL
MODEL 3
REMARK VINA RESULT:    -2.816     20.134     21.403
REMARK INTER + INTRA:          -4.702
REMARK INTER:                  -4.332
REMARK INTRA:                  -0.370
REMARK UNBOUND:                -0.404
REMARK SMILES CC1=CCC[C@H](C)C(=O)C[C@@H](C(C)C)C(=O)C1
REMARK SMILES IDX 8 1 9 2 6 3 7 4 5 5 4 6 3 7 2 8 1 9 10 11 11 12 15 13 16 14
REMARK SMILES IDX 17 15 12 17 13 18 14 19
REMARK H PARENT
REMARK Flexibility Score: 70.00
ROOT
ATOM      1  C   UNL     1      27.404 -31.421 -10.375  1.00  0.00     0.136 C 
ATOM      2  O   UNL     1      26.925 -31.152  -9.282  1.00  0.00    -0.299 OA
ENDROOT
BRANCH   1   3
ATOM      3  C   UNL     1      28.780 -32.106 -10.474  1.00  0.00     0.053 C 
ATOM      4  C   UNL     1      28.973 -33.226  -9.444  1.00  0.00     0.016 C 
BRANCH   3   5
ATOM      5  C   UNL     1      28.813 -32.654 -11.884  1.00  0.00     0.015 C 
BRANCH   5   6
ATOM      6  C   UNL     1      28.388 -34.010 -12.371  1.00  0.00     0.028 C 
BRANCH   6   7
ATOM      7  C   UNL     1      28.159 -33.911 -13.886  1.00  0.00    -0.028 C 
ATOM      8  C   UNL     1      26.973 -33.873 -14.599  1.00  0.00    -0.070 CG0
ATOM      9  C   UNL     1      27.112 -33.899 -16.103  1.00  0.00     0.039 C 
ATOM     10  G   UNL     1      25.525 -33.782 -14.039  1.00  0.00     0.000 G0
ENDBRANCH   6   7
ENDBRANCH   5   6
ENDBRANCH   3   5
ENDBRANCH   1   3
BRANCH   1  11
ATOM     11  C   UNL     1      26.587 -31.107 -11.638  1.00  0.00     0.087 C 
BRANCH  11  12
ATOM     12  C   UNL     1      25.372 -32.070 -11.940  1.00  0.00     0.066 C 
BRANCH  12  13
ATOM     13  C   UNL     1      25.137 -32.426 -13.430  1.00  0.00     0.140 C 
ATOM     14  O   UNL     1      24.719 -31.545 -14.169  1.00  0.00    -0.299 OA
BRANCH  13  15
ATOM     15  C   UNL     1      25.509 -33.782 -14.059  1.00  0.00     0.106 CG0
ATOM     16  G   UNL     1      26.975 -33.889 -14.567  1.00  0.00     0.000 G0
ENDBRANCH  13  15
ENDBRANCH  12  13
BRANCH  12  17
ATOM     17  C   UNL     1      24.032 -31.550 -11.316  1.00  0.00    -0.006 C 
ATOM     18  C   UNL     1      23.795 -32.153  -9.916  1.00  0.00     0.008 C 
ATOM     19  C   UNL     1      23.973 -30.014 -11.200  1.00  0.00     0.008 C 
ENDBRANCH  12  17
ENDBRANCH  11  12
ENDBRANCH   1  11
TORSDOF 1
ENDMDL
MODEL 4
REMARK VINA RESULT:    -2.666     12.289     14.369
REMARK INTER + INTRA:          -4.472
REMARK INTER:                  -3.851
REMARK INTRA:                  -0.621
REMARK UNBOUND:                -0.404
REMARK SMILES CC1=CCC[C@H](C)C(=O)C[C@@H](C(C)C)C(=O)C1
REMARK SMILES IDX 8 1 9 2 6 3 7 4 5 5 4 6 3 7 2 8 1 9 10 11 11 12 15 13 16 14
REMARK SMILES IDX 17 15 12 17 13 18 14 19
REMARK H PARENT
REMARK Flexibility Score: 70.00
ROOT
ATOM      1  C   UNL     1      26.662 -43.404  -9.418  1.00  0.00     0.136 C 
ATOM      2  O   UNL     1      26.387 -42.284  -9.822  1.00  0.00    -0.299 OA
ENDROOT
BRANCH   1   3
ATOM      3  C   UNL     1      26.061 -43.924  -8.098  1.00  0.00     0.053 C 
ATOM      4  C   UNL     1      24.566 -44.248  -8.201  1.00  0.00     0.016 C 
BRANCH   3   5
ATOM      5  C   UNL     1      26.867 -45.168  -7.796  1.00  0.00     0.015 C 
BRANCH   5   6
ATOM      6  C   UNL     1      26.371 -46.555  -7.499  1.00  0.00     0.028 C 
BRANCH   6   7
ATOM      7  C   UNL     1      27.404 -47.548  -8.051  1.00  0.00    -0.028 C 
ATOM      8  C   UNL     1      27.506 -48.104  -9.314  1.00  0.00    -0.070 CG0
ATOM      9  C   UNL     1      28.583 -49.151  -9.484  1.00  0.00     0.039 C 
ATOM     10  G   UNL     1      26.666 -47.765 -10.578  1.00  0.00     0.000 G0
ENDBRANCH   6   7
ENDBRANCH   5   6
ENDBRANCH   3   5
ENDBRANCH   1   3
BRANCH   1  11
ATOM     11  C   UNL     1      27.575 -44.296 -10.272  1.00  0.00     0.087 C 
BRANCH  11  12
ATOM     12  C   UNL     1      26.864 -45.149 -11.397  1.00  0.00     0.066 C 
BRANCH  12  13
ATOM     13  C   UNL     1      27.268 -46.643 -11.478  1.00  0.00     0.140 C 
ATOM     14  O   UNL     1      28.185 -46.947 -12.228  1.00  0.00    -0.299 OA
BRANCH  13  15
ATOM     15  C   UNL     1      26.666 -47.746 -10.586  1.00  0.00     0.106 CG0
ATOM     16  G   UNL     1      27.510 -48.108  -9.331  1.00  0.00     0.000 G0
ENDBRANCH  13  15
ENDBRANCH  12  13
BRANCH  12  17
ATOM     17  C   UNL     1      27.004 -44.498 -12.815  1.00  0.00    -0.006 C 
ATOM     18  C   UNL     1      25.733 -43.714 -13.199  1.00  0.00     0.008 C 
ATOM     19  C   UNL     1      28.213 -43.549 -12.929  1.00  0.00     0.008 C 
ENDBRANCH  12  17
ENDBRANCH  11  12
ENDBRANCH   1  11
TORSDOF 1
ENDMDL
MODEL 5
REMARK VINA RESULT:    -2.613     20.376     21.665
REMARK INTER + INTRA:          -4.392
REMARK INTER:                  -4.065
REMARK INTRA:                  -0.327
REMARK UNBOUND:                -0.404
REMARK SMILES CC1=CCC[C@H](C)C(=O)C[C@@H](C(C)C)C(=O)C1
REMARK SMILES IDX 8 1 9 2 6 3 7 4 5 5 4 6 3 7 2 8 1 9 10 11 11 12 15 13 16 14
REMARK SMILES IDX 17 15 12 17 13 18 14 19
REMARK H PARENT
REMARK Flexibility Score: 70.00
ROOT
ATOM      1  C   UNL     1      27.157 -30.019 -13.152  1.00  0.00     0.136 C 
ATOM      2  O   UNL     1      27.991 -30.063 -12.259  1.00  0.00    -0.299 OA
ENDROOT
BRANCH   1   3
ATOM      3  C   UNL     1      27.598 -30.021 -14.629  1.00  0.00     0.053 C 
ATOM      4  C   UNL     1      29.122 -30.023 -14.804  1.00  0.00     0.016 C 
BRANCH   3   5
ATOM      5  C   UNL     1      26.985 -31.285 -15.190  1.00  0.00     0.015 C 
BRANCH   5   6
ATOM      6  C   UNL     1      27.168 -32.700 -14.723  1.00  0.00     0.028 C 
BRANCH   6   7
ATOM      7  C   UNL     1      25.986 -33.523 -15.255  1.00  0.00    -0.028 C 
ATOM      8  C   UNL     1      24.870 -33.999 -14.588  1.00  0.00    -0.070 CG0
ATOM      9  C   UNL     1      23.953 -34.888 -15.396  1.00  0.00     0.039 C 
ATOM     10  G   UNL     1      24.437 -33.707 -13.123  1.00  0.00     0.000 G0
ENDBRANCH   6   7
ENDBRANCH   5   6
ENDBRANCH   3   5
ENDBRANCH   1   3
BRANCH   1  11
ATOM     11  C   UNL     1      25.668 -30.013 -12.776  1.00  0.00     0.087 C 
BRANCH  11  12
ATOM     12  C   UNL     1      25.135 -31.291 -12.017  1.00  0.00     0.066 C 
BRANCH  12  13
ATOM     13  C   UNL     1      24.166 -32.203 -12.813  1.00  0.00     0.140 C 
ATOM     14  O   UNL     1      23.179 -31.686 -13.316  1.00  0.00    -0.299 OA
BRANCH  13  15
ATOM     15  C   UNL     1      24.433 -33.691 -13.107  1.00  0.00     0.106 CG0
ATOM     16  G   UNL     1      24.859 -34.004 -14.570  1.00  0.00     0.000 G0
ENDBRANCH  13  15
ENDBRANCH  12  13
BRANCH  12  17
ATOM     17  C   UNL     1      24.490 -30.936 -10.634  1.00  0.00    -0.006 C 
ATOM     18  C   UNL     1      23.771 -32.155 -10.021  1.00  0.00     0.008 C 
ATOM     19  C   UNL     1      25.510 -30.408  -9.607  1.00  0.00     0.008 C 
ENDBRANCH  12  17
ENDBRANCH  11  12
ENDBRANCH   1  11
TORSDOF 1
ENDMDL
MODEL 6
REMARK VINA RESULT:    -2.567     20.650     21.885
REMARK INTER + INTRA:          -4.322
REMARK INTER:                  -3.778
REMARK INTRA:                  -0.544
REMARK UNBOUND:                -0.404
REMARK SMILES CC1=CCC[C@H](C)C(=O)C[C@@H](C(C)C)C(=O)C1
REMARK SMILES IDX 8 1 9 2 6 3 7 4 5 5 4 6 3 7 2 8 1 9 10 11 11 12 15 13 16 14
REMARK SMILES IDX 17 15 12 17 13 18 14 19
REMARK H PARENT
REMARK Flexibility Score: 70.00
ROOT
ATOM      1  C   UNL     1      25.445 -33.020 -14.805  1.00  0.00     0.136 C 
ATOM      2  O   UNL     1      26.127 -33.850 -15.388  1.00  0.00    -0.299 OA
ENDROOT
BRANCH   1   3
ATOM      3  C   UNL     1      24.027 -33.380 -14.321  1.00  0.00     0.053 C 
ATOM      4  C   UNL     1      23.607 -34.808 -14.690  1.00  0.00     0.016 C 
BRANCH   3   5
ATOM      5  C   UNL     1      24.099 -33.205 -12.820  1.00  0.00     0.015 C 
BRANCH   5   6
ATOM      6  C   UNL     1      23.488 -32.125 -11.974  1.00  0.00     0.028 C 
BRANCH   6   7
ATOM      7  C   UNL     1      24.408 -31.904 -10.764  1.00  0.00    -0.028 C 
ATOM      8  C   UNL     1      25.577 -31.170 -10.667  1.00  0.00    -0.070 CG0
ATOM      9  C   UNL     1      26.304 -31.267  -9.345  1.00  0.00     0.039 C 
ATOM     10  G   UNL     1      26.215 -30.243 -11.740  1.00  0.00     0.000 G0
ENDBRANCH   6   7
ENDBRANCH   5   6
ENDBRANCH   3   5
ENDBRANCH   1   3
BRANCH   1  11
ATOM     11  C   UNL     1      26.046 -31.635 -14.521  1.00  0.00     0.087 C 
BRANCH  11  12
ATOM     12  C   UNL     1      27.423 -31.616 -13.748  1.00  0.00     0.066 C 
BRANCH  12  13
ATOM     13  C   UNL     1      27.468 -30.762 -12.455  1.00  0.00     0.140 C 
ATOM     14  O   UNL     1      28.565 -30.425 -12.031  1.00  0.00    -0.299 OA
BRANCH  13  15
ATOM     15  C   UNL     1      26.217 -30.216 -11.742  1.00  0.00     0.106 CG0
ATOM     16  G   UNL     1      25.598 -31.171 -10.681  1.00  0.00     0.000 G0
ENDBRANCH  13  15
ENDBRANCH  12  13
BRANCH  12  17
ATOM     17  C   UNL     1      28.620 -31.213 -14.675  1.00  0.00    -0.006 C 
ATOM     18  C   UNL     1      29.124 -32.419 -15.494  1.00  0.00     0.008 C 
ATOM     19  C   UNL     1      28.273 -30.073 -15.652  1.00  0.00     0.008 C 
ENDBRANCH  12  17
ENDBRANCH  11  12
ENDBRANCH   1  11
TORSDOF 1
ENDMDL
MODEL 7
REMARK VINA RESULT:    -2.567     12.636     14.761
REMARK INTER + INTRA:          -4.322
REMARK INTER:                  -3.783
REMARK INTRA:                  -0.539
REMARK UNBOUND:                -0.404
REMARK SMILES CC1=CCC[C@H](C)C(=O)C[C@@H](C(C)C)C(=O)C1
REMARK SMILES IDX 8 1 9 2 6 3 7 4 5 5 4 6 3 7 2 8 1 9 10 11 11 12 15 13 16 14
REMARK SMILES IDX 17 15 12 17 13 18 14 19
REMARK H PARENT
REMARK Flexibility Score: 70.00
ROOT
ATOM      1  C   UNL     1      27.605 -46.398 -10.547  1.00  0.00     0.136 C 
ATOM      2  O   UNL     1      28.458 -46.327  -9.673  1.00  0.00    -0.299 OA
ENDROOT
BRANCH   1   3
ATOM      3  C   UNL     1      28.000 -46.766 -11.990  1.00  0.00     0.053 C 
ATOM      4  C   UNL     1      28.735 -48.108 -12.092  1.00  0.00     0.016 C 
BRANCH   3   5
ATOM      5  C   UNL     1      26.679 -46.813 -12.727  1.00  0.00     0.015 C 
BRANCH   5   6
ATOM      6  C   UNL     1      26.144 -45.850 -13.748  1.00  0.00     0.028 C 
BRANCH   6   7
ATOM      7  C   UNL     1      27.128 -44.675 -13.842  1.00  0.00    -0.028 C 
ATOM      8  C   UNL     1      27.129 -43.468 -13.165  1.00  0.00    -0.070 CG0
ATOM      9  C   UNL     1      28.187 -42.478 -13.594  1.00  0.00     0.039 C 
ATOM     10  G   UNL     1      26.193 -43.022 -12.006  1.00  0.00     0.000 G0
ENDBRANCH   6   7
ENDBRANCH   5   6
ENDBRANCH   3   5
ENDBRANCH   1   3
BRANCH   1  11
ATOM     11  C   UNL     1      26.136 -46.162 -10.168  1.00  0.00     0.087 C 
BRANCH  11  12
ATOM     12  C   UNL     1      25.720 -44.664  -9.882  1.00  0.00     0.066 C 
BRANCH  12  13
ATOM     13  C   UNL     1      26.550 -43.575 -10.608  1.00  0.00     0.140 C 
ATOM     14  O   UNL     1      27.595 -43.211 -10.087  1.00  0.00    -0.299 OA
BRANCH  13  15
ATOM     15  C   UNL     1      26.200 -43.012 -11.999  1.00  0.00     0.106 CG0
ATOM     16  G   UNL     1      27.134 -43.483 -13.150  1.00  0.00     0.000 G0
ENDBRANCH  13  15
ENDBRANCH  12  13
BRANCH  12  17
ATOM     17  C   UNL     1      25.674 -44.342  -8.350  1.00  0.00    -0.006 C 
ATOM     18  C   UNL     1      24.635 -43.245  -8.039  1.00  0.00     0.008 C 
ATOM     19  C   UNL     1      25.353 -45.574  -7.481  1.00  0.00     0.008 C 
ENDBRANCH  12  17
ENDBRANCH  11  12
ENDBRANCH   1  11
TORSDOF 1
ENDMDL
MODEL 8
REMARK VINA RESULT:    -2.513     12.890     15.182
REMARK INTER + INTRA:          -4.239
REMARK INTER:                  -3.792
REMARK INTRA:                  -0.447
REMARK UNBOUND:                -0.404
REMARK SMILES CC1=CCC[C@H](C)C(=O)C[C@@H](C(C)C)C(=O)C1
REMARK SMILES IDX 8 1 9 2 6 3 7 4 5 5 4 6 3 7 2 8 1 9 10 11 11 12 15 13 16 14
REMARK SMILES IDX 17 15 12 17 13 18 14 19
REMARK H PARENT
REMARK Flexibility Score: 70.00
ROOT
ATOM      1  C   UNL     1      25.854 -44.937 -10.128  1.00  0.00     0.136 C 
ATOM      2  O   UNL     1      25.417 -46.044 -10.409  1.00  0.00    -0.299 OA
ENDROOT
BRANCH   1   3
ATOM      3  C   UNL     1      26.174 -44.575  -8.665  1.00  0.00     0.053 C 
ATOM      4  C   UNL     1      24.921 -44.338  -7.813  1.00  0.00     0.016 C 
BRANCH   3   5
ATOM      5  C   UNL     1      26.958 -45.766  -8.159  1.00  0.00     0.015 C 
BRANCH   5   6
ATOM      6  C   UNL     1      28.431 -46.036  -8.278  1.00  0.00     0.028 C 
BRANCH   6   7
ATOM      7  C   UNL     1      28.606 -47.284  -9.156  1.00  0.00    -0.028 C 
ATOM      8  C   UNL     1      28.836 -47.380 -10.517  1.00  0.00    -0.070 CG0
ATOM      9  C   UNL     1      28.835 -48.780 -11.085  1.00  0.00     0.039 C 
ATOM     10  G   UNL     1      29.117 -46.227 -11.523  1.00  0.00     0.000 G0
ENDBRANCH   6   7
ENDBRANCH   5   6
ENDBRANCH   3   5
ENDBRANCH   1   3
BRANCH   1  11
ATOM     11  C   UNL     1      26.123 -43.938 -11.263  1.00  0.00     0.087 C 
BRANCH  11  12
ATOM     12  C   UNL     1      27.412 -44.204 -12.137  1.00  0.00     0.066 C 
BRANCH  12  13
ATOM     13  C   UNL     1      27.870 -45.680 -12.245  1.00  0.00     0.140 C 
ATOM     14  O   UNL     1      27.257 -46.414 -13.009  1.00  0.00    -0.299 OA
BRANCH  13  15
ATOM     15  C   UNL     1      29.118 -46.247 -11.542  1.00  0.00     0.106 CG0
ATOM     16  G   UNL     1      28.832 -47.370 -10.505  1.00  0.00     0.000 G0
ENDBRANCH  13  15
ENDBRANCH  12  13
BRANCH  12  17
ATOM     17  C   UNL     1      28.625 -43.318 -11.692  1.00  0.00    -0.006 C 
ATOM     18  C   UNL     1      29.051 -42.348 -12.813  1.00  0.00     0.008 C 
ATOM     19  C   UNL     1      28.341 -42.495 -10.420  1.00  0.00     0.008 C 
ENDBRANCH  12  17
ENDBRANCH  11  12
ENDBRANCH   1  11
TORSDOF 1
ENDMDL
MODEL 9
REMARK VINA RESULT:    -2.464     13.095     14.326
REMARK INTER + INTRA:          -4.164
REMARK INTER:                  -3.517
REMARK INTRA:                  -0.647
REMARK UNBOUND:                -0.404
REMARK SMILES CC1=CCC[C@H](C)C(=O)C[C@@H](C(C)C)C(=O)C1
REMARK SMILES IDX 8 1 9 2 6 3 7 4 5 5 4 6 3 7 2 8 1 9 10 11 11 12 15 13 16 14
REMARK SMILES IDX 17 15 12 17 13 18 14 19
REMARK H PARENT
REMARK Flexibility Score: 70.00
ROOT
ATOM      1  C   UNL     1      27.997 -44.173 -11.854  1.00  0.00     0.136 C 
ATOM      2  O   UNL     1      29.124 -44.115 -11.382  1.00  0.00    -0.299 OA
ENDROOT
BRANCH   1   3
ATOM      3  C   UNL     1      27.035 -42.977 -11.718  1.00  0.00     0.053 C 
ATOM      4  C   UNL     1      25.748 -43.141 -12.536  1.00  0.00     0.016 C 
BRANCH   3   5
ATOM      5  C   UNL     1      26.733 -42.920 -10.236  1.00  0.00     0.015 C 
BRANCH   5   6
ATOM      6  C   UNL     1      25.788 -43.774  -9.441  1.00  0.00     0.028 C 
BRANCH   6   7
ATOM      7  C   UNL     1      26.612 -44.516  -8.378  1.00  0.00    -0.028 C 
ATOM      8  C   UNL     1      26.847 -45.872  -8.232  1.00  0.00    -0.070 CG0
ATOM      9  C   UNL     1      27.609 -46.274  -6.991  1.00  0.00     0.039 C 
ATOM     10  G   UNL     1      26.444 -47.021  -9.199  1.00  0.00     0.000 G0
ENDBRANCH   6   7
ENDBRANCH   5   6
ENDBRANCH   3   5
ENDBRANCH   1   3
BRANCH   1  11
ATOM     11  C   UNL     1      27.581 -45.435 -12.625  1.00  0.00     0.087 C 
BRANCH  11  12
ATOM     12  C   UNL     1      26.630 -46.438 -11.860  1.00  0.00     0.066 C 
BRANCH  12  13
ATOM     13  C   UNL     1      27.194 -47.048 -10.551  1.00  0.00     0.140 C 
ATOM     14  O   UNL     1      28.337 -47.481 -10.568  1.00  0.00    -0.299 OA
BRANCH  13  15
ATOM     15  C   UNL     1      26.445 -47.034  -9.204  1.00  0.00     0.106 CG0
ATOM     16  G   UNL     1      26.847 -45.879  -8.243  1.00  0.00     0.000 G0
ENDBRANCH  13  15
ENDBRANCH  12  13
BRANCH  12  17
ATOM     17  C   UNL     1      26.113 -47.591 -12.786  1.00  0.00    -0.006 C 
ATOM     18  C   UNL     1      24.791 -48.183 -12.257  1.00  0.00     0.008 C 
ATOM     19  C   UNL     1      25.897 -47.145 -14.245  1.00  0.00     0.008 C 
ENDBRANCH  12  17
ENDBRANCH  11  12
ENDBRANCH   1  11
TORSDOF 1
ENDMDL
