MODEL 1
REMARK VINA RESULT:    -2.101      0.000      0.000
REMARK INTER + INTRA:          -2.312
REMARK INTER:                  -3.206
REMARK INTRA:                   0.893
REMARK UNBOUND:                 0.893
REMARK SMILES OC[C@@H]1O[C@H](O[C@]2(CO)O[C@H](CO)[C@@H](O)[C@@H]2O)[C@@H](O)[C@H](O)[C@H]1O
REMARK SMILES IDX 6 1 5 2 3 3 22 4 4 5 20 6 18 7 2 8 1 9 23 11 21 13 19 15
REMARK SMILES IDX 7 17 16 18 10 19 14 20 11 21 8 22 9 23 17 25 15 27 12 29
REMARK SMILES IDX 13 30
REMARK H PARENT 1 10 23 12 21 14 19 16 9 24 17 26 15 28 13 31
REMARK Flexibility Score: inf
ROOT
ATOM      1  O   UNL     1      -9.217  -5.631 -11.596  1.00  0.00    -0.313 OA
ENDROOT
BRANCH   1   2
ATOM      2  C   UNL     1      -8.198  -6.596 -11.394  1.00  0.00     0.285 C 
ATOM      3  C   UNL     1      -7.677  -8.502 -10.156  1.00  0.00     0.178 C 
ATOM      4  C   UNL     1      -7.925  -9.534 -11.292  1.00  0.00     0.177 C 
ATOM      5  O   UNL     1      -8.565  -7.409 -10.287  1.00  0.00    -0.341 OA
ATOM      6  C   UNL     1      -8.573  -8.860 -12.523  1.00  0.00     0.179 C 
ATOM      7  C   UNL     1      -8.041  -7.425 -12.707  1.00  0.00     0.202 C 
BRANCH   3   8
ATOM      8  C   UNL     1      -7.876  -9.139  -8.774  1.00  0.00     0.191 C 
BRANCH   8   9
ATOM      9  O   UNL     1      -9.227  -9.450  -8.564  1.00  0.00    -0.394 OA
ATOM     10  H   UNL     1      -9.296  -9.823  -7.648  1.00  0.00     0.210 HD
ENDBRANCH   8   9
ENDBRANCH   3   8
BRANCH   4  11
ATOM     11  O   UNL     1      -6.710 -10.125 -11.674  1.00  0.00    -0.387 OA
ATOM     12  H   UNL     1      -6.748 -11.074 -11.385  1.00  0.00     0.211 HD
ENDBRANCH   4  11
BRANCH   6  13
ATOM     13  O   UNL     1      -9.969  -8.828 -12.351  1.00  0.00    -0.387 OA
ATOM     14  H   UNL     1     -10.159  -8.152 -11.649  1.00  0.00     0.211 HD
ENDBRANCH   6  13
BRANCH   7  15
ATOM     15  O   UNL     1      -6.689  -7.485 -13.087  1.00  0.00    -0.385 OA
ATOM     16  H   UNL     1      -6.539  -6.741 -13.728  1.00  0.00     0.211 HD
ENDBRANCH   7  15
ENDBRANCH   1   2
BRANCH   1  17
ATOM     17  C   UNL     1      -9.038  -4.845 -12.775  1.00  0.00     0.224 C 
ATOM     18  C   UNL     1      -9.144  -3.352 -12.399  1.00  0.00     0.208 C 
ATOM     19  O   UNL     1      -7.755  -5.044 -13.345  1.00  0.00    -0.337 OA
ATOM     20  C   UNL     1      -8.054  -2.682 -13.225  1.00  0.00     0.180 C 
ATOM     21  C   UNL     1      -7.365  -3.839 -13.958  1.00  0.00     0.179 C 
BRANCH  17  22
ATOM     22  C   UNL     1     -10.125  -5.227 -13.814  1.00  0.00     0.225 C 
BRANCH  22  23
ATOM     23  O   UNL     1     -10.096  -6.605 -14.079  1.00  0.00    -0.391 OA
ATOM     24  H   UNL     1     -10.167  -6.717 -15.062  1.00  0.00     0.210 HD
ENDBRANCH  22  23
ENDBRANCH  17  22
BRANCH  18  25
ATOM     25  O   UNL     1      -8.884  -3.169 -11.028  1.00  0.00    -0.385 OA
ATOM     26  H   UNL     1      -9.249  -2.278 -10.785  1.00  0.00     0.211 HD
ENDBRANCH  18  25
BRANCH  20  27
ATOM     27  O   UNL     1      -8.578  -1.733 -14.123  1.00  0.00    -0.387 OA
ATOM     28  H   UNL     1      -8.689  -2.171 -15.008  1.00  0.00     0.211 HD
ENDBRANCH  20  27
BRANCH  21  29
ATOM     29  C   UNL     1      -5.835  -3.731 -13.927  1.00  0.00     0.191 C 
BRANCH  29  30
ATOM     30  O   UNL     1      -5.248  -5.004 -13.960  1.00  0.00    -0.394 OA
ATOM     31  H   UNL     1      -5.732  -5.528 -14.650  1.00  0.00     0.210 HD
ENDBRANCH  29  30
ENDBRANCH  21  29
ENDBRANCH   1  17
TORSDOF 13
ENDMDL
MODEL 2
REMARK VINA RESULT:    -1.233      1.414      2.602
REMARK INTER + INTRA:          -0.989
REMARK INTER:                  -1.168
REMARK INTRA:                   0.180
REMARK UNBOUND:                 0.893
REMARK SMILES OC[C@@H]1O[C@H](O[C@]2(CO)O[C@H](CO)[C@@H](O)[C@@H]2O)[C@@H](O)[C@H](O)[C@H]1O
REMARK SMILES IDX 6 1 5 2 3 3 22 4 4 5 20 6 18 7 2 8 1 9 23 11 21 13 19 15
REMARK SMILES IDX 7 17 16 18 10 19 14 20 11 21 8 22 9 23 17 25 15 27 12 29
REMARK SMILES IDX 13 30
REMARK H PARENT 1 10 23 12 21 14 19 16 9 24 17 26 15 28 13 31
REMARK Flexibility Score: inf
ROOT
ATOM      1  O   UNL     1      -7.526  -6.159 -11.302  1.00  0.00    -0.313 OA
ENDROOT
BRANCH   1   2
ATOM      2  C   UNL     1      -8.425  -6.947 -10.538  1.00  0.00     0.285 C 
ATOM      3  C   UNL     1      -9.495  -9.019 -10.501  1.00  0.00     0.178 C 
ATOM      4  C   UNL     1      -8.578  -9.681  -9.434  1.00  0.00     0.177 C 
ATOM      5  O   UNL     1      -8.749  -8.110 -11.288  1.00  0.00    -0.341 OA
ATOM      6  C   UNL     1      -7.358  -8.787  -9.119  1.00  0.00     0.179 C 
ATOM      7  C   UNL     1      -7.739  -7.295  -9.180  1.00  0.00     0.202 C 
BRANCH   3   8
ATOM      8  C   UNL     1     -10.124 -10.072 -11.423  1.00  0.00     0.191 C 
BRANCH   8   9
ATOM      9  O   UNL     1      -9.771  -9.833 -12.759  1.00  0.00    -0.394 OA
ATOM     10  H   UNL     1     -10.534  -9.353 -13.175  1.00  0.00     0.210 HD
ENDBRANCH   8   9
ENDBRANCH   3   8
BRANCH   4  11
ATOM     11  O   UNL     1      -9.305  -9.906  -8.254  1.00  0.00    -0.387 OA
ATOM     12  H   UNL     1      -8.928  -9.300  -7.564  1.00  0.00     0.211 HD
ENDBRANCH   4  11
BRANCH   6  13
ATOM     13  O   UNL     1      -6.337  -9.053 -10.049  1.00  0.00    -0.387 OA
ATOM     14  H   UNL     1      -6.416  -8.373 -10.768  1.00  0.00     0.211 HD
ENDBRANCH   6  13
BRANCH   7  15
ATOM     15  O   UNL     1      -8.601  -6.999  -8.109  1.00  0.00    -0.385 OA
ATOM     16  H   UNL     1      -8.430  -7.683  -7.408  1.00  0.00     0.211 HD
ENDBRANCH   7  15
ENDBRANCH   1   2
BRANCH   1  17
ATOM     17  C   UNL     1      -8.144  -5.486 -12.400  1.00  0.00     0.224 C 
ATOM     18  C   UNL     1      -9.016  -4.336 -11.852  1.00  0.00     0.208 C 
ATOM     19  O   UNL     1      -7.181  -4.907 -13.265  1.00  0.00    -0.337 OA
ATOM     20  C   UNL     1      -8.778  -3.192 -12.829  1.00  0.00     0.180 C 
ATOM     21  C   UNL     1      -7.745  -3.743 -13.819  1.00  0.00     0.179 C 
BRANCH  17  22
ATOM     22  C   UNL     1      -9.006  -6.497 -13.199  1.00  0.00     0.225 C 
BRANCH  22  23
ATOM     23  O   UNL     1      -8.201  -7.289 -14.033  1.00  0.00    -0.391 OA
ATOM     24  H   UNL     1      -7.495  -6.699 -14.406  1.00  0.00     0.210 HD
ENDBRANCH  22  23
ENDBRANCH  17  22
BRANCH  18  25
ATOM     25  O   UNL     1      -8.588  -3.963 -10.566  1.00  0.00    -0.385 OA
ATOM     26  H   UNL     1      -7.865  -4.594 -10.311  1.00  0.00     0.211 HD
ENDBRANCH  18  25
BRANCH  20  27
ATOM     27  O   UNL     1      -9.963  -2.795 -13.477  1.00  0.00    -0.387 OA
ATOM     28  H   UNL     1      -9.720  -2.424 -14.367  1.00  0.00     0.211 HD
ENDBRANCH  20  27
BRANCH  21  29
ATOM     29  C   UNL     1      -6.627  -2.738 -14.125  1.00  0.00     0.191 C 
BRANCH  29  30
ATOM     30  O   UNL     1      -5.375  -3.370 -14.109  1.00  0.00    -0.394 OA
ATOM     31  H   UNL     1      -5.393  -4.031 -13.369  1.00  0.00     0.210 HD
ENDBRANCH  29  30
ENDBRANCH  21  29
ENDBRANCH   1  17
TORSDOF 13
ENDMDL
MODEL 3
REMARK VINA RESULT:    -0.296      2.127      3.916
REMARK INTER + INTRA:           0.441
REMARK INTER:                   0.138
REMARK INTRA:                   0.303
REMARK UNBOUND:                 0.893
REMARK SMILES OC[C@@H]1O[C@H](O[C@]2(CO)O[C@H](CO)[C@@H](O)[C@@H]2O)[C@@H](O)[C@H](O)[C@H]1O
REMARK SMILES IDX 6 1 5 2 3 3 22 4 4 5 20 6 18 7 2 8 1 9 23 11 21 13 19 15
REMARK SMILES IDX 7 17 16 18 10 19 14 20 11 21 8 22 9 23 17 25 15 27 12 29
REMARK SMILES IDX 13 30
REMARK H PARENT 1 10 23 12 21 14 19 16 9 24 17 26 15 28 13 31
REMARK Flexibility Score: inf
ROOT
ATOM      1  O   UNL     1      -8.111  -9.729 -11.419  1.00  0.00    -0.313 OA
ENDROOT
BRANCH   1   2
ATOM      2  C   UNL     1      -7.205  -9.075 -10.544  1.00  0.00     0.285 C 
ATOM      3  C   UNL     1      -7.092  -7.438  -8.888  1.00  0.00     0.178 C 
ATOM      4  C   UNL     1      -6.997  -8.406  -7.676  1.00  0.00     0.177 C 
ATOM      5  O   UNL     1      -7.892  -8.007  -9.906  1.00  0.00    -0.341 OA
ATOM      6  C   UNL     1      -7.243  -9.868  -8.113  1.00  0.00     0.179 C 
ATOM      7  C   UNL     1      -6.669 -10.125  -9.521  1.00  0.00     0.202 C 
BRANCH   3   8
ATOM      8  C   UNL     1      -7.699  -6.090  -8.475  1.00  0.00     0.191 C 
BRANCH   8   9
ATOM      9  O   UNL     1      -8.382  -5.506  -9.552  1.00  0.00    -0.394 OA
ATOM     10  H   UNL     1      -9.175  -6.075  -9.730  1.00  0.00     0.210 HD
ENDBRANCH   8   9
ENDBRANCH   3   8
BRANCH   4  11
ATOM     11  O   UNL     1      -5.727  -8.307  -7.084  1.00  0.00    -0.387 OA
ATOM     12  H   UNL     1      -5.531  -9.190  -6.675  1.00  0.00     0.211 HD
ENDBRANCH   4  11
BRANCH   6  13
ATOM     13  O   UNL     1      -8.626 -10.125  -8.112  1.00  0.00    -0.387 OA
ATOM     14  H   UNL     1      -8.748 -11.047  -7.766  1.00  0.00     0.211 HD
ENDBRANCH   6  13
BRANCH   7  15
ATOM     15  O   UNL     1      -5.266 -10.072  -9.459  1.00  0.00    -0.385 OA
ATOM     16  H   UNL     1      -5.019  -9.114  -9.365  1.00  0.00     0.211 HD
ENDBRANCH   7  15
ENDBRANCH   1   2
BRANCH   1  17
ATOM     17  C   UNL     1      -8.378  -9.000 -12.617  1.00  0.00     0.224 C 
ATOM     18  C   UNL     1      -9.594  -8.080 -12.379  1.00  0.00     0.208 C 
ATOM     19  O   UNL     1      -7.287  -8.168 -12.977  1.00  0.00    -0.337 OA
ATOM     20  C   UNL     1      -9.224  -6.784 -13.088  1.00  0.00     0.180 C 
ATOM     21  C   UNL     1      -7.808  -7.030 -13.620  1.00  0.00     0.179 C 
BRANCH  17  22
ATOM     22  C   UNL     1      -8.662  -9.998 -13.770  1.00  0.00     0.225 C 
BRANCH  22  23
ATOM     23  O   UNL     1     -10.020  -9.975 -14.125  1.00  0.00    -0.391 OA
ATOM     24  H   UNL     1     -10.196 -10.787 -14.667  1.00  0.00     0.210 HD
ENDBRANCH  22  23
ENDBRANCH  17  22
BRANCH  18  25
ATOM     25  O   UNL     1      -9.769  -7.839 -11.004  1.00  0.00    -0.385 OA
ATOM     26  H   UNL     1     -10.314  -8.589 -10.650  1.00  0.00     0.211 HD
ENDBRANCH  18  25
BRANCH  20  27
ATOM     27  O   UNL     1     -10.125  -6.472 -14.125  1.00  0.00    -0.387 OA
ATOM     28  H   UNL     1     -10.004  -5.515 -14.362  1.00  0.00     0.211 HD
ENDBRANCH  20  27
BRANCH  21  29
ATOM     29  C   UNL     1      -6.870  -5.841 -13.375  1.00  0.00     0.191 C 
BRANCH  29  30
ATOM     30  O   UNL     1      -5.530  -6.254 -13.400  1.00  0.00    -0.394 OA
ATOM     31  H   UNL     1      -5.513  -7.203 -13.111  1.00  0.00     0.210 HD
ENDBRANCH  29  30
ENDBRANCH  21  29
ENDBRANCH   1  17
TORSDOF 13
ENDMDL
