MODEL 1
REMARK VINA RESULT:    -7.886      0.000      0.000
REMARK INTER + INTRA:          -9.866
REMARK INTER:                  -9.730
REMARK INTRA:                  -0.136
REMARK UNBOUND:                -0.136
REMARK SMILES Oc1cc(O)c2cc(O)c(-c3cc(O)c(O)c(O)c3)[o+]c2c1
REMARK SMILES IDX 10 1 20 2 21 3 22 4 2 5 3 6 4 7 6 8 7 9 8 10 11 11 12 12
REMARK SMILES IDX 13 13 19 14 15 15 17 16 14 17 16 19 18 21 9 23 1 25 5 27
REMARK H PARENT 14 18 16 20 18 22 9 24 1 26 5 28
REMARK Flexibility Score: inf
ROOT
ATOM      1  C   UNL     1      17.920 -20.109   1.436  1.00  0.00     0.402 A 
ATOM      2  O   UNL     1      19.103 -19.597   1.765  1.00  0.00    -0.202 OA
ATOM      3  C   UNL     1      20.145 -19.579   0.940  1.00  0.00     0.368 A 
ATOM      4  C   UNL     1      21.346 -19.016   1.375  1.00  0.00     0.162 A 
ATOM      5  C   UNL     1      22.456 -18.981   0.530  1.00  0.00     0.128 A 
ATOM      6  C   UNL     1      22.365 -19.511  -0.761  1.00  0.00     0.093 A 
ATOM      7  C   UNL     1      21.172 -20.081  -1.222  1.00  0.00     0.136 A 
ATOM      8  C   UNL     1      20.042 -20.122  -0.363  1.00  0.00     0.125 A 
ATOM      9  C   UNL     1      18.810 -20.684  -0.735  1.00  0.00     0.078 A 
ATOM     10  C   UNL     1      17.743 -20.692   0.168  1.00  0.00     0.223 A 
ENDROOT
BRANCH   1  11
ATOM     11  C   UNL     1      16.832 -20.062   2.440  1.00  0.00     0.091 A 
ATOM     12  C   UNL     1      16.974 -20.666   3.702  1.00  0.00     0.068 A 
ATOM     13  C   UNL     1      15.923 -20.631   4.629  1.00  0.00     0.162 A 
ATOM     14  C   UNL     1      15.613 -19.452   2.108  1.00  0.00     0.068 A 
ATOM     15  C   UNL     1      14.717 -20.001   4.298  1.00  0.00     0.200 A 
ATOM     16  C   UNL     1      14.559 -19.413   3.032  1.00  0.00     0.162 A 
BRANCH  13  17
ATOM     17  O   UNL     1      16.070 -21.226   5.881  1.00  0.00    -0.504 OA
ATOM     18  H   UNL     1      16.129 -20.673   6.727  1.00  0.00     0.293 HD
ENDBRANCH  13  17
BRANCH  15  19
ATOM     19  O   UNL     1      13.684 -19.972   5.237  1.00  0.00    -0.502 OA
ATOM     20  H   UNL     1      13.471 -19.142   5.777  1.00  0.00     0.293 HD
ENDBRANCH  15  19
BRANCH  16  21
ATOM     21  O   UNL     1      13.357 -18.792   2.697  1.00  0.00    -0.504 OA
ATOM     22  H   UNL     1      12.479 -19.299   2.697  1.00  0.00     0.293 HD
ENDBRANCH  16  21
ENDBRANCH   1  11
BRANCH  10  23
ATOM     23  O   UNL     1      16.535 -21.295  -0.182  1.00  0.00    -0.500 OA
ATOM     24  H   UNL     1      15.664 -20.778  -0.191  1.00  0.00     0.294 HD
ENDBRANCH  10  23
BRANCH   5  25
ATOM     25  O   UNL     1      23.646 -18.414   0.984  1.00  0.00    -0.507 OA
ATOM     26  H   UNL     1      23.666 -17.493   1.406  1.00  0.00     0.293 HD
ENDBRANCH   5  25
BRANCH   7  27
ATOM     27  O   UNL     1      21.161 -20.586  -2.525  1.00  0.00    -0.507 OA
ATOM     28  H   UNL     1      20.567 -20.241  -3.265  1.00  0.00     0.293 HD
ENDBRANCH   7  27
TORSDOF 7
ENDMDL
MODEL 2
REMARK VINA RESULT:    -7.447      1.091      7.004
REMARK INTER + INTRA:          -9.324
REMARK INTER:                  -9.207
REMARK INTRA:                  -0.117
REMARK UNBOUND:                -0.136
REMARK SMILES Oc1cc(O)c2cc(O)c(-c3cc(O)c(O)c(O)c3)[o+]c2c1
REMARK SMILES IDX 10 1 20 2 21 3 22 4 2 5 3 6 4 7 6 8 7 9 8 10 11 11 12 12
REMARK SMILES IDX 13 13 19 14 15 15 17 16 14 17 16 19 18 21 9 23 1 25 5 27
REMARK H PARENT 14 18 16 20 18 22 9 24 1 26 5 28
REMARK Flexibility Score: inf
ROOT
ATOM      1  C   UNL     1      18.199 -19.495   1.164  1.00  0.00     0.402 A 
ATOM      2  O   UNL     1      18.039 -20.009   2.380  1.00  0.00    -0.202 OA
ATOM      3  C   UNL     1      16.869 -20.045   3.010  1.00  0.00     0.368 A 
ATOM      4  C   UNL     1      16.801 -20.610   4.285  1.00  0.00     0.162 A 
ATOM      5  C   UNL     1      15.585 -20.663   4.969  1.00  0.00     0.128 A 
ATOM      6  C   UNL     1      14.428 -20.150   4.373  1.00  0.00     0.093 A 
ATOM      7  C   UNL     1      14.470 -19.579   3.095  1.00  0.00     0.136 A 
ATOM      8  C   UNL     1      15.705 -19.520   2.399  1.00  0.00     0.125 A 
ATOM      9  C   UNL     1      15.844 -18.955   1.120  1.00  0.00     0.078 A 
ATOM     10  C   UNL     1      17.096 -18.928   0.499  1.00  0.00     0.223 A 
ENDROOT
BRANCH   1  11
ATOM     11  C   UNL     1      19.553 -19.522   0.564  1.00  0.00     0.091 A 
ATOM     12  C   UNL     1      20.652 -18.929   1.210  1.00  0.00     0.068 A 
ATOM     13  C   UNL     1      21.920 -18.945   0.613  1.00  0.00     0.162 A 
ATOM     14  C   UNL     1      19.734 -20.100  -0.702  1.00  0.00     0.068 A 
ATOM     15  C   UNL     1      22.098 -19.543  -0.641  1.00  0.00     0.200 A 
ATOM     16  C   UNL     1      21.001 -20.119  -1.302  1.00  0.00     0.162 A 
BRANCH  13  17
ATOM     17  O   UNL     1      23.008 -18.361   1.260  1.00  0.00    -0.504 OA
ATOM     18  H   UNL     1      23.788 -17.974   0.741  1.00  0.00     0.293 HD
ENDBRANCH  13  17
BRANCH  15  19
ATOM     19  O   UNL     1      23.369 -19.553  -1.216  1.00  0.00    -0.502 OA
ATOM     20  H   UNL     1      23.511 -19.715  -2.206  1.00  0.00     0.293 HD
ENDBRANCH  15  19
BRANCH  16  21
ATOM     21  O   UNL     1      21.173 -20.708  -2.554  1.00  0.00    -0.504 OA
ATOM     22  H   UNL     1      21.089 -20.171  -3.410  1.00  0.00     0.293 HD
ENDBRANCH  16  21
ENDBRANCH   1  11
BRANCH  10  23
ATOM     23  O   UNL     1      17.245 -18.322  -0.749  1.00  0.00    -0.500 OA
ATOM     24  H   UNL     1      16.451 -17.959  -1.263  1.00  0.00     0.294 HD
ENDBRANCH  10  23
BRANCH   5  25
ATOM     25  O   UNL     1      15.538 -21.230   6.241  1.00  0.00    -0.507 OA
ATOM     26  H   UNL     1      15.964 -20.775   7.039  1.00  0.00     0.293 HD
ENDBRANCH   5  25
BRANCH   7  27
ATOM     27  O   UNL     1      13.270 -19.091   2.568  1.00  0.00    -0.507 OA
ATOM     28  H   UNL     1      12.792 -18.269   2.905  1.00  0.00     0.293 HD
ENDBRANCH   7  27
TORSDOF 7
ENDMDL
MODEL 3
REMARK VINA RESULT:    -7.165      1.165      7.189
REMARK INTER + INTRA:          -8.976
REMARK INTER:                  -8.677
REMARK INTRA:                  -0.299
REMARK UNBOUND:                -0.136
REMARK SMILES Oc1cc(O)c2cc(O)c(-c3cc(O)c(O)c(O)c3)[o+]c2c1
REMARK SMILES IDX 10 1 20 2 21 3 22 4 2 5 3 6 4 7 6 8 7 9 8 10 11 11 12 12
REMARK SMILES IDX 13 13 19 14 15 15 17 16 14 17 16 19 18 21 9 23 1 25 5 27
REMARK H PARENT 14 18 16 20 18 22 9 24 1 26 5 28
REMARK Flexibility Score: inf
ROOT
ATOM      1  C   UNL     1      18.520 -19.960   2.069  1.00  0.00     0.402 A 
ATOM      2  O   UNL     1      17.427 -19.251   1.803  1.00  0.00    -0.202 OA
ATOM      3  C   UNL     1      16.325 -19.302   2.544  1.00  0.00     0.368 A 
ATOM      4  C   UNL     1      15.228 -18.516   2.186  1.00  0.00     0.162 A 
ATOM      5  C   UNL     1      14.058 -18.548   2.946  1.00  0.00     0.128 A 
ATOM      6  C   UNL     1      13.984 -19.371   4.075  1.00  0.00     0.093 A 
ATOM      7  C   UNL     1      15.071 -20.169   4.456  1.00  0.00     0.136 A 
ATOM      8  C   UNL     1      16.260 -20.141   3.683  1.00  0.00     0.125 A 
ATOM      9  C   UNL     1      17.393 -20.916   3.981  1.00  0.00     0.078 A 
ATOM     10  C   UNL     1      18.528 -20.839   3.169  1.00  0.00     0.223 A 
ENDROOT
BRANCH   1  11
ATOM     11  C   UNL     1      19.690 -19.809   1.174  1.00  0.00     0.091 A 
ATOM     12  C   UNL     1      20.873 -19.190   1.613  1.00  0.00     0.068 A 
ATOM     13  C   UNL     1      21.960 -19.035   0.742  1.00  0.00     0.162 A 
ATOM     14  C   UNL     1      19.598 -20.239  -0.159  1.00  0.00     0.068 A 
ATOM     15  C   UNL     1      21.869 -19.487  -0.581  1.00  0.00     0.200 A 
ATOM     16  C   UNL     1      20.683 -20.088  -1.034  1.00  0.00     0.162 A 
BRANCH  13  17
ATOM     17  O   UNL     1      23.134 -18.427   1.183  1.00  0.00    -0.504 OA
ATOM     18  H   UNL     1      23.394 -18.423   2.162  1.00  0.00     0.293 HD
ENDBRANCH  13  17
BRANCH  15  19
ATOM     19  O   UNL     1      22.964 -19.328  -1.431  1.00  0.00    -0.502 OA
ATOM     20  H   UNL     1      23.015 -19.786  -2.333  1.00  0.00     0.293 HD
ENDBRANCH  15  19
BRANCH  16  21
ATOM     21  O   UNL     1      20.586 -20.532  -2.352  1.00  0.00    -0.504 OA
ATOM     22  H   UNL     1      19.751 -20.374  -2.906  1.00  0.00     0.293 HD
ENDBRANCH  16  21
ENDBRANCH   1  11
BRANCH  10  23
ATOM     23  O   UNL     1      19.635 -21.644   3.436  1.00  0.00    -0.500 OA
ATOM     24  H   UNL     1      20.575 -21.266   3.466  1.00  0.00     0.294 HD
ENDBRANCH  10  23
BRANCH   5  25
ATOM     25  O   UNL     1      12.974 -17.756   2.572  1.00  0.00    -0.507 OA
ATOM     26  H   UNL     1      13.100 -16.911   2.027  1.00  0.00     0.293 HD
ENDBRANCH   5  25
BRANCH   7  27
ATOM     27  O   UNL     1      14.919 -20.961   5.598  1.00  0.00    -0.507 OA
ATOM     28  H   UNL     1      15.619 -21.599   5.946  1.00  0.00     0.293 HD
ENDBRANCH   7  27
TORSDOF 7
ENDMDL
MODEL 4
REMARK VINA RESULT:    -7.151      2.064      3.965
REMARK INTER + INTRA:          -8.959
REMARK INTER:                  -8.650
REMARK INTRA:                  -0.309
REMARK UNBOUND:                -0.136
REMARK SMILES Oc1cc(O)c2cc(O)c(-c3cc(O)c(O)c(O)c3)[o+]c2c1
REMARK SMILES IDX 10 1 20 2 21 3 22 4 2 5 3 6 4 7 6 8 7 9 8 10 11 11 12 12
REMARK SMILES IDX 13 13 19 14 15 15 17 16 14 17 16 19 18 21 9 23 1 25 5 27
REMARK H PARENT 14 18 16 20 18 22 9 24 1 26 5 28
REMARK Flexibility Score: inf
ROOT
ATOM      1  C   UNL     1      17.585 -20.872   0.806  1.00  0.00     0.402 A 
ATOM      2  O   UNL     1      17.010 -21.759  -0.002  1.00  0.00    -0.202 OA
ATOM      3  C   UNL     1      17.372 -21.935  -1.269  1.00  0.00     0.368 A 
ATOM      4  C   UNL     1      16.710 -22.894  -2.038  1.00  0.00     0.162 A 
ATOM      5  C   UNL     1      17.070 -23.102  -3.370  1.00  0.00     0.128 A 
ATOM      6  C   UNL     1      18.102 -22.347  -3.938  1.00  0.00     0.093 A 
ATOM      7  C   UNL     1      18.782 -21.380  -3.188  1.00  0.00     0.136 A 
ATOM      8  C   UNL     1      18.415 -21.163  -1.835  1.00  0.00     0.125 A 
ATOM      9  C   UNL     1      19.032 -20.207  -1.011  1.00  0.00     0.078 A 
ATOM     10  C   UNL     1      18.613 -20.047   0.313  1.00  0.00     0.223 A 
ENDROOT
BRANCH   1  11
ATOM     11  C   UNL     1      17.098 -20.776   2.201  1.00  0.00     0.091 A 
ATOM     12  C   UNL     1      17.885 -21.212   3.282  1.00  0.00     0.068 A 
ATOM     13  C   UNL     1      17.396 -21.135   4.593  1.00  0.00     0.162 A 
ATOM     14  C   UNL     1      15.804 -20.294   2.449  1.00  0.00     0.068 A 
ATOM     15  C   UNL     1      16.111 -20.632   4.834  1.00  0.00     0.200 A 
ATOM     16  C   UNL     1      15.311 -20.214   3.759  1.00  0.00     0.162 A 
BRANCH  13  17
ATOM     17  O   UNL     1      18.181 -21.563   5.663  1.00  0.00    -0.504 OA
ATOM     18  H   UNL     1      17.790 -22.107   6.423  1.00  0.00     0.293 HD
ENDBRANCH  13  17
BRANCH  15  19
ATOM     19  O   UNL     1      15.645 -20.558   6.148  1.00  0.00    -0.502 OA
ATOM     20  H   UNL     1      16.040 -21.121   6.891  1.00  0.00     0.293 HD
ENDBRANCH  15  19
BRANCH  16  21
ATOM     21  O   UNL     1      14.029 -19.719   3.994  1.00  0.00    -0.504 OA
ATOM     22  H   UNL     1      13.873 -18.902   4.574  1.00  0.00     0.293 HD
ENDBRANCH  16  21
ENDBRANCH   1  11
BRANCH  10  23
ATOM     23  O   UNL     1      19.191 -19.064   1.116  1.00  0.00    -0.500 OA
ATOM     24  H   UNL     1      19.890 -18.425   0.756  1.00  0.00     0.294 HD
ENDBRANCH  10  23
BRANCH   5  25
ATOM     25  O   UNL     1      16.397 -24.064  -4.121  1.00  0.00    -0.507 OA
ATOM     26  H   UNL     1      15.536 -23.846  -4.609  1.00  0.00     0.293 HD
ENDBRANCH   5  25
BRANCH   7  27
ATOM     27  O   UNL     1      19.803 -20.670  -3.827  1.00  0.00    -0.507 OA
ATOM     28  H   UNL     1      20.765 -20.658  -3.523  1.00  0.00     0.293 HD
ENDBRANCH   7  27
TORSDOF 7
ENDMDL
MODEL 5
REMARK VINA RESULT:    -7.143      1.205      2.743
REMARK INTER + INTRA:          -8.949
REMARK INTER:                  -8.624
REMARK INTRA:                  -0.325
REMARK UNBOUND:                -0.136
REMARK SMILES Oc1cc(O)c2cc(O)c(-c3cc(O)c(O)c(O)c3)[o+]c2c1
REMARK SMILES IDX 10 1 20 2 21 3 22 4 2 5 3 6 4 7 6 8 7 9 8 10 11 11 12 12
REMARK SMILES IDX 13 13 19 14 15 15 17 16 14 17 16 19 18 21 9 23 1 25 5 27
REMARK H PARENT 14 18 16 20 18 22 9 24 1 26 5 28
REMARK Flexibility Score: inf
ROOT
ATOM      1  C   UNL     1      17.866 -19.805   1.463  1.00  0.00     0.402 A 
ATOM      2  O   UNL     1      17.769 -20.527   0.351  1.00  0.00    -0.202 OA
ATOM      3  C   UNL     1      18.711 -20.555  -0.587  1.00  0.00     0.368 A 
ATOM      4  C   UNL     1      18.518 -21.348  -1.720  1.00  0.00     0.162 A 
ATOM      5  C   UNL     1      19.491 -21.397  -2.720  1.00  0.00     0.128 A 
ATOM      6  C   UNL     1      20.666 -20.650  -2.585  1.00  0.00     0.093 A 
ATOM      7  C   UNL     1      20.883 -19.848  -1.458  1.00  0.00     0.136 A 
ATOM      8  C   UNL     1      19.894 -19.792  -0.442  1.00  0.00     0.125 A 
ATOM      9  C   UNL     1      20.020 -19.006   0.715  1.00  0.00     0.078 A 
ATOM     10  C   UNL     1      19.001 -18.999   1.671  1.00  0.00     0.223 A 
ENDROOT
BRANCH   1  11
ATOM     11  C   UNL     1      16.753 -19.866   2.438  1.00  0.00     0.091 A 
ATOM     12  C   UNL     1      16.889 -20.540   3.664  1.00  0.00     0.068 A 
ATOM     13  C   UNL     1      15.816 -20.606   4.562  1.00  0.00     0.162 A 
ATOM     14  C   UNL     1      15.517 -19.288   2.110  1.00  0.00     0.068 A 
ATOM     15  C   UNL     1      14.592 -20.008   4.237  1.00  0.00     0.200 A 
ATOM     16  C   UNL     1      14.440 -19.350   3.006  1.00  0.00     0.162 A 
BRANCH  13  17
ATOM     17  O   UNL     1      15.957 -21.271   5.779  1.00  0.00    -0.504 OA
ATOM     18  H   UNL     1      16.643 -22.005   5.906  1.00  0.00     0.293 HD
ENDBRANCH  13  17
BRANCH  15  19
ATOM     19  O   UNL     1      13.536 -20.080   5.147  1.00  0.00    -0.502 OA
ATOM     20  H   UNL     1      12.690 -19.534   5.034  1.00  0.00     0.293 HD
ENDBRANCH  15  19
BRANCH  16  21
ATOM     21  O   UNL     1      13.221 -18.759   2.676  1.00  0.00    -0.504 OA
ATOM     22  H   UNL     1      13.168 -17.807   2.333  1.00  0.00     0.293 HD
ENDBRANCH  16  21
ENDBRANCH   1  11
BRANCH  10  23
ATOM     23  O   UNL     1      19.103 -18.180   2.796  1.00  0.00    -0.500 OA
ATOM     24  H   UNL     1      19.645 -18.454   3.607  1.00  0.00     0.294 HD
ENDBRANCH  10  23
BRANCH   5  25
ATOM     25  O   UNL     1      19.280 -22.195  -3.843  1.00  0.00    -0.507 OA
ATOM     26  H   UNL     1      18.507 -22.848  -3.891  1.00  0.00     0.293 HD
ENDBRANCH   5  25
BRANCH   7  27
ATOM     27  O   UNL     1      22.085 -19.135  -1.397  1.00  0.00    -0.507 OA
ATOM     28  H   UNL     1      22.534 -18.706  -2.193  1.00  0.00     0.293 HD
ENDBRANCH   7  27
TORSDOF 7
ENDMDL
MODEL 6
REMARK VINA RESULT:    -7.070      3.241      3.769
REMARK INTER + INTRA:          -8.859
REMARK INTER:                  -8.812
REMARK INTRA:                  -0.047
REMARK UNBOUND:                -0.136
REMARK SMILES Oc1cc(O)c2cc(O)c(-c3cc(O)c(O)c(O)c3)[o+]c2c1
REMARK SMILES IDX 10 1 20 2 21 3 22 4 2 5 3 6 4 7 6 8 7 9 8 10 11 11 12 12
REMARK SMILES IDX 13 13 19 14 15 15 17 16 14 17 16 19 18 21 9 23 1 25 5 27
REMARK H PARENT 14 18 16 20 18 22 9 24 1 26 5 28
REMARK Flexibility Score: inf
ROOT
ATOM      1  C   UNL     1      16.847 -21.209   1.125  1.00  0.00     0.402 A 
ATOM      2  O   UNL     1      16.531 -20.235   0.276  1.00  0.00    -0.202 OA
ATOM      3  C   UNL     1      16.765 -20.301  -1.031  1.00  0.00     0.368 A 
ATOM      4  C   UNL     1      16.394 -19.227  -1.843  1.00  0.00     0.162 A 
ATOM      5  C   UNL     1      16.625 -19.270  -3.218  1.00  0.00     0.128 A 
ATOM      6  C   UNL     1      17.229 -20.396  -3.788  1.00  0.00     0.093 A 
ATOM      7  C   UNL     1      17.609 -21.487  -2.996  1.00  0.00     0.136 A 
ATOM      8  C   UNL     1      17.380 -21.444  -1.596  1.00  0.00     0.125 A 
ATOM      9  C   UNL     1      17.739 -22.484  -0.723  1.00  0.00     0.078 A 
ATOM     10  C   UNL     1      17.485 -22.369   0.647  1.00  0.00     0.223 A 
ENDROOT
BRANCH   1  11
ATOM     11  C   UNL     1      16.527 -21.021   2.559  1.00  0.00     0.091 A 
ATOM     12  C   UNL     1      17.494 -21.228   3.558  1.00  0.00     0.068 A 
ATOM     13  C   UNL     1      17.165 -21.068   4.911  1.00  0.00     0.162 A 
ATOM     14  C   UNL     1      15.218 -20.683   2.935  1.00  0.00     0.068 A 
ATOM     15  C   UNL     1      15.861 -20.709   5.277  1.00  0.00     0.200 A 
ATOM     16  C   UNL     1      14.883 -20.520   4.287  1.00  0.00     0.162 A 
BRANCH  13  17
ATOM     17  O   UNL     1      18.128 -21.269   5.898  1.00  0.00    -0.504 OA
ATOM     18  H   UNL     1      18.365 -22.198   6.226  1.00  0.00     0.293 HD
ENDBRANCH  13  17
BRANCH  15  19
ATOM     19  O   UNL     1      15.554 -20.550   6.629  1.00  0.00    -0.502 OA
ATOM     20  H   UNL     1      15.366 -21.340   7.235  1.00  0.00     0.293 HD
ENDBRANCH  15  19
BRANCH  16  21
ATOM     21  O   UNL     1      13.583 -20.171   4.649  1.00  0.00    -0.504 OA
ATOM     22  H   UNL     1      12.776 -20.581   4.190  1.00  0.00     0.293 HD
ENDBRANCH  16  21
ENDBRANCH   1  11
BRANCH  10  23
ATOM     23  O   UNL     1      17.887 -23.379   1.521  1.00  0.00    -0.500 OA
ATOM     24  H   UNL     1      18.798 -23.370   1.963  1.00  0.00     0.294 HD
ENDBRANCH  10  23
BRANCH   5  25
ATOM     25  O   UNL     1      16.248 -18.188  -4.011  1.00  0.00    -0.507 OA
ATOM     26  H   UNL     1      16.894 -17.436  -4.221  1.00  0.00     0.293 HD
ENDBRANCH   5  25
BRANCH   7  27
ATOM     27  O   UNL     1      18.204 -22.575  -3.641  1.00  0.00    -0.507 OA
ATOM     28  H   UNL     1      18.743 -23.289  -3.175  1.00  0.00     0.293 HD
ENDBRANCH   7  27
TORSDOF 7
ENDMDL
MODEL 7
REMARK VINA RESULT:    -6.934      4.064      5.217
REMARK INTER + INTRA:          -8.691
REMARK INTER:                  -8.377
REMARK INTRA:                  -0.314
REMARK UNBOUND:                -0.136
REMARK SMILES Oc1cc(O)c2cc(O)c(-c3cc(O)c(O)c(O)c3)[o+]c2c1
REMARK SMILES IDX 10 1 20 2 21 3 22 4 2 5 3 6 4 7 6 8 7 9 8 10 11 11 12 12
REMARK SMILES IDX 13 13 19 14 15 15 17 16 14 17 16 19 18 21 9 23 1 25 5 27
REMARK H PARENT 14 18 16 20 18 22 9 24 1 26 5 28
REMARK Flexibility Score: inf
ROOT
ATOM      1  C   UNL     1      19.932 -20.143  -1.303  1.00  0.00     0.402 A 
ATOM      2  O   UNL     1      20.995 -20.595  -1.962  1.00  0.00    -0.202 OA
ATOM      3  C   UNL     1      22.246 -20.363  -1.579  1.00  0.00     0.368 A 
ATOM      4  C   UNL     1      23.297 -20.884  -2.336  1.00  0.00     0.162 A 
ATOM      5  C   UNL     1      24.621 -20.659  -1.956  1.00  0.00     0.128 A 
ATOM      6  C   UNL     1      24.897 -19.908  -0.808  1.00  0.00     0.093 A 
ATOM      7  C   UNL     1      23.861 -19.375  -0.031  1.00  0.00     0.136 A 
ATOM      8  C   UNL     1      22.514 -19.599  -0.418  1.00  0.00     0.125 A 
ATOM      9  C   UNL     1      21.413 -19.093   0.293  1.00  0.00     0.078 A 
ATOM     10  C   UNL     1      20.113 -19.353  -0.152  1.00  0.00     0.223 A 
ENDROOT
BRANCH   1  11
ATOM     11  C   UNL     1      18.587 -20.477  -1.826  1.00  0.00     0.091 A 
ATOM     12  C   UNL     1      18.053 -21.771  -1.699  1.00  0.00     0.068 A 
ATOM     13  C   UNL     1      16.789 -22.073  -2.222  1.00  0.00     0.162 A 
ATOM     14  C   UNL     1      17.852 -19.498  -2.513  1.00  0.00     0.068 A 
ATOM     15  C   UNL     1      16.051 -21.085  -2.888  1.00  0.00     0.200 A 
ATOM     16  C   UNL     1      16.586 -19.795  -3.037  1.00  0.00     0.162 A 
BRANCH  13  17
ATOM     17  O   UNL     1      16.260 -23.355  -2.090  1.00  0.00    -0.504 OA
ATOM     18  H   UNL     1      16.140 -23.965  -2.890  1.00  0.00     0.293 HD
ENDBRANCH  13  17
BRANCH  15  19
ATOM     19  O   UNL     1      14.792 -21.403  -3.398  1.00  0.00    -0.502 OA
ATOM     20  H   UNL     1      14.519 -21.167  -4.345  1.00  0.00     0.293 HD
ENDBRANCH  15  19
BRANCH  16  21
ATOM     21  O   UNL     1      15.858 -18.811  -3.706  1.00  0.00    -0.504 OA
ATOM     22  H   UNL     1      15.207 -18.207  -3.217  1.00  0.00     0.293 HD
ENDBRANCH  16  21
ENDBRANCH   1  11
BRANCH  10  23
ATOM     23  O   UNL     1      19.020 -18.809   0.524  1.00  0.00    -0.500 OA
ATOM     24  H   UNL     1      18.582 -17.947   0.222  1.00  0.00     0.294 HD
ENDBRANCH  10  23
BRANCH   5  25
ATOM     25  O   UNL     1      25.655 -21.187  -2.726  1.00  0.00    -0.507 OA
ATOM     26  H   UNL     1      26.278 -20.589  -3.256  1.00  0.00     0.293 HD
ENDBRANCH   5  25
BRANCH   7  27
ATOM     27  O   UNL     1      24.219 -18.639   1.102  1.00  0.00    -0.507 OA
ATOM     28  H   UNL     1      24.783 -17.802   1.084  1.00  0.00     0.293 HD
ENDBRANCH   7  27
TORSDOF 7
ENDMDL
MODEL 8
REMARK VINA RESULT:    -6.476      2.163      4.242
REMARK INTER + INTRA:          -8.126
REMARK INTER:                  -7.848
REMARK INTRA:                  -0.278
REMARK UNBOUND:                -0.136
REMARK SMILES Oc1cc(O)c2cc(O)c(-c3cc(O)c(O)c(O)c3)[o+]c2c1
REMARK SMILES IDX 10 1 20 2 21 3 22 4 2 5 3 6 4 7 6 8 7 9 8 10 11 11 12 12
REMARK SMILES IDX 13 13 19 14 15 15 17 16 14 17 16 19 18 21 9 23 1 25 5 27
REMARK H PARENT 14 18 16 20 18 22 9 24 1 26 5 28
REMARK Flexibility Score: inf
ROOT
ATOM      1  C   UNL     1      21.035 -19.740   0.148  1.00  0.00     0.402 A 
ATOM      2  O   UNL     1      21.416 -20.446  -0.912  1.00  0.00    -0.202 OA
ATOM      3  C   UNL     1      22.661 -20.450  -1.378  1.00  0.00     0.368 A 
ATOM      4  C   UNL     1      22.966 -21.227  -2.497  1.00  0.00     0.162 A 
ATOM      5  C   UNL     1      24.265 -21.252  -3.007  1.00  0.00     0.128 A 
ATOM      6  C   UNL     1      25.269 -20.496  -2.391  1.00  0.00     0.093 A 
ATOM      7  C   UNL     1      24.989 -19.709  -1.267  1.00  0.00     0.136 A 
ATOM      8  C   UNL     1      23.668 -19.678  -0.749  1.00  0.00     0.125 A 
ATOM      9  C   UNL     1      23.293 -18.909   0.364  1.00  0.00     0.078 A 
ATOM     10  C   UNL     1      21.970 -18.926   0.814  1.00  0.00     0.223 A 
ENDROOT
BRANCH   1  11
ATOM     11  C   UNL     1      19.620 -19.826   0.576  1.00  0.00     0.091 A 
ATOM     12  C   UNL     1      19.260 -20.413   1.802  1.00  0.00     0.068 A 
ATOM     13  C   UNL     1      17.913 -20.506   2.177  1.00  0.00     0.162 A 
ATOM     14  C   UNL     1      18.610 -19.366  -0.284  1.00  0.00     0.068 A 
ATOM     15  C   UNL     1      16.912 -20.024   1.324  1.00  0.00     0.200 A 
ATOM     16  C   UNL     1      17.261 -19.456   0.088  1.00  0.00     0.162 A 
BRANCH  13  17
ATOM     17  O   UNL     1      17.560 -21.083   3.396  1.00  0.00    -0.504 OA
ATOM     18  H   UNL     1      16.880 -20.651   4.010  1.00  0.00     0.293 HD
ENDBRANCH  13  17
BRANCH  15  19
ATOM     19  O   UNL     1      15.576 -20.121   1.717  1.00  0.00    -0.502 OA
ATOM     20  H   UNL     1      14.813 -19.905   1.088  1.00  0.00     0.293 HD
ENDBRANCH  15  19
BRANCH  16  21
ATOM     21  O   UNL     1      16.267 -18.982  -0.768  1.00  0.00    -0.504 OA
ATOM     22  H   UNL     1      15.311 -19.315  -0.707  1.00  0.00     0.293 HD
ENDBRANCH  16  21
ENDBRANCH   1  11
BRANCH  10  23
ATOM     23  O   UNL     1      21.586 -18.124   1.889  1.00  0.00    -0.500 OA
ATOM     24  H   UNL     1      22.241 -17.853   2.613  1.00  0.00     0.294 HD
ENDBRANCH  10  23
BRANCH   5  25
ATOM     25  O   UNL     1      24.549 -22.034  -4.124  1.00  0.00    -0.507 OA
ATOM     26  H   UNL     1      24.903 -22.979  -4.033  1.00  0.00     0.293 HD
ENDBRANCH   5  25
BRANCH   7  27
ATOM     27  O   UNL     1      26.047 -18.985  -0.708  1.00  0.00    -0.507 OA
ATOM     28  H   UNL     1      26.714 -18.447  -1.242  1.00  0.00     0.293 HD
ENDBRANCH   7  27
TORSDOF 7
ENDMDL
MODEL 9
REMARK VINA RESULT:    -6.442      2.366      7.893
REMARK INTER + INTRA:          -8.083
REMARK INTER:                  -7.798
REMARK INTRA:                  -0.285
REMARK UNBOUND:                -0.136
REMARK SMILES Oc1cc(O)c2cc(O)c(-c3cc(O)c(O)c(O)c3)[o+]c2c1
REMARK SMILES IDX 10 1 20 2 21 3 22 4 2 5 3 6 4 7 6 8 7 9 8 10 11 11 12 12
REMARK SMILES IDX 13 13 19 14 15 15 17 16 14 17 16 19 18 21 9 23 1 25 5 27
REMARK H PARENT 14 18 16 20 18 22 9 24 1 26 5 28
REMARK Flexibility Score: inf
ROOT
ATOM      1  C   UNL     1      21.032 -20.010   0.010  1.00  0.00     0.402 A 
ATOM      2  O   UNL     1      20.013 -19.647  -0.765  1.00  0.00    -0.202 OA
ATOM      3  C   UNL     1      18.753 -19.613  -0.344  1.00  0.00     0.368 A 
ATOM      4  C   UNL     1      17.751 -19.215  -1.232  1.00  0.00     0.162 A 
ATOM      5  C   UNL     1      16.419 -19.167  -0.818  1.00  0.00     0.128 A 
ATOM      6  C   UNL     1      16.085 -19.518   0.495  1.00  0.00     0.093 A 
ATOM      7  C   UNL     1      17.071 -19.920   1.405  1.00  0.00     0.136 A 
ATOM      8  C   UNL     1      18.426 -19.973   0.985  1.00  0.00     0.125 A 
ATOM      9  C   UNL     1      19.478 -20.376   1.824  1.00  0.00     0.078 A 
ATOM     10  C   UNL     1      20.789 -20.408   1.337  1.00  0.00     0.223 A 
ENDROOT
BRANCH   1  11
ATOM     11  C   UNL     1      22.393 -19.998  -0.572  1.00  0.00     0.091 A 
ATOM     12  C   UNL     1      23.370 -19.088  -0.132  1.00  0.00     0.068 A 
ATOM     13  C   UNL     1      24.646 -19.078  -0.712  1.00  0.00     0.162 A 
ATOM     14  C   UNL     1      22.701 -20.874  -1.625  1.00  0.00     0.068 A 
ATOM     15  C   UNL     1      24.952 -19.970  -1.748  1.00  0.00     0.200 A 
ATOM     16  C   UNL     1      23.976 -20.869  -2.208  1.00  0.00     0.162 A 
BRANCH  13  17
ATOM     17  O   UNL     1      25.613 -18.178  -0.269  1.00  0.00    -0.504 OA
ATOM     18  H   UNL     1      25.459 -17.177  -0.296  1.00  0.00     0.293 HD
ENDBRANCH  13  17
BRANCH  15  19
ATOM     19  O   UNL     1      26.229 -19.948  -2.310  1.00  0.00    -0.502 OA
ATOM     20  H   UNL     1      26.906 -20.683  -2.139  1.00  0.00     0.293 HD
ENDBRANCH  15  19
BRANCH  16  21
ATOM     21  O   UNL     1      24.275 -21.753  -3.244  1.00  0.00    -0.504 OA
ATOM     22  H   UNL     1      25.073 -22.376  -3.196  1.00  0.00     0.293 HD
ENDBRANCH  16  21
ENDBRANCH   1  11
BRANCH  10  23
ATOM     23  O   UNL     1      21.827 -20.855   2.154  1.00  0.00    -0.500 OA
ATOM     24  H   UNL     1      22.175 -21.805   2.101  1.00  0.00     0.294 HD
ENDBRANCH  10  23
BRANCH   5  25
ATOM     25  O   UNL     1      15.434 -18.767  -1.719  1.00  0.00    -0.507 OA
ATOM     26  H   UNL     1      15.065 -17.823  -1.715  1.00  0.00     0.293 HD
ENDBRANCH   5  25
BRANCH   7  27
ATOM     27  O   UNL     1      16.657 -20.251   2.699  1.00  0.00    -0.507 OA
ATOM     28  H   UNL     1      17.096 -19.912   3.542  1.00  0.00     0.293 HD
ENDBRANCH   7  27
TORSDOF 7
ENDMDL
