MODEL 1
REMARK VINA RESULT:    -3.151      0.000      0.000
REMARK INTER + INTRA:          -4.555
REMARK INTER:                  -4.256
REMARK INTRA:                  -0.299
REMARK UNBOUND:                -0.299
REMARK SMILES CCCCCCCC(=O)[O-]
REMARK SMILES IDX 5 1 6 2 7 3 8 4 9 5 10 6 4 7 3 8 2 9 1 10
REMARK H PARENT
REMARK Flexibility Score: inf
ROOT
ATOM      1  C   UNL     1      -2.477  -1.557  10.272  1.00  0.00     0.000 C 
ENDROOT
BRANCH   1   2
ATOM      2  C   UNL     1      -3.772  -1.325  11.075  1.00  0.00     0.006 C 
BRANCH   2   3
ATOM      3  C   UNL     1      -4.298  -2.570  11.807  1.00  0.00     0.053 C 
BRANCH   3   4
ATOM      4  C   UNL     1      -5.565  -3.085  11.196  1.00  0.00     0.041 C 
ATOM      5  O   UNL     1      -5.520  -3.876  10.217  1.00  0.00    -0.550 OA
ATOM      6  O   UNL     1      -6.795  -2.666  11.686  1.00  0.00    -0.550 OA
ENDBRANCH   3   4
ENDBRANCH   2   3
ENDBRANCH   1   2
BRANCH   1   7
ATOM      7  C   UNL     1      -2.593  -1.308   8.755  1.00  0.00     0.000 C 
BRANCH   7   8
ATOM      8  C   UNL     1      -3.078  -2.515   7.932  1.00  0.00    -0.000 C 
BRANCH   8   9
ATOM      9  C   UNL     1      -1.929  -3.268   7.245  1.00  0.00    -0.003 C 
ATOM     10  C   UNL     1      -1.266  -2.401   6.177  1.00  0.00     0.004 C 
ENDBRANCH   8   9
ENDBRANCH   7   8
ENDBRANCH   1   7
TORSDOF 6
ENDMDL
MODEL 2
REMARK VINA RESULT:    -3.112      5.049      6.421
REMARK INTER + INTRA:          -4.502
REMARK INTER:                  -4.346
REMARK INTRA:                  -0.157
REMARK UNBOUND:                -0.299
REMARK SMILES CCCCCCCC(=O)[O-]
REMARK SMILES IDX 5 1 6 2 7 3 8 4 9 5 10 6 4 7 3 8 2 9 1 10
REMARK H PARENT
REMARK Flexibility Score: inf
ROOT
ATOM      1  C   UNL     1      -2.444  -3.576   7.083  1.00  0.00     0.000 C 
ENDROOT
BRANCH   1   2
ATOM      2  C   UNL     1      -2.177  -2.290   6.276  1.00  0.00     0.006 C 
BRANCH   2   3
ATOM      3  C   UNL     1      -0.714  -2.107   5.840  1.00  0.00     0.053 C 
BRANCH   3   4
ATOM      4  C   UNL     1      -0.608  -1.653   4.415  1.00  0.00     0.041 C 
ATOM      5  O   UNL     1       0.375  -2.004   3.712  1.00  0.00    -0.550 OA
ATOM      6  O   UNL     1      -1.577  -0.816   3.877  1.00  0.00    -0.550 OA
ENDBRANCH   3   4
ENDBRANCH   2   3
ENDBRANCH   1   2
BRANCH   1   7
ATOM      7  C   UNL     1      -3.213  -4.678   6.326  1.00  0.00     0.000 C 
BRANCH   7   8
ATOM      8  C   UNL     1      -4.143  -5.539   7.198  1.00  0.00    -0.000 C 
BRANCH   8   9
ATOM      9  C   UNL     1      -4.574  -6.840   6.504  1.00  0.00    -0.003 C 
ATOM     10  C   UNL     1      -3.582  -7.234   5.414  1.00  0.00     0.004 C 
ENDBRANCH   8   9
ENDBRANCH   7   8
ENDBRANCH   1   7
TORSDOF 6
ENDMDL
MODEL 3
REMARK VINA RESULT:    -3.103      4.702      5.971
REMARK INTER + INTRA:          -4.491
REMARK INTER:                  -4.240
REMARK INTRA:                  -0.251
REMARK UNBOUND:                -0.299
REMARK SMILES CCCCCCCC(=O)[O-]
REMARK SMILES IDX 5 1 6 2 7 3 8 4 9 5 10 6 4 7 3 8 2 9 1 10
REMARK H PARENT
REMARK Flexibility Score: inf
ROOT
ATOM      1  C   UNL     1      -3.098  -4.247   6.248  1.00  0.00     0.000 C 
ENDROOT
BRANCH   1   2
ATOM      2  C   UNL     1      -2.067  -3.513   7.128  1.00  0.00     0.006 C 
BRANCH   2   3
ATOM      3  C   UNL     1      -1.994  -1.996   6.889  1.00  0.00     0.053 C 
BRANCH   3   4
ATOM      4  C   UNL     1      -1.289  -1.664   5.609  1.00  0.00     0.041 C 
ATOM      5  O   UNL     1      -0.088  -2.003   5.442  1.00  0.00    -0.550 OA
ATOM      6  O   UNL     1      -1.949  -0.952   4.616  1.00  0.00    -0.550 OA
ENDBRANCH   3   4
ENDBRANCH   2   3
ENDBRANCH   1   2
BRANCH   1   7
ATOM      7  C   UNL     1      -4.149  -5.071   7.019  1.00  0.00     0.000 C 
BRANCH   7   8
ATOM      8  C   UNL     1      -4.117  -6.585   6.748  1.00  0.00    -0.000 C 
BRANCH   8   9
ATOM      9  C   UNL     1      -4.302  -6.929   5.263  1.00  0.00    -0.003 C 
ATOM     10  C   UNL     1      -3.132  -7.758   4.741  1.00  0.00     0.004 C 
ENDBRANCH   8   9
ENDBRANCH   7   8
ENDBRANCH   1   7
TORSDOF 6
ENDMDL
MODEL 4
REMARK VINA RESULT:    -3.081      4.421      5.200
REMARK INTER + INTRA:          -4.461
REMARK INTER:                  -4.251
REMARK INTRA:                  -0.210
REMARK UNBOUND:                -0.299
REMARK SMILES CCCCCCCC(=O)[O-]
REMARK SMILES IDX 5 1 6 2 7 3 8 4 9 5 10 6 4 7 3 8 2 9 1 10
REMARK H PARENT
REMARK Flexibility Score: inf
ROOT
ATOM      1  C   UNL     1      -3.087  -4.390   6.299  1.00  0.00     0.000 C 
ENDROOT
BRANCH   1   2
ATOM      2  C   UNL     1      -4.215  -5.011   7.148  1.00  0.00     0.006 C 
BRANCH   2   3
ATOM      3  C   UNL     1      -4.353  -6.535   7.003  1.00  0.00     0.053 C 
BRANCH   3   4
ATOM      4  C   UNL     1      -4.522  -6.949   5.573  1.00  0.00     0.041 C 
ATOM      5  O   UNL     1      -3.654  -7.672   5.018  1.00  0.00    -0.550 OA
ATOM      6  O   UNL     1      -5.620  -6.508   4.846  1.00  0.00    -0.550 OA
ENDBRANCH   3   4
ENDBRANCH   2   3
ENDBRANCH   1   2
BRANCH   1   7
ATOM      7  C   UNL     1      -2.178  -3.394   7.046  1.00  0.00     0.000 C 
BRANCH   7   8
ATOM      8  C   UNL     1      -1.884  -2.087   6.289  1.00  0.00    -0.000 C 
BRANCH   8   9
ATOM      9  C   UNL     1      -0.456  -2.033   5.725  1.00  0.00    -0.003 C 
ATOM     10  C   UNL     1      -0.464  -1.677   4.241  1.00  0.00     0.004 C 
ENDBRANCH   8   9
ENDBRANCH   7   8
ENDBRANCH   1   7
TORSDOF 6
ENDMDL
MODEL 5
REMARK VINA RESULT:    -3.050      1.576      2.343
REMARK INTER + INTRA:          -4.418
REMARK INTER:                  -4.037
REMARK INTRA:                  -0.381
REMARK UNBOUND:                -0.299
REMARK SMILES CCCCCCCC(=O)[O-]
REMARK SMILES IDX 5 1 6 2 7 3 8 4 9 5 10 6 4 7 3 8 2 9 1 10
REMARK H PARENT
REMARK Flexibility Score: inf
ROOT
ATOM      1  C   UNL     1      -1.790   0.127   8.850  1.00  0.00     0.000 C 
ENDROOT
BRANCH   1   2
ATOM      2  C   UNL     1      -2.030  -0.227  10.332  1.00  0.00     0.006 C 
BRANCH   2   3
ATOM      3  C   UNL     1      -2.574  -1.645  10.566  1.00  0.00     0.053 C 
BRANCH   3   4
ATOM      4  C   UNL     1      -3.746  -1.648  11.500  1.00  0.00     0.041 C 
ATOM      5  O   UNL     1      -4.080  -0.592  12.099  1.00  0.00    -0.550 OA
ATOM      6  O   UNL     1      -4.447  -2.824  11.734  1.00  0.00    -0.550 OA
ENDBRANCH   3   4
ENDBRANCH   2   3
ENDBRANCH   1   2
BRANCH   1   7
ATOM      7  C   UNL     1      -2.452  -0.825   7.833  1.00  0.00     0.000 C 
BRANCH   7   8
ATOM      8  C   UNL     1      -1.684  -1.003   6.512  1.00  0.00    -0.000 C 
BRANCH   8   9
ATOM      9  C   UNL     1      -1.278  -2.461   6.251  1.00  0.00    -0.003 C 
ATOM     10  C   UNL     1      -1.995  -3.410   7.208  1.00  0.00     0.004 C 
ENDBRANCH   8   9
ENDBRANCH   7   8
ENDBRANCH   1   7
TORSDOF 6
ENDMDL
MODEL 6
REMARK VINA RESULT:    -3.001      3.193      4.574
REMARK INTER + INTRA:          -4.352
REMARK INTER:                  -4.049
REMARK INTRA:                  -0.304
REMARK UNBOUND:                -0.299
REMARK SMILES CCCCCCCC(=O)[O-]
REMARK SMILES IDX 5 1 6 2 7 3 8 4 9 5 10 6 4 7 3 8 2 9 1 10
REMARK H PARENT
REMARK Flexibility Score: inf
ROOT
ATOM      1  C   UNL     1      -3.159  -4.264   6.310  1.00  0.00     0.000 C 
ENDROOT
BRANCH   1   2
ATOM      2  C   UNL     1      -2.064  -3.573   7.147  1.00  0.00     0.006 C 
BRANCH   2   3
ATOM      3  C   UNL     1      -2.312  -2.079   7.409  1.00  0.00     0.053 C 
BRANCH   3   4
ATOM      4  C   UNL     1      -3.009  -1.848   8.715  1.00  0.00     0.041 C 
ATOM      5  O   UNL     1      -2.339  -1.695   9.771  1.00  0.00    -0.550 OA
ATOM      6  O   UNL     1      -4.397  -1.837   8.772  1.00  0.00    -0.550 OA
ENDBRANCH   3   4
ENDBRANCH   2   3
ENDBRANCH   1   2
BRANCH   1   7
ATOM      7  C   UNL     1      -4.173  -5.099   7.119  1.00  0.00     0.000 C 
BRANCH   7   8
ATOM      8  C   UNL     1      -4.223  -6.593   6.756  1.00  0.00    -0.000 C 
BRANCH   8   9
ATOM      9  C   UNL     1      -4.302  -6.835   5.241  1.00  0.00    -0.003 C 
ATOM     10  C   UNL     1      -3.124  -7.677   4.758  1.00  0.00     0.004 C 
ENDBRANCH   8   9
ENDBRANCH   7   8
ENDBRANCH   1   7
TORSDOF 6
ENDMDL
MODEL 7
REMARK VINA RESULT:    -2.993      1.910      3.177
REMARK INTER + INTRA:          -4.342
REMARK INTER:                  -3.886
REMARK INTRA:                  -0.456
REMARK UNBOUND:                -0.299
REMARK SMILES CCCCCCCC(=O)[O-]
REMARK SMILES IDX 5 1 6 2 7 3 8 4 9 5 10 6 4 7 3 8 2 9 1 10
REMARK H PARENT
REMARK Flexibility Score: inf
ROOT
ATOM      1  C   UNL     1      -3.144  -4.243   6.502  1.00  0.00     0.000 C 
ENDROOT
BRANCH   1   2
ATOM      2  C   UNL     1      -4.277  -4.661   7.460  1.00  0.00     0.006 C 
BRANCH   2   3
ATOM      3  C   UNL     1      -5.190  -3.508   7.905  1.00  0.00     0.053 C 
BRANCH   3   4
ATOM      4  C   UNL     1      -5.301  -3.425   9.397  1.00  0.00     0.041 C 
ATOM      5  O   UNL     1      -4.642  -2.561  10.033  1.00  0.00    -0.550 OA
ATOM      6  O   UNL     1      -6.105  -4.323  10.086  1.00  0.00    -0.550 OA
ENDBRANCH   3   4
ENDBRANCH   2   3
ENDBRANCH   1   2
BRANCH   1   7
ATOM      7  C   UNL     1      -1.971  -3.489   7.162  1.00  0.00     0.000 C 
BRANCH   7   8
ATOM      8  C   UNL     1      -1.316  -2.407   6.286  1.00  0.00    -0.000 C 
BRANCH   8   9
ATOM      9  C   UNL     1      -1.915  -1.012   6.515  1.00  0.00    -0.003 C 
ATOM     10  C   UNL     1      -2.307  -0.817   7.977  1.00  0.00     0.004 C 
ENDBRANCH   8   9
ENDBRANCH   7   8
ENDBRANCH   1   7
TORSDOF 6
ENDMDL
MODEL 8
REMARK VINA RESULT:    -2.966      2.017      4.464
REMARK INTER + INTRA:          -4.306
REMARK INTER:                  -3.941
REMARK INTRA:                  -0.364
REMARK UNBOUND:                -0.299
REMARK SMILES CCCCCCCC(=O)[O-]
REMARK SMILES IDX 5 1 6 2 7 3 8 4 9 5 10 6 4 7 3 8 2 9 1 10
REMARK H PARENT
REMARK Flexibility Score: inf
ROOT
ATOM      1  C   UNL     1      -3.170  -0.627  11.014  1.00  0.00     0.000 C 
ENDROOT
BRANCH   1   2
ATOM      2  C   UNL     1      -2.394  -1.605  10.109  1.00  0.00     0.006 C 
BRANCH   2   3
ATOM      3  C   UNL     1      -2.492  -1.293   8.607  1.00  0.00     0.053 C 
BRANCH   3   4
ATOM      4  C   UNL     1      -2.762  -2.523   7.796  1.00  0.00     0.041 C 
ATOM      5  O   UNL     1      -3.916  -3.028   7.778  1.00  0.00    -0.550 OA
ATOM      6  O   UNL     1      -1.733  -3.131   7.088  1.00  0.00    -0.550 OA
ENDBRANCH   3   4
ENDBRANCH   2   3
ENDBRANCH   1   2
BRANCH   1   7
ATOM      7  C   UNL     1      -4.232  -1.277  11.924  1.00  0.00     0.000 C 
BRANCH   7   8
ATOM      8  C   UNL     1      -4.517  -2.762  11.634  1.00  0.00    -0.000 C 
BRANCH   8   9
ATOM      9  C   UNL     1      -5.979  -3.022  11.243  1.00  0.00    -0.003 C 
ATOM     10  C   UNL     1      -6.078  -4.136  10.203  1.00  0.00     0.004 C 
ENDBRANCH   8   9
ENDBRANCH   7   8
ENDBRANCH   1   7
TORSDOF 6
ENDMDL
MODEL 9
REMARK VINA RESULT:    -2.945      5.819      7.375
REMARK INTER + INTRA:          -4.277
REMARK INTER:                  -3.921
REMARK INTRA:                  -0.356
REMARK UNBOUND:                -0.299
REMARK SMILES CCCCCCCC(=O)[O-]
REMARK SMILES IDX 5 1 6 2 7 3 8 4 9 5 10 6 4 7 3 8 2 9 1 10
REMARK H PARENT
REMARK Flexibility Score: inf
ROOT
ATOM      1  C   UNL     1      -0.282  -2.025   5.608  1.00  0.00     0.000 C 
ENDROOT
BRANCH   1   2
ATOM      2  C   UNL     1      -0.165  -1.652   4.116  1.00  0.00     0.006 C 
BRANCH   2   3
ATOM      3  C   UNL     1      -1.434  -1.025   3.517  1.00  0.00     0.053 C 
BRANCH   3   4
ATOM      4  C   UNL     1      -1.155  -0.321   2.224  1.00  0.00     0.041 C 
ATOM      5  O   UNL     1      -0.113  -0.590   1.571  1.00  0.00    -0.550 OA
ATOM      6  O   UNL     1      -2.027   0.654   1.760  1.00  0.00    -0.550 OA
ENDBRANCH   3   4
ENDBRANCH   2   3
ENDBRANCH   1   2
BRANCH   1   7
ATOM      7  C   UNL     1      -1.723  -2.147   6.142  1.00  0.00     0.000 C 
BRANCH   7   8
ATOM      8  C   UNL     1      -1.953  -3.298   7.137  1.00  0.00    -0.000 C 
BRANCH   8   9
ATOM      9  C   UNL     1      -3.012  -4.300   6.654  1.00  0.00    -0.003 C 
ATOM     10  C   UNL     1      -3.492  -3.955   5.246  1.00  0.00     0.004 C 
ENDBRANCH   8   9
ENDBRANCH   7   8
ENDBRANCH   1   7
TORSDOF 6
ENDMDL
