MODEL 1
REMARK VINA RESULT:    -3.664      0.000      0.000
REMARK INTER + INTRA:          -4.341
REMARK INTER:                  -4.307
REMARK INTRA:                  -0.035
REMARK UNBOUND:                -0.035
REMARK SMILES O=C([O-])CCC(=O)[O-]
REMARK SMILES IDX 4 1 2 2 1 3 3 4 5 5 6 6 7 7 8 8
REMARK H PARENT
REMARK Flexibility Score: inf
ROOT
ATOM      1  C   UNL     1     -12.828  54.053  21.242  1.00  0.00     0.059 C 
ENDROOT
BRANCH   1   2
ATOM      2  C   UNL     1     -11.583  53.389  21.746  1.00  0.00     0.042 C 
ATOM      3  O   UNL     1     -10.488  54.010  21.740  1.00  0.00    -0.550 OA
ATOM      4  O   UNL     1     -11.625  52.071  22.184  1.00  0.00    -0.550 OA
ENDBRANCH   1   2
BRANCH   1   5
ATOM      5  C   UNL     1     -13.307  53.433  19.925  1.00  0.00     0.059 C 
BRANCH   5   6
ATOM      6  C   UNL     1     -14.751  53.735  19.666  1.00  0.00     0.042 C 
ATOM      7  O   UNL     1     -15.254  53.501  18.534  1.00  0.00    -0.550 OA
ATOM      8  O   UNL     1     -15.533  54.311  20.659  1.00  0.00    -0.550 OA
ENDBRANCH   5   6
ENDBRANCH   1   5
TORSDOF 3
ENDMDL
MODEL 2
REMARK VINA RESULT:    -3.639      0.123      4.253
REMARK INTER + INTRA:          -4.312
REMARK INTER:                  -4.275
REMARK INTRA:                  -0.037
REMARK UNBOUND:                -0.035
REMARK SMILES O=C([O-])CCC(=O)[O-]
REMARK SMILES IDX 4 1 2 2 1 3 3 4 5 5 6 6 7 7 8 8
REMARK H PARENT
REMARK Flexibility Score: inf
ROOT
ATOM      1  C   UNL     1     -13.309  53.513  19.889  1.00  0.00     0.059 C 
ENDROOT
BRANCH   1   2
ATOM      2  C   UNL     1     -14.772  53.744  19.661  1.00  0.00     0.042 C 
ATOM      3  O   UNL     1     -15.286  53.487  18.541  1.00  0.00    -0.550 OA
ATOM      4  O   UNL     1     -15.558  54.282  20.672  1.00  0.00    -0.550 OA
ENDBRANCH   1   2
BRANCH   1   5
ATOM      5  C   UNL     1     -12.819  54.211  21.163  1.00  0.00     0.059 C 
BRANCH   5   6
ATOM      6  C   UNL     1     -11.594  53.549  21.718  1.00  0.00     0.042 C 
ATOM      7  O   UNL     1     -10.495  54.164  21.737  1.00  0.00    -0.550 OA
ATOM      8  O   UNL     1     -11.657  52.239  22.177  1.00  0.00    -0.550 OA
ENDBRANCH   5   6
ENDBRANCH   1   5
TORSDOF 3
ENDMDL
MODEL 3
REMARK VINA RESULT:    -3.619      1.604      4.447
REMARK INTER + INTRA:          -4.289
REMARK INTER:                  -4.252
REMARK INTRA:                  -0.037
REMARK UNBOUND:                -0.035
REMARK SMILES O=C([O-])CCC(=O)[O-]
REMARK SMILES IDX 4 1 2 2 1 3 3 4 5 5 6 6 7 7 8 8
REMARK H PARENT
REMARK Flexibility Score: inf
ROOT
ATOM      1  C   UNL     1     -13.421  55.678  21.005  1.00  0.00     0.059 C 
ENDROOT
BRANCH   1   2
ATOM      2  C   UNL     1     -14.880  55.977  20.846  1.00  0.00     0.042 C 
ATOM      3  O   UNL     1     -15.713  55.037  20.754  1.00  0.00    -0.550 OA
ATOM      4  O   UNL     1     -15.316  57.293  20.758  1.00  0.00    -0.550 OA
ENDBRANCH   1   2
BRANCH   1   5
ATOM      5  C   UNL     1     -13.139  54.174  20.921  1.00  0.00     0.059 C 
BRANCH   5   6
ATOM      6  C   UNL     1     -11.893  53.804  21.666  1.00  0.00     0.042 C 
ATOM      7  O   UNL     1     -11.887  52.803  22.431  1.00  0.00    -0.550 OA
ATOM      8  O   UNL     1     -10.751  54.586  21.549  1.00  0.00    -0.550 OA
ENDBRANCH   5   6
ENDBRANCH   1   5
TORSDOF 3
ENDMDL
MODEL 4
REMARK VINA RESULT:    -3.606      1.636      2.286
REMARK INTER + INTRA:          -4.272
REMARK INTER:                  -4.236
REMARK INTRA:                  -0.036
REMARK UNBOUND:                -0.035
REMARK SMILES O=C([O-])CCC(=O)[O-]
REMARK SMILES IDX 4 1 2 2 1 3 3 4 5 5 6 6 7 7 8 8
REMARK H PARENT
REMARK Flexibility Score: inf
ROOT
ATOM      1  C   UNL     1     -13.152  54.214  20.881  1.00  0.00     0.059 C 
ENDROOT
BRANCH   1   2
ATOM      2  C   UNL     1     -11.906  53.804  21.606  1.00  0.00     0.042 C 
ATOM      3  O   UNL     1     -11.933  52.838  22.412  1.00  0.00    -0.550 OA
ATOM      4  O   UNL     1     -10.727  54.513  21.420  1.00  0.00    -0.550 OA
ENDBRANCH   1   2
BRANCH   1   5
ATOM      5  C   UNL     1     -13.434  55.712  21.046  1.00  0.00     0.059 C 
BRANCH   5   6
ATOM      6  C   UNL     1     -14.884  56.026  20.836  1.00  0.00     0.042 C 
ATOM      7  O   UNL     1     -15.727  55.094  20.738  1.00  0.00    -0.550 OA
ATOM      8  O   UNL     1     -15.300  57.345  20.707  1.00  0.00    -0.550 OA
ENDBRANCH   5   6
ENDBRANCH   1   5
TORSDOF 3
ENDMDL
MODEL 5
REMARK VINA RESULT:    -3.601      1.337      4.211
REMARK INTER + INTRA:          -4.267
REMARK INTER:                  -4.150
REMARK INTRA:                  -0.116
REMARK UNBOUND:                -0.035
REMARK SMILES O=C([O-])CCC(=O)[O-]
REMARK SMILES IDX 4 1 2 2 1 3 3 4 5 5 6 6 7 7 8 8
REMARK H PARENT
REMARK Flexibility Score: inf
ROOT
ATOM      1  C   UNL     1     -13.251  53.455  20.285  1.00  0.00     0.059 C 
ENDROOT
BRANCH   1   2
ATOM      2  C   UNL     1     -14.534  54.221  20.399  1.00  0.00     0.042 C 
ATOM      3  O   UNL     1     -15.616  53.704  20.019  1.00  0.00    -0.550 OA
ATOM      4  O   UNL     1     -14.527  55.522  20.888  1.00  0.00    -0.550 OA
ENDBRANCH   1   2
BRANCH   1   5
ATOM      5  C   UNL     1     -12.321  53.730  21.471  1.00  0.00     0.059 C 
BRANCH   5   6
ATOM      6  C   UNL     1     -11.132  54.546  21.063  1.00  0.00     0.042 C 
ATOM      7  O   UNL     1     -10.084  54.532  21.762  1.00  0.00    -0.550 OA
ATOM      8  O   UNL     1     -11.195  55.354  19.935  1.00  0.00    -0.550 OA
ENDBRANCH   5   6
ENDBRANCH   1   5
TORSDOF 3
ENDMDL
MODEL 6
REMARK VINA RESULT:    -3.599      1.329      1.763
REMARK INTER + INTRA:          -4.265
REMARK INTER:                  -4.145
REMARK INTRA:                  -0.120
REMARK UNBOUND:                -0.035
REMARK SMILES O=C([O-])CCC(=O)[O-]
REMARK SMILES IDX 4 1 2 2 1 3 3 4 5 5 6 6 7 7 8 8
REMARK H PARENT
REMARK Flexibility Score: inf
ROOT
ATOM      1  C   UNL     1     -12.353  53.734  21.476  1.00  0.00     0.059 C 
ENDROOT
BRANCH   1   2
ATOM      2  C   UNL     1     -11.141  54.517  21.072  1.00  0.00     0.042 C 
ATOM      3  O   UNL     1     -10.095  54.471  21.771  1.00  0.00    -0.550 OA
ATOM      4  O   UNL     1     -11.181  55.330  19.946  1.00  0.00    -0.550 OA
ENDBRANCH   1   2
BRANCH   1   5
ATOM      5  C   UNL     1     -13.289  53.488  20.288  1.00  0.00     0.059 C 
BRANCH   5   6
ATOM      6  C   UNL     1     -14.559  54.272  20.415  1.00  0.00     0.042 C 
ATOM      7  O   UNL     1     -15.660  53.751  20.093  1.00  0.00    -0.550 OA
ATOM      8  O   UNL     1     -14.524  55.591  20.849  1.00  0.00    -0.550 OA
ENDBRANCH   5   6
ENDBRANCH   1   5
TORSDOF 3
ENDMDL
MODEL 7
REMARK VINA RESULT:    -3.573      1.912      4.072
REMARK INTER + INTRA:          -4.234
REMARK INTER:                  -4.116
REMARK INTRA:                  -0.118
REMARK UNBOUND:                -0.035
REMARK SMILES O=C([O-])CCC(=O)[O-]
REMARK SMILES IDX 4 1 2 2 1 3 3 4 5 5 6 6 7 7 8 8
REMARK H PARENT
REMARK Flexibility Score: inf
ROOT
ATOM      1  C   UNL     1     -13.091  55.342  21.116  1.00  0.00     0.059 C 
ENDROOT
BRANCH   1   2
ATOM      2  C   UNL     1     -12.893  56.001  19.785  1.00  0.00     0.042 C 
ATOM      3  O   UNL     1     -13.886  56.406  19.125  1.00  0.00    -0.550 OA
ATOM      4  O   UNL     1     -11.615  56.131  19.255  1.00  0.00    -0.550 OA
ENDBRANCH   1   2
BRANCH   1   5
ATOM      5  C   UNL     1     -12.950  53.819  21.020  1.00  0.00     0.059 C 
BRANCH   5   6
ATOM      6  C   UNL     1     -11.708  53.335  21.704  1.00  0.00     0.042 C 
ATOM      7  O   UNL     1     -10.698  54.084  21.787  1.00  0.00    -0.550 OA
ATOM      8  O   UNL     1     -11.650  52.044  22.213  1.00  0.00    -0.550 OA
ENDBRANCH   5   6
ENDBRANCH   1   5
TORSDOF 3
ENDMDL
MODEL 8
REMARK VINA RESULT:    -3.560      1.930      2.431
REMARK INTER + INTRA:          -4.219
REMARK INTER:                  -4.102
REMARK INTRA:                  -0.117
REMARK UNBOUND:                -0.035
REMARK SMILES O=C([O-])CCC(=O)[O-]
REMARK SMILES IDX 4 1 2 2 1 3 3 4 5 5 6 6 7 7 8 8
REMARK H PARENT
REMARK Flexibility Score: inf
ROOT
ATOM      1  C   UNL     1     -12.880  53.803  20.953  1.00  0.00     0.059 C 
ENDROOT
BRANCH   1   2
ATOM      2  C   UNL     1     -11.670  53.332  21.700  1.00  0.00     0.042 C 
ATOM      3  O   UNL     1     -10.664  54.080  21.812  1.00  0.00    -0.550 OA
ATOM      4  O   UNL     1     -11.639  52.051  22.238  1.00  0.00    -0.550 OA
ENDBRANCH   1   2
BRANCH   1   5
ATOM      5  C   UNL     1     -13.087  55.314  21.106  1.00  0.00     0.059 C 
BRANCH   5   6
ATOM      6  C   UNL     1     -12.837  56.039  19.819  1.00  0.00     0.042 C 
ATOM      7  O   UNL     1     -13.781  56.634  19.234  1.00  0.00    -0.550 OA
ATOM      8  O   UNL     1     -11.573  56.023  19.244  1.00  0.00    -0.550 OA
ENDBRANCH   5   6
ENDBRANCH   1   5
TORSDOF 3
ENDMDL
MODEL 9
REMARK VINA RESULT:    -3.487      1.604      2.295
REMARK INTER + INTRA:          -4.133
REMARK INTER:                  -4.028
REMARK INTRA:                  -0.105
REMARK UNBOUND:                -0.035
REMARK SMILES O=C([O-])CCC(=O)[O-]
REMARK SMILES IDX 4 1 2 2 1 3 3 4 5 5 6 6 7 7 8 8
REMARK H PARENT
REMARK Flexibility Score: inf
ROOT
ATOM      1  C   UNL     1     -13.010  54.021  21.227  1.00  0.00     0.059 C 
ENDROOT
BRANCH   1   2
ATOM      2  C   UNL     1     -11.724  53.405  21.686  1.00  0.00     0.042 C 
ATOM      3  O   UNL     1     -11.717  52.245  22.177  1.00  0.00    -0.550 OA
ATOM      4  O   UNL     1     -10.539  54.126  21.608  1.00  0.00    -0.550 OA
ENDBRANCH   1   2
BRANCH   1   5
ATOM      5  C   UNL     1     -13.487  53.415  19.903  1.00  0.00     0.059 C 
BRANCH   5   6
ATOM      6  C   UNL     1     -13.035  54.229  18.729  1.00  0.00     0.042 C 
ATOM      7  O   UNL     1     -12.883  55.474  18.842  1.00  0.00    -0.550 OA
ATOM      8  O   UNL     1     -12.823  53.620  17.498  1.00  0.00    -0.550 OA
ENDBRANCH   5   6
ENDBRANCH   1   5
TORSDOF 3
ENDMDL
