MODEL 1
REMARK VINA RESULT:    27.775      0.000      0.000
REMARK INTER + INTRA:          31.547
REMARK INTER:                  31.834
REMARK INTRA:                  -0.287
REMARK UNBOUND:                -0.287
REMARK SMILES O=C1C[C@@H](c2ccc(O)cc2)Oc2cc(O)cc(O)c21
REMARK SMILES IDX 3 1 4 2 12 3 13 4 14 5 15 6 17 7 18 8 20 9 2 10 1 11 5 12
REMARK SMILES IDX 6 13 11 14 7 15 10 16 8 17 9 18 19 20 16 22
REMARK H PARENT 9 19 19 21 16 23
REMARK Flexibility Score: inf
ROOT
ATOM      1  C   UNL     1      10.121   0.274   8.951  1.00  0.00     0.131 C 
ATOM      2  C   UNL     1       8.913   1.207   8.778  1.00  0.00     0.211 C 
ATOM      3  O   UNL     1       9.342   2.559   8.594  1.00  0.00    -0.484 OA
ATOM      4  C   UNL     1      10.465   2.900   7.828  1.00  0.00     0.138 A 
ATOM      5  C   UNL     1      10.656   4.236   7.465  1.00  0.00     0.093 A 
ATOM      6  C   UNL     1      11.755   4.605   6.690  1.00  0.00     0.123 A 
ATOM      7  C   UNL     1      12.689   3.638   6.303  1.00  0.00     0.093 A 
ATOM      8  C   UNL     1      12.540   2.301   6.692  1.00  0.00     0.133 A 
ATOM      9  C   UNL     1      11.395   1.912   7.436  1.00  0.00     0.102 A 
ATOM     10  C   UNL     1      11.098   0.515   7.840  1.00  0.00     0.174 C 
ATOM     11  O   UNL     1      11.609  -0.470   7.244  1.00  0.00    -0.294 OA
ENDROOT
BRANCH   2  12
ATOM     12  C   UNL     1       7.993   1.116   9.970  1.00  0.00    -0.007 A 
ATOM     13  C   UNL     1       8.512   0.895  11.258  1.00  0.00     0.011 A 
ATOM     14  C   UNL     1       6.600   1.193   9.797  1.00  0.00     0.011 A 
ATOM     15  C   UNL     1       7.654   0.783  12.356  1.00  0.00     0.046 A 
ATOM     16  C   UNL     1       5.744   1.072  10.896  1.00  0.00     0.046 A 
ATOM     17  C   UNL     1       6.270   0.871  12.179  1.00  0.00     0.115 A 
BRANCH  17  18
ATOM     18  O   UNL     1       5.427   0.755  13.282  1.00  0.00    -0.508 OA
ATOM     19  H   UNL     1       5.794   0.629  14.218  1.00  0.00     0.293 HD
ENDBRANCH  17  18
ENDBRANCH   2  12
BRANCH   8  20
ATOM     20  O   UNL     1      13.563   1.415   6.346  1.00  0.00    -0.507 OA
ATOM     21  H   UNL     1      14.321   1.643   5.717  1.00  0.00     0.293 HD
ENDBRANCH   8  20
BRANCH   6  22
ATOM     22  O   UNL     1      11.916   5.937   6.317  1.00  0.00    -0.508 OA
ATOM     23  H   UNL     1      11.392   6.340   5.548  1.00  0.00     0.293 HD
ENDBRANCH   6  22
TORSDOF 4
ENDMDL
MODEL 2
REMARK VINA RESULT:    29.792      1.226      2.961
REMARK INTER + INTRA:          33.859
REMARK INTER:                  34.145
REMARK INTRA:                  -0.287
REMARK UNBOUND:                -0.287
REMARK SMILES O=C1C[C@@H](c2ccc(O)cc2)Oc2cc(O)cc(O)c21
REMARK SMILES IDX 3 1 4 2 12 3 13 4 14 5 15 6 17 7 18 8 20 9 2 10 1 11 5 12
REMARK SMILES IDX 6 13 11 14 7 15 10 16 8 17 9 18 19 20 16 22
REMARK H PARENT 9 19 19 21 16 23
REMARK Flexibility Score: inf
ROOT
ATOM      1  C   UNL     1       8.771   3.375   8.738  1.00  0.00     0.131 C 
ATOM      2  C   UNL     1       9.379   2.356   9.712  1.00  0.00     0.211 C 
ATOM      3  O   UNL     1      10.137   1.370   9.004  1.00  0.00    -0.484 OA
ATOM      4  C   UNL     1      10.942   1.683   7.900  1.00  0.00     0.138 A 
ATOM      5  C   UNL     1      11.860   0.734   7.442  1.00  0.00     0.093 A 
ATOM      6  C   UNL     1      12.685   1.021   6.355  1.00  0.00     0.123 A 
ATOM      7  C   UNL     1      12.571   2.252   5.701  1.00  0.00     0.093 A 
ATOM      8  C   UNL     1      11.628   3.201   6.117  1.00  0.00     0.133 A 
ATOM      9  C   UNL     1      10.822   2.933   7.254  1.00  0.00     0.102 A 
ATOM     10  C   UNL     1       9.844   3.892   7.826  1.00  0.00     0.174 C 
ATOM     11  O   UNL     1       9.920   5.129   7.604  1.00  0.00    -0.294 OA
ENDROOT
BRANCH   2  12
ATOM     12  C   UNL     1       8.300   1.687  10.528  1.00  0.00    -0.007 A 
ATOM     13  C   UNL     1       7.016   1.488   9.987  1.00  0.00     0.011 A 
ATOM     14  C   UNL     1       8.549   1.309  11.858  1.00  0.00     0.011 A 
ATOM     15  C   UNL     1       6.011   0.894  10.756  1.00  0.00     0.046 A 
ATOM     16  C   UNL     1       7.538   0.723  12.626  1.00  0.00     0.046 A 
ATOM     17  C   UNL     1       6.268   0.510  12.076  1.00  0.00     0.115 A 
BRANCH  17  18
ATOM     18  O   UNL     1       5.256  -0.079  12.830  1.00  0.00    -0.508 OA
ATOM     19  H   UNL     1       5.299  -0.110  13.842  1.00  0.00     0.293 HD
ENDBRANCH  17  18
ENDBRANCH   2  12
BRANCH   8  20
ATOM     20  O   UNL     1      11.511   4.365   5.354  1.00  0.00    -0.507 OA
ATOM     21  H   UNL     1      12.190   5.114   5.356  1.00  0.00     0.293 HD
ENDBRANCH   8  20
BRANCH   6  22
ATOM     22  O   UNL     1      13.611   0.073   5.928  1.00  0.00    -0.508 OA
ATOM     23  H   UNL     1      13.646  -0.856   6.334  1.00  0.00     0.293 HD
ENDBRANCH   6  22
TORSDOF 4
ENDMDL
MODEL 3
REMARK VINA RESULT:    30.059      1.743      6.926
REMARK INTER + INTRA:          34.166
REMARK INTER:                  34.453
REMARK INTRA:                  -0.287
REMARK UNBOUND:                -0.287
REMARK SMILES O=C1C[C@@H](c2ccc(O)cc2)Oc2cc(O)cc(O)c21
REMARK SMILES IDX 3 1 4 2 12 3 13 4 14 5 15 6 17 7 18 8 20 9 2 10 1 11 5 12
REMARK SMILES IDX 6 13 11 14 7 15 10 16 8 17 9 18 19 20 16 22
REMARK H PARENT 9 19 19 21 16 23
REMARK Flexibility Score: inf
ROOT
ATOM      1  C   UNL     1       9.144   1.117  10.461  1.00  0.00     0.131 C 
ATOM      2  C   UNL     1       9.000   2.190   9.373  1.00  0.00     0.211 C 
ATOM      3  O   UNL     1       7.759   2.041   8.677  1.00  0.00    -0.484 OA
ATOM      4  C   UNL     1       6.565   1.694   9.324  1.00  0.00     0.138 A 
ATOM      5  C   UNL     1       5.357   1.842   8.638  1.00  0.00     0.093 A 
ATOM      6  C   UNL     1       4.150   1.520   9.259  1.00  0.00     0.123 A 
ATOM      7  C   UNL     1       4.153   1.015  10.564  1.00  0.00     0.093 A 
ATOM      8  C   UNL     1       5.356   0.819  11.255  1.00  0.00     0.133 A 
ATOM      9  C   UNL     1       6.582   1.194  10.645  1.00  0.00     0.102 A 
ATOM     10  C   UNL     1       7.906   1.099  11.308  1.00  0.00     0.174 C 
ATOM     11  O   UNL     1       8.018   1.051  12.562  1.00  0.00    -0.294 OA
ENDROOT
BRANCH   2  12
ATOM     12  C   UNL     1      10.149   2.119   8.398  1.00  0.00    -0.007 A 
ATOM     13  C   UNL     1      10.728   0.881   8.065  1.00  0.00     0.011 A 
ATOM     14  C   UNL     1      10.692   3.296   7.854  1.00  0.00     0.011 A 
ATOM     15  C   UNL     1      11.811   0.821   7.183  1.00  0.00     0.046 A 
ATOM     16  C   UNL     1      11.780   3.234   6.979  1.00  0.00     0.046 A 
ATOM     17  C   UNL     1      12.340   1.995   6.638  1.00  0.00     0.115 A 
BRANCH  17  18
ATOM     18  O   UNL     1      13.420   1.921   5.762  1.00  0.00    -0.508 OA
ATOM     19  H   UNL     1      14.272   1.432   6.011  1.00  0.00     0.293 HD
ENDBRANCH  17  18
ENDBRANCH   2  12
BRANCH   8  20
ATOM     20  O   UNL     1       5.281   0.223  12.516  1.00  0.00    -0.507 OA
ATOM     21  H   UNL     1       5.513   0.695  13.379  1.00  0.00     0.293 HD
ENDBRANCH   8  20
BRANCH   6  22
ATOM     22  O   UNL     1       2.954   1.697   8.569  1.00  0.00    -0.508 OA
ATOM     23  H   UNL     1       2.892   2.311   7.764  1.00  0.00     0.293 HD
ENDBRANCH   6  22
TORSDOF 4
ENDMDL
MODEL 4
REMARK VINA RESULT:    30.266      4.455      7.513
REMARK INTER + INTRA:          34.403
REMARK INTER:                  34.691
REMARK INTRA:                  -0.288
REMARK UNBOUND:                -0.287
REMARK SMILES O=C1C[C@@H](c2ccc(O)cc2)Oc2cc(O)cc(O)c21
REMARK SMILES IDX 3 1 4 2 12 3 13 4 14 5 15 6 17 7 18 8 20 9 2 10 1 11 5 12
REMARK SMILES IDX 6 13 11 14 7 15 10 16 8 17 9 18 19 20 16 22
REMARK H PARENT 9 19 19 21 16 23
REMARK Flexibility Score: inf
ROOT
ATOM      1  C   UNL     1      14.013   4.909   8.957  1.00  0.00     0.131 C 
ATOM      2  C   UNL     1      15.175   3.917   8.806  1.00  0.00     0.211 C 
ATOM      3  O   UNL     1      14.683   2.581   8.665  1.00  0.00    -0.484 OA
ATOM      4  C   UNL     1      13.540   2.270   7.915  1.00  0.00     0.138 A 
ATOM      5  C   UNL     1      13.286   0.934   7.593  1.00  0.00     0.093 A 
ATOM      6  C   UNL     1      12.166   0.594   6.836  1.00  0.00     0.123 A 
ATOM      7  C   UNL     1      11.275   1.591   6.424  1.00  0.00     0.093 A 
ATOM      8  C   UNL     1      11.488   2.931   6.772  1.00  0.00     0.133 A 
ATOM      9  C   UNL     1      12.654   3.288   7.498  1.00  0.00     0.102 A 
ATOM     10  C   UNL     1      13.018   4.681   7.858  1.00  0.00     0.174 C 
ATOM     11  O   UNL     1      12.550   5.671   7.236  1.00  0.00    -0.294 OA
ENDROOT
BRANCH   2  12
ATOM     12  C   UNL     1      16.106   4.001   9.990  1.00  0.00    -0.007 A 
ATOM     13  C   UNL     1      17.499   3.923   9.810  1.00  0.00     0.011 A 
ATOM     14  C   UNL     1      15.589   4.100  11.293  1.00  0.00     0.011 A 
ATOM     15  C   UNL     1      18.358   3.973  10.912  1.00  0.00     0.046 A 
ATOM     16  C   UNL     1      16.450   4.141  12.394  1.00  0.00     0.046 A 
ATOM     17  C   UNL     1      17.837   4.082  12.205  1.00  0.00     0.115 A 
BRANCH  17  18
ATOM     18  O   UNL     1      18.704   4.128  13.294  1.00  0.00    -0.508 OA
ATOM     19  H   UNL     1      19.701   3.984  13.184  1.00  0.00     0.293 HD
ENDBRANCH  17  18
ENDBRANCH   2  12
BRANCH   8  20
ATOM     20  O   UNL     1      10.505   3.853   6.404  1.00  0.00    -0.507 OA
ATOM     21  H   UNL     1       9.590   3.597   6.059  1.00  0.00     0.293 HD
ENDBRANCH   8  20
BRANCH   6  22
ATOM     22  O   UNL     1      11.942  -0.740   6.503  1.00  0.00    -0.508 OA
ATOM     23  H   UNL     1      12.595  -1.470   6.767  1.00  0.00     0.293 HD
ENDBRANCH   6  22
TORSDOF 4
ENDMDL
