MODEL 1
REMARK VINA RESULT:    -5.331      0.000      0.000
REMARK INTER + INTRA:          -6.496
REMARK INTER:                  -6.422
REMARK INTRA:                  -0.074
REMARK UNBOUND:                -0.074
REMARK SMILES COC(=O)c1cc(O)c(O)c(O)c1
REMARK SMILES IDX 5 1 13 2 11 3 9 4 7 5 6 6 3 7 4 8 2 9 1 10 12 11 8 13 10 15
REMARK H PARENT 12 12 8 14 10 16
REMARK Flexibility Score: inf
ROOT
ATOM      1  C   UNL     1      16.021  -3.148  34.050  1.00  0.00     0.067 A 
ATOM      2  C   UNL     1      16.703  -3.766  32.988  1.00  0.00     0.066 A 
ATOM      3  C   UNL     1      17.445  -4.936  33.200  1.00  0.00     0.162 A 
ATOM      4  C   UNL     1      17.511  -5.500  34.485  1.00  0.00     0.200 A 
ATOM      5  C   UNL     1      16.835  -4.890  35.549  1.00  0.00     0.162 A 
ATOM      6  C   UNL     1      16.094  -3.720  35.332  1.00  0.00     0.066 A 
ENDROOT
BRANCH   1   7
ATOM      7  C   UNL     1      15.239  -1.913  33.817  1.00  0.00     0.338 C 
ATOM      8  O   UNL     1      15.566  -1.122  32.889  1.00  0.00    -0.246 OA
BRANCH   7   9
ATOM      9  O   UNL     1      14.136  -1.622  34.628  1.00  0.00    -0.465 OA
ATOM     10  C   UNL     1      12.902  -2.321  34.527  1.00  0.00     0.282 C 
ENDBRANCH   7   9
ENDBRANCH   1   7
BRANCH   3  11
ATOM     11  O   UNL     1      18.117  -5.541  32.138  1.00  0.00    -0.504 OA
ATOM     12  H   UNL     1      18.168  -6.549  32.048  1.00  0.00     0.293 HD
ENDBRANCH   3  11
BRANCH   5  13
ATOM     13  O   UNL     1      16.904  -5.452  36.822  1.00  0.00    -0.504 OA
ATOM     14  H   UNL     1      17.179  -4.907  37.629  1.00  0.00     0.293 HD
ENDBRANCH   5  13
BRANCH   4  15
ATOM     15  O   UNL     1      18.243  -6.663  34.720  1.00  0.00    -0.502 OA
ATOM     16  H   UNL     1      18.401  -7.022  35.654  1.00  0.00     0.293 HD
ENDBRANCH   4  15
TORSDOF 5
ENDMDL
MODEL 2
REMARK VINA RESULT:    -5.313      0.067      2.327
REMARK INTER + INTRA:          -6.475
REMARK INTER:                  -6.409
REMARK INTRA:                  -0.066
REMARK UNBOUND:                -0.074
REMARK SMILES COC(=O)c1cc(O)c(O)c(O)c1
REMARK SMILES IDX 5 1 13 2 11 3 9 4 7 5 6 6 3 7 4 8 2 9 1 10 12 11 8 13 10 15
REMARK H PARENT 12 12 8 14 10 16
REMARK Flexibility Score: inf
ROOT
ATOM      1  C   UNL     1      16.023  -3.158  34.053  1.00  0.00     0.067 A 
ATOM      2  C   UNL     1      16.092  -3.721  35.339  1.00  0.00     0.066 A 
ATOM      3  C   UNL     1      16.805  -4.907  35.561  1.00  0.00     0.162 A 
ATOM      4  C   UNL     1      17.458  -5.543  34.491  1.00  0.00     0.200 A 
ATOM      5  C   UNL     1      17.393  -4.988  33.207  1.00  0.00     0.162 A 
ATOM      6  C   UNL     1      16.678  -3.802  32.990  1.00  0.00     0.066 A 
ENDROOT
BRANCH   1   7
ATOM      7  C   UNL     1      15.268  -1.905  33.827  1.00  0.00     0.338 C 
ATOM      8  O   UNL     1      15.590  -1.133  32.881  1.00  0.00    -0.246 OA
BRANCH   7   9
ATOM      9  O   UNL     1      14.194  -1.576  34.662  1.00  0.00    -0.465 OA
ATOM     10  C   UNL     1      12.939  -2.240  34.599  1.00  0.00     0.282 C 
ENDBRANCH   7   9
ENDBRANCH   1   7
BRANCH   3  11
ATOM     11  O   UNL     1      16.868  -5.457  36.841  1.00  0.00    -0.504 OA
ATOM     12  H   UNL     1      17.535  -6.184  37.074  1.00  0.00     0.293 HD
ENDBRANCH   3  11
BRANCH   5  13
ATOM     13  O   UNL     1      18.041  -5.623  32.149  1.00  0.00    -0.504 OA
ATOM     14  H   UNL     1      18.429  -5.100  31.374  1.00  0.00     0.293 HD
ENDBRANCH   5  13
BRANCH   4  15
ATOM     15  O   UNL     1      18.173  -6.724  34.688  1.00  0.00    -0.502 OA
ATOM     16  H   UNL     1      19.184  -6.738  34.756  1.00  0.00     0.293 HD
ENDBRANCH   4  15
TORSDOF 5
ENDMDL
MODEL 3
REMARK VINA RESULT:    -5.245     13.010     14.427
REMARK INTER + INTRA:          -6.393
REMARK INTER:                  -6.256
REMARK INTRA:                  -0.137
REMARK UNBOUND:                -0.074
REMARK SMILES COC(=O)c1cc(O)c(O)c(O)c1
REMARK SMILES IDX 5 1 13 2 11 3 9 4 7 5 6 6 3 7 4 8 2 9 1 10 12 11 8 13 10 15
REMARK H PARENT 12 12 8 14 10 16
REMARK Flexibility Score: inf
ROOT
ATOM      1  C   UNL     1      26.449   4.381  28.036  1.00  0.00     0.067 A 
ATOM      2  C   UNL     1      25.635   5.503  28.270  1.00  0.00     0.066 A 
ATOM      3  C   UNL     1      24.427   5.374  28.969  1.00  0.00     0.162 A 
ATOM      4  C   UNL     1      24.022   4.115  29.442  1.00  0.00     0.200 A 
ATOM      5  C   UNL     1      24.828   2.992  29.212  1.00  0.00     0.162 A 
ATOM      6  C   UNL     1      26.035   3.126  28.512  1.00  0.00     0.066 A 
ENDROOT
BRANCH   1   7
ATOM      7  C   UNL     1      27.723   4.526  27.297  1.00  0.00     0.338 C 
ATOM      8  O   UNL     1      27.719   4.916  26.096  1.00  0.00    -0.246 OA
BRANCH   7   9
ATOM      9  O   UNL     1      28.936   4.229  27.930  1.00  0.00    -0.465 OA
ATOM     10  C   UNL     1      29.456   5.011  28.998  1.00  0.00     0.282 C 
ENDBRANCH   7   9
ENDBRANCH   1   7
BRANCH   3  11
ATOM     11  O   UNL     1      23.627   6.494  29.196  1.00  0.00    -0.504 OA
ATOM     12  H   UNL     1      22.680   6.551  28.838  1.00  0.00     0.293 HD
ENDBRANCH   3  11
BRANCH   5  13
ATOM     13  O   UNL     1      24.421   1.745  29.682  1.00  0.00    -0.504 OA
ATOM     14  H   UNL     1      25.080   1.087  30.080  1.00  0.00     0.293 HD
ENDBRANCH   5  13
BRANCH   4  15
ATOM     15  O   UNL     1      22.824   3.963  30.140  1.00  0.00    -0.502 OA
ATOM     16  H   UNL     1      22.046   3.431  29.768  1.00  0.00     0.293 HD
ENDBRANCH   4  15
TORSDOF 5
ENDMDL
MODEL 4
REMARK VINA RESULT:    -5.142      1.228      5.096
REMARK INTER + INTRA:          -6.269
REMARK INTER:                  -6.159
REMARK INTRA:                  -0.110
REMARK UNBOUND:                -0.074
REMARK SMILES COC(=O)c1cc(O)c(O)c(O)c1
REMARK SMILES IDX 5 1 13 2 11 3 9 4 7 5 6 6 3 7 4 8 2 9 1 10 12 11 8 13 10 15
REMARK H PARENT 12 12 8 14 10 16
REMARK Flexibility Score: inf
ROOT
ATOM      1  C   UNL     1      16.497  -4.155  34.558  1.00  0.00     0.067 A 
ATOM      2  C   UNL     1      15.456  -3.962  35.482  1.00  0.00     0.066 A 
ATOM      3  C   UNL     1      14.636  -2.828  35.406  1.00  0.00     0.162 A 
ATOM      4  C   UNL     1      14.852  -1.874  34.399  1.00  0.00     0.200 A 
ATOM      5  C   UNL     1      15.887  -2.059  33.474  1.00  0.00     0.162 A 
ATOM      6  C   UNL     1      16.706  -3.194  33.554  1.00  0.00     0.066 A 
ENDROOT
BRANCH   1   7
ATOM      7  C   UNL     1      17.359  -5.356  34.645  1.00  0.00     0.338 C 
ATOM      8  O   UNL     1      18.013  -5.591  35.699  1.00  0.00    -0.246 OA
BRANCH   7   9
ATOM      9  O   UNL     1      17.449  -6.232  33.558  1.00  0.00    -0.465 OA
ATOM     10  C   UNL     1      18.621  -6.350  32.760  1.00  0.00     0.282 C 
ENDBRANCH   7   9
ENDBRANCH   1   7
BRANCH   3  11
ATOM     11  O   UNL     1      13.605  -2.647  36.328  1.00  0.00    -0.504 OA
ATOM     12  H   UNL     1      12.926  -3.376  36.516  1.00  0.00     0.293 HD
ENDBRANCH   3  11
BRANCH   5  13
ATOM     13  O   UNL     1      16.098  -1.109  32.477  1.00  0.00    -0.504 OA
ATOM     14  H   UNL     1      16.510  -1.357  31.585  1.00  0.00     0.293 HD
ENDBRANCH   5  13
BRANCH   4  15
ATOM     15  O   UNL     1      14.048  -0.738  34.303  1.00  0.00    -0.502 OA
ATOM     16  H   UNL     1      14.229  -0.004  33.629  1.00  0.00     0.293 HD
ENDBRANCH   4  15
TORSDOF 5
ENDMDL
MODEL 5
REMARK VINA RESULT:    -5.109      1.231      4.598
REMARK INTER + INTRA:          -6.229
REMARK INTER:                  -6.119
REMARK INTRA:                  -0.110
REMARK UNBOUND:                -0.074
REMARK SMILES COC(=O)c1cc(O)c(O)c(O)c1
REMARK SMILES IDX 5 1 13 2 11 3 9 4 7 5 6 6 3 7 4 8 2 9 1 10 12 11 8 13 10 15
REMARK H PARENT 12 12 8 14 10 16
REMARK Flexibility Score: inf
ROOT
ATOM      1  C   UNL     1      16.474  -4.153  34.545  1.00  0.00     0.067 A 
ATOM      2  C   UNL     1      16.676  -3.186  33.545  1.00  0.00     0.066 A 
ATOM      3  C   UNL     1      15.853  -2.054  33.471  1.00  0.00     0.162 A 
ATOM      4  C   UNL     1      14.815  -1.880  34.401  1.00  0.00     0.200 A 
ATOM      5  C   UNL     1      14.607  -2.839  35.400  1.00  0.00     0.162 A 
ATOM      6  C   UNL     1      15.432  -3.970  35.471  1.00  0.00     0.066 A 
ENDROOT
BRANCH   1   7
ATOM      7  C   UNL     1      17.347  -5.345  34.617  1.00  0.00     0.338 C 
ATOM      8  O   UNL     1      18.019  -5.577  35.660  1.00  0.00    -0.246 OA
BRANCH   7   9
ATOM      9  O   UNL     1      17.429  -6.219  33.526  1.00  0.00    -0.465 OA
ATOM     10  C   UNL     1      18.600  -6.346  32.729  1.00  0.00     0.282 C 
ENDBRANCH   7   9
ENDBRANCH   1   7
BRANCH   3  11
ATOM     11  O   UNL     1      16.063  -1.100  32.475  1.00  0.00    -0.504 OA
ATOM     12  H   UNL     1      15.535  -1.111  31.609  1.00  0.00     0.293 HD
ENDBRANCH   3  11
BRANCH   5  13
ATOM     13  O   UNL     1      13.575  -2.663  36.321  1.00  0.00    -0.504 OA
ATOM     14  H   UNL     1      12.965  -1.855  36.286  1.00  0.00     0.293 HD
ENDBRANCH   5  13
BRANCH   4  15
ATOM     15  O   UNL     1      13.983  -0.761  34.347  1.00  0.00    -0.502 OA
ATOM     16  H   UNL     1      13.941  -0.159  33.534  1.00  0.00     0.293 HD
ENDBRANCH   4  15
TORSDOF 5
ENDMDL
MODEL 6
REMARK VINA RESULT:    -5.091     12.976     14.402
REMARK INTER + INTRA:          -6.208
REMARK INTER:                  -6.070
REMARK INTRA:                  -0.137
REMARK UNBOUND:                -0.074
REMARK SMILES COC(=O)c1cc(O)c(O)c(O)c1
REMARK SMILES IDX 5 1 13 2 11 3 9 4 7 5 6 6 3 7 4 8 2 9 1 10 12 11 8 13 10 15
REMARK H PARENT 12 12 8 14 10 16
REMARK Flexibility Score: inf
ROOT
ATOM      1  C   UNL     1      26.378   4.425  28.074  1.00  0.00     0.067 A 
ATOM      2  C   UNL     1      25.878   3.169  28.455  1.00  0.00     0.066 A 
ATOM      3  C   UNL     1      24.688   3.067  29.189  1.00  0.00     0.162 A 
ATOM      4  C   UNL     1      23.984   4.229  29.547  1.00  0.00     0.200 A 
ATOM      5  C   UNL     1      24.476   5.485  29.170  1.00  0.00     0.162 A 
ATOM      6  C   UNL     1      25.667   5.582  28.438  1.00  0.00     0.066 A 
ENDROOT
BRANCH   1   7
ATOM      7  C   UNL     1      27.636   4.524  27.299  1.00  0.00     0.338 C 
ATOM      8  O   UNL     1      27.611   4.905  26.096  1.00  0.00    -0.246 OA
BRANCH   7   9
ATOM      9  O   UNL     1      28.855   4.194  27.903  1.00  0.00    -0.465 OA
ATOM     10  C   UNL     1      29.388   4.919  29.004  1.00  0.00     0.282 C 
ENDBRANCH   7   9
ENDBRANCH   1   7
BRANCH   3  11
ATOM     11  O   UNL     1      24.200   1.815  29.562  1.00  0.00    -0.504 OA
ATOM     12  H   UNL     1      23.965   1.110  28.872  1.00  0.00     0.293 HD
ENDBRANCH   3  11
BRANCH   5  13
ATOM     13  O   UNL     1      23.776   6.635  29.529  1.00  0.00    -0.504 OA
ATOM     14  H   UNL     1      23.849   7.033  30.457  1.00  0.00     0.293 HD
ENDBRANCH   5  13
BRANCH   4  15
ATOM     15  O   UNL     1      22.798   4.152  30.276  1.00  0.00    -0.502 OA
ATOM     16  H   UNL     1      22.742   4.429  31.248  1.00  0.00     0.293 HD
ENDBRANCH   4  15
TORSDOF 5
ENDMDL
MODEL 7
REMARK VINA RESULT:    -5.068     12.093     13.648
REMARK INTER + INTRA:          -6.180
REMARK INTER:                  -6.076
REMARK INTRA:                  -0.103
REMARK UNBOUND:                -0.074
REMARK SMILES COC(=O)c1cc(O)c(O)c(O)c1
REMARK SMILES IDX 5 1 13 2 11 3 9 4 7 5 6 6 3 7 4 8 2 9 1 10 12 11 8 13 10 15
REMARK H PARENT 12 12 8 14 10 16
REMARK Flexibility Score: inf
ROOT
ATOM      1  C   UNL     1      26.143   0.364  26.795  1.00  0.00     0.067 A 
ATOM      2  C   UNL     1      27.151   1.302  26.516  1.00  0.00     0.066 A 
ATOM      3  C   UNL     1      27.290   2.456  27.301  1.00  0.00     0.162 A 
ATOM      4  C   UNL     1      26.415   2.681  28.376  1.00  0.00     0.200 A 
ATOM      5  C   UNL     1      25.406   1.751  28.660  1.00  0.00     0.162 A 
ATOM      6  C   UNL     1      25.272   0.599  27.873  1.00  0.00     0.066 A 
ENDROOT
BRANCH   1   7
ATOM      7  C   UNL     1      26.004  -0.852  25.963  1.00  0.00     0.338 C 
ATOM      8  O   UNL     1      26.309  -1.982  26.436  1.00  0.00    -0.246 OA
BRANCH   7   9
ATOM      9  O   UNL     1      25.532  -0.748  24.649  1.00  0.00    -0.465 OA
ATOM     10  C   UNL     1      24.219  -1.142  24.270  1.00  0.00     0.282 C 
ENDBRANCH   7   9
ENDBRANCH   1   7
BRANCH   3  11
ATOM     11  O   UNL     1      28.295   3.379  27.015  1.00  0.00    -0.504 OA
ATOM     12  H   UNL     1      28.322   3.879  26.133  1.00  0.00     0.293 HD
ENDBRANCH   3  11
BRANCH   5  13
ATOM     13  O   UNL     1      24.540   1.980  29.727  1.00  0.00    -0.504 OA
ATOM     14  H   UNL     1      23.749   2.607  29.644  1.00  0.00     0.293 HD
ENDBRANCH   5  13
BRANCH   4  15
ATOM     15  O   UNL     1      26.533   3.822  29.170  1.00  0.00    -0.502 OA
ATOM     16  H   UNL     1      25.943   4.634  29.040  1.00  0.00     0.293 HD
ENDBRANCH   4  15
TORSDOF 5
ENDMDL
MODEL 8
REMARK VINA RESULT:    -5.040     11.830     13.570
REMARK INTER + INTRA:          -6.145
REMARK INTER:                  -6.039
REMARK INTRA:                  -0.106
REMARK UNBOUND:                -0.074
REMARK SMILES COC(=O)c1cc(O)c(O)c(O)c1
REMARK SMILES IDX 5 1 13 2 11 3 9 4 7 5 6 6 3 7 4 8 2 9 1 10 12 11 8 13 10 15
REMARK H PARENT 12 12 8 14 10 16
REMARK Flexibility Score: inf
ROOT
ATOM      1  C   UNL     1      25.542   1.967  28.532  1.00  0.00     0.067 A 
ATOM      2  C   UNL     1      24.381   2.523  29.095  1.00  0.00     0.066 A 
ATOM      3  C   UNL     1      24.336   3.881  29.441  1.00  0.00     0.162 A 
ATOM      4  C   UNL     1      25.459   4.696  29.225  1.00  0.00     0.200 A 
ATOM      5  C   UNL     1      26.620   4.149  28.664  1.00  0.00     0.162 A 
ATOM      6  C   UNL     1      26.661   2.791  28.320  1.00  0.00     0.066 A 
ENDROOT
BRANCH   1   7
ATOM      7  C   UNL     1      25.582   0.532  28.170  1.00  0.00     0.338 C 
ATOM      8  O   UNL     1      25.983  -0.323  29.008  1.00  0.00    -0.246 OA
BRANCH   7   9
ATOM      9  O   UNL     1      25.174   0.122  26.896  1.00  0.00    -0.465 OA
ATOM     10  C   UNL     1      26.086  -0.342  25.908  1.00  0.00     0.282 C 
ENDBRANCH   7   9
ENDBRANCH   1   7
BRANCH   3  11
ATOM     11  O   UNL     1      23.178   4.422  29.999  1.00  0.00    -0.504 OA
ATOM     12  H   UNL     1      23.092   5.416  30.183  1.00  0.00     0.293 HD
ENDBRANCH   3  11
BRANCH   5  13
ATOM     13  O   UNL     1      27.731   4.962  28.452  1.00  0.00    -0.504 OA
ATOM     14  H   UNL     1      28.675   4.609  28.554  1.00  0.00     0.293 HD
ENDBRANCH   5  13
BRANCH   4  15
ATOM     15  O   UNL     1      25.437   6.050  29.560  1.00  0.00    -0.502 OA
ATOM     16  H   UNL     1      25.812   6.396  30.435  1.00  0.00     0.293 HD
ENDBRANCH   4  15
TORSDOF 5
ENDMDL
MODEL 9
REMARK VINA RESULT:    -4.972     11.902     13.514
REMARK INTER + INTRA:          -6.063
REMARK INTER:                  -5.957
REMARK INTRA:                  -0.107
REMARK UNBOUND:                -0.074
REMARK SMILES COC(=O)c1cc(O)c(O)c(O)c1
REMARK SMILES IDX 5 1 13 2 11 3 9 4 7 5 6 6 3 7 4 8 2 9 1 10 12 11 8 13 10 15
REMARK H PARENT 12 12 8 14 10 16
REMARK Flexibility Score: inf
ROOT
ATOM      1  C   UNL     1      25.622   1.967  28.560  1.00  0.00     0.067 A 
ATOM      2  C   UNL     1      26.770   2.754  28.375  1.00  0.00     0.066 A 
ATOM      3  C   UNL     1      26.777   4.106  28.748  1.00  0.00     0.162 A 
ATOM      4  C   UNL     1      25.627   4.682  29.312  1.00  0.00     0.200 A 
ATOM      5  C   UNL     1      24.478   3.903  29.500  1.00  0.00     0.162 A 
ATOM      6  C   UNL     1      24.476   2.553  29.125  1.00  0.00     0.066 A 
ENDROOT
BRANCH   1   7
ATOM      7  C   UNL     1      25.623   0.541  28.164  1.00  0.00     0.338 C 
ATOM      8  O   UNL     1      25.967  -0.347  28.993  1.00  0.00    -0.246 OA
BRANCH   7   9
ATOM      9  O   UNL     1      25.242   0.175  26.867  1.00  0.00    -0.465 OA
ATOM     10  C   UNL     1      26.171  -0.287  25.894  1.00  0.00     0.282 C 
ENDBRANCH   7   9
ENDBRANCH   1   7
BRANCH   3  11
ATOM     11  O   UNL     1      27.923   4.878  28.560  1.00  0.00    -0.504 OA
ATOM     12  H   UNL     1      27.871   5.826  28.203  1.00  0.00     0.293 HD
ENDBRANCH   3  11
BRANCH   5  13
ATOM     13  O   UNL     1      23.339   4.479  30.059  1.00  0.00    -0.504 OA
ATOM     14  H   UNL     1      23.383   5.349  30.576  1.00  0.00     0.293 HD
ENDBRANCH   5  13
BRANCH   4  15
ATOM     15  O   UNL     1      25.610   6.024  29.691  1.00  0.00    -0.502 OA
ATOM     16  H   UNL     1      26.459   6.567  29.795  1.00  0.00     0.293 HD
ENDBRANCH   4  15
TORSDOF 5
ENDMDL
