MODEL 1
REMARK VINA RESULT:    -5.284      0.000      0.000
REMARK INTER + INTRA:          -5.682
REMARK INTER:                  -5.593
REMARK INTRA:                  -0.089
REMARK UNBOUND:                -0.089
REMARK SMILES C=C(C)[C@@H]1CC=C(C)C(=O)C1
REMARK SMILES IDX 8 1 7 2 6 3 5 4 4 5 11 6 9 7 10 8 2 9 1 10 3 11
REMARK H PARENT
REMARK Flexibility Score: inf
ROOT
ATOM      1  C   UNL     1     258.330 261.426 244.547  1.00  0.00     0.048 C 
ATOM      2  C   UNL     1     257.038 261.013 245.196  1.00  0.00    -0.012 C 
ATOM      3  C   UNL     1     256.014 260.589 244.437  1.00  0.00    -0.019 C 
ATOM      4  C   UNL     1     254.705 260.146 245.036  1.00  0.00     0.036 C 
ATOM      5  C   UNL     1     254.389 260.935 246.322  1.00  0.00     0.025 C 
ATOM      6  C   UNL     1     255.556 260.820 247.319  1.00  0.00     0.089 C 
ATOM      7  C   UNL     1     256.855 261.192 246.659  1.00  0.00     0.158 C 
ATOM      8  O   UNL     1     257.803 261.624 247.368  1.00  0.00    -0.295 OA
ENDROOT
BRANCH   5   9
ATOM      9  C   UNL     1     253.072 260.491 246.944  1.00  0.00    -0.077 C 
ATOM     10  C   UNL     1     252.084 261.369 247.191  1.00  0.00     0.008 C 
ATOM     11  C   UNL     1     252.854 259.043 247.298  1.00  0.00     0.039 C 
ENDBRANCH   5   9
TORSDOF 1
ENDMDL
MODEL 2
REMARK VINA RESULT:    -5.233      2.418      4.962
REMARK INTER + INTRA:          -5.628
REMARK INTER:                  -5.539
REMARK INTRA:                  -0.089
REMARK UNBOUND:                -0.089
REMARK SMILES C=C(C)[C@@H]1CC=C(C)C(=O)C1
REMARK SMILES IDX 8 1 7 2 6 3 5 4 4 5 11 6 9 7 10 8 2 9 1 10 3 11
REMARK H PARENT
REMARK Flexibility Score: inf
ROOT
ATOM      1  C   UNL     1     250.180 259.088 246.915  1.00  0.00     0.048 C 
ATOM      2  C   UNL     1     251.627 259.485 247.023  1.00  0.00    -0.012 C 
ATOM      3  C   UNL     1     251.954 260.774 247.215  1.00  0.00    -0.019 C 
ATOM      4  C   UNL     1     253.385 261.223 247.350  1.00  0.00     0.036 C 
ATOM      5  C   UNL     1     254.324 260.346 246.498  1.00  0.00     0.025 C 
ATOM      6  C   UNL     1     254.142 258.861 246.861  1.00  0.00     0.089 C 
ATOM      7  C   UNL     1     252.690 258.474 246.794  1.00  0.00     0.158 C 
ATOM      8  O   UNL     1     252.384 257.270 246.578  1.00  0.00    -0.295 OA
ENDROOT
BRANCH   5   9
ATOM      9  C   UNL     1     255.776 260.784 246.632  1.00  0.00    -0.077 C 
ATOM     10  C   UNL     1     256.475 261.223 245.571  1.00  0.00     0.008 C 
ATOM     11  C   UNL     1     256.461 260.729 247.973  1.00  0.00     0.039 C 
ENDBRANCH   5   9
TORSDOF 1
ENDMDL
MODEL 3
REMARK VINA RESULT:    -5.210      1.400      2.376
REMARK INTER + INTRA:          -5.604
REMARK INTER:                  -5.507
REMARK INTRA:                  -0.096
REMARK UNBOUND:                -0.089
REMARK SMILES C=C(C)[C@@H]1CC=C(C)C(=O)C1
REMARK SMILES IDX 8 1 7 2 6 3 5 4 4 5 11 6 9 7 10 8 2 9 1 10 3 11
REMARK H PARENT
REMARK Flexibility Score: inf
ROOT
ATOM      1  C   UNL     1     260.423 262.264 246.530  1.00  0.00     0.048 C 
ATOM      2  C   UNL     1     259.044 261.685 246.368  1.00  0.00    -0.012 C 
ATOM      3  C   UNL     1     258.497 261.593 245.145  1.00  0.00    -0.019 C 
ATOM      4  C   UNL     1     257.129 261.004 244.924  1.00  0.00     0.036 C 
ATOM      5  C   UNL     1     256.203 261.289 246.122  1.00  0.00     0.025 C 
ATOM      6  C   UNL     1     256.850 260.788 247.427  1.00  0.00     0.089 C 
ATOM      7  C   UNL     1     258.245 261.333 247.569  1.00  0.00     0.158 C 
ATOM      8  O   UNL     1     258.744 261.452 248.720  1.00  0.00    -0.295 OA
ENDROOT
BRANCH   5   9
ATOM      9  C   UNL     1     254.817 260.691 245.917  1.00  0.00    -0.077 C 
ATOM     10  C   UNL     1     254.536 259.930 244.845  1.00  0.00     0.008 C 
ATOM     11  C   UNL     1     253.727 260.946 246.925  1.00  0.00     0.039 C 
ENDBRANCH   5   9
TORSDOF 1
ENDMDL
MODEL 4
REMARK VINA RESULT:    -5.157      2.653      5.195
REMARK INTER + INTRA:          -5.547
REMARK INTER:                  -5.459
REMARK INTRA:                  -0.088
REMARK UNBOUND:                -0.089
REMARK SMILES C=C(C)[C@@H]1CC=C(C)C(=O)C1
REMARK SMILES IDX 8 1 7 2 6 3 5 4 4 5 11 6 9 7 10 8 2 9 1 10 3 11
REMARK H PARENT
REMARK Flexibility Score: inf
ROOT
ATOM      1  C   UNL     1     249.596 259.040 247.188  1.00  0.00     0.048 C 
ATOM      2  C   UNL     1     251.042 259.444 247.102  1.00  0.00    -0.012 C 
ATOM      3  C   UNL     1     252.004 258.510 247.200  1.00  0.00    -0.019 C 
ATOM      4  C   UNL     1     253.466 258.856 247.101  1.00  0.00     0.036 C 
ATOM      5  C   UNL     1     253.744 260.259 247.675  1.00  0.00     0.025 C 
ATOM      6  C   UNL     1     252.849 261.305 246.985  1.00  0.00     0.089 C 
ATOM      7  C   UNL     1     251.406 260.881 247.033  1.00  0.00     0.158 C 
ATOM      8  O   UNL     1     250.506 261.762 246.977  1.00  0.00    -0.295 OA
ENDROOT
BRANCH   5   9
ATOM      9  C   UNL     1     255.218 260.626 247.573  1.00  0.00    -0.077 C 
ATOM     10  C   UNL     1     256.003 260.676 248.663  1.00  0.00     0.008 C 
ATOM     11  C   UNL     1     255.827 260.944 246.232  1.00  0.00     0.039 C 
ENDBRANCH   5   9
TORSDOF 1
ENDMDL
MODEL 5
REMARK VINA RESULT:    -5.137      1.362      2.130
REMARK INTER + INTRA:          -5.527
REMARK INTER:                  -5.434
REMARK INTRA:                  -0.093
REMARK UNBOUND:                -0.089
REMARK SMILES C=C(C)[C@@H]1CC=C(C)C(=O)C1
REMARK SMILES IDX 8 1 7 2 6 3 5 4 4 5 11 6 9 7 10 8 2 9 1 10 3 11
REMARK H PARENT
REMARK Flexibility Score: inf
ROOT
ATOM      1  C   UNL     1     259.132 261.335 247.046  1.00  0.00     0.048 C 
ATOM      2  C   UNL     1     257.634 261.205 247.030  1.00  0.00    -0.012 C 
ATOM      3  C   UNL     1     256.973 260.947 248.171  1.00  0.00    -0.019 C 
ATOM      4  C   UNL     1     255.473 260.825 248.216  1.00  0.00     0.036 C 
ATOM      5  C   UNL     1     254.925 260.237 246.901  1.00  0.00     0.025 C 
ATOM      6  C   UNL     1     255.408 261.071 245.701  1.00  0.00     0.089 C 
ATOM      7  C   UNL     1     256.902 261.238 245.739  1.00  0.00     0.158 C 
ATOM      8  O   UNL     1     257.524 261.445 244.662  1.00  0.00    -0.295 OA
ENDROOT
BRANCH   5   9
ATOM      9  C   UNL     1     253.407 260.116 246.929  1.00  0.00    -0.077 C 
ATOM     10  C   UNL     1     252.625 261.189 247.138  1.00  0.00     0.008 C 
ATOM     11  C   UNL     1     252.751 258.776 246.719  1.00  0.00     0.039 C 
ENDBRANCH   5   9
TORSDOF 1
ENDMDL
MODEL 6
REMARK VINA RESULT:    -5.100      4.127      5.532
REMARK INTER + INTRA:          -5.487
REMARK INTER:                  -5.391
REMARK INTRA:                  -0.096
REMARK UNBOUND:                -0.089
REMARK SMILES C=C(C)[C@@H]1CC=C(C)C(=O)C1
REMARK SMILES IDX 8 1 7 2 6 3 5 4 4 5 11 6 9 7 10 8 2 9 1 10 3 11
REMARK H PARENT
REMARK Flexibility Score: inf
ROOT
ATOM      1  C   UNL     1     250.000 262.636 246.571  1.00  0.00     0.048 C 
ATOM      2  C   UNL     1     250.858 261.437 246.867  1.00  0.00    -0.012 C 
ATOM      3  C   UNL     1     252.184 261.587 247.029  1.00  0.00    -0.019 C 
ATOM      4  C   UNL     1     253.087 260.424 247.346  1.00  0.00     0.036 C 
ATOM      5  C   UNL     1     252.568 259.127 246.694  1.00  0.00     0.025 C 
ATOM      6  C   UNL     1     251.110 258.865 247.113  1.00  0.00     0.089 C 
ATOM      7  C   UNL     1     250.260 260.078 246.857  1.00  0.00     0.158 C 
ATOM      8  O   UNL     1     249.022 259.932 246.670  1.00  0.00    -0.295 OA
ENDROOT
BRANCH   5   9
ATOM      9  C   UNL     1     253.467 257.940 247.014  1.00  0.00    -0.077 C 
ATOM     10  C   UNL     1     253.233 256.725 246.488  1.00  0.00     0.008 C 
ATOM     11  C   UNL     1     254.647 258.111 247.935  1.00  0.00     0.039 C 
ENDBRANCH   5   9
TORSDOF 1
ENDMDL
MODEL 7
REMARK VINA RESULT:    -5.055      2.364      3.314
REMARK INTER + INTRA:          -5.439
REMARK INTER:                  -5.345
REMARK INTRA:                  -0.095
REMARK UNBOUND:                -0.089
REMARK SMILES C=C(C)[C@@H]1CC=C(C)C(=O)C1
REMARK SMILES IDX 8 1 7 2 6 3 5 4 4 5 11 6 9 7 10 8 2 9 1 10 3 11
REMARK H PARENT
REMARK Flexibility Score: inf
ROOT
ATOM      1  C   UNL     1     257.459 261.257 244.697  1.00  0.00     0.048 C 
ATOM      2  C   UNL     1     256.936 261.195 246.105  1.00  0.00    -0.012 C 
ATOM      3  C   UNL     1     257.772 261.393 247.138  1.00  0.00    -0.019 C 
ATOM      4  C   UNL     1     257.298 261.361 248.567  1.00  0.00     0.036 C 
ATOM      5  C   UNL     1     256.137 260.363 248.744  1.00  0.00     0.025 C 
ATOM      6  C   UNL     1     254.999 260.689 247.759  1.00  0.00     0.089 C 
ATOM      7  C   UNL     1     255.528 260.794 246.355  1.00  0.00     0.158 C 
ATOM      8  O   UNL     1     254.751 260.572 245.387  1.00  0.00    -0.295 OA
ENDROOT
BRANCH   5   9
ATOM      9  C   UNL     1     255.641 260.327 250.183  1.00  0.00    -0.077 C 
ATOM     10  C   UNL     1     255.695 261.416 250.969  1.00  0.00     0.008 C 
ATOM     11  C   UNL     1     255.075 259.053 250.755  1.00  0.00     0.039 C 
ENDBRANCH   5   9
TORSDOF 1
ENDMDL
MODEL 8
REMARK VINA RESULT:    -5.046      4.041      5.120
REMARK INTER + INTRA:          -5.430
REMARK INTER:                  -5.335
REMARK INTRA:                  -0.095
REMARK UNBOUND:                -0.089
REMARK SMILES C=C(C)[C@@H]1CC=C(C)C(=O)C1
REMARK SMILES IDX 8 1 7 2 6 3 5 4 4 5 11 6 9 7 10 8 2 9 1 10 3 11
REMARK H PARENT
REMARK Flexibility Score: inf
ROOT
ATOM      1  C   UNL     1     258.656 260.956 247.776  1.00  0.00     0.048 C 
ATOM      2  C   UNL     1     257.730 261.367 248.888  1.00  0.00    -0.012 C 
ATOM      3  C   UNL     1     258.180 262.162 249.873  1.00  0.00    -0.019 C 
ATOM      4  C   UNL     1     257.291 262.619 251.000  1.00  0.00     0.036 C 
ATOM      5  C   UNL     1     256.237 261.548 251.343  1.00  0.00     0.025 C 
ATOM      6  C   UNL     1     255.435 261.165 250.086  1.00  0.00     0.089 C 
ATOM      7  C   UNL     1     256.362 260.795 248.960  1.00  0.00     0.158 C 
ATOM      8  O   UNL     1     255.950 260.020 248.055  1.00  0.00    -0.295 OA
ENDROOT
BRANCH   5   9
ATOM      9  C   UNL     1     255.324 262.000 252.475  1.00  0.00    -0.077 C 
ATOM     10  C   UNL     1     254.075 262.434 252.235  1.00  0.00     0.008 C 
ATOM     11  C   UNL     1     255.814 261.967 253.900  1.00  0.00     0.039 C 
ENDBRANCH   5   9
TORSDOF 1
ENDMDL
MODEL 9
REMARK VINA RESULT:    -5.022      1.733      2.227
REMARK INTER + INTRA:          -5.405
REMARK INTER:                  -5.317
REMARK INTRA:                  -0.088
REMARK UNBOUND:                -0.089
REMARK SMILES C=C(C)[C@@H]1CC=C(C)C(=O)C1
REMARK SMILES IDX 8 1 7 2 6 3 5 4 4 5 11 6 9 7 10 8 2 9 1 10 3 11
REMARK H PARENT
REMARK Flexibility Score: inf
ROOT
ATOM      1  C   UNL     1     258.322 261.127 248.259  1.00  0.00     0.048 C 
ATOM      2  C   UNL     1     256.873 260.852 247.965  1.00  0.00    -0.012 C 
ATOM      3  C   UNL     1     256.413 260.964 246.707  1.00  0.00    -0.019 C 
ATOM      4  C   UNL     1     254.977 260.681 246.354  1.00  0.00     0.036 C 
ATOM      5  C   UNL     1     254.037 261.055 247.517  1.00  0.00     0.025 C 
ATOM      6  C   UNL     1     254.472 260.338 248.808  1.00  0.00     0.089 C 
ATOM      7  C   UNL     1     255.932 260.578 249.080  1.00  0.00     0.158 C 
ATOM      8  O   UNL     1     256.355 260.508 250.265  1.00  0.00    -0.295 OA
ENDROOT
BRANCH   5   9
ATOM      9  C   UNL     1     252.580 260.766 247.177  1.00  0.00    -0.077 C 
ATOM     10  C   UNL     1     251.689 261.760 247.018  1.00  0.00     0.008 C 
ATOM     11  C   UNL     1     252.111 259.344 247.013  1.00  0.00     0.039 C 
ENDBRANCH   5   9
TORSDOF 1
ENDMDL
