MODEL 1
REMARK VINA RESULT:     1.871      0.000      0.000
REMARK INTER + INTRA:           2.008
REMARK INTER:                   2.144
REMARK INTRA:                  -0.136
REMARK UNBOUND:                -0.136
REMARK SMILES O=C([O-])C=Cc1ccc(O)cc1
REMARK SMILES IDX 6 1 7 2 12 3 8 4 11 5 9 6 5 7 4 8 2 9 1 10 3 11 10 12
REMARK H PARENT 10 13
REMARK Flexibility Score: inf
ROOT
ATOM      1  C   UNL     1      -8.674  -7.157  22.139  1.00  0.00    -0.025 A 
ATOM      2  C   UNL     1      -8.345  -8.493  21.846  1.00  0.00     0.012 A 
ATOM      3  C   UNL     1      -9.077  -6.830  23.450  1.00  0.00     0.012 A 
ATOM      4  C   UNL     1      -8.392  -9.472  22.842  1.00  0.00     0.047 A 
ATOM      5  C   UNL     1      -9.124  -7.813  24.443  1.00  0.00     0.047 A 
ATOM      6  C   UNL     1      -8.778  -9.137  24.142  1.00  0.00     0.115 A 
ENDROOT
BRANCH   1   7
ATOM      7  C   UNL     1      -8.620  -6.156  21.045  1.00  0.00     0.010 C 
ATOM      8  C   UNL     1      -7.489  -5.568  20.631  1.00  0.00     0.025 C 
BRANCH   8   9
ATOM      9  C   UNL     1      -7.480  -4.587  19.534  1.00  0.00     0.064 C 
ATOM     10  O   UNL     1      -8.170  -4.801  18.503  1.00  0.00    -0.545 OA
ATOM     11  O   UNL     1      -6.719  -3.426  19.616  1.00  0.00    -0.545 OA
ENDBRANCH   8   9
ENDBRANCH   1   7
BRANCH   6  12
ATOM     12  O   UNL     1      -8.819 -10.123  25.125  1.00  0.00    -0.508 OA
ATOM     13  H   UNL     1      -8.557 -11.082  24.926  1.00  0.00     0.293 HD
ENDBRANCH   6  12
TORSDOF 3
ENDMDL
MODEL 2
REMARK VINA RESULT:     2.092      0.086      1.400
REMARK INTER + INTRA:           2.262
REMARK INTER:                   2.397
REMARK INTRA:                  -0.136
REMARK UNBOUND:                -0.136
REMARK SMILES O=C([O-])C=Cc1ccc(O)cc1
REMARK SMILES IDX 6 1 7 2 12 3 8 4 11 5 9 6 5 7 4 8 2 9 1 10 3 11 10 12
REMARK H PARENT 10 13
REMARK Flexibility Score: inf
ROOT
ATOM      1  C   UNL     1      -8.702  -7.221  22.075  1.00  0.00    -0.025 A 
ATOM      2  C   UNL     1      -9.069  -6.869  23.386  1.00  0.00     0.012 A 
ATOM      3  C   UNL     1      -8.366  -8.563  21.802  1.00  0.00     0.012 A 
ATOM      4  C   UNL     1      -9.124  -7.836  24.393  1.00  0.00     0.047 A 
ATOM      5  C   UNL     1      -8.421  -9.527  22.813  1.00  0.00     0.047 A 
ATOM      6  C   UNL     1      -8.803  -9.166  24.112  1.00  0.00     0.115 A 
ENDROOT
BRANCH   1   7
ATOM      7  C   UNL     1      -8.648  -6.157  21.043  1.00  0.00     0.010 C 
ATOM      8  C   UNL     1      -7.508  -5.673  20.531  1.00  0.00     0.025 C 
BRANCH   8   9
ATOM      9  C   UNL     1      -7.502  -4.624  19.500  1.00  0.00     0.064 C 
ATOM     10  O   UNL     1      -8.116  -4.812  18.418  1.00  0.00    -0.545 OA
ATOM     11  O   UNL     1      -6.825  -3.425  19.701  1.00  0.00    -0.545 OA
ENDBRANCH   8   9
ENDBRANCH   1   7
BRANCH   6  12
ATOM     12  O   UNL     1      -8.863 -10.119  25.125  1.00  0.00    -0.508 OA
ATOM     13  H   UNL     1      -8.049 -10.658  25.396  1.00  0.00     0.293 HD
ENDBRANCH   6  12
TORSDOF 3
ENDMDL
MODEL 3
REMARK VINA RESULT:     3.543      1.131      5.897
REMARK INTER + INTRA:           3.924
REMARK INTER:                   4.063
REMARK INTRA:                  -0.139
REMARK UNBOUND:                -0.136
REMARK SMILES O=C([O-])C=Cc1ccc(O)cc1
REMARK SMILES IDX 6 1 7 2 12 3 8 4 11 5 9 6 5 7 4 8 2 9 1 10 3 11 10 12
REMARK H PARENT 10 13
REMARK Flexibility Score: inf
ROOT
ATOM      1  C   UNL     1      -8.309  -6.192  21.228  1.00  0.00    -0.025 A 
ATOM      2  C   UNL     1      -7.497  -5.115  21.624  1.00  0.00     0.012 A 
ATOM      3  C   UNL     1      -8.646  -6.321  19.865  1.00  0.00     0.012 A 
ATOM      4  C   UNL     1      -7.013  -4.204  20.682  1.00  0.00     0.047 A 
ATOM      5  C   UNL     1      -8.161  -5.407  18.925  1.00  0.00     0.047 A 
ATOM      6  C   UNL     1      -7.339  -4.347  19.331  1.00  0.00     0.115 A 
ENDROOT
BRANCH   1   7
ATOM      7  C   UNL     1      -8.807  -7.126  22.267  1.00  0.00     0.010 C 
ATOM      8  C   UNL     1      -8.007  -7.837  23.074  1.00  0.00     0.025 C 
BRANCH   8   9
ATOM      9  C   UNL     1      -8.546  -8.745  24.100  1.00  0.00     0.064 C 
ATOM     10  O   UNL     1      -9.121  -8.267  25.112  1.00  0.00    -0.545 OA
ATOM     11  O   UNL     1      -8.428 -10.125  23.969  1.00  0.00    -0.545 OA
ENDBRANCH   8   9
ENDBRANCH   1   7
BRANCH   6  12
ATOM     12  O   UNL     1      -6.849  -3.433  18.402  1.00  0.00    -0.508 OA
ATOM     13  H   UNL     1      -5.898  -3.487  18.054  1.00  0.00     0.293 HD
ENDBRANCH   6  12
TORSDOF 3
ENDMDL
MODEL 4
REMARK VINA RESULT:     3.697      1.130      5.789
REMARK INTER + INTRA:           4.101
REMARK INTER:                   4.238
REMARK INTRA:                  -0.136
REMARK UNBOUND:                -0.136
REMARK SMILES O=C([O-])C=Cc1ccc(O)cc1
REMARK SMILES IDX 6 1 7 2 12 3 8 4 11 5 9 6 5 7 4 8 2 9 1 10 3 11 10 12
REMARK H PARENT 10 13
REMARK Flexibility Score: inf
ROOT
ATOM      1  C   UNL     1      -8.428  -6.209  21.194  1.00  0.00    -0.025 A 
ATOM      2  C   UNL     1      -8.968  -6.444  19.917  1.00  0.00     0.012 A 
ATOM      3  C   UNL     1      -7.424  -5.228  21.336  1.00  0.00     0.012 A 
ATOM      4  C   UNL     1      -8.537  -5.702  18.815  1.00  0.00     0.047 A 
ATOM      5  C   UNL     1      -6.995  -4.489  20.230  1.00  0.00     0.047 A 
ATOM      6  C   UNL     1      -7.553  -4.722  18.966  1.00  0.00     0.115 A 
ENDROOT
BRANCH   1   7
ATOM      7  C   UNL     1      -8.910  -7.030  22.331  1.00  0.00     0.010 C 
ATOM      8  C   UNL     1      -8.154  -7.932  22.972  1.00  0.00     0.025 C 
BRANCH   8   9
ATOM      9  C   UNL     1      -8.672  -8.718  24.104  1.00  0.00     0.064 C 
ATOM     10  O   UNL     1      -9.123  -8.124  25.117  1.00  0.00    -0.545 OA
ATOM     11  O   UNL     1      -8.669 -10.109  24.072  1.00  0.00    -0.545 OA
ENDBRANCH   8   9
ENDBRANCH   1   7
BRANCH   6  12
ATOM     12  O   UNL     1      -7.134  -3.989  17.858  1.00  0.00    -0.508 OA
ATOM     13  H   UNL     1      -7.696  -3.238  17.475  1.00  0.00     0.293 HD
ENDBRANCH   6  12
TORSDOF 3
ENDMDL
