MODEL 1
REMARK VINA RESULT:    -4.393      0.000      0.000
REMARK INTER + INTRA:          -9.998
REMARK INTER:                  -7.474
REMARK INTRA:                  -2.524
REMARK UNBOUND:                -2.524
REMARK SMILES OC[C@@H]1O[C@H](Oc2cc3c(O[C@H]4O[C@H](CO)[C@H](O)[C@H](O)[C@H]4O)cc(O)cc3[o+]c2-c2ccc(O)cc2)[C@@H](O)[C@@H](O)[C@H]1O.[Cl-]
REMARK SMILES IDX 29 1 7 2 8 3 9 4 10 5 23 6 24 7 26 8 27 9 28 10 30 11 31 12
REMARK SMILES IDX 32 13 33 14 36 15 35 16 34 17 6 19 5 20 37 21 4 22 39 23
REMARK SMILES IDX 3 24 41 25 38 26 40 28 2 30 1 31 42 33 11 35 12 36 21 37
REMARK SMILES IDX 13 38 19 39 14 40 17 41 22 42 20 44 15 46 16 47 18 49 25 51
REMARK H PARENT 34 18 38 27 40 29 1 32 42 34 22 43 20 45 16 48 18 50 25 52
REMARK Flexibility Score: inf
ROOT
ATOM      1  C   UNL     1      -5.070   5.293  15.215  1.00  0.00     0.402 A 
ATOM      2  C   UNL     1      -4.053   6.284  15.037  1.00  0.00     0.229 A 
ATOM      3  C   UNL     1      -3.035   6.323  16.006  1.00  0.00     0.079 A 
ATOM      4  C   UNL     1      -2.750   5.148  16.723  1.00  0.00     0.126 A 
ATOM      5  C   UNL     1      -1.509   4.979  17.372  1.00  0.00     0.143 A 
ATOM      6  C   UNL     1      -0.828   3.775  17.085  1.00  0.00     0.094 A 
ATOM      7  C   UNL     1      -1.615   2.635  16.791  1.00  0.00     0.128 A 
ATOM      8  C   UNL     1      -3.023   2.743  16.630  1.00  0.00     0.162 A 
ATOM      9  C   UNL     1      -3.543   4.016  16.433  1.00  0.00     0.368 A 
ATOM     10  O   UNL     1      -4.724   4.179  15.846  1.00  0.00    -0.202 OA
ENDROOT
BRANCH   1  11
ATOM     11  C   UNL     1      -6.439   5.383  14.603  1.00  0.00     0.084 A 
ATOM     12  C   UNL     1      -7.510   5.989  15.308  1.00  0.00     0.022 A 
ATOM     13  C   UNL     1      -8.724   6.271  14.639  1.00  0.00     0.047 A 
ATOM     14  C   UNL     1      -8.923   5.739  13.371  1.00  0.00     0.115 A 
ATOM     15  C   UNL     1      -6.702   4.837  13.351  1.00  0.00     0.022 A 
ATOM     16  C   UNL     1      -7.950   4.976  12.750  1.00  0.00     0.047 A 
BRANCH  14  17
ATOM     17  O   UNL     1     -10.124   6.015  12.711  1.00  0.00    -0.508 OA
ATOM     18  H   UNL     1     -10.488   6.954  12.701  1.00  0.00     0.293 HD
ENDBRANCH  14  17
ENDBRANCH   1  11
BRANCH   2  19
ATOM     19  O   UNL     1      -3.964   6.997  13.808  1.00  0.00    -0.452 OA
BRANCH  19  20
ATOM     20  C   UNL     1      -4.027   8.425  13.619  1.00  0.00     0.339 C 
ATOM     21  C   UNL     1      -5.341   8.932  14.244  1.00  0.00     0.214 C 
ATOM     22  O   UNL     1      -3.758   8.766  12.244  1.00  0.00    -0.332 OA
ATOM     23  C   UNL     1      -6.484   8.991  13.213  1.00  0.00     0.180 C 
ATOM     24  C   UNL     1      -4.859   8.639  11.347  1.00  0.00     0.179 C 
ATOM     25  C   UNL     1      -6.036   9.521  11.823  1.00  0.00     0.177 C 
BRANCH  21  26
ATOM     26  O   UNL     1      -5.180  10.193  14.862  1.00  0.00    -0.384 OA
ATOM     27  H   UNL     1      -5.666  10.226  15.753  1.00  0.00     0.211 HD
ENDBRANCH  21  26
BRANCH  23  28
ATOM     28  O   UNL     1      -7.562   9.718  13.723  1.00  0.00    -0.387 OA
ATOM     29  H   UNL     1      -8.391   9.595  13.242  1.00  0.00     0.211 HD
ENDBRANCH  23  28
BRANCH  24  30
ATOM     30  C   UNL     1      -5.213   7.207  10.972  1.00  0.00     0.191 C 
BRANCH  30  31
ATOM     31  O   UNL     1      -4.050   6.444  10.876  1.00  0.00    -0.394 OA
ATOM     32  H   UNL     1      -4.199   5.831  10.105  1.00  0.00     0.210 HD
ENDBRANCH  30  31
ENDBRANCH  24  30
BRANCH  25  33
ATOM     33  O   UNL     1      -5.569  10.862  11.844  1.00  0.00    -0.387 OA
ATOM     34  H   UNL     1      -4.745  10.984  11.347  1.00  0.00     0.211 HD
ENDBRANCH  25  33
ENDBRANCH  19  20
ENDBRANCH   2  19
BRANCH   5  35
ATOM     35  O   UNL     1      -0.972   5.988  18.186  1.00  0.00    -0.461 OA
BRANCH  35  36
ATOM     36  C   UNL     1       0.320   5.982  18.924  1.00  0.00     0.339 C 
ATOM     37  C   UNL     1       0.384   6.735  20.293  1.00  0.00     0.214 C 
ATOM     38  O   UNL     1       1.349   6.468  18.068  1.00  0.00    -0.332 OA
ATOM     39  C   UNL     1       0.951   8.195  20.140  1.00  0.00     0.180 C 
ATOM     40  C   UNL     1       1.005   7.769  17.580  1.00  0.00     0.179 C 
ATOM     41  C   UNL     1       0.706   8.797  18.712  1.00  0.00     0.177 C 
BRANCH  37  42
ATOM     42  O   UNL     1      -0.868   6.717  20.959  1.00  0.00    -0.384 OA
ATOM     43  H   UNL     1      -0.862   6.019  21.676  1.00  0.00     0.211 HD
ENDBRANCH  37  42
BRANCH  39  44
ATOM     44  O   UNL     1       2.341   8.217  20.355  1.00  0.00    -0.387 OA
ATOM     45  H   UNL     1       2.771   7.920  19.533  1.00  0.00     0.211 HD
ENDBRANCH  39  44
BRANCH  40  46
ATOM     46  C   UNL     1       2.143   8.165  16.610  1.00  0.00     0.191 C 
BRANCH  46  47
ATOM     47  O   UNL     1       1.852   9.389  15.937  1.00  0.00    -0.394 OA
ATOM     48  H   UNL     1       2.110   9.232  14.996  1.00  0.00     0.210 HD
ENDBRANCH  46  47
ENDBRANCH  40  46
BRANCH  41  49
ATOM     49  O   UNL     1       1.545   9.971  18.577  1.00  0.00    -0.387 OA
ATOM     50  H   UNL     1       2.477   9.604  18.517  1.00  0.00     0.211 HD
ENDBRANCH  41  49
ENDBRANCH  35  36
ENDBRANCH   5  35
BRANCH   7  51
ATOM     51  O   UNL     1      -0.991   1.423  16.593  1.00  0.00    -0.507 OA
ATOM     52  H   UNL     1      -0.384   1.042  17.321  1.00  0.00     0.293 HD
ENDBRANCH   7  51
TORSDOF 17
ENDMDL
MODEL 2
REMARK VINA RESULT:    -4.247     12.069     15.836
REMARK INTER + INTRA:          -9.750
REMARK INTER:                  -7.829
REMARK INTRA:                  -1.921
REMARK UNBOUND:                -2.524
REMARK SMILES OC[C@@H]1O[C@H](Oc2cc3c(O[C@H]4O[C@H](CO)[C@H](O)[C@H](O)[C@H]4O)cc(O)cc3[o+]c2-c2ccc(O)cc2)[C@@H](O)[C@@H](O)[C@H]1O.[Cl-]
REMARK SMILES IDX 29 1 7 2 8 3 9 4 10 5 23 6 24 7 26 8 27 9 28 10 30 11 31 12
REMARK SMILES IDX 32 13 33 14 36 15 35 16 34 17 6 19 5 20 37 21 4 22 39 23
REMARK SMILES IDX 3 24 41 25 38 26 40 28 2 30 1 31 42 33 11 35 12 36 21 37
REMARK SMILES IDX 13 38 19 39 14 40 17 41 22 42 20 44 15 46 16 47 18 49 25 51
REMARK H PARENT 34 18 38 27 40 29 1 32 42 34 22 43 20 45 16 48 18 50 25 52
REMARK Flexibility Score: inf
ROOT
ATOM      1  C   UNL     1      -8.185  -4.260  22.297  1.00  0.00     0.402 A 
ATOM      2  C   UNL     1      -6.867  -4.778  22.089  1.00  0.00     0.229 A 
ATOM      3  C   UNL     1      -6.253  -5.397  23.192  1.00  0.00     0.079 A 
ATOM      4  C   UNL     1      -7.073  -5.951  24.190  1.00  0.00     0.126 A 
ATOM      5  C   UNL     1      -6.577  -6.933  25.072  1.00  0.00     0.143 A 
ATOM      6  C   UNL     1      -7.360  -8.103  25.186  1.00  0.00     0.094 A 
ATOM      7  C   UNL     1      -8.759  -7.971  25.015  1.00  0.00     0.128 A 
ATOM      8  C   UNL     1      -9.328  -6.741  24.585  1.00  0.00     0.162 A 
ATOM      9  C   UNL     1      -8.468  -5.808  24.021  1.00  0.00     0.368 A 
ATOM     10  O   UNL     1      -8.935  -4.863  23.210  1.00  0.00    -0.202 OA
ENDROOT
BRANCH   1  11
ATOM     11  C   UNL     1      -8.804  -3.189  21.445  1.00  0.00     0.084 A 
ATOM     12  C   UNL     1      -8.982  -1.875  21.946  1.00  0.00     0.022 A 
ATOM     13  C   UNL     1      -9.350  -0.829  21.069  1.00  0.00     0.047 A 
ATOM     14  C   UNL     1      -9.757  -1.155  19.780  1.00  0.00     0.115 A 
ATOM     15  C   UNL     1      -9.260  -3.469  20.160  1.00  0.00     0.022 A 
ATOM     16  C   UNL     1      -9.774  -2.467  19.341  1.00  0.00     0.047 A 
BRANCH  14  17
ATOM     17  O   UNL     1     -10.125  -0.122  18.913  1.00  0.00    -0.508 OA
ATOM     18  H   UNL     1      -9.523   0.128  18.145  1.00  0.00     0.293 HD
ENDBRANCH  14  17
ENDBRANCH   1  11
BRANCH   2  19
ATOM     19  O   UNL     1      -6.343  -4.876  20.769  1.00  0.00    -0.452 OA
BRANCH  19  20
ATOM     20  C   UNL     1      -6.646  -5.881  19.781  1.00  0.00     0.339 C 
ATOM     21  C   UNL     1      -7.660  -6.865  20.394  1.00  0.00     0.214 C 
ATOM     22  O   UNL     1      -5.433  -6.423  19.221  1.00  0.00    -0.332 OA
ATOM     23  C   UNL     1      -6.965  -8.072  21.053  1.00  0.00     0.180 C 
ATOM     24  C   UNL     1      -4.791  -7.435  19.995  1.00  0.00     0.179 C 
ATOM     25  C   UNL     1      -5.762  -8.615  20.234  1.00  0.00     0.177 C 
BRANCH  21  26
ATOM     26  O   UNL     1      -8.607  -7.310  19.444  1.00  0.00    -0.384 OA
ATOM     27  H   UNL     1      -9.170  -8.067  19.819  1.00  0.00     0.211 HD
ENDBRANCH  21  26
BRANCH  23  28
ATOM     28  O   UNL     1      -7.895  -9.075  21.336  1.00  0.00    -0.387 OA
ATOM     29  H   UNL     1      -7.532  -9.839  21.801  1.00  0.00     0.211 HD
ENDBRANCH  23  28
BRANCH  24  30
ATOM     30  C   UNL     1      -4.054  -6.925  21.225  1.00  0.00     0.191 C 
BRANCH  30  31
ATOM     31  O   UNL     1      -3.483  -5.684  20.951  1.00  0.00    -0.394 OA
ATOM     32  H   UNL     1      -3.382  -5.237  21.835  1.00  0.00     0.210 HD
ENDBRANCH  30  31
ENDBRANCH  24  30
BRANCH  25  33
ATOM     33  O   UNL     1      -6.120  -9.124  18.957  1.00  0.00    -0.387 OA
ATOM     34  H   UNL     1      -6.040  -8.464  18.251  1.00  0.00     0.211 HD
ENDBRANCH  25  33
ENDBRANCH  19  20
ENDBRANCH   2  19
BRANCH   5  35
ATOM     35  O   UNL     1      -5.347  -6.768  25.726  1.00  0.00    -0.461 OA
BRANCH  35  36
ATOM     36  C   UNL     1      -3.991  -6.675  25.120  1.00  0.00     0.339 C 
ATOM     37  C   UNL     1      -3.360  -7.980  24.533  1.00  0.00     0.214 C 
ATOM     38  O   UNL     1      -3.095  -6.099  26.066  1.00  0.00    -0.332 OA
ATOM     39  C   UNL     1      -2.401  -8.688  25.562  1.00  0.00     0.180 C 
ATOM     40  C   UNL     1      -3.102  -6.867  27.275  1.00  0.00     0.179 C 
ATOM     41  C   UNL     1      -2.770  -8.374  27.054  1.00  0.00     0.177 C 
BRANCH  37  42
ATOM     42  O   UNL     1      -4.352  -8.862  24.036  1.00  0.00    -0.384 OA
ATOM     43  H   UNL     1      -4.034  -9.291  23.189  1.00  0.00     0.211 HD
ENDBRANCH  37  42
BRANCH  39  44
ATOM     44  O   UNL     1      -1.072  -8.269  25.377  1.00  0.00    -0.387 OA
ATOM     45  H   UNL     1      -1.044  -7.304  25.515  1.00  0.00     0.211 HD
ENDBRANCH  39  44
BRANCH  40  46
ATOM     46  C   UNL     1      -2.163  -6.118  28.250  1.00  0.00     0.191 C 
BRANCH  46  47
ATOM     47  O   UNL     1      -0.834  -6.040  27.737  1.00  0.00    -0.394 OA
ATOM     48  H   UNL     1      -0.872  -6.490  26.857  1.00  0.00     0.210 HD
ENDBRANCH  46  47
ENDBRANCH  40  46
BRANCH  41  49
ATOM     49  O   UNL     1      -1.651  -8.781  27.881  1.00  0.00    -0.387 OA
ATOM     50  H   UNL     1      -1.783  -9.768  28.008  1.00  0.00     0.211 HD
ENDBRANCH  41  49
ENDBRANCH  35  36
ENDBRANCH   5  35
BRANCH   7  51
ATOM     51  O   UNL     1      -9.565  -9.071  25.205  1.00  0.00    -0.507 OA
ATOM     52  H   UNL     1     -10.153  -9.406  24.438  1.00  0.00     0.293 HD
ENDBRANCH   7  51
TORSDOF 17
ENDMDL
MODEL 3
REMARK VINA RESULT:    -4.026      4.087      7.858
REMARK INTER + INTRA:          -9.374
REMARK INTER:                  -7.134
REMARK INTRA:                  -2.240
REMARK UNBOUND:                -2.524
REMARK SMILES OC[C@@H]1O[C@H](Oc2cc3c(O[C@H]4O[C@H](CO)[C@H](O)[C@H](O)[C@H]4O)cc(O)cc3[o+]c2-c2ccc(O)cc2)[C@@H](O)[C@@H](O)[C@H]1O.[Cl-]
REMARK SMILES IDX 29 1 7 2 8 3 9 4 10 5 23 6 24 7 26 8 27 9 28 10 30 11 31 12
REMARK SMILES IDX 32 13 33 14 36 15 35 16 34 17 6 19 5 20 37 21 4 22 39 23
REMARK SMILES IDX 3 24 41 25 38 26 40 28 2 30 1 31 42 33 11 35 12 36 21 37
REMARK SMILES IDX 13 38 19 39 14 40 17 41 22 42 20 44 15 46 16 47 18 49 25 51
REMARK H PARENT 34 18 38 27 40 29 1 32 42 34 22 43 20 45 16 48 18 50 25 52
REMARK Flexibility Score: inf
ROOT
ATOM      1  C   UNL     1      -4.446   4.615  15.237  1.00  0.00     0.402 A 
ATOM      2  C   UNL     1      -5.632   4.497  16.029  1.00  0.00     0.229 A 
ATOM      3  C   UNL     1      -5.869   3.244  16.624  1.00  0.00     0.079 A 
ATOM      4  C   UNL     1      -4.770   2.408  16.880  1.00  0.00     0.126 A 
ATOM      5  C   UNL     1      -4.856   1.369  17.831  1.00  0.00     0.143 A 
ATOM      6  C   UNL     1      -3.828   1.340  18.799  1.00  0.00     0.094 A 
ATOM      7  C   UNL     1      -2.553   1.816  18.410  1.00  0.00     0.128 A 
ATOM      8  C   UNL     1      -2.363   2.449  17.152  1.00  0.00     0.162 A 
ATOM      9  C   UNL     1      -3.501   2.882  16.482  1.00  0.00     0.368 A 
ATOM     10  O   UNL     1      -3.420   3.842  15.566  1.00  0.00    -0.202 OA
ENDROOT
BRANCH   1  11
ATOM     11  C   UNL     1      -4.255   5.657  14.172  1.00  0.00     0.084 A 
ATOM     12  C   UNL     1      -4.861   5.513  12.899  1.00  0.00     0.022 A 
ATOM     13  C   UNL     1      -4.864   6.598  11.991  1.00  0.00     0.047 A 
ATOM     14  C   UNL     1      -4.070   7.703  12.276  1.00  0.00     0.115 A 
ATOM     15  C   UNL     1      -3.444   6.767  14.392  1.00  0.00     0.022 A 
ATOM     16  C   UNL     1      -3.316   7.769  13.434  1.00  0.00     0.047 A 
BRANCH  14  17
ATOM     17  O   UNL     1      -4.070   8.775  11.377  1.00  0.00    -0.508 OA
ATOM     18  H   UNL     1      -4.862   9.396  11.335  1.00  0.00     0.293 HD
ENDBRANCH  14  17
ENDBRANCH   1  11
BRANCH   2  19
ATOM     19  O   UNL     1      -6.368   5.662  16.385  1.00  0.00    -0.452 OA
BRANCH  19  20
ATOM     20  C   UNL     1      -7.749   5.949  16.088  1.00  0.00     0.339 C 
ATOM     21  C   UNL     1      -8.036   5.483  14.648  1.00  0.00     0.214 C 
ATOM     22  O   UNL     1      -8.069   7.312  16.434  1.00  0.00    -0.332 OA
ATOM     23  C   UNL     1      -7.835   6.618  13.626  1.00  0.00     0.180 C 
ATOM     24  C   UNL     1      -7.700   8.298  15.472  1.00  0.00     0.179 C 
ATOM     25  C   UNL     1      -8.372   7.991  14.113  1.00  0.00     0.177 C 
BRANCH  21  26
ATOM     26  O   UNL     1      -9.332   4.937  14.517  1.00  0.00    -0.384 OA
ATOM     27  H   UNL     1      -9.779   5.261  13.665  1.00  0.00     0.211 HD
ENDBRANCH  21  26
BRANCH  23  28
ATOM     28  O   UNL     1      -8.374   6.259  12.388  1.00  0.00    -0.387 OA
ATOM     29  H   UNL     1      -7.973   6.706  11.632  1.00  0.00     0.211 HD
ENDBRANCH  23  28
BRANCH  24  30
ATOM     30  C   UNL     1      -6.210   8.609  15.418  1.00  0.00     0.191 C 
BRANCH  30  31
ATOM     31  O   UNL     1      -5.678   8.584  16.707  1.00  0.00    -0.394 OA
ATOM     32  H   UNL     1      -5.141   9.419  16.788  1.00  0.00     0.210 HD
ENDBRANCH  30  31
ENDBRANCH  24  30
BRANCH  25  33
ATOM     33  O   UNL     1      -9.775   8.015  14.329  1.00  0.00    -0.387 OA
ATOM     34  H   UNL     1     -10.161   7.129  14.407  1.00  0.00     0.211 HD
ENDBRANCH  25  33
ENDBRANCH  19  20
ENDBRANCH   2  19
BRANCH   5  35
ATOM     35  O   UNL     1      -5.942   0.481  17.839  1.00  0.00    -0.461 OA
BRANCH  35  36
ATOM     36  C   UNL     1      -6.006  -0.887  18.420  1.00  0.00     0.339 C 
ATOM     37  C   UNL     1      -6.601  -2.032  17.536  1.00  0.00     0.214 C 
ATOM     38  O   UNL     1      -6.703  -0.836  19.661  1.00  0.00    -0.332 OA
ATOM     39  C   UNL     1      -8.126  -2.280  17.837  1.00  0.00     0.180 C 
ATOM     40  C   UNL     1      -8.001  -0.264  19.468  1.00  0.00     0.179 C 
ATOM     41  C   UNL     1      -8.852  -1.006  18.393  1.00  0.00     0.177 C 
BRANCH  37  42
ATOM     42  O   UNL     1      -6.360  -1.806  16.158  1.00  0.00    -0.384 OA
ATOM     43  H   UNL     1      -5.429  -2.089  15.923  1.00  0.00     0.211 HD
ENDBRANCH  37  42
BRANCH  39  44
ATOM     44  O   UNL     1      -8.287  -3.291  18.801  1.00  0.00    -0.387 OA
ATOM     45  H   UNL     1      -8.192  -4.149  18.348  1.00  0.00     0.211 HD
ENDBRANCH  39  44
BRANCH  40  46
ATOM     46  C   UNL     1      -8.636  -0.186  20.877  1.00  0.00     0.191 C 
BRANCH  46  47
ATOM     47  O   UNL     1      -8.945  -1.484  21.382  1.00  0.00    -0.394 OA
ATOM     48  H   UNL     1      -9.533  -1.891  20.700  1.00  0.00     0.210 HD
ENDBRANCH  46  47
ENDBRANCH  40  46
BRANCH  41  49
ATOM     49  O   UNL     1     -10.125  -1.427  18.945  1.00  0.00    -0.387 OA
ATOM     50  H   UNL     1     -10.793  -1.194  18.233  1.00  0.00     0.211 HD
ENDBRANCH  41  49
ENDBRANCH  35  36
ENDBRANCH   5  35
BRANCH   7  51
ATOM     51  O   UNL     1      -1.504   1.723  19.297  1.00  0.00    -0.507 OA
ATOM     52  H   UNL     1      -1.533   1.025  20.044  1.00  0.00     0.293 HD
ENDBRANCH   7  51
TORSDOF 17
ENDMDL
MODEL 4
REMARK VINA RESULT:    -3.911      1.085      2.336
REMARK INTER + INTRA:          -9.179
REMARK INTER:                  -7.059
REMARK INTRA:                  -2.120
REMARK UNBOUND:                -2.524
REMARK SMILES OC[C@@H]1O[C@H](Oc2cc3c(O[C@H]4O[C@H](CO)[C@H](O)[C@H](O)[C@H]4O)cc(O)cc3[o+]c2-c2ccc(O)cc2)[C@@H](O)[C@@H](O)[C@H]1O.[Cl-]
REMARK SMILES IDX 29 1 7 2 8 3 9 4 10 5 23 6 24 7 26 8 27 9 28 10 30 11 31 12
REMARK SMILES IDX 32 13 33 14 36 15 35 16 34 17 6 19 5 20 37 21 4 22 39 23
REMARK SMILES IDX 3 24 41 25 38 26 40 28 2 30 1 31 42 33 11 35 12 36 21 37
REMARK SMILES IDX 13 38 19 39 14 40 17 41 22 42 20 44 15 46 16 47 18 49 25 51
REMARK H PARENT 34 18 38 27 40 29 1 32 42 34 22 43 20 45 16 48 18 50 25 52
REMARK Flexibility Score: inf
ROOT
ATOM      1  C   UNL     1      -4.499   5.585  15.639  1.00  0.00     0.402 A 
ATOM      2  C   UNL     1      -3.369   6.387  15.280  1.00  0.00     0.229 A 
ATOM      3  C   UNL     1      -2.240   6.292  16.113  1.00  0.00     0.079 A 
ATOM      4  C   UNL     1      -2.055   5.113  16.856  1.00  0.00     0.126 A 
ATOM      5  C   UNL     1      -0.783   4.765  17.356  1.00  0.00     0.143 A 
ATOM      6  C   UNL     1      -0.347   3.455  17.058  1.00  0.00     0.094 A 
ATOM      7  C   UNL     1      -1.337   2.452  16.930  1.00  0.00     0.128 A 
ATOM      8  C   UNL     1      -2.719   2.785  16.937  1.00  0.00     0.162 A 
ATOM      9  C   UNL     1      -3.050   4.118  16.732  1.00  0.00     0.368 A 
ATOM     10  O   UNL     1      -4.257   4.453  16.286  1.00  0.00    -0.202 OA
ENDROOT
BRANCH   1  11
ATOM     11  C   UNL     1      -5.904   5.879  15.195  1.00  0.00     0.084 A 
ATOM     12  C   UNL     1      -6.453   5.239  14.055  1.00  0.00     0.022 A 
ATOM     13  C   UNL     1      -7.837   5.348  13.783  1.00  0.00     0.047 A 
ATOM     14  C   UNL     1      -8.585   6.269  14.507  1.00  0.00     0.115 A 
ATOM     15  C   UNL     1      -6.686   6.817  15.863  1.00  0.00     0.022 A 
ATOM     16  C   UNL     1      -8.010   7.045  15.497  1.00  0.00     0.047 A 
BRANCH  14  17
ATOM     17  O   UNL     1      -9.953   6.380  14.236  1.00  0.00    -0.508 OA
ATOM     18  H   UNL     1     -10.262   6.724  13.341  1.00  0.00     0.293 HD
ENDBRANCH  14  17
ENDBRANCH   1  11
BRANCH   2  19
ATOM     19  O   UNL     1      -3.329   7.029  14.010  1.00  0.00    -0.452 OA
BRANCH  19  20
ATOM     20  C   UNL     1      -3.148   8.435  13.747  1.00  0.00     0.339 C 
ATOM     21  C   UNL     1      -4.227   9.210  14.526  1.00  0.00     0.214 C 
ATOM     22  O   UNL     1      -3.035   8.674  12.330  1.00  0.00    -0.332 OA
ATOM     23  C   UNL     1      -5.484   9.461  13.672  1.00  0.00     0.180 C 
ATOM     24  C   UNL     1      -4.266   8.740  11.612  1.00  0.00     0.179 C 
ATOM     25  C   UNL     1      -5.166   9.850  12.202  1.00  0.00     0.177 C 
BRANCH  21  26
ATOM     26  O   UNL     1      -3.736  10.433  15.037  1.00  0.00    -0.384 OA
ATOM     27  H   UNL     1      -2.981  10.790  14.460  1.00  0.00     0.211 HD
ENDBRANCH  21  26
BRANCH  23  28
ATOM     28  O   UNL     1      -6.312  10.402  14.289  1.00  0.00    -0.387 OA
ATOM     29  H   UNL     1      -5.843  11.129  14.716  1.00  0.00     0.211 HD
ENDBRANCH  23  28
BRANCH  24  30
ATOM     30  C   UNL     1      -4.940   7.394  11.381  1.00  0.00     0.191 C 
BRANCH  30  31
ATOM     31  O   UNL     1      -3.985   6.445  11.020  1.00  0.00    -0.394 OA
ATOM     32  H   UNL     1      -4.017   5.752  11.734  1.00  0.00     0.210 HD
ENDBRANCH  30  31
ENDBRANCH  24  30
BRANCH  25  33
ATOM     33  O   UNL     1      -4.455  11.073  12.073  1.00  0.00    -0.387 OA
ATOM     34  H   UNL     1      -3.985  11.325  12.884  1.00  0.00     0.211 HD
ENDBRANCH  25  33
ENDBRANCH  19  20
ENDBRANCH   2  19
BRANCH   5  35
ATOM     35  O   UNL     1       0.009   5.700  18.038  1.00  0.00    -0.461 OA
BRANCH  35  36
ATOM     36  C   UNL     1      -0.333   7.101  18.404  1.00  0.00     0.339 C 
ATOM     37  C   UNL     1       0.760   8.200  18.197  1.00  0.00     0.214 C 
ATOM     38  O   UNL     1      -0.788   7.134  19.754  1.00  0.00    -0.332 OA
ATOM     39  C   UNL     1       1.566   8.490  19.518  1.00  0.00     0.180 C 
ATOM     40  C   UNL     1       0.205   6.572  20.618  1.00  0.00     0.179 C 
ATOM     41  C   UNL     1       1.598   7.261  20.493  1.00  0.00     0.177 C 
BRANCH  37  42
ATOM     42  O   UNL     1       1.613   7.890  17.109  1.00  0.00    -0.384 OA
ATOM     43  H   UNL     1       2.098   8.713  16.810  1.00  0.00     0.211 HD
ENDBRANCH  37  42
BRANCH  39  44
ATOM     44  O   UNL     1       0.993   9.558  20.230  1.00  0.00    -0.387 OA
ATOM     45  H   UNL     1       0.216   9.865  19.727  1.00  0.00     0.211 HD
ENDBRANCH  39  44
BRANCH  40  46
ATOM     46  C   UNL     1      -0.417   6.587  22.034  1.00  0.00     0.191 C 
BRANCH  46  47
ATOM     47  O   UNL     1       0.412   5.905  22.974  1.00  0.00    -0.394 OA
ATOM     48  H   UNL     1       0.004   6.086  23.855  1.00  0.00     0.210 HD
ENDBRANCH  46  47
ENDBRANCH  40  46
BRANCH  41  49
ATOM     49  O   UNL     1       2.055   7.734  21.785  1.00  0.00    -0.387 OA
ATOM     50  H   UNL     1       2.957   7.308  21.900  1.00  0.00     0.211 HD
ENDBRANCH  41  49
ENDBRANCH  35  36
ENDBRANCH   5  35
BRANCH   7  51
ATOM     51  O   UNL     1      -0.946   1.147  16.727  1.00  0.00    -0.507 OA
ATOM     52  H   UNL     1      -0.668   0.841  15.792  1.00  0.00     0.293 HD
ENDBRANCH   7  51
TORSDOF 17
ENDMDL
MODEL 5
REMARK VINA RESULT:    -3.567      1.336      2.101
REMARK INTER + INTRA:          -8.594
REMARK INTER:                  -6.899
REMARK INTRA:                  -1.694
REMARK UNBOUND:                -2.524
REMARK SMILES OC[C@@H]1O[C@H](Oc2cc3c(O[C@H]4O[C@H](CO)[C@H](O)[C@H](O)[C@H]4O)cc(O)cc3[o+]c2-c2ccc(O)cc2)[C@@H](O)[C@@H](O)[C@H]1O.[Cl-]
REMARK SMILES IDX 29 1 7 2 8 3 9 4 10 5 23 6 24 7 26 8 27 9 28 10 30 11 31 12
REMARK SMILES IDX 32 13 33 14 36 15 35 16 34 17 6 19 5 20 37 21 4 22 39 23
REMARK SMILES IDX 3 24 41 25 38 26 40 28 2 30 1 31 42 33 11 35 12 36 21 37
REMARK SMILES IDX 13 38 19 39 14 40 17 41 22 42 20 44 15 46 16 47 18 49 25 51
REMARK H PARENT 34 18 38 27 40 29 1 32 42 34 22 43 20 45 16 48 18 50 25 52
REMARK Flexibility Score: inf
ROOT
ATOM      1  C   UNL     1      -4.923   5.781  14.773  1.00  0.00     0.402 A 
ATOM      2  C   UNL     1      -3.798   6.653  14.633  1.00  0.00     0.229 A 
ATOM      3  C   UNL     1      -2.838   6.611  15.661  1.00  0.00     0.079 A 
ATOM      4  C   UNL     1      -2.721   5.433  16.418  1.00  0.00     0.126 A 
ATOM      5  C   UNL     1      -1.545   5.153  17.144  1.00  0.00     0.143 A 
ATOM      6  C   UNL     1      -0.982   3.876  16.925  1.00  0.00     0.094 A 
ATOM      7  C   UNL     1      -1.868   2.818  16.609  1.00  0.00     0.128 A 
ATOM      8  C   UNL     1      -3.245   3.069  16.362  1.00  0.00     0.162 A 
ATOM      9  C   UNL     1      -3.614   4.384  16.107  1.00  0.00     0.368 A 
ATOM     10  O   UNL     1      -4.736   4.654  15.447  1.00  0.00    -0.202 OA
ENDROOT
BRANCH   1  11
ATOM     11  C   UNL     1      -6.237   5.998  14.078  1.00  0.00     0.084 A 
ATOM     12  C   UNL     1      -6.385   5.708  12.698  1.00  0.00     0.022 A 
ATOM     13  C   UNL     1      -7.673   5.699  12.113  1.00  0.00     0.047 A 
ATOM     14  C   UNL     1      -8.740   6.202  12.848  1.00  0.00     0.115 A 
ATOM     15  C   UNL     1      -7.328   6.531  14.758  1.00  0.00     0.022 A 
ATOM     16  C   UNL     1      -8.567   6.673  14.137  1.00  0.00     0.047 A 
BRANCH  14  17
ATOM     17  O   UNL     1     -10.012   6.197  12.269  1.00  0.00    -0.508 OA
ATOM     18  H   UNL     1     -10.333   5.383  11.769  1.00  0.00     0.293 HD
ENDBRANCH  14  17
ENDBRANCH   1  11
BRANCH   2  19
ATOM     19  O   UNL     1      -3.563   7.318  13.397  1.00  0.00    -0.452 OA
BRANCH  19  20
ATOM     20  C   UNL     1      -2.380   8.044  13.005  1.00  0.00     0.339 C 
ATOM     21  C   UNL     1      -1.913   8.884  14.209  1.00  0.00     0.214 C 
ATOM     22  O   UNL     1      -2.594   8.722  11.751  1.00  0.00    -0.332 OA
ATOM     23  C   UNL     1      -2.500  10.308  14.179  1.00  0.00     0.180 C 
ATOM     24  C   UNL     1      -3.283   9.968  11.830  1.00  0.00     0.179 C 
ATOM     25  C   UNL     1      -2.518  10.939  12.760  1.00  0.00     0.177 C 
BRANCH  21  26
ATOM     26  O   UNL     1      -0.504   8.942  14.300  1.00  0.00    -0.384 OA
ATOM     27  H   UNL     1      -0.115   9.507  13.552  1.00  0.00     0.211 HD
ENDBRANCH  21  26
BRANCH  23  28
ATOM     28  O   UNL     1      -1.841  11.125  15.101  1.00  0.00    -0.387 OA
ATOM     29  H   UNL     1      -2.374  11.375  15.866  1.00  0.00     0.211 HD
ENDBRANCH  23  28
BRANCH  24  30
ATOM     30  C   UNL     1      -4.780   9.853  12.079  1.00  0.00     0.191 C 
BRANCH  30  31
ATOM     31  O   UNL     1      -5.432   9.531  10.889  1.00  0.00    -0.394 OA
ATOM     32  H   UNL     1      -6.104   8.839  11.134  1.00  0.00     0.210 HD
ENDBRANCH  30  31
ENDBRANCH  24  30
BRANCH  25  33
ATOM     33  O   UNL     1      -1.228  11.124  12.197  1.00  0.00    -0.387 OA
ATOM     34  H   UNL     1      -0.516  10.781  12.760  1.00  0.00     0.211 HD
ENDBRANCH  25  33
ENDBRANCH  19  20
ENDBRANCH   2  19
BRANCH   5  35
ATOM     35  O   UNL     1      -0.951   6.121  17.966  1.00  0.00    -0.461 OA
BRANCH  35  36
ATOM     36  C   UNL     1       0.338   6.034  18.705  1.00  0.00     0.339 C 
ATOM     37  C   UNL     1       0.416   6.691  20.122  1.00  0.00     0.214 C 
ATOM     38  O   UNL     1       1.383   6.549  17.886  1.00  0.00    -0.332 OA
ATOM     39  C   UNL     1       1.021   8.144  20.068  1.00  0.00     0.180 C 
ATOM     40  C   UNL     1       1.074   7.888  17.485  1.00  0.00     0.179 C 
ATOM     41  C   UNL     1       0.796   8.846  18.684  1.00  0.00     0.177 C 
BRANCH  37  42
ATOM     42  O   UNL     1      -0.838   6.660  20.782  1.00  0.00    -0.384 OA
ATOM     43  H   UNL     1      -0.762   7.094  21.681  1.00  0.00     0.211 HD
ENDBRANCH  37  42
BRANCH  39  44
ATOM     44  O   UNL     1       2.409   8.116  20.288  1.00  0.00    -0.387 OA
ATOM     45  H   UNL     1       2.814   7.624  19.550  1.00  0.00     0.211 HD
ENDBRANCH  39  44
BRANCH  40  46
ATOM     46  C   UNL     1       2.225   8.319  16.546  1.00  0.00     0.191 C 
BRANCH  46  47
ATOM     47  O   UNL     1       1.962   9.587  15.947  1.00  0.00    -0.394 OA
ATOM     48  H   UNL     1       2.208  10.252  16.635  1.00  0.00     0.210 HD
ENDBRANCH  46  47
ENDBRANCH  40  46
BRANCH  41  49
ATOM     49  O   UNL     1       1.665  10.004  18.629  1.00  0.00    -0.387 OA
ATOM     50  H   UNL     1       2.051  10.069  19.554  1.00  0.00     0.211 HD
ENDBRANCH  41  49
ENDBRANCH  35  36
ENDBRANCH   5  35
BRANCH   7  51
ATOM     51  O   UNL     1      -1.368   1.542  16.475  1.00  0.00    -0.507 OA
ATOM     52  H   UNL     1      -1.545   0.849  17.206  1.00  0.00     0.293 HD
ENDBRANCH   7  51
TORSDOF 17
ENDMDL
MODEL 6
REMARK VINA RESULT:    -3.396      2.089      9.035
REMARK INTER + INTRA:          -8.303
REMARK INTER:                  -7.951
REMARK INTRA:                  -0.352
REMARK UNBOUND:                -2.524
REMARK SMILES OC[C@@H]1O[C@H](Oc2cc3c(O[C@H]4O[C@H](CO)[C@H](O)[C@H](O)[C@H]4O)cc(O)cc3[o+]c2-c2ccc(O)cc2)[C@@H](O)[C@@H](O)[C@H]1O.[Cl-]
REMARK SMILES IDX 29 1 7 2 8 3 9 4 10 5 23 6 24 7 26 8 27 9 28 10 30 11 31 12
REMARK SMILES IDX 32 13 33 14 36 15 35 16 34 17 6 19 5 20 37 21 4 22 39 23
REMARK SMILES IDX 3 24 41 25 38 26 40 28 2 30 1 31 42 33 11 35 12 36 21 37
REMARK SMILES IDX 13 38 19 39 14 40 17 41 22 42 20 44 15 46 16 47 18 49 25 51
REMARK H PARENT 34 18 38 27 40 29 1 32 42 34 22 43 20 45 16 48 18 50 25 52
REMARK Flexibility Score: inf
ROOT
ATOM      1  C   UNL     1      -2.102   9.401  14.391  1.00  0.00     0.402 A 
ATOM      2  C   UNL     1      -2.798   8.152  14.456  1.00  0.00     0.229 A 
ATOM      3  C   UNL     1      -4.196   8.202  14.309  1.00  0.00     0.079 A 
ATOM      4  C   UNL     1      -4.755   9.280  13.601  1.00  0.00     0.126 A 
ATOM      5  C   UNL     1      -6.050   9.189  13.049  1.00  0.00     0.143 A 
ATOM      6  C   UNL     1      -6.158   9.539  11.685  1.00  0.00     0.094 A 
ATOM      7  C   UNL     1      -5.262  10.517  11.190  1.00  0.00     0.128 A 
ATOM      8  C   UNL     1      -4.194  11.002  11.993  1.00  0.00     0.162 A 
ATOM      9  C   UNL     1      -3.859  10.258  13.117  1.00  0.00     0.368 A 
ATOM     10  O   UNL     1      -2.649  10.360  13.658  1.00  0.00    -0.202 OA
ENDROOT
BRANCH   1  11
ATOM     11  C   UNL     1      -0.736   9.625  14.975  1.00  0.00     0.084 A 
ATOM     12  C   UNL     1      -0.032  10.832  14.732  1.00  0.00     0.022 A 
ATOM     13  C   UNL     1       1.141  11.124  15.465  1.00  0.00     0.047 A 
ATOM     14  C   UNL     1       1.708  10.118  16.240  1.00  0.00     0.115 A 
ATOM     15  C   UNL     1      -0.108   8.639  15.730  1.00  0.00     0.022 A 
ATOM     16  C   UNL     1       1.129   8.865  16.329  1.00  0.00     0.047 A 
BRANCH  14  17
ATOM     17  O   UNL     1       2.870  10.406  16.962  1.00  0.00    -0.508 OA
ATOM     18  H   UNL     1       2.846  11.089  17.702  1.00  0.00     0.293 HD
ENDBRANCH  14  17
ENDBRANCH   1  11
BRANCH   2  19
ATOM     19  O   UNL     1      -2.070   6.929  14.412  1.00  0.00    -0.452 OA
BRANCH  19  20
ATOM     20  C   UNL     1      -2.608   5.592  14.368  1.00  0.00     0.339 C 
ATOM     21  C   UNL     1      -3.962   5.597  15.101  1.00  0.00     0.214 C 
ATOM     22  O   UNL     1      -1.616   4.634  14.787  1.00  0.00    -0.332 OA
ATOM     23  C   UNL     1      -3.812   5.225  16.589  1.00  0.00     0.180 C 
ATOM     24  C   UNL     1      -1.459   4.480  16.196  1.00  0.00     0.179 C 
ATOM     25  C   UNL     1      -2.804   4.070  16.838  1.00  0.00     0.177 C 
BRANCH  21  26
ATOM     26  O   UNL     1      -4.903   4.745  14.481  1.00  0.00    -0.384 OA
ATOM     27  H   UNL     1      -4.535   4.368  13.613  1.00  0.00     0.211 HD
ENDBRANCH  21  26
BRANCH  23  28
ATOM     28  O   UNL     1      -5.062   4.954  17.151  1.00  0.00    -0.387 OA
ATOM     29  H   UNL     1      -5.043   4.772  18.099  1.00  0.00     0.211 HD
ENDBRANCH  23  28
BRANCH  24  30
ATOM     30  C   UNL     1      -0.718   5.620  16.882  1.00  0.00     0.191 C 
BRANCH  30  31
ATOM     31  O   UNL     1       0.653   5.489  16.663  1.00  0.00    -0.394 OA
ATOM     32  H   UNL     1       1.089   5.977  17.413  1.00  0.00     0.210 HD
ENDBRANCH  30  31
ENDBRANCH  24  30
BRANCH  25  33
ATOM     33  O   UNL     1      -3.187   2.837  16.248  1.00  0.00    -0.387 OA
ATOM     34  H   UNL     1      -2.570   2.537  15.562  1.00  0.00     0.211 HD
ENDBRANCH  25  33
ENDBRANCH  19  20
ENDBRANCH   2  19
BRANCH   5  35
ATOM     35  O   UNL     1      -7.129   8.709  13.805  1.00  0.00    -0.461 OA
BRANCH  35  36
ATOM     36  C   UNL     1      -8.430   8.178  13.314  1.00  0.00     0.339 C 
ATOM     37  C   UNL     1      -9.368   7.471  14.346  1.00  0.00     0.214 C 
ATOM     38  O   UNL     1      -8.193   7.305  12.214  1.00  0.00    -0.332 OA
ATOM     39  C   UNL     1      -9.194   5.906  14.330  1.00  0.00     0.180 C 
ATOM     40  C   UNL     1      -7.290   6.265  12.601  1.00  0.00     0.179 C 
ATOM     41  C   UNL     1      -7.771   5.457  13.845  1.00  0.00     0.177 C 
BRANCH  37  42
ATOM     42  O   UNL     1      -9.214   8.010  15.648  1.00  0.00    -0.384 OA
ATOM     43  H   UNL     1      -9.097   7.270  16.312  1.00  0.00     0.211 HD
ENDBRANCH  37  42
BRANCH  39  44
ATOM     44  O   UNL     1     -10.125   5.309  13.462  1.00  0.00    -0.387 OA
ATOM     45  H   UNL     1     -10.826   4.911  14.010  1.00  0.00     0.211 HD
ENDBRANCH  39  44
BRANCH  40  46
ATOM     46  C   UNL     1      -7.045   5.428  11.323  1.00  0.00     0.191 C 
BRANCH  46  47
ATOM     47  O   UNL     1      -8.261   5.193  10.614  1.00  0.00    -0.394 OA
ATOM     48  H   UNL     1      -8.431   6.028  10.112  1.00  0.00     0.210 HD
ENDBRANCH  46  47
ENDBRANCH  40  46
BRANCH  41  49
ATOM     49  O   UNL     1      -7.833   4.040  13.547  1.00  0.00    -0.387 OA
ATOM     50  H   UNL     1      -7.293   3.610  14.276  1.00  0.00     0.211 HD
ENDBRANCH  41  49
ENDBRANCH  35  36
ENDBRANCH   5  35
BRANCH   7  51
ATOM     51  O   UNL     1      -5.393  10.948   9.888  1.00  0.00    -0.507 OA
ATOM     52  H   UNL     1      -4.851  10.497   9.148  1.00  0.00     0.293 HD
ENDBRANCH   7  51
TORSDOF 17
ENDMDL
MODEL 7
REMARK VINA RESULT:    -3.343     11.972     16.804
REMARK INTER + INTRA:          -8.213
REMARK INTER:                  -6.295
REMARK INTRA:                  -1.918
REMARK UNBOUND:                -2.524
REMARK SMILES OC[C@@H]1O[C@H](Oc2cc3c(O[C@H]4O[C@H](CO)[C@H](O)[C@H](O)[C@H]4O)cc(O)cc3[o+]c2-c2ccc(O)cc2)[C@@H](O)[C@@H](O)[C@H]1O.[Cl-]
REMARK SMILES IDX 29 1 7 2 8 3 9 4 10 5 23 6 24 7 26 8 27 9 28 10 30 11 31 12
REMARK SMILES IDX 32 13 33 14 36 15 35 16 34 17 6 19 5 20 37 21 4 22 39 23
REMARK SMILES IDX 3 24 41 25 38 26 40 28 2 30 1 31 42 33 11 35 12 36 21 37
REMARK SMILES IDX 13 38 19 39 14 40 17 41 22 42 20 44 15 46 16 47 18 49 25 51
REMARK H PARENT 34 18 38 27 40 29 1 32 42 34 22 43 20 45 16 48 18 50 25 52
REMARK Flexibility Score: inf
ROOT
ATOM      1  C   UNL     1      -4.280  -6.361  23.931  1.00  0.00     0.402 A 
ATOM      2  C   UNL     1      -5.603  -5.824  24.014  1.00  0.00     0.229 A 
ATOM      3  C   UNL     1      -6.157  -5.328  22.820  1.00  0.00     0.079 A 
ATOM      4  C   UNL     1      -5.685  -5.842  21.600  1.00  0.00     0.126 A 
ATOM      5  C   UNL     1      -6.453  -5.732  20.422  1.00  0.00     0.143 A 
ATOM      6  C   UNL     1      -6.645  -6.933  19.704  1.00  0.00     0.094 A 
ATOM      7  C   UNL     1      -5.618  -7.904  19.770  1.00  0.00     0.128 A 
ATOM      8  C   UNL     1      -4.517  -7.742  20.655  1.00  0.00     0.162 A 
ATOM      9  C   UNL     1      -4.653  -6.804  21.670  1.00  0.00     0.368 A 
ATOM     10  O   UNL     1      -3.912  -6.888  22.771  1.00  0.00    -0.202 OA
ENDROOT
BRANCH   1  11
ATOM     11  C   UNL     1      -3.358  -6.494  25.110  1.00  0.00     0.084 A 
ATOM     12  C   UNL     1      -2.504  -7.618  25.241  1.00  0.00     0.022 A 
ATOM     13  C   UNL     1      -1.488  -7.622  26.224  1.00  0.00     0.047 A 
ATOM     14  C   UNL     1      -1.498  -6.625  27.193  1.00  0.00     0.115 A 
ATOM     15  C   UNL     1      -3.352  -5.543  26.126  1.00  0.00     0.022 A 
ATOM     16  C   UNL     1      -2.454  -5.625  27.187  1.00  0.00     0.047 A 
BRANCH  14  17
ATOM     17  O   UNL     1      -0.496  -6.630  28.168  1.00  0.00    -0.508 OA
ATOM     18  H   UNL     1       0.209  -7.351  28.161  1.00  0.00     0.293 HD
ENDBRANCH  14  17
ENDBRANCH   1  11
BRANCH   2  19
ATOM     19  O   UNL     1      -6.382  -6.031  25.187  1.00  0.00    -0.452 OA
BRANCH  19  20
ATOM     20  C   UNL     1      -7.774  -6.397  25.260  1.00  0.00     0.339 C 
ATOM     21  C   UNL     1      -8.215  -6.314  26.734  1.00  0.00     0.214 C 
ATOM     22  O   UNL     1      -8.011  -7.630  24.552  1.00  0.00    -0.332 OA
ATOM     23  C   UNL     1      -8.073  -7.669  27.453  1.00  0.00     0.180 C 
ATOM     24  C   UNL     1      -7.702  -8.824  25.268  1.00  0.00     0.179 C 
ATOM     25  C   UNL     1      -8.513  -8.879  26.584  1.00  0.00     0.177 C 
BRANCH  21  26
ATOM     26  O   UNL     1      -9.536  -5.831  26.865  1.00  0.00    -0.384 OA
ATOM     27  H   UNL     1      -9.673  -5.388  27.768  1.00  0.00     0.211 HD
ENDBRANCH  21  26
BRANCH  23  28
ATOM     28  O   UNL     1      -8.742  -7.641  28.679  1.00  0.00    -0.387 OA
ATOM     29  H   UNL     1      -8.181  -7.431  29.436  1.00  0.00     0.211 HD
ENDBRANCH  23  28
BRANCH  24  30
ATOM     30  C   UNL     1      -6.215  -9.125  25.393  1.00  0.00     0.191 C 
BRANCH  30  31
ATOM     31  O   UNL     1      -5.625  -9.112  24.130  1.00  0.00    -0.394 OA
ATOM     32  H   UNL     1      -5.991  -8.306  23.674  1.00  0.00     0.210 HD
ENDBRANCH  30  31
ENDBRANCH  24  30
BRANCH  25  33
ATOM     33  O   UNL     1      -9.887  -8.860  26.227  1.00  0.00    -0.387 OA
ATOM     34  H   UNL     1     -10.073  -8.286  25.467  1.00  0.00     0.211 HD
ENDBRANCH  25  33
ENDBRANCH  19  20
ENDBRANCH   2  19
BRANCH   5  35
ATOM     35  O   UNL     1      -7.039  -4.513  20.049  1.00  0.00    -0.461 OA
BRANCH  35  36
ATOM     36  C   UNL     1      -6.901  -3.187  20.711  1.00  0.00     0.339 C 
ATOM     37  C   UNL     1      -8.172  -2.565  21.376  1.00  0.00     0.214 C 
ATOM     38  O   UNL     1      -6.348  -2.258  19.784  1.00  0.00    -0.332 OA
ATOM     39  C   UNL     1      -8.904  -1.550  20.420  1.00  0.00     0.180 C 
ATOM     40  C   UNL     1      -7.162  -2.199  18.607  1.00  0.00     0.179 C 
ATOM     41  C   UNL     1      -8.654  -1.856  18.901  1.00  0.00     0.177 C 
BRANCH  37  42
ATOM     42  O   UNL     1      -9.051  -3.566  21.863  1.00  0.00    -0.384 OA
ATOM     43  H   UNL     1      -9.347  -3.337  22.791  1.00  0.00     0.211 HD
ENDBRANCH  37  42
BRANCH  39  44
ATOM     44  O   UNL     1      -8.457  -0.237  20.648  1.00  0.00    -0.387 OA
ATOM     45  H   UNL     1      -7.654  -0.102  20.112  1.00  0.00     0.211 HD
ENDBRANCH  39  44
BRANCH  40  46
ATOM     46  C   UNL     1      -6.436  -1.228  17.647  1.00  0.00     0.191 C 
BRANCH  46  47
ATOM     47  O   UNL     1      -6.031  -0.036  18.319  1.00  0.00    -0.394 OA
ATOM     48  H   UNL     1      -5.054  -0.126  18.435  1.00  0.00     0.210 HD
ENDBRANCH  46  47
ENDBRANCH  40  46
BRANCH  41  49
ATOM     49  O   UNL     1      -9.075  -0.695  18.142  1.00  0.00    -0.387 OA
ATOM     50  H   UNL     1      -8.821  -0.913  17.195  1.00  0.00     0.211 HD
ENDBRANCH  41  49
ENDBRANCH  35  36
ENDBRANCH   5  35
BRANCH   7  51
ATOM     51  O   UNL     1      -5.728  -9.050  19.014  1.00  0.00    -0.507 OA
ATOM     52  H   UNL     1      -6.047  -8.987  18.044  1.00  0.00     0.293 HD
ENDBRANCH   7  51
TORSDOF 17
ENDMDL
MODEL 8
REMARK VINA RESULT:    -3.286     12.300     16.947
REMARK INTER + INTRA:          -8.116
REMARK INTER:                  -9.302
REMARK INTRA:                   1.186
REMARK UNBOUND:                -2.524
REMARK SMILES OC[C@@H]1O[C@H](Oc2cc3c(O[C@H]4O[C@H](CO)[C@H](O)[C@H](O)[C@H]4O)cc(O)cc3[o+]c2-c2ccc(O)cc2)[C@@H](O)[C@@H](O)[C@H]1O.[Cl-]
REMARK SMILES IDX 29 1 7 2 8 3 9 4 10 5 23 6 24 7 26 8 27 9 28 10 30 11 31 12
REMARK SMILES IDX 32 13 33 14 36 15 35 16 34 17 6 19 5 20 37 21 4 22 39 23
REMARK SMILES IDX 3 24 41 25 38 26 40 28 2 30 1 31 42 33 11 35 12 36 21 37
REMARK SMILES IDX 13 38 19 39 14 40 17 41 22 42 20 44 15 46 16 47 18 49 25 51
REMARK H PARENT 34 18 38 27 40 29 1 32 42 34 22 43 20 45 16 48 18 50 25 52
REMARK Flexibility Score: inf
ROOT
ATOM      1  C   UNL     1      -9.269  -6.290  24.573  1.00  0.00     0.402 A 
ATOM      2  C   UNL     1      -8.554  -6.766  23.428  1.00  0.00     0.229 A 
ATOM      3  C   UNL     1      -8.991  -6.299  22.175  1.00  0.00     0.079 A 
ATOM      4  C   UNL     1      -9.665  -5.067  22.119  1.00  0.00     0.126 A 
ATOM      5  C   UNL     1      -9.748  -4.342  20.911  1.00  0.00     0.143 A 
ATOM      6  C   UNL     1      -9.357  -2.986  20.986  1.00  0.00     0.094 A 
ATOM      7  C   UNL     1      -9.570  -2.313  22.212  1.00  0.00     0.128 A 
ATOM      8  C   UNL     1     -10.004  -3.020  23.367  1.00  0.00     0.162 A 
ATOM      9  C   UNL     1      -9.883  -4.403  23.346  1.00  0.00     0.368 A 
ATOM     10  O   UNL     1      -9.832  -5.093  24.481  1.00  0.00    -0.202 OA
ENDROOT
BRANCH   1  11
ATOM     11  C   UNL     1      -9.283  -6.997  25.898  1.00  0.00     0.084 A 
ATOM     12  C   UNL     1      -9.862  -8.285  26.028  1.00  0.00     0.022 A 
ATOM     13  C   UNL     1      -9.668  -9.030  27.215  1.00  0.00     0.047 A 
ATOM     14  C   UNL     1      -9.113  -8.390  28.316  1.00  0.00     0.115 A 
ATOM     15  C   UNL     1      -8.772  -6.389  27.041  1.00  0.00     0.022 A 
ATOM     16  C   UNL     1      -8.722  -7.064  28.258  1.00  0.00     0.047 A 
BRANCH  14  17
ATOM     17  O   UNL     1      -8.924  -9.124  29.491  1.00  0.00    -0.508 OA
ATOM     18  H   UNL     1      -8.012  -9.488  29.716  1.00  0.00     0.293 HD
ENDBRANCH  14  17
ENDBRANCH   1  11
BRANCH   2  19
ATOM     19  O   UNL     1      -7.322  -7.458  23.596  1.00  0.00    -0.452 OA
BRANCH  19  20
ATOM     20  C   UNL     1      -6.366  -7.295  24.663  1.00  0.00     0.339 C 
ATOM     21  C   UNL     1      -5.919  -5.821  24.684  1.00  0.00     0.214 C 
ATOM     22  O   UNL     1      -5.345  -8.310  24.587  1.00  0.00    -0.332 OA
ATOM     23  C   UNL     1      -4.650  -5.593  23.841  1.00  0.00     0.180 C 
ATOM     24  C   UNL     1      -4.291  -8.060  23.659  1.00  0.00     0.179 C 
ATOM     25  C   UNL     1      -3.594  -6.721  23.996  1.00  0.00     0.177 C 
BRANCH  21  26
ATOM     26  O   UNL     1      -5.718  -5.347  26.000  1.00  0.00    -0.384 OA
ATOM     27  H   UNL     1      -6.101  -5.995  26.682  1.00  0.00     0.211 HD
ENDBRANCH  21  26
BRANCH  23  28
ATOM     28  O   UNL     1      -4.107  -4.334  24.109  1.00  0.00    -0.387 OA
ATOM     29  H   UNL     1      -4.384  -3.950  24.950  1.00  0.00     0.211 HD
ENDBRANCH  23  28
BRANCH  24  30
ATOM     30  C   UNL     1      -4.668  -8.261  22.198  1.00  0.00     0.191 C 
BRANCH  30  31
ATOM     31  O   UNL     1      -3.818  -7.512  21.386  1.00  0.00    -0.394 OA
ATOM     32  H   UNL     1      -4.027  -6.560  21.590  1.00  0.00     0.210 HD
ENDBRANCH  30  31
ENDBRANCH  24  30
BRANCH  25  33
ATOM     33  O   UNL     1      -3.073  -6.843  25.312  1.00  0.00    -0.387 OA
ATOM     34  H   UNL     1      -2.897  -5.986  25.730  1.00  0.00     0.211 HD
ENDBRANCH  25  33
ENDBRANCH  19  20
ENDBRANCH   2  19
BRANCH   5  35
ATOM     35  O   UNL     1     -10.124  -4.967  19.714  1.00  0.00    -0.461 OA
BRANCH  35  36
ATOM     36  C   UNL     1      -9.251  -5.396  18.588  1.00  0.00     0.339 C 
ATOM     37  C   UNL     1      -8.639  -6.834  18.643  1.00  0.00     0.214 C 
ATOM     38  O   UNL     1      -8.206  -4.443  18.417  1.00  0.00    -0.332 OA
ATOM     39  C   UNL     1      -7.179  -6.834  19.232  1.00  0.00     0.180 C 
ATOM     40  C   UNL     1      -7.481  -4.288  19.641  1.00  0.00     0.179 C 
ATOM     41  C   UNL     1      -6.912  -5.628  20.199  1.00  0.00     0.177 C 
BRANCH  37  42
ATOM     42  O   UNL     1      -9.489  -7.738  19.328  1.00  0.00    -0.384 OA
ATOM     43  H   UNL     1      -9.881  -8.394  18.682  1.00  0.00     0.211 HD
ENDBRANCH  37  42
BRANCH  39  44
ATOM     44  O   UNL     1      -6.225  -6.746  18.203  1.00  0.00    -0.387 OA
ATOM     45  H   UNL     1      -5.455  -7.281  18.467  1.00  0.00     0.211 HD
ENDBRANCH  39  44
BRANCH  40  46
ATOM     46  C   UNL     1      -6.431  -3.186  19.367  1.00  0.00     0.191 C 
BRANCH  46  47
ATOM     47  O   UNL     1      -5.790  -2.767  20.571  1.00  0.00    -0.394 OA
ATOM     48  H   UNL     1      -6.523  -2.464  21.160  1.00  0.00     0.210 HD
ENDBRANCH  46  47
ENDBRANCH  40  46
BRANCH  41  49
ATOM     49  O   UNL     1      -5.481  -5.534  20.404  1.00  0.00    -0.387 OA
ATOM     50  H   UNL     1      -5.387  -5.169  21.335  1.00  0.00     0.211 HD
ENDBRANCH  41  49
ENDBRANCH  35  36
ENDBRANCH   5  35
BRANCH   7  51
ATOM     51  O   UNL     1      -9.284  -0.968  22.297  1.00  0.00    -0.507 OA
ATOM     52  H   UNL     1      -8.333  -0.640  22.112  1.00  0.00     0.293 HD
ENDBRANCH   7  51
TORSDOF 17
ENDMDL
MODEL 9
REMARK VINA RESULT:    -3.048     12.582     16.320
REMARK INTER + INTRA:          -7.711
REMARK INTER:                  -9.772
REMARK INTRA:                   2.061
REMARK UNBOUND:                -2.524
REMARK SMILES OC[C@@H]1O[C@H](Oc2cc3c(O[C@H]4O[C@H](CO)[C@H](O)[C@H](O)[C@H]4O)cc(O)cc3[o+]c2-c2ccc(O)cc2)[C@@H](O)[C@@H](O)[C@H]1O.[Cl-]
REMARK SMILES IDX 29 1 7 2 8 3 9 4 10 5 23 6 24 7 26 8 27 9 28 10 30 11 31 12
REMARK SMILES IDX 32 13 33 14 36 15 35 16 34 17 6 19 5 20 37 21 4 22 39 23
REMARK SMILES IDX 3 24 41 25 38 26 40 28 2 30 1 31 42 33 11 35 12 36 21 37
REMARK SMILES IDX 13 38 19 39 14 40 17 41 22 42 20 44 15 46 16 47 18 49 25 51
REMARK H PARENT 34 18 38 27 40 29 1 32 42 34 22 43 20 45 16 48 18 50 25 52
REMARK Flexibility Score: inf
ROOT
ATOM      1  C   UNL     1      -8.396  -5.325  23.224  1.00  0.00     0.402 A 
ATOM      2  C   UNL     1      -7.410  -6.310  22.904  1.00  0.00     0.229 A 
ATOM      3  C   UNL     1      -6.658  -6.820  23.978  1.00  0.00     0.079 A 
ATOM      4  C   UNL     1      -7.223  -6.786  25.264  1.00  0.00     0.126 A 
ATOM      5  C   UNL     1      -6.748  -7.636  26.286  1.00  0.00     0.143 A 
ATOM      6  C   UNL     1      -7.734  -8.386  26.963  1.00  0.00     0.094 A 
ATOM      7  C   UNL     1      -9.022  -7.811  27.086  1.00  0.00     0.128 A 
ATOM      8  C   UNL     1      -9.348  -6.604  26.410  1.00  0.00     0.162 A 
ATOM      9  C   UNL     1      -8.503  -6.203  25.384  1.00  0.00     0.368 A 
ATOM     10  O   UNL     1      -8.938  -5.382  24.433  1.00  0.00    -0.202 OA
ENDROOT
BRANCH   1  11
ATOM     11  C   UNL     1      -8.949  -4.345  22.229  1.00  0.00     0.084 A 
ATOM     12  C   UNL     1      -8.981  -2.957  22.518  1.00  0.00     0.022 A 
ATOM     13  C   UNL     1      -9.288  -2.030  21.495  1.00  0.00     0.047 A 
ATOM     14  C   UNL     1      -9.779  -2.513  20.287  1.00  0.00     0.115 A 
ATOM     15  C   UNL     1      -9.484  -4.776  21.019  1.00  0.00     0.022 A 
ATOM     16  C   UNL     1      -9.937  -3.869  20.065  1.00  0.00     0.047 A 
BRANCH  14  17
ATOM     17  O   UNL     1     -10.086  -1.596  19.276  1.00  0.00    -0.508 OA
ATOM     18  H   UNL     1     -10.966  -1.660  18.790  1.00  0.00     0.293 HD
ENDBRANCH  14  17
ENDBRANCH   1  11
BRANCH   2  19
ATOM     19  O   UNL     1      -7.393  -6.906  21.611  1.00  0.00    -0.452 OA
BRANCH  19  20
ATOM     20  C   UNL     1      -6.395  -6.738  20.584  1.00  0.00     0.339 C 
ATOM     21  C   UNL     1      -5.272  -7.762  20.837  1.00  0.00     0.214 C 
ATOM     22  O   UNL     1      -6.028  -5.350  20.457  1.00  0.00    -0.332 OA
ATOM     23  C   UNL     1      -4.137  -7.171  21.694  1.00  0.00     0.180 C 
ATOM     24  C   UNL     1      -5.074  -4.872  21.403  1.00  0.00     0.179 C 
ATOM     25  C   UNL     1      -3.776  -5.708  21.318  1.00  0.00     0.177 C 
BRANCH  21  26
ATOM     26  O   UNL     1      -4.749  -8.282  19.631  1.00  0.00    -0.384 OA
ATOM     27  H   UNL     1      -5.477  -8.727  19.081  1.00  0.00     0.211 HD
ENDBRANCH  21  26
BRANCH  23  28
ATOM     28  O   UNL     1      -3.018  -8.006  21.662  1.00  0.00    -0.387 OA
ATOM     29  H   UNL     1      -2.350  -7.755  21.011  1.00  0.00     0.211 HD
ENDBRANCH  23  28
BRANCH  24  30
ATOM     30  C   UNL     1      -5.626  -4.648  22.804  1.00  0.00     0.191 C 
BRANCH  30  31
ATOM     31  O   UNL     1      -4.596  -4.254  23.658  1.00  0.00    -0.394 OA
ATOM     32  H   UNL     1      -4.701  -4.813  24.475  1.00  0.00     0.210 HD
ENDBRANCH  30  31
ENDBRANCH  24  30
BRANCH  25  33
ATOM     33  O   UNL     1      -3.274  -5.562  19.997  1.00  0.00    -0.387 OA
ATOM     34  H   UNL     1      -2.356  -5.862  19.906  1.00  0.00     0.211 HD
ENDBRANCH  25  33
ENDBRANCH  19  20
ENDBRANCH   2  19
BRANCH   5  35
ATOM     35  O   UNL     1      -5.375  -7.765  26.543  1.00  0.00    -0.461 OA
BRANCH  35  36
ATOM     36  C   UNL     1      -4.241  -7.126  25.821  1.00  0.00     0.339 C 
ATOM     37  C   UNL     1      -3.338  -8.036  24.926  1.00  0.00     0.214 C 
ATOM     38  O   UNL     1      -3.428  -6.424  26.756  1.00  0.00    -0.332 OA
ATOM     39  C   UNL     1      -2.044  -8.515  25.685  1.00  0.00     0.180 C 
ATOM     40  C   UNL     1      -2.987  -7.315  27.786  1.00  0.00     0.179 C 
ATOM     41  C   UNL     1      -2.236  -8.568  27.242  1.00  0.00     0.177 C 
BRANCH  37  42
ATOM     42  O   UNL     1      -4.067  -9.122  24.380  1.00  0.00    -0.384 OA
ATOM     43  H   UNL     1      -3.450  -9.729  23.878  1.00  0.00     0.211 HD
ENDBRANCH  37  42
BRANCH  39  44
ATOM     44  O   UNL     1      -0.968  -7.644  25.439  1.00  0.00    -0.387 OA
ATOM     45  H   UNL     1      -0.227  -7.923  26.008  1.00  0.00     0.211 HD
ENDBRANCH  39  44
BRANCH  40  46
ATOM     46  C   UNL     1      -2.184  -6.441  28.778  1.00  0.00     0.191 C 
BRANCH  46  47
ATOM     47  O   UNL     1      -2.491  -5.056  28.618  1.00  0.00    -0.394 OA
ATOM     48  H   UNL     1      -2.848  -4.977  27.700  1.00  0.00     0.210 HD
ENDBRANCH  46  47
ENDBRANCH  40  46
BRANCH  41  49
ATOM     49  O   UNL     1      -0.923  -8.684  27.845  1.00  0.00    -0.387 OA
ATOM     50  H   UNL     1      -0.488  -9.439  27.348  1.00  0.00     0.211 HD
ENDBRANCH  41  49
ENDBRANCH  35  36
ENDBRANCH   5  35
BRANCH   7  51
ATOM     51  O   UNL     1      -9.985  -8.473  27.815  1.00  0.00    -0.507 OA
ATOM     52  H   UNL     1      -9.931  -9.488  27.921  1.00  0.00     0.293 HD
ENDBRANCH   7  51
TORSDOF 17
ENDMDL
