MODEL 1
REMARK VINA RESULT:    -5.769      0.000      0.000
REMARK INTER + INTRA:          -7.292
REMARK INTER:                  -6.949
REMARK INTRA:                  -0.343
REMARK UNBOUND:                -0.343
REMARK SMILES Oc1cc(O)c2cc(O)c(-c3ccc(O)c(O)c3)[o+]c2c1
REMARK SMILES IDX 10 1 19 2 20 3 21 4 2 5 3 6 4 7 6 8 7 9 8 10 11 11 12 12
REMARK SMILES IDX 13 13 14 14 18 15 16 16 15 17 17 19 9 21 1 23 5 25
REMARK H PARENT 15 18 17 20 9 22 1 24 5 26
REMARK Flexibility Score: inf
ROOT
ATOM      1  C   UNL     1      -1.916   8.888 -10.514  1.00  0.00     0.402 A 
ATOM      2  O   UNL     1      -2.042  10.196 -10.732  1.00  0.00    -0.202 OA
ATOM      3  C   UNL     1      -3.168  10.755 -11.164  1.00  0.00     0.368 A 
ATOM      4  C   UNL     1      -3.221  12.139 -11.365  1.00  0.00     0.162 A 
ATOM      5  C   UNL     1      -4.400  12.740 -11.814  1.00  0.00     0.128 A 
ATOM      6  C   UNL     1      -5.534  11.956 -12.066  1.00  0.00     0.093 A 
ATOM      7  C   UNL     1      -5.496  10.568 -11.870  1.00  0.00     0.136 A 
ATOM      8  C   UNL     1      -4.309   9.963 -11.416  1.00  0.00     0.125 A 
ATOM      9  C   UNL     1      -4.211   8.582 -11.211  1.00  0.00     0.078 A 
ATOM     10  C   UNL     1      -3.006   8.030 -10.766  1.00  0.00     0.223 A 
ENDROOT
BRANCH   1  11
ATOM     11  C   UNL     1      -0.613   8.382 -10.024  1.00  0.00     0.087 A 
ATOM     12  C   UNL     1      -0.429   8.167  -8.652  1.00  0.00     0.022 A 
ATOM     13  C   UNL     1       0.785   7.672  -8.171  1.00  0.00     0.051 A 
ATOM     14  C   UNL     1       1.832   7.370  -9.048  1.00  0.00     0.157 A 
ATOM     15  C   UNL     1       0.427   8.059 -10.912  1.00  0.00     0.068 A 
ATOM     16  C   UNL     1       1.648   7.560 -10.439  1.00  0.00     0.158 A 
BRANCH  14  17
ATOM     17  O   UNL     1       3.022   6.886  -8.503  1.00  0.00    -0.504 OA
ATOM     18  H   UNL     1       3.850   7.448  -8.366  1.00  0.00     0.293 HD
ENDBRANCH  14  17
BRANCH  16  19
ATOM     19  O   UNL     1       2.638   7.262 -11.377  1.00  0.00    -0.504 OA
ATOM     20  H   UNL     1       3.392   6.610 -11.215  1.00  0.00     0.293 HD
ENDBRANCH  16  19
ENDBRANCH   1  11
BRANCH  10  21
ATOM     21  O   UNL     1      -2.885   6.649 -10.608  1.00  0.00    -0.500 OA
ATOM     22  H   UNL     1      -2.909   6.215  -9.692  1.00  0.00     0.294 HD
ENDBRANCH  10  21
BRANCH   5  23
ATOM     23  O   UNL     1      -4.434  14.120 -12.009  1.00  0.00    -0.507 OA
ATOM     24  H   UNL     1      -3.810  14.742 -11.509  1.00  0.00     0.293 HD
ENDBRANCH   5  23
BRANCH   7  25
ATOM     25  O   UNL     1      -6.631   9.797 -12.124  1.00  0.00    -0.507 OA
ATOM     26  H   UNL     1      -7.535  10.223 -12.298  1.00  0.00     0.293 HD
ENDBRANCH   7  25
TORSDOF 6
ENDMDL
MODEL 2
REMARK VINA RESULT:    -5.261      1.667      6.809
REMARK INTER + INTRA:          -6.680
REMARK INTER:                  -6.354
REMARK INTRA:                  -0.326
REMARK UNBOUND:                -0.343
REMARK SMILES Oc1cc(O)c2cc(O)c(-c3ccc(O)c(O)c3)[o+]c2c1
REMARK SMILES IDX 10 1 19 2 20 3 21 4 2 5 3 6 4 7 6 8 7 9 8 10 11 11 12 12
REMARK SMILES IDX 13 13 14 14 18 15 16 16 15 17 17 19 9 21 1 23 5 25
REMARK H PARENT 15 18 17 20 9 22 1 24 5 26
REMARK Flexibility Score: inf
ROOT
ATOM      1  C   UNL     1      -1.672   9.097 -10.502  1.00  0.00     0.402 A 
ATOM      2  O   UNL     1      -0.641   9.702 -11.088  1.00  0.00    -0.202 OA
ATOM      3  C   UNL     1       0.626   9.386 -10.836  1.00  0.00     0.368 A 
ATOM      4  C   UNL     1       1.654  10.066 -11.498  1.00  0.00     0.162 A 
ATOM      5  C   UNL     1       2.990   9.742 -11.245  1.00  0.00     0.128 A 
ATOM      6  C   UNL     1       3.302   8.732 -10.325  1.00  0.00     0.093 A 
ATOM      7  C   UNL     1       2.283   8.042  -9.653  1.00  0.00     0.136 A 
ATOM      8  C   UNL     1       0.938   8.369  -9.909  1.00  0.00     0.125 A 
ATOM      9  C   UNL     1      -0.120   7.719  -9.262  1.00  0.00     0.078 A 
ATOM     10  C   UNL     1      -1.438   8.087  -9.547  1.00  0.00     0.223 A 
ENDROOT
BRANCH   1  11
ATOM     11  C   UNL     1      -3.039   9.530 -10.871  1.00  0.00     0.087 A 
ATOM     12  C   UNL     1      -3.788   8.757 -11.770  1.00  0.00     0.022 A 
ATOM     13  C   UNL     1      -5.086   9.137 -12.117  1.00  0.00     0.051 A 
ATOM     14  C   UNL     1      -5.667  10.283 -11.565  1.00  0.00     0.157 A 
ATOM     15  C   UNL     1      -3.627  10.670 -10.297  1.00  0.00     0.068 A 
ATOM     16  C   UNL     1      -4.930  11.057 -10.637  1.00  0.00     0.158 A 
BRANCH  14  17
ATOM     17  O   UNL     1      -6.966  10.612 -11.959  1.00  0.00    -0.504 OA
ATOM     18  H   UNL     1      -7.584   9.982 -12.450  1.00  0.00     0.293 HD
ENDBRANCH  14  17
BRANCH  16  19
ATOM     19  O   UNL     1      -5.450  12.201 -10.028  1.00  0.00    -0.504 OA
ATOM     20  H   UNL     1      -4.952  12.750  -9.341  1.00  0.00     0.293 HD
ENDBRANCH  16  19
ENDBRANCH   1  11
BRANCH  10  21
ATOM     21  O   UNL     1      -2.496   7.480  -8.869  1.00  0.00    -0.500 OA
ATOM     22  H   UNL     1      -2.902   6.608  -9.190  1.00  0.00     0.294 HD
ENDBRANCH  10  21
BRANCH   5  23
ATOM     23  O   UNL     1       4.001  10.430 -11.914  1.00  0.00    -0.507 OA
ATOM     24  H   UNL     1       4.846   9.963 -12.222  1.00  0.00     0.293 HD
ENDBRANCH   5  23
BRANCH   7  25
ATOM     25  O   UNL     1       2.606   7.039  -8.738  1.00  0.00    -0.507 OA
ATOM     26  H   UNL     1       1.912   6.647  -8.113  1.00  0.00     0.293 HD
ENDBRANCH   7  25
TORSDOF 6
ENDMDL
MODEL 3
REMARK VINA RESULT:    -5.202      3.281      4.920
REMARK INTER + INTRA:          -6.609
REMARK INTER:                  -6.342
REMARK INTRA:                  -0.267
REMARK UNBOUND:                -0.343
REMARK SMILES Oc1cc(O)c2cc(O)c(-c3ccc(O)c(O)c3)[o+]c2c1
REMARK SMILES IDX 10 1 19 2 20 3 21 4 2 5 3 6 4 7 6 8 7 9 8 10 11 11 12 12
REMARK SMILES IDX 13 13 14 14 18 15 16 16 15 17 17 19 9 21 1 23 5 25
REMARK H PARENT 15 18 17 20 9 22 1 24 5 26
REMARK Flexibility Score: inf
ROOT
ATOM      1  C   UNL     1       0.994   9.346 -10.559  1.00  0.00     0.402 A 
ATOM      2  O   UNL     1      -0.325   9.534 -10.565  1.00  0.00    -0.202 OA
ATOM      3  C   UNL     1      -1.192   8.593 -10.929  1.00  0.00     0.368 A 
ATOM      4  C   UNL     1      -2.563   8.869 -10.904  1.00  0.00     0.162 A 
ATOM      5  C   UNL     1      -3.485   7.888 -11.280  1.00  0.00     0.128 A 
ATOM      6  C   UNL     1      -3.035   6.624 -11.685  1.00  0.00     0.093 A 
ATOM      7  C   UNL     1      -1.664   6.334 -11.717  1.00  0.00     0.136 A 
ATOM      8  C   UNL     1      -0.736   7.322 -11.337  1.00  0.00     0.125 A 
ATOM      9  C   UNL     1       0.645   7.090 -11.357  1.00  0.00     0.078 A 
ATOM     10  C   UNL     1       1.524   8.108 -10.977  1.00  0.00     0.223 A 
ENDROOT
BRANCH   1  11
ATOM     11  C   UNL     1       1.858  10.467 -10.125  1.00  0.00     0.087 A 
ATOM     12  C   UNL     1       1.951  10.777  -8.761  1.00  0.00     0.022 A 
ATOM     13  C   UNL     1       2.775  11.817  -8.327  1.00  0.00     0.051 A 
ATOM     14  C   UNL     1       3.532  12.558  -9.241  1.00  0.00     0.157 A 
ATOM     15  C   UNL     1       2.634  11.193 -11.044  1.00  0.00     0.068 A 
ATOM     16  C   UNL     1       3.466  12.237 -10.618  1.00  0.00     0.158 A 
BRANCH  14  17
ATOM     17  O   UNL     1       4.330  13.590  -8.744  1.00  0.00    -0.504 OA
ATOM     18  H   UNL     1       3.967  14.450  -8.360  1.00  0.00     0.293 HD
ENDBRANCH  14  17
BRANCH  16  19
ATOM     19  O   UNL     1       4.206  12.916 -11.587  1.00  0.00    -0.504 OA
ATOM     20  H   UNL     1       4.669  12.464 -12.363  1.00  0.00     0.293 HD
ENDBRANCH  16  19
ENDBRANCH   1  11
BRANCH  10  21
ATOM     21  O   UNL     1       2.902   7.902 -11.043  1.00  0.00    -0.500 OA
ATOM     22  H   UNL     1       3.330   7.051 -10.695  1.00  0.00     0.294 HD
ENDBRANCH  10  21
BRANCH   5  23
ATOM     23  O   UNL     1      -4.847   8.179 -11.248  1.00  0.00    -0.507 OA
ATOM     24  H   UNL     1      -5.306   8.654 -12.017  1.00  0.00     0.293 HD
ENDBRANCH   5  23
BRANCH   7  25
ATOM     25  O   UNL     1      -1.228   5.071 -12.124  1.00  0.00    -0.507 OA
ATOM     26  H   UNL     1      -1.811   4.249 -12.021  1.00  0.00     0.293 HD
ENDBRANCH   7  25
TORSDOF 6
ENDMDL
MODEL 4
REMARK VINA RESULT:    -5.006      3.296      4.876
REMARK INTER + INTRA:          -6.374
REMARK INTER:                  -6.080
REMARK INTRA:                  -0.294
REMARK UNBOUND:                -0.343
REMARK SMILES Oc1cc(O)c2cc(O)c(-c3ccc(O)c(O)c3)[o+]c2c1
REMARK SMILES IDX 10 1 19 2 20 3 21 4 2 5 3 6 4 7 6 8 7 9 8 10 11 11 12 12
REMARK SMILES IDX 13 13 14 14 18 15 16 16 15 17 17 19 9 21 1 23 5 25
REMARK H PARENT 15 18 17 20 9 22 1 24 5 26
REMARK Flexibility Score: inf
ROOT
ATOM      1  C   UNL     1       1.414   9.544 -10.622  1.00  0.00     0.402 A 
ATOM      2  O   UNL     1       0.253  10.034 -11.054  1.00  0.00    -0.202 OA
ATOM      3  C   UNL     1      -0.906   9.400 -10.898  1.00  0.00     0.368 A 
ATOM      4  C   UNL     1      -2.083   9.984 -11.376  1.00  0.00     0.162 A 
ATOM      5  C   UNL     1      -3.309   9.331 -11.215  1.00  0.00     0.128 A 
ATOM      6  C   UNL     1      -3.359   8.086 -10.574  1.00  0.00     0.093 A 
ATOM      7  C   UNL     1      -2.186   7.488 -10.090  1.00  0.00     0.136 A 
ATOM      8  C   UNL     1      -0.953   8.146 -10.252  1.00  0.00     0.125 A 
ATOM      9  C   UNL     1       0.250   7.593  -9.796  1.00  0.00     0.078 A 
ATOM     10  C   UNL     1       1.449   8.285  -9.988  1.00  0.00     0.223 A 
ENDROOT
BRANCH   1  11
ATOM     11  C   UNL     1       2.638  10.347 -10.846  1.00  0.00     0.087 A 
ATOM     12  C   UNL     1       3.513   9.994 -11.883  1.00  0.00     0.022 A 
ATOM     13  C   UNL     1       4.663  10.749 -12.124  1.00  0.00     0.051 A 
ATOM     14  C   UNL     1       4.955  11.875 -11.348  1.00  0.00     0.157 A 
ATOM     15  C   UNL     1       2.916  11.490 -10.078  1.00  0.00     0.068 A 
ATOM     16  C   UNL     1       4.066  12.255 -10.314  1.00  0.00     0.158 A 
BRANCH  14  17
ATOM     17  O   UNL     1       6.124  12.582 -11.635  1.00  0.00    -0.504 OA
ATOM     18  H   UNL     1       6.160  13.397 -12.230  1.00  0.00     0.293 HD
ENDBRANCH  14  17
BRANCH  16  19
ATOM     19  O   UNL     1       4.278  13.377  -9.511  1.00  0.00    -0.504 OA
ATOM     20  H   UNL     1       3.996  13.440  -8.544  1.00  0.00     0.293 HD
ENDBRANCH  16  19
ENDBRANCH   1  11
BRANCH  10  21
ATOM     21  O   UNL     1       2.657   7.718  -9.583  1.00  0.00    -0.500 OA
ATOM     22  H   UNL     1       3.349   8.252  -9.069  1.00  0.00     0.294 HD
ENDBRANCH  10  21
BRANCH   5  23
ATOM     23  O   UNL     1      -4.472   9.928 -11.698  1.00  0.00    -0.507 OA
ATOM     24  H   UNL     1      -5.360   9.438 -11.695  1.00  0.00     0.293 HD
ENDBRANCH   5  23
BRANCH   7  25
ATOM     25  O   UNL     1      -2.249   6.247  -9.454  1.00  0.00    -0.507 OA
ATOM     26  H   UNL     1      -2.564   5.416  -9.940  1.00  0.00     0.293 HD
ENDBRANCH   7  25
TORSDOF 6
ENDMDL
MODEL 5
REMARK VINA RESULT:    -4.962     14.377     15.503
REMARK INTER + INTRA:          -6.321
REMARK INTER:                  -6.496
REMARK INTRA:                   0.175
REMARK UNBOUND:                -0.343
REMARK SMILES Oc1cc(O)c2cc(O)c(-c3ccc(O)c(O)c3)[o+]c2c1
REMARK SMILES IDX 10 1 19 2 20 3 21 4 2 5 3 6 4 7 6 8 7 9 8 10 11 11 12 12
REMARK SMILES IDX 13 13 14 14 18 15 16 16 15 17 17 19 9 21 1 23 5 25
REMARK H PARENT 15 18 17 20 9 22 1 24 5 26
REMARK Flexibility Score: inf
ROOT
ATOM      1  C   UNL     1      -4.404  -4.962  -5.895  1.00  0.00     0.402 A 
ATOM      2  O   UNL     1      -3.560  -5.042  -6.922  1.00  0.00    -0.202 OA
ATOM      3  C   UNL     1      -3.932  -4.856  -8.185  1.00  0.00     0.368 A 
ATOM      4  C   UNL     1      -2.982  -4.954  -9.207  1.00  0.00     0.162 A 
ATOM      5  C   UNL     1      -3.358  -4.757 -10.539  1.00  0.00     0.128 A 
ATOM      6  C   UNL     1      -4.692  -4.462 -10.853  1.00  0.00     0.093 A 
ATOM      7  C   UNL     1      -5.656  -4.362  -9.839  1.00  0.00     0.136 A 
ATOM      8  C   UNL     1      -5.276  -4.560  -8.498  1.00  0.00     0.125 A 
ATOM      9  C   UNL     1      -6.196  -4.481  -7.446  1.00  0.00     0.078 A 
ATOM     10  C   UNL     1      -5.768  -4.693  -6.132  1.00  0.00     0.223 A 
ENDROOT
BRANCH   1  11
ATOM     11  C   UNL     1      -3.870  -5.180  -4.531  1.00  0.00     0.087 A 
ATOM     12  C   UNL     1      -4.636  -5.891  -3.597  1.00  0.00     0.022 A 
ATOM     13  C   UNL     1      -4.144  -6.124  -2.311  1.00  0.00     0.051 A 
ATOM     14  C   UNL     1      -2.875  -5.669  -1.938  1.00  0.00     0.157 A 
ATOM     15  C   UNL     1      -2.586  -4.740  -4.168  1.00  0.00     0.068 A 
ATOM     16  C   UNL     1      -2.082  -4.973  -2.881  1.00  0.00     0.158 A 
BRANCH  14  17
ATOM     17  O   UNL     1      -2.444  -5.928  -0.636  1.00  0.00    -0.504 OA
ATOM     18  H   UNL     1      -2.220  -5.211   0.039  1.00  0.00     0.293 HD
ENDBRANCH  14  17
BRANCH  16  19
ATOM     19  O   UNL     1      -0.800  -4.505  -2.590  1.00  0.00    -0.504 OA
ATOM     20  H   UNL     1      -0.297  -4.728  -1.742  1.00  0.00     0.293 HD
ENDBRANCH  16  19
ENDBRANCH   1  11
BRANCH  10  21
ATOM     21  O   UNL     1      -6.688  -4.666  -5.084  1.00  0.00    -0.500 OA
ATOM     22  H   UNL     1      -7.684  -4.765  -5.248  1.00  0.00     0.294 HD
ENDBRANCH  10  21
BRANCH   5  23
ATOM     23  O   UNL     1      -2.399  -4.857 -11.545  1.00  0.00    -0.507 OA
ATOM     24  H   UNL     1      -1.408  -4.829 -11.337  1.00  0.00     0.293 HD
ENDBRANCH   5  23
BRANCH   7  25
ATOM     25  O   UNL     1      -6.981  -4.069 -10.163  1.00  0.00    -0.507 OA
ATOM     26  H   UNL     1      -7.242  -3.737 -11.084  1.00  0.00     0.293 HD
ENDBRANCH   7  25
TORSDOF 6
ENDMDL
MODEL 6
REMARK VINA RESULT:    -4.875      1.844      2.334
REMARK INTER + INTRA:          -6.216
REMARK INTER:                  -6.270
REMARK INTRA:                   0.054
REMARK UNBOUND:                -0.343
REMARK SMILES Oc1cc(O)c2cc(O)c(-c3ccc(O)c(O)c3)[o+]c2c1
REMARK SMILES IDX 10 1 19 2 20 3 21 4 2 5 3 6 4 7 6 8 7 9 8 10 11 11 12 12
REMARK SMILES IDX 13 13 14 14 18 15 16 16 15 17 17 19 9 21 1 23 5 25
REMARK H PARENT 15 18 17 20 9 22 1 24 5 26
REMARK Flexibility Score: inf
ROOT
ATOM      1  C   UNL     1      -0.623   9.188 -11.121  1.00  0.00     0.402 A 
ATOM      2  O   UNL     1      -1.104  10.381 -11.467  1.00  0.00    -0.202 OA
ATOM      3  C   UNL     1      -2.385  10.712 -11.343  1.00  0.00     0.368 A 
ATOM      4  C   UNL     1      -2.811  11.989 -11.725  1.00  0.00     0.162 A 
ATOM      5  C   UNL     1      -4.154  12.351 -11.596  1.00  0.00     0.128 A 
ATOM      6  C   UNL     1      -5.081  11.433 -11.084  1.00  0.00     0.093 A 
ATOM      7  C   UNL     1      -4.669  10.149 -10.698  1.00  0.00     0.136 A 
ATOM      8  C   UNL     1      -3.316   9.785 -10.827  1.00  0.00     0.125 A 
ATOM      9  C   UNL     1      -2.850   8.515 -10.465  1.00  0.00     0.078 A 
ATOM     10  C   UNL     1      -1.497   8.202 -10.620  1.00  0.00     0.223 A 
ENDROOT
BRANCH   1  11
ATOM     11  C   UNL     1       0.826   8.940 -11.298  1.00  0.00     0.087 A 
ATOM     12  C   UNL     1       1.252   7.759 -11.922  1.00  0.00     0.022 A 
ATOM     13  C   UNL     1       2.613   7.514 -12.116  1.00  0.00     0.051 A 
ATOM     14  C   UNL     1       3.573   8.445 -11.705  1.00  0.00     0.157 A 
ATOM     15  C   UNL     1       1.786   9.888 -10.904  1.00  0.00     0.068 A 
ATOM     16  C   UNL     1       3.153   9.652 -11.097  1.00  0.00     0.158 A 
BRANCH  14  17
ATOM     17  O   UNL     1       4.917   8.136 -11.921  1.00  0.00    -0.504 OA
ATOM     18  H   UNL     1       5.647   8.280 -11.238  1.00  0.00     0.293 HD
ENDBRANCH  14  17
BRANCH  16  19
ATOM     19  O   UNL     1       4.050  10.637 -10.679  1.00  0.00    -0.504 OA
ATOM     20  H   UNL     1       4.184  11.517 -11.157  1.00  0.00     0.293 HD
ENDBRANCH  16  19
ENDBRANCH   1  11
BRANCH  10  21
ATOM     21  O   UNL     1      -1.035   6.923 -10.310  1.00  0.00    -0.500 OA
ATOM     22  H   UNL     1      -0.490   6.380 -10.971  1.00  0.00     0.294 HD
ENDBRANCH  10  21
BRANCH   5  23
ATOM     23  O   UNL     1      -4.560  13.628 -11.981  1.00  0.00    -0.507 OA
ATOM     24  H   UNL     1      -5.402  14.052 -11.608  1.00  0.00     0.293 HD
ENDBRANCH   5  23
BRANCH   7  25
ATOM     25  O   UNL     1      -5.601   9.242 -10.189  1.00  0.00    -0.507 OA
ATOM     26  H   UNL     1      -6.093   8.592 -10.791  1.00  0.00     0.293 HD
ENDBRANCH   7  25
TORSDOF 6
ENDMDL
MODEL 7
REMARK VINA RESULT:    -4.747     11.795     14.092
REMARK INTER + INTRA:          -6.062
REMARK INTER:                  -5.719
REMARK INTRA:                  -0.343
REMARK UNBOUND:                -0.343
REMARK SMILES Oc1cc(O)c2cc(O)c(-c3ccc(O)c(O)c3)[o+]c2c1
REMARK SMILES IDX 10 1 19 2 20 3 21 4 2 5 3 6 4 7 6 8 7 9 8 10 11 11 12 12
REMARK SMILES IDX 13 13 14 14 18 15 16 16 15 17 17 19 9 21 1 23 5 25
REMARK H PARENT 15 18 17 20 9 22 1 24 5 26
REMARK Flexibility Score: inf
ROOT
ATOM      1  C   UNL     1      10.018  11.120  -7.429  1.00  0.00     0.402 A 
ATOM      2  O   UNL     1      10.532   9.900  -7.280  1.00  0.00    -0.202 OA
ATOM      3  C   UNL     1      11.073   9.212  -8.281  1.00  0.00     0.368 A 
ATOM      4  C   UNL     1      11.596   7.938  -8.041  1.00  0.00     0.162 A 
ATOM      5  C   UNL     1      12.170   7.205  -9.084  1.00  0.00     0.128 A 
ATOM      6  C   UNL     1      12.221   7.748 -10.375  1.00  0.00     0.093 A 
ATOM      7  C   UNL     1      11.699   9.024 -10.631  1.00  0.00     0.136 A 
ATOM      8  C   UNL     1      11.122   9.761  -9.580  1.00  0.00     0.125 A 
ATOM      9  C   UNL     1      10.578  11.036  -9.779  1.00  0.00     0.078 A 
ATOM     10  C   UNL     1      10.010  11.724  -8.703  1.00  0.00     0.223 A 
ENDROOT
BRANCH   1  11
ATOM     11  C   UNL     1       9.452  11.791  -6.236  1.00  0.00     0.087 A 
ATOM     12  C   UNL     1      10.288  12.564  -5.419  1.00  0.00     0.022 A 
ATOM     13  C   UNL     1       9.771  13.221  -4.300  1.00  0.00     0.051 A 
ATOM     14  C   UNL     1       8.411  13.132  -3.984  1.00  0.00     0.157 A 
ATOM     15  C   UNL     1       8.081  11.717  -5.935  1.00  0.00     0.068 A 
ATOM     16  C   UNL     1       7.553  12.375  -4.816  1.00  0.00     0.158 A 
BRANCH  14  17
ATOM     17  O   UNL     1       7.959  13.806  -2.848  1.00  0.00    -0.504 OA
ATOM     18  H   UNL     1       8.287  14.718  -2.564  1.00  0.00     0.293 HD
ENDBRANCH  14  17
BRANCH  16  19
ATOM     19  O   UNL     1       6.182  12.256  -4.578  1.00  0.00    -0.504 OA
ATOM     20  H   UNL     1       5.484  12.864  -4.983  1.00  0.00     0.293 HD
ENDBRANCH  16  19
ENDBRANCH   1  11
BRANCH  10  21
ATOM     21  O   UNL     1       9.421  12.972  -8.903  1.00  0.00    -0.500 OA
ATOM     22  H   UNL     1       8.734  13.124  -9.633  1.00  0.00     0.294 HD
ENDBRANCH  10  21
BRANCH   5  23
ATOM     23  O   UNL     1      12.688   5.937  -8.827  1.00  0.00    -0.507 OA
ATOM     24  H   UNL     1      12.602   5.183  -9.499  1.00  0.00     0.293 HD
ENDBRANCH   5  23
BRANCH   7  25
ATOM     25  O   UNL     1      11.755   9.554 -11.921  1.00  0.00    -0.507 OA
ATOM     26  H   UNL     1      11.391   9.047 -12.720  1.00  0.00     0.293 HD
ENDBRANCH   7  25
TORSDOF 6
ENDMDL
MODEL 8
REMARK VINA RESULT:    -4.630     16.546     18.127
REMARK INTER + INTRA:          -5.921
REMARK INTER:                  -5.584
REMARK INTRA:                  -0.337
REMARK UNBOUND:                -0.343
REMARK SMILES Oc1cc(O)c2cc(O)c(-c3ccc(O)c(O)c3)[o+]c2c1
REMARK SMILES IDX 10 1 19 2 20 3 21 4 2 5 3 6 4 7 6 8 7 9 8 10 11 11 12 12
REMARK SMILES IDX 13 13 14 14 18 15 16 16 15 17 17 19 9 21 1 23 5 25
REMARK H PARENT 15 18 17 20 9 22 1 24 5 26
REMARK Flexibility Score: inf
ROOT
ATOM      1  C   UNL     1       2.959  12.559   6.209  1.00  0.00     0.402 A 
ATOM      2  O   UNL     1       1.985  11.967   6.900  1.00  0.00    -0.202 OA
ATOM      3  C   UNL     1       0.695  12.142   6.632  1.00  0.00     0.368 A 
ATOM      4  C   UNL     1      -0.267  11.480   7.402  1.00  0.00     0.162 A 
ATOM      5  C   UNL     1      -1.627  11.652   7.129  1.00  0.00     0.128 A 
ATOM      6  C   UNL     1      -2.030  12.490   6.081  1.00  0.00     0.093 A 
ATOM      7  C   UNL     1      -1.078  13.161   5.301  1.00  0.00     0.136 A 
ATOM      8  C   UNL     1       0.292  12.987   5.576  1.00  0.00     0.125 A 
ATOM      9  C   UNL     1       1.286  13.637   4.836  1.00  0.00     0.078 A 
ATOM     10  C   UNL     1       2.633  13.436   5.154  1.00  0.00     0.223 A 
ENDROOT
BRANCH   1  11
ATOM     11  C   UNL     1       4.360  12.279   6.596  1.00  0.00     0.087 A 
ATOM     12  C   UNL     1       4.899  12.900   7.731  1.00  0.00     0.022 A 
ATOM     13  C   UNL     1       6.212  12.636   8.125  1.00  0.00     0.051 A 
ATOM     14  C   UNL     1       7.008  11.739   7.405  1.00  0.00     0.157 A 
ATOM     15  C   UNL     1       5.148  11.360   5.882  1.00  0.00     0.068 A 
ATOM     16  C   UNL     1       6.466  11.087   6.271  1.00  0.00     0.158 A 
BRANCH  14  17
ATOM     17  O   UNL     1       8.315  11.525   7.846  1.00  0.00    -0.504 OA
ATOM     18  H   UNL     1       8.564  10.881   8.583  1.00  0.00     0.293 HD
ENDBRANCH  14  17
BRANCH  16  19
ATOM     19  O   UNL     1       7.191  10.164   5.514  1.00  0.00    -0.504 OA
ATOM     20  H   UNL     1       7.905   9.559   5.895  1.00  0.00     0.293 HD
ENDBRANCH  16  19
ENDBRANCH   1  11
BRANCH  10  21
ATOM     21  O   UNL     1       3.627  14.120   4.455  1.00  0.00    -0.500 OA
ATOM     22  H   UNL     1       3.403  14.746   3.690  1.00  0.00     0.294 HD
ENDBRANCH  10  21
BRANCH   5  23
ATOM     23  O   UNL     1      -2.572  10.984   7.907  1.00  0.00    -0.507 OA
ATOM     24  H   UNL     1      -2.300  10.407   8.694  1.00  0.00     0.293 HD
ENDBRANCH   5  23
BRANCH   7  25
ATOM     25  O   UNL     1      -1.491  13.994   4.260  1.00  0.00    -0.507 OA
ATOM     26  H   UNL     1      -1.291  14.988   4.264  1.00  0.00     0.293 HD
ENDBRANCH   7  25
TORSDOF 6
ENDMDL
