MODEL 1
REMARK VINA RESULT:    -4.432      0.000      0.000
REMARK INTER + INTRA:          -7.185
REMARK INTER:                  -6.764
REMARK INTRA:                  -0.421
REMARK UNBOUND:                -0.421
REMARK SMILES CCCCCCCCCCC(=O)[O-]
REMARK SMILES IDX 7 1 8 2 9 3 10 4 11 5 12 6 13 7 6 8 5 9 4 10 3 11 2 12 1 13
REMARK H PARENT
REMARK Flexibility Score: inf
ROOT
ATOM      1  C   UNL     1      -0.792 -40.756 -20.138  1.00  0.00     0.000 C 
ENDROOT
BRANCH   1   2
ATOM      2  C   UNL     1      -1.531 -39.603 -20.835  1.00  0.00     0.000 C 
BRANCH   2   3
ATOM      3  C   UNL     1      -0.602 -38.870 -21.815  1.00  0.00     0.006 C 
BRANCH   3   4
ATOM      4  C   UNL     1      -1.041 -37.419 -22.056  1.00  0.00     0.053 C 
BRANCH   4   5
ATOM      5  C   UNL     1      -0.352 -36.467 -21.126  1.00  0.00     0.041 C 
ATOM      6  O   UNL     1       0.895 -36.527 -20.968  1.00  0.00    -0.550 OA
ATOM      7  O   UNL     1      -1.084 -35.492 -20.460  1.00  0.00    -0.550 OA
ENDBRANCH   4   5
ENDBRANCH   3   4
ENDBRANCH   2   3
ENDBRANCH   1   2
BRANCH   1   8
ATOM      8  C   UNL     1      -1.621 -41.399 -19.014  1.00  0.00     0.000 C 
BRANCH   8   9
ATOM      9  C   UNL     1      -0.756 -41.838 -17.820  1.00  0.00    -0.000 C 
BRANCH   9  10
ATOM     10  C   UNL     1       0.187 -43.006 -18.162  1.00  0.00    -0.000 C 
BRANCH  10  11
ATOM     11  C   UNL     1      -0.301 -44.398 -17.710  1.00  0.00    -0.000 C 
BRANCH  11  12
ATOM     12  C   UNL     1      -1.601 -44.396 -16.886  1.00  0.00    -0.003 C 
ATOM     13  C   UNL     1      -2.715 -45.219 -17.531  1.00  0.00     0.004 C 
ENDBRANCH  11  12
ENDBRANCH  10  11
ENDBRANCH   9  10
ENDBRANCH   8   9
ENDBRANCH   1   8
TORSDOF 9
ENDMDL
MODEL 2
REMARK VINA RESULT:    -4.408      9.230     13.054
REMARK INTER + INTRA:          -7.148
REMARK INTER:                  -6.785
REMARK INTRA:                  -0.363
REMARK UNBOUND:                -0.421
REMARK SMILES CCCCCCCCCCC(=O)[O-]
REMARK SMILES IDX 7 1 8 2 9 3 10 4 11 5 12 6 13 7 6 8 5 9 4 10 3 11 2 12 1 13
REMARK H PARENT
REMARK Flexibility Score: inf
ROOT
ATOM      1  C   UNL     1       6.292 -32.057 -19.063  1.00  0.00     0.000 C 
ENDROOT
BRANCH   1   2
ATOM      2  C   UNL     1       7.189 -33.088 -19.765  1.00  0.00     0.000 C 
BRANCH   2   3
ATOM      3  C   UNL     1       6.437 -33.774 -20.915  1.00  0.00     0.006 C 
BRANCH   3   4
ATOM      4  C   UNL     1       6.593 -35.301 -20.881  1.00  0.00     0.053 C 
BRANCH   4   5
ATOM      5  C   UNL     1       5.866 -35.960 -22.014  1.00  0.00     0.041 C 
ATOM      6  O   UNL     1       6.078 -35.595 -23.200  1.00  0.00    -0.550 OA
ATOM      7  O   UNL     1       4.981 -37.001 -21.762  1.00  0.00    -0.550 OA
ENDBRANCH   4   5
ENDBRANCH   3   4
ENDBRANCH   2   3
ENDBRANCH   1   2
BRANCH   1   8
ATOM      8  C   UNL     1       7.097 -30.982 -18.314  1.00  0.00     0.000 C 
BRANCH   8   9
ATOM      9  C   UNL     1       6.463 -30.603 -16.964  1.00  0.00    -0.000 C 
BRANCH   9  10
ATOM     10  C   UNL     1       7.094 -29.344 -16.341  1.00  0.00    -0.000 C 
BRANCH  10  11
ATOM     11  C   UNL     1       8.174 -28.656 -17.200  1.00  0.00    -0.000 C 
BRANCH  11  12
ATOM     12  C   UNL     1       7.732 -27.342 -17.869  1.00  0.00    -0.003 C 
ATOM     13  C   UNL     1       6.290 -26.960 -17.537  1.00  0.00     0.004 C 
ENDBRANCH  11  12
ENDBRANCH  10  11
ENDBRANCH   9  10
ENDBRANCH   8   9
ENDBRANCH   1   8
TORSDOF 9
ENDMDL
MODEL 3
REMARK VINA RESULT:    -4.274     10.464     12.232
REMARK INTER + INTRA:          -6.943
REMARK INTER:                  -6.570
REMARK INTRA:                  -0.373
REMARK UNBOUND:                -0.421
REMARK SMILES CCCCCCCCCCC(=O)[O-]
REMARK SMILES IDX 7 1 8 2 9 3 10 4 11 5 12 6 13 7 6 8 5 9 4 10 3 11 2 12 1 13
REMARK H PARENT
REMARK Flexibility Score: inf
ROOT
ATOM      1  C   UNL     1       6.221 -31.509 -17.787  1.00  0.00     0.000 C 
ENDROOT
BRANCH   1   2
ATOM      2  C   UNL     1       5.045 -30.644 -18.266  1.00  0.00     0.000 C 
BRANCH   2   3
ATOM      3  C   UNL     1       5.153 -29.217 -17.710  1.00  0.00     0.006 C 
BRANCH   3   4
ATOM      4  C   UNL     1       6.355 -29.049 -16.769  1.00  0.00     0.053 C 
BRANCH   4   5
ATOM      5  C   UNL     1       7.391 -28.135 -17.347  1.00  0.00     0.041 C 
ATOM      6  O   UNL     1       8.587 -28.517 -17.447  1.00  0.00    -0.550 OA
ATOM      7  O   UNL     1       7.030 -26.875 -17.808  1.00  0.00    -0.550 OA
ENDBRANCH   4   5
ENDBRANCH   3   4
ENDBRANCH   2   3
ENDBRANCH   1   2
BRANCH   1   8
ATOM      8  C   UNL     1       7.167 -31.912 -18.931  1.00  0.00     0.000 C 
BRANCH   8   9
ATOM      9  C   UNL     1       6.501 -32.861 -19.941  1.00  0.00    -0.000 C 
BRANCH   9  10
ATOM     10  C   UNL     1       7.433 -34.000 -20.394  1.00  0.00    -0.000 C 
BRANCH  10  11
ATOM     11  C   UNL     1       6.720 -35.276 -20.888  1.00  0.00    -0.000 C 
BRANCH  11  12
ATOM     12  C   UNL     1       5.913 -35.107 -22.188  1.00  0.00    -0.003 C 
ATOM     13  C   UNL     1       6.261 -36.154 -23.246  1.00  0.00     0.004 C 
ENDBRANCH  11  12
ENDBRANCH  10  11
ENDBRANCH   9  10
ENDBRANCH   8   9
ENDBRANCH   1   8
TORSDOF 9
ENDMDL
MODEL 4
REMARK VINA RESULT:    -4.256      5.930      7.390
REMARK INTER + INTRA:          -6.915
REMARK INTER:                  -5.764
REMARK INTRA:                  -1.151
REMARK UNBOUND:                -0.421
REMARK SMILES CCCCCCCCCCC(=O)[O-]
REMARK SMILES IDX 7 1 8 2 9 3 10 4 11 5 12 6 13 7 6 8 5 9 4 10 3 11 2 12 1 13
REMARK H PARENT
REMARK Flexibility Score: inf
ROOT
ATOM      1  C   UNL     1       0.766 -43.924 -18.241  1.00  0.00     0.000 C 
ENDROOT
BRANCH   1   2
ATOM      2  C   UNL     1       1.463 -45.292 -18.188  1.00  0.00     0.000 C 
BRANCH   2   3
ATOM      3  C   UNL     1       1.605 -45.779 -16.738  1.00  0.00     0.006 C 
BRANCH   3   4
ATOM      4  C   UNL     1       2.848 -46.656 -16.538  1.00  0.00     0.053 C 
BRANCH   4   5
ATOM      5  C   UNL     1       4.026 -45.854 -16.074  1.00  0.00     0.041 C 
ATOM      6  O   UNL     1       5.191 -46.318 -16.184  1.00  0.00    -0.550 OA
ATOM      7  O   UNL     1       3.839 -44.581 -15.550  1.00  0.00    -0.550 OA
ENDBRANCH   4   5
ENDBRANCH   3   4
ENDBRANCH   2   3
ENDBRANCH   1   2
BRANCH   1   8
ATOM      8  C   UNL     1       0.768 -43.203 -16.883  1.00  0.00     0.000 C 
BRANCH   8   9
ATOM      9  C   UNL     1      -0.636 -42.736 -16.461  1.00  0.00    -0.000 C 
BRANCH   9  10
ATOM     10  C   UNL     1      -1.236 -43.595 -15.332  1.00  0.00    -0.000 C 
BRANCH  10  11
ATOM     11  C   UNL     1      -1.773 -44.973 -15.769  1.00  0.00    -0.000 C 
BRANCH  11  12
ATOM     12  C   UNL     1      -2.610 -44.964 -17.061  1.00  0.00    -0.003 C 
ATOM     13  C   UNL     1      -2.404 -46.218 -17.912  1.00  0.00     0.004 C 
ENDBRANCH  11  12
ENDBRANCH  10  11
ENDBRANCH   9  10
ENDBRANCH   8   9
ENDBRANCH   1   8
TORSDOF 9
ENDMDL
MODEL 5
REMARK VINA RESULT:    -4.246      3.181      4.788
REMARK INTER + INTRA:          -6.901
REMARK INTER:                  -5.796
REMARK INTRA:                  -1.105
REMARK UNBOUND:                -0.421
REMARK SMILES CCCCCCCCCCC(=O)[O-]
REMARK SMILES IDX 7 1 8 2 9 3 10 4 11 5 12 6 13 7 6 8 5 9 4 10 3 11 2 12 1 13
REMARK H PARENT
REMARK Flexibility Score: inf
ROOT
ATOM      1  C   UNL     1       1.893 -43.492 -15.797  1.00  0.00     0.000 C 
ENDROOT
BRANCH   1   2
ATOM      2  C   UNL     1       1.962 -42.195 -16.617  1.00  0.00     0.000 C 
BRANCH   2   3
ATOM      3  C   UNL     1       0.567 -41.784 -17.110  1.00  0.00     0.006 C 
BRANCH   3   4
ATOM      4  C   UNL     1       0.353 -42.117 -18.594  1.00  0.00     0.053 C 
BRANCH   4   5
ATOM      5  C   UNL     1      -0.845 -41.413 -19.155  1.00  0.00     0.041 C 
ATOM      6  O   UNL     1      -1.913 -41.355 -18.493  1.00  0.00    -0.550 OA
ATOM      7  O   UNL     1      -0.769 -40.791 -20.395  1.00  0.00    -0.550 OA
ENDBRANCH   4   5
ENDBRANCH   3   4
ENDBRANCH   2   3
ENDBRANCH   1   2
BRANCH   1   8
ATOM      8  C   UNL     1       2.005 -44.754 -16.668  1.00  0.00     0.000 C 
BRANCH   8   9
ATOM      9  C   UNL     1       0.728 -45.610 -16.635  1.00  0.00    -0.000 C 
BRANCH   9  10
ATOM     10  C   UNL     1      -0.249 -45.182 -15.524  1.00  0.00    -0.000 C 
BRANCH  10  11
ATOM     11  C   UNL     1      -1.610 -44.648 -16.016  1.00  0.00    -0.000 C 
BRANCH  11  12
ATOM     12  C   UNL     1      -1.856 -44.791 -17.529  1.00  0.00    -0.003 C 
ATOM     13  C   UNL     1      -2.714 -46.006 -17.880  1.00  0.00     0.004 C 
ENDBRANCH  11  12
ENDBRANCH  10  11
ENDBRANCH   9  10
ENDBRANCH   8   9
ENDBRANCH   1   8
TORSDOF 9
ENDMDL
MODEL 6
REMARK VINA RESULT:    -4.197      1.203      1.876
REMARK INTER + INTRA:          -6.825
REMARK INTER:                  -6.383
REMARK INTRA:                  -0.443
REMARK UNBOUND:                -0.421
REMARK SMILES CCCCCCCCCCC(=O)[O-]
REMARK SMILES IDX 7 1 8 2 9 3 10 4 11 5 12 6 13 7 6 8 5 9 4 10 3 11 2 12 1 13
REMARK H PARENT
REMARK Flexibility Score: inf
ROOT
ATOM      1  C   UNL     1      -1.614 -41.234 -18.956  1.00  0.00     0.000 C 
ENDROOT
BRANCH   1   2
ATOM      2  C   UNL     1      -0.825 -40.756 -20.185  1.00  0.00     0.000 C 
BRANCH   2   3
ATOM      3  C   UNL     1      -1.526 -39.566 -20.856  1.00  0.00     0.006 C 
BRANCH   3   4
ATOM      4  C   UNL     1      -0.606 -38.830 -21.841  1.00  0.00     0.053 C 
BRANCH   4   5
ATOM      5  C   UNL     1      -0.518 -37.366 -21.532  1.00  0.00     0.041 C 
ATOM      6  O   UNL     1      -1.438 -36.586 -21.892  1.00  0.00    -0.550 OA
ATOM      7  O   UNL     1       0.564 -36.870 -20.816  1.00  0.00    -0.550 OA
ENDBRANCH   4   5
ENDBRANCH   3   4
ENDBRANCH   2   3
ENDBRANCH   1   2
BRANCH   1   8
ATOM      8  C   UNL     1      -0.963 -42.443 -18.265  1.00  0.00     0.000 C 
BRANCH   8   9
ATOM      9  C   UNL     1       0.574 -42.392 -18.312  1.00  0.00    -0.000 C 
BRANCH   9  10
ATOM     10  C   UNL     1       1.234 -43.558 -17.553  1.00  0.00    -0.000 C 
BRANCH  10  11
ATOM     11  C   UNL     1       1.351 -44.876 -18.345  1.00  0.00    -0.000 C 
BRANCH  11  12
ATOM     12  C   UNL     1       0.686 -46.096 -17.682  1.00  0.00    -0.003 C 
ATOM     13  C   UNL     1      -0.390 -45.708 -16.667  1.00  0.00     0.004 C 
ENDBRANCH  11  12
ENDBRANCH  10  11
ENDBRANCH   9  10
ENDBRANCH   8   9
ENDBRANCH   1   8
TORSDOF 9
ENDMDL
MODEL 7
REMARK VINA RESULT:    -4.082      8.645     11.859
REMARK INTER + INTRA:          -6.651
REMARK INTER:                  -6.371
REMARK INTRA:                  -0.280
REMARK UNBOUND:                -0.421
REMARK SMILES CCCCCCCCCCC(=O)[O-]
REMARK SMILES IDX 7 1 8 2 9 3 10 4 11 5 12 6 13 7 6 8 5 9 4 10 3 11 2 12 1 13
REMARK H PARENT
REMARK Flexibility Score: inf
ROOT
ATOM      1  C   UNL     1       6.311 -34.992 -20.792  1.00  0.00     0.000 C 
ENDROOT
BRANCH   1   2
ATOM      2  C   UNL     1       6.896 -35.873 -21.907  1.00  0.00     0.000 C 
BRANCH   2   3
ATOM      3  C   UNL     1       6.742 -37.362 -21.564  1.00  0.00     0.006 C 
BRANCH   3   4
ATOM      4  C   UNL     1       6.160 -37.579 -20.161  1.00  0.00     0.053 C 
BRANCH   4   5
ATOM      5  C   UNL     1       6.985 -38.537 -19.357  1.00  0.00     0.041 C 
ATOM      6  O   UNL     1       7.549 -38.153 -18.299  1.00  0.00    -0.550 OA
ATOM      7  O   UNL     1       7.102 -39.861 -19.758  1.00  0.00    -0.550 OA
ENDBRANCH   4   5
ENDBRANCH   3   4
ENDBRANCH   2   3
ENDBRANCH   1   2
BRANCH   1   8
ATOM      8  C   UNL     1       7.190 -33.769 -20.478  1.00  0.00     0.000 C 
BRANCH   8   9
ATOM      9  C   UNL     1       6.401 -32.631 -19.809  1.00  0.00    -0.000 C 
BRANCH   9  10
ATOM     10  C   UNL     1       7.191 -31.938 -18.683  1.00  0.00    -0.000 C 
BRANCH  10  11
ATOM     11  C   UNL     1       6.423 -30.838 -17.922  1.00  0.00    -0.000 C 
BRANCH  11  12
ATOM     12  C   UNL     1       7.145 -29.481 -17.838  1.00  0.00    -0.003 C 
ATOM     13  C   UNL     1       7.459 -29.062 -16.403  1.00  0.00     0.004 C 
ENDBRANCH  11  12
ENDBRANCH  10  11
ENDBRANCH   9  10
ENDBRANCH   8   9
ENDBRANCH   1   8
TORSDOF 9
ENDMDL
MODEL 8
REMARK VINA RESULT:    -4.076      8.172     11.251
REMARK INTER + INTRA:          -6.642
REMARK INTER:                  -6.348
REMARK INTRA:                  -0.294
REMARK UNBOUND:                -0.421
REMARK SMILES CCCCCCCCCCC(=O)[O-]
REMARK SMILES IDX 7 1 8 2 9 3 10 4 11 5 12 6 13 7 6 8 5 9 4 10 3 11 2 12 1 13
REMARK H PARENT
REMARK Flexibility Score: inf
ROOT
ATOM      1  C   UNL     1       6.387 -35.385 -20.781  1.00  0.00     0.000 C 
ENDROOT
BRANCH   1   2
ATOM      2  C   UNL     1       6.954 -36.316 -21.864  1.00  0.00     0.000 C 
BRANCH   2   3
ATOM      3  C   UNL     1       6.179 -36.161 -23.181  1.00  0.00     0.006 C 
BRANCH   3   4
ATOM      4  C   UNL     1       4.680 -35.928 -22.948  1.00  0.00     0.053 C 
BRANCH   4   5
ATOM      5  C   UNL     1       3.839 -36.768 -23.861  1.00  0.00     0.041 C 
ATOM      6  O   UNL     1       3.113 -37.683 -23.390  1.00  0.00    -0.550 OA
ATOM      7  O   UNL     1       3.829 -36.517 -25.227  1.00  0.00    -0.550 OA
ENDBRANCH   4   5
ENDBRANCH   3   4
ENDBRANCH   2   3
ENDBRANCH   1   2
BRANCH   1   8
ATOM      8  C   UNL     1       7.279 -34.159 -20.525  1.00  0.00     0.000 C 
BRANCH   8   9
ATOM      9  C   UNL     1       6.470 -32.918 -20.112  1.00  0.00    -0.000 C 
BRANCH   9  10
ATOM     10  C   UNL     1       7.130 -32.129 -18.965  1.00  0.00    -0.000 C 
BRANCH  10  11
ATOM     11  C   UNL     1       6.263 -31.010 -18.353  1.00  0.00    -0.000 C 
BRANCH  11  12
ATOM     12  C   UNL     1       6.916 -30.246 -17.187  1.00  0.00    -0.003 C 
ATOM     13  C   UNL     1       7.676 -29.001 -17.642  1.00  0.00     0.004 C 
ENDBRANCH  11  12
ENDBRANCH  10  11
ENDBRANCH   9  10
ENDBRANCH   8   9
ENDBRANCH   1   8
TORSDOF 9
ENDMDL
MODEL 9
REMARK VINA RESULT:    -3.944     11.355     13.206
REMARK INTER + INTRA:          -6.439
REMARK INTER:                  -5.693
REMARK INTRA:                  -0.746
REMARK UNBOUND:                -0.421
REMARK SMILES CCCCCCCCCCC(=O)[O-]
REMARK SMILES IDX 7 1 8 2 9 3 10 4 11 5 12 6 13 7 6 8 5 9 4 10 3 11 2 12 1 13
REMARK H PARENT
REMARK Flexibility Score: inf
ROOT
ATOM      1  C   UNL     1       4.528 -29.993 -15.265  1.00  0.00     0.000 C 
ENDROOT
BRANCH   1   2
ATOM      2  C   UNL     1       4.085 -28.527 -15.392  1.00  0.00     0.000 C 
BRANCH   2   3
ATOM      3  C   UNL     1       5.288 -27.614 -15.672  1.00  0.00     0.006 C 
BRANCH   3   4
ATOM      4  C   UNL     1       5.905 -27.874 -17.053  1.00  0.00     0.053 C 
BRANCH   4   5
ATOM      5  C   UNL     1       7.389 -28.069 -16.972  1.00  0.00     0.041 C 
ATOM      6  O   UNL     1       7.880 -28.831 -16.099  1.00  0.00    -0.550 OA
ATOM      7  O   UNL     1       8.225 -27.436 -17.883  1.00  0.00    -0.550 OA
ENDBRANCH   4   5
ENDBRANCH   3   4
ENDBRANCH   2   3
ENDBRANCH   1   2
BRANCH   1   8
ATOM      8  C   UNL     1       3.412 -30.984 -15.634  1.00  0.00     0.000 C 
BRANCH   8   9
ATOM      9  C   UNL     1       3.852 -31.995 -16.707  1.00  0.00    -0.000 C 
BRANCH   9  10
ATOM     10  C   UNL     1       4.801 -31.381 -17.753  1.00  0.00    -0.000 C 
BRANCH  10  11
ATOM     11  C   UNL     1       6.297 -31.695 -17.548  1.00  0.00    -0.000 C 
BRANCH  11  12
ATOM     12  C   UNL     1       7.138 -31.725 -18.837  1.00  0.00    -0.003 C 
ATOM     13  C   UNL     1       6.696 -32.819 -19.810  1.00  0.00     0.004 C 
ENDBRANCH  11  12
ENDBRANCH  10  11
ENDBRANCH   9  10
ENDBRANCH   8   9
ENDBRANCH   1   8
TORSDOF 9
ENDMDL
