MODEL 1
REMARK VINA RESULT:    -9.437      0.000      0.000
REMARK INTER + INTRA:         -13.512
REMARK INTER:                 -12.747
REMARK INTRA:                  -0.765
REMARK UNBOUND:                -0.765
REMARK SMILES C[C@@H]1O[C@H](Oc2cc(O)c3c(=O)c(O)c(-c4ccc(O)cc4)oc3c2)[C@H](O)[C@@H](O)[C@@H]1O
REMARK SMILES IDX 6 1 7 2 8 3 10 4 24 5 25 6 23 7 15 8 13 9 11 10 12 11 5 12
REMARK SMILES IDX 4 13 1 14 2 15 30 16 3 17 28 18 26 19 31 20 29 22 27 24 9 26
REMARK SMILES IDX 16 28 17 29 22 30 18 31 21 32 19 33 20 34 14 36
REMARK H PARENT 31 21 29 23 27 25 9 27 20 35 14 37
REMARK Flexibility Score: inf
ROOT
ATOM      1  C   UNL     1      -8.310 -15.457  29.526  1.00  0.00     0.130 A 
ATOM      2  C   UNL     1      -8.904 -15.298  28.262  1.00  0.00     0.093 A 
ATOM      3  C   UNL     1     -10.183 -15.800  27.993  1.00  0.00     0.134 A 
ATOM      4  C   UNL     1     -10.931 -16.420  29.036  1.00  0.00     0.111 A 
ATOM      5  C   UNL     1     -10.313 -16.592  30.299  1.00  0.00     0.146 A 
ATOM      6  C   UNL     1      -9.021 -16.114  30.528  1.00  0.00     0.094 A 
ATOM      7  O   UNL     1     -10.948 -17.203  31.291  1.00  0.00    -0.452 OA
ATOM      8  C   UNL     1     -12.185 -17.673  31.189  1.00  0.00     0.180 A 
ATOM      9  C   UNL     1     -12.906 -17.485  29.997  1.00  0.00     0.208 A 
ATOM     10  C   UNL     1     -12.276 -16.847  28.916  1.00  0.00     0.238 A 
ATOM     11  O   UNL     1     -12.943 -16.630  27.871  1.00  0.00    -0.285 OA
ENDROOT
BRANCH   1  12
ATOM     12  O   UNL     1      -7.025 -14.982  29.841  1.00  0.00    -0.462 OA
BRANCH  12  13
ATOM     13  C   UNL     1      -6.357 -13.856  29.263  1.00  0.00     0.339 C 
ATOM     14  C   UNL     1      -6.540 -13.714  32.351  1.00  0.00     0.042 C 
ATOM     15  C   UNL     1      -5.820 -12.799  31.341  1.00  0.00     0.151 C 
ATOM     16  C   UNL     1      -4.312 -13.104  31.175  1.00  0.00     0.174 C 
ATOM     17  O   UNL     1      -6.508 -12.713  30.096  1.00  0.00    -0.335 OA
ATOM     18  C   UNL     1      -4.093 -14.332  30.276  1.00  0.00     0.180 C 
ATOM     19  C   UNL     1      -4.871 -14.153  28.964  1.00  0.00     0.214 C 
BRANCH  16  20
ATOM     20  O   UNL     1      -3.719 -13.305  32.433  1.00  0.00    -0.388 OA
ATOM     21  H   UNL     1      -3.028 -14.009  32.318  1.00  0.00     0.211 HD
ENDBRANCH  16  20
BRANCH  18  22
ATOM     22  O   UNL     1      -2.724 -14.529  30.024  1.00  0.00    -0.387 OA
ATOM     23  H   UNL     1      -2.216 -14.147  30.788  1.00  0.00     0.211 HD
ENDBRANCH  18  22
BRANCH  19  24
ATOM     24  O   UNL     1      -4.757 -15.308  28.176  1.00  0.00    -0.384 OA
ATOM     25  H   UNL     1      -5.378 -15.982  28.557  1.00  0.00     0.211 HD
ENDBRANCH  19  24
ENDBRANCH  12  13
ENDBRANCH   1  12
BRANCH   3  26
ATOM     26  O   UNL     1     -10.637 -15.675  26.677  1.00  0.00    -0.507 OA
ATOM     27  H   UNL     1     -10.191 -16.092  25.874  1.00  0.00     0.293 HD
ENDBRANCH   3  26
BRANCH   8  28
ATOM     28  C   UNL     1     -12.771 -18.360  32.364  1.00  0.00     0.021 A 
ATOM     29  C   UNL     1     -13.741 -17.736  33.170  1.00  0.00     0.016 A 
ATOM     30  C   UNL     1     -12.398 -19.685  32.648  1.00  0.00     0.016 A 
ATOM     31  C   UNL     1     -14.298 -18.413  34.259  1.00  0.00     0.047 A 
ATOM     32  C   UNL     1     -12.955 -20.359  33.738  1.00  0.00     0.047 A 
ATOM     33  C   UNL     1     -13.903 -19.726  34.548  1.00  0.00     0.115 A 
BRANCH  33  34
ATOM     34  O   UNL     1     -14.450 -20.411  35.630  1.00  0.00    -0.508 OA
ATOM     35  H   UNL     1     -14.965 -19.927  36.357  1.00  0.00     0.293 HD
ENDBRANCH  33  34
ENDBRANCH   8  28
BRANCH   9  36
ATOM     36  O   UNL     1     -14.239 -17.894  29.908  1.00  0.00    -0.502 OA
ATOM     37  H   UNL     1     -15.009 -17.308  30.208  1.00  0.00     0.293 HD
ENDBRANCH   9  36
TORSDOF 9
ENDMDL
MODEL 2
REMARK VINA RESULT:    -9.012      1.321      2.391
REMARK INTER + INTRA:         -12.938
REMARK INTER:                 -12.135
REMARK INTRA:                  -0.803
REMARK UNBOUND:                -0.765
REMARK SMILES C[C@@H]1O[C@H](Oc2cc(O)c3c(=O)c(O)c(-c4ccc(O)cc4)oc3c2)[C@H](O)[C@@H](O)[C@@H]1O
REMARK SMILES IDX 6 1 7 2 8 3 10 4 24 5 25 6 23 7 15 8 13 9 11 10 12 11 5 12
REMARK SMILES IDX 4 13 1 14 2 15 30 16 3 17 28 18 26 19 31 20 29 22 27 24 9 26
REMARK SMILES IDX 16 28 17 29 22 30 18 31 21 32 19 33 20 34 14 36
REMARK H PARENT 31 21 29 23 27 25 9 27 20 35 14 37
REMARK Flexibility Score: inf
ROOT
ATOM      1  C   UNL     1      -7.438 -14.675  29.666  1.00  0.00     0.130 A 
ATOM      2  C   UNL     1      -7.778 -14.624  28.303  1.00  0.00     0.093 A 
ATOM      3  C   UNL     1      -8.892 -15.313  27.807  1.00  0.00     0.134 A 
ATOM      4  C   UNL     1      -9.742 -16.021  28.706  1.00  0.00     0.111 A 
ATOM      5  C   UNL     1      -9.375 -16.081  30.074  1.00  0.00     0.146 A 
ATOM      6  C   UNL     1      -8.238 -15.416  30.534  1.00  0.00     0.094 A 
ATOM      7  O   UNL     1     -10.107 -16.764  30.946  1.00  0.00    -0.452 OA
ATOM      8  C   UNL     1     -11.218 -17.413  30.620  1.00  0.00     0.180 A 
ATOM      9  C   UNL     1     -11.700 -17.351  29.301  1.00  0.00     0.208 A 
ATOM     10  C   UNL     1     -10.960 -16.643  28.340  1.00  0.00     0.238 A 
ATOM     11  O   UNL     1     -11.424 -16.542  27.175  1.00  0.00    -0.285 OA
ENDROOT
BRANCH   1  12
ATOM     12  O   UNL     1      -6.324 -14.012  30.209  1.00  0.00    -0.462 OA
BRANCH  12  13
ATOM     13  C   UNL     1      -5.384 -14.538  31.153  1.00  0.00     0.339 C 
ATOM     14  C   UNL     1      -4.041 -13.077  28.775  1.00  0.00     0.042 C 
ATOM     15  C   UNL     1      -3.437 -13.682  30.057  1.00  0.00     0.151 C 
ATOM     16  C   UNL     1      -3.183 -12.652  31.184  1.00  0.00     0.174 C 
ATOM     17  O   UNL     1      -4.151 -14.831  30.508  1.00  0.00    -0.335 OA
ATOM     18  C   UNL     1      -4.488 -12.304  31.918  1.00  0.00     0.180 C 
ATOM     19  C   UNL     1      -5.188 -13.598  32.362  1.00  0.00     0.214 C 
BRANCH  16  20
ATOM     20  O   UNL     1      -2.594 -11.492  30.653  1.00  0.00    -0.388 OA
ATOM     21  H   UNL     1      -1.647 -11.712  30.455  1.00  0.00     0.211 HD
ENDBRANCH  16  20
BRANCH  18  22
ATOM     22  O   UNL     1      -4.234 -11.468  33.020  1.00  0.00    -0.387 OA
ATOM     23  H   UNL     1      -3.996 -10.569  32.671  1.00  0.00     0.211 HD
ENDBRANCH  18  22
BRANCH  19  24
ATOM     24  O   UNL     1      -6.427 -13.297  32.948  1.00  0.00    -0.384 OA
ATOM     25  H   UNL     1      -6.909 -12.701  32.318  1.00  0.00     0.211 HD
ENDBRANCH  19  24
ENDBRANCH  12  13
ENDBRANCH   1  12
BRANCH   3  26
ATOM     26  O   UNL     1      -9.081 -15.276  26.423  1.00  0.00    -0.507 OA
ATOM     27  H   UNL     1      -9.905 -14.914  25.965  1.00  0.00     0.293 HD
ENDBRANCH   3  26
BRANCH   8  28
ATOM     28  C   UNL     1     -11.928 -18.162  31.683  1.00  0.00     0.021 A 
ATOM     29  C   UNL     1     -11.447 -19.396  32.157  1.00  0.00     0.016 A 
ATOM     30  C   UNL     1     -13.073 -17.603  32.276  1.00  0.00     0.016 A 
ATOM     31  C   UNL     1     -12.120 -20.072  33.179  1.00  0.00     0.047 A 
ATOM     32  C   UNL     1     -13.745 -18.282  33.296  1.00  0.00     0.047 A 
ATOM     33  C   UNL     1     -13.274 -19.518  33.749  1.00  0.00     0.115 A 
BRANCH  33  34
ATOM     34  O   UNL     1     -13.954 -20.183  34.767  1.00  0.00    -0.508 OA
ATOM     35  H   UNL     1     -14.749 -20.779  34.570  1.00  0.00     0.293 HD
ENDBRANCH  33  34
ENDBRANCH   8  28
BRANCH   9  36
ATOM     36  O   UNL     1     -12.916 -17.953  28.966  1.00  0.00    -0.502 OA
ATOM     37  H   UNL     1     -13.511 -18.397  29.655  1.00  0.00     0.293 HD
ENDBRANCH   9  36
TORSDOF 9
ENDMDL
MODEL 3
REMARK VINA RESULT:    -8.451      1.382      2.432
REMARK INTER + INTRA:         -12.180
REMARK INTER:                 -11.433
REMARK INTRA:                  -0.747
REMARK UNBOUND:                -0.765
REMARK SMILES C[C@@H]1O[C@H](Oc2cc(O)c3c(=O)c(O)c(-c4ccc(O)cc4)oc3c2)[C@H](O)[C@@H](O)[C@@H]1O
REMARK SMILES IDX 6 1 7 2 8 3 10 4 24 5 25 6 23 7 15 8 13 9 11 10 12 11 5 12
REMARK SMILES IDX 4 13 1 14 2 15 30 16 3 17 28 18 26 19 31 20 29 22 27 24 9 26
REMARK SMILES IDX 16 28 17 29 22 30 18 31 21 32 19 33 20 34 14 36
REMARK H PARENT 31 21 29 23 27 25 9 27 20 35 14 37
REMARK Flexibility Score: inf
ROOT
ATOM      1  C   UNL     1      -7.096 -14.537  29.356  1.00  0.00     0.130 A 
ATOM      2  C   UNL     1      -7.467 -14.454  28.002  1.00  0.00     0.093 A 
ATOM      3  C   UNL     1      -8.618 -15.094  27.525  1.00  0.00     0.134 A 
ATOM      4  C   UNL     1      -9.472 -15.782  28.435  1.00  0.00     0.111 A 
ATOM      5  C   UNL     1      -9.075 -15.875  29.793  1.00  0.00     0.146 A 
ATOM      6  C   UNL     1      -7.903 -15.259  30.234  1.00  0.00     0.094 A 
ATOM      7  O   UNL     1      -9.811 -16.543  30.673  1.00  0.00    -0.452 OA
ATOM      8  C   UNL     1     -10.953 -17.145  30.366  1.00  0.00     0.180 A 
ATOM      9  C   UNL     1     -11.464 -17.046  29.060  1.00  0.00     0.208 A 
ATOM     10  C   UNL     1     -10.722 -16.353  28.091  1.00  0.00     0.238 A 
ATOM     11  O   UNL     1     -11.209 -16.218  26.939  1.00  0.00    -0.285 OA
ENDROOT
BRANCH   1  12
ATOM     12  O   UNL     1      -5.946 -13.924  29.880  1.00  0.00    -0.462 OA
BRANCH  12  13
ATOM     13  C   UNL     1      -5.824 -13.256  31.141  1.00  0.00     0.339 C 
ATOM     14  C   UNL     1      -3.269 -14.806  30.329  1.00  0.00     0.042 C 
ATOM     15  C   UNL     1      -3.542 -13.867  31.520  1.00  0.00     0.151 C 
ATOM     16  C   UNL     1      -3.055 -12.415  31.306  1.00  0.00     0.174 C 
ATOM     17  O   UNL     1      -4.892 -13.938  31.972  1.00  0.00    -0.335 OA
ATOM     18  C   UNL     1      -4.032 -11.630  30.415  1.00  0.00     0.180 C 
ATOM     19  C   UNL     1      -5.457 -11.765  30.974  1.00  0.00     0.214 C 
BRANCH  16  20
ATOM     20  O   UNL     1      -1.769 -12.416  30.740  1.00  0.00    -0.388 OA
ATOM     21  H   UNL     1      -1.732 -13.179  30.106  1.00  0.00     0.211 HD
ENDBRANCH  16  20
BRANCH  18  22
ATOM     22  O   UNL     1      -3.654 -10.279  30.327  1.00  0.00    -0.387 OA
ATOM     23  H   UNL     1      -4.231  -9.845  29.645  1.00  0.00     0.211 HD
ENDBRANCH  18  22
BRANCH  19  24
ATOM     24  O   UNL     1      -6.371 -11.133  30.117  1.00  0.00    -0.384 OA
ATOM     25  H   UNL     1      -6.493 -11.729  29.332  1.00  0.00     0.211 HD
ENDBRANCH  19  24
ENDBRANCH  12  13
ENDBRANCH   1  12
BRANCH   3  26
ATOM     26  O   UNL     1      -8.839 -15.031  26.146  1.00  0.00    -0.507 OA
ATOM     27  H   UNL     1      -8.883 -15.832  25.534  1.00  0.00     0.293 HD
ENDBRANCH   3  26
BRANCH   8  28
ATOM     28  C   UNL     1     -11.665 -17.881  31.437  1.00  0.00     0.021 A 
ATOM     29  C   UNL     1     -11.211 -19.132  31.893  1.00  0.00     0.016 A 
ATOM     30  C   UNL     1     -12.784 -17.295  32.053  1.00  0.00     0.016 A 
ATOM     31  C   UNL     1     -11.885 -19.796  32.922  1.00  0.00     0.047 A 
ATOM     32  C   UNL     1     -13.457 -17.962  33.080  1.00  0.00     0.047 A 
ATOM     33  C   UNL     1     -13.012 -19.214  33.516  1.00  0.00     0.115 A 
BRANCH  33  34
ATOM     34  O   UNL     1     -13.693 -19.868  34.541  1.00  0.00    -0.508 OA
ATOM     35  H   UNL     1     -14.018 -19.370  35.362  1.00  0.00     0.293 HD
ENDBRANCH  33  34
ENDBRANCH   8  28
BRANCH   9  36
ATOM     36  O   UNL     1     -12.709 -17.597  28.747  1.00  0.00    -0.502 OA
ATOM     37  H   UNL     1     -13.582 -17.161  29.021  1.00  0.00     0.293 HD
ENDBRANCH   9  36
TORSDOF 9
ENDMDL
MODEL 4
REMARK VINA RESULT:    -7.863      1.736      3.007
REMARK INTER + INTRA:         -11.386
REMARK INTER:                 -10.715
REMARK INTRA:                  -0.671
REMARK UNBOUND:                -0.765
REMARK SMILES C[C@@H]1O[C@H](Oc2cc(O)c3c(=O)c(O)c(-c4ccc(O)cc4)oc3c2)[C@H](O)[C@@H](O)[C@@H]1O
REMARK SMILES IDX 6 1 7 2 8 3 10 4 24 5 25 6 23 7 15 8 13 9 11 10 12 11 5 12
REMARK SMILES IDX 4 13 1 14 2 15 30 16 3 17 28 18 26 19 31 20 29 22 27 24 9 26
REMARK SMILES IDX 16 28 17 29 22 30 18 31 21 32 19 33 20 34 14 36
REMARK H PARENT 31 21 29 23 27 25 9 27 20 35 14 37
REMARK Flexibility Score: inf
ROOT
ATOM      1  C   UNL     1      -6.075 -14.122  29.738  1.00  0.00     0.130 A 
ATOM      2  C   UNL     1      -6.234 -13.899  28.359  1.00  0.00     0.093 A 
ATOM      3  C   UNL     1      -7.314 -14.447  27.656  1.00  0.00     0.134 A 
ATOM      4  C   UNL     1      -8.312 -15.183  28.357  1.00  0.00     0.111 A 
ATOM      5  C   UNL     1      -8.129 -15.417  29.743  1.00  0.00     0.146 A 
ATOM      6  C   UNL     1      -7.023 -14.891  30.411  1.00  0.00     0.094 A 
ATOM      7  O   UNL     1      -9.006 -16.135  30.434  1.00  0.00    -0.452 OA
ATOM      8  C   UNL     1     -10.103 -16.661  29.903  1.00  0.00     0.180 A 
ATOM      9  C   UNL     1     -10.407 -16.422  28.551  1.00  0.00     0.208 A 
ATOM     10  C   UNL     1      -9.509 -15.671  27.776  1.00  0.00     0.238 A 
ATOM     11  O   UNL     1      -9.812 -15.411  26.583  1.00  0.00    -0.285 OA
ENDROOT
BRANCH   1  12
ATOM     12  O   UNL     1      -5.003 -13.605  30.485  1.00  0.00    -0.462 OA
BRANCH  12  13
ATOM     13  C   UNL     1      -3.827 -12.966  29.977  1.00  0.00     0.339 C 
ATOM     14  C   UNL     1      -5.544 -11.115  31.771  1.00  0.00     0.042 C 
ATOM     15  C   UNL     1      -4.166 -10.891  31.120  1.00  0.00     0.151 C 
ATOM     16  C   UNL     1      -2.969 -11.149  32.067  1.00  0.00     0.174 C 
ATOM     17  O   UNL     1      -4.037 -11.563  29.869  1.00  0.00    -0.335 OA
ATOM     18  C   UNL     1      -2.697 -12.655  32.214  1.00  0.00     0.180 C 
ATOM     19  C   UNL     1      -2.577 -13.294  30.822  1.00  0.00     0.214 C 
BRANCH  16  20
ATOM     20  O   UNL     1      -3.215 -10.570  33.323  1.00  0.00    -0.388 OA
ATOM     21  H   UNL     1      -4.184 -10.681  33.509  1.00  0.00     0.211 HD
ENDBRANCH  16  20
BRANCH  18  22
ATOM     22  O   UNL     1      -1.534 -12.881  32.971  1.00  0.00    -0.387 OA
ATOM     23  H   UNL     1      -0.751 -12.695  32.389  1.00  0.00     0.211 HD
ENDBRANCH  18  22
BRANCH  19  24
ATOM     24  O   UNL     1      -2.424 -14.683  30.942  1.00  0.00    -0.384 OA
ATOM     25  H   UNL     1      -3.316 -15.055  31.169  1.00  0.00     0.211 HD
ENDBRANCH  19  24
ENDBRANCH  12  13
ENDBRANCH   1  12
BRANCH   3  26
ATOM     26  O   UNL     1      -7.321 -14.247  26.272  1.00  0.00    -0.507 OA
ATOM     27  H   UNL     1      -7.709 -14.893  25.601  1.00  0.00     0.293 HD
ENDBRANCH   3  26
BRANCH   8  28
ATOM     28  C   UNL     1     -10.987 -17.465  30.778  1.00  0.00     0.021 A 
ATOM     29  C   UNL     1     -10.567 -18.700  31.309  1.00  0.00     0.016 A 
ATOM     30  C   UNL     1     -12.249 -16.962  31.137  1.00  0.00     0.016 A 
ATOM     31  C   UNL     1     -11.410 -19.429  32.153  1.00  0.00     0.047 A 
ATOM     32  C   UNL     1     -13.089 -17.694  31.981  1.00  0.00     0.047 A 
ATOM     33  C   UNL     1     -12.675 -18.930  32.488  1.00  0.00     0.115 A 
BRANCH  33  34
ATOM     34  O   UNL     1     -13.523 -19.648  33.327  1.00  0.00    -0.508 OA
ATOM     35  H   UNL     1     -13.247 -20.540  33.722  1.00  0.00     0.293 HD
ENDBRANCH  33  34
ENDBRANCH   8  28
BRANCH   9  36
ATOM     36  O   UNL     1     -11.603 -16.893  28.004  1.00  0.00    -0.502 OA
ATOM     37  H   UNL     1     -11.807 -16.837  27.014  1.00  0.00     0.293 HD
ENDBRANCH   9  36
TORSDOF 9
ENDMDL
MODEL 5
REMARK VINA RESULT:    -7.828      5.563     11.049
REMARK INTER + INTRA:         -11.339
REMARK INTER:                 -10.603
REMARK INTRA:                  -0.736
REMARK UNBOUND:                -0.765
REMARK SMILES C[C@@H]1O[C@H](Oc2cc(O)c3c(=O)c(O)c(-c4ccc(O)cc4)oc3c2)[C@H](O)[C@@H](O)[C@@H]1O
REMARK SMILES IDX 6 1 7 2 8 3 10 4 24 5 25 6 23 7 15 8 13 9 11 10 12 11 5 12
REMARK SMILES IDX 4 13 1 14 2 15 30 16 3 17 28 18 26 19 31 20 29 22 27 24 9 26
REMARK SMILES IDX 16 28 17 29 22 30 18 31 21 32 19 33 20 34 14 36
REMARK H PARENT 31 21 29 23 27 25 9 27 20 35 14 37
REMARK Flexibility Score: inf
ROOT
ATOM      1  C   UNL     1      -2.820 -13.155  28.950  1.00  0.00     0.130 A 
ATOM      2  C   UNL     1      -2.184 -11.952  28.596  1.00  0.00     0.093 A 
ATOM      3  C   UNL     1      -1.268 -11.900  27.538  1.00  0.00     0.134 A 
ATOM      4  C   UNL     1      -1.026 -13.067  26.756  1.00  0.00     0.111 A 
ATOM      5  C   UNL     1      -1.658 -14.277  27.136  1.00  0.00     0.146 A 
ATOM      6  C   UNL     1      -2.538 -14.308  28.219  1.00  0.00     0.094 A 
ATOM      7  O   UNL     1      -1.433 -15.402  26.470  1.00  0.00    -0.452 OA
ATOM      8  C   UNL     1      -0.634 -15.480  25.412  1.00  0.00     0.180 A 
ATOM      9  C   UNL     1      -0.019 -14.317  24.917  1.00  0.00     0.208 A 
ATOM     10  C   UNL     1      -0.224 -13.102  25.589  1.00  0.00     0.238 A 
ATOM     11  O   UNL     1       0.282 -12.054  25.109  1.00  0.00    -0.285 OA
ENDROOT
BRANCH   1  12
ATOM     12  O   UNL     1      -3.736 -13.260  30.010  1.00  0.00    -0.462 OA
BRANCH  12  13
ATOM     13  C   UNL     1      -4.552 -12.215  30.551  1.00  0.00     0.339 C 
ATOM     14  C   UNL     1      -6.174 -14.358  29.013  1.00  0.00     0.042 C 
ATOM     15  C   UNL     1      -6.639 -13.145  29.841  1.00  0.00     0.151 C 
ATOM     16  C   UNL     1      -7.048 -13.489  31.292  1.00  0.00     0.174 C 
ATOM     17  O   UNL     1      -5.727 -12.052  29.767  1.00  0.00    -0.335 OA
ATOM     18  C   UNL     1      -5.810 -13.672  32.186  1.00  0.00     0.180 C 
ATOM     19  C   UNL     1      -4.887 -12.453  32.040  1.00  0.00     0.214 C 
BRANCH  16  20
ATOM     20  O   UNL     1      -7.840 -14.649  31.308  1.00  0.00    -0.388 OA
ATOM     21  H   UNL     1      -8.786 -14.354  31.376  1.00  0.00     0.211 HD
ENDBRANCH  16  20
BRANCH  18  22
ATOM     22  O   UNL     1      -6.186 -13.859  33.528  1.00  0.00    -0.387 OA
ATOM     23  H   UNL     1      -7.108 -14.230  33.538  1.00  0.00     0.211 HD
ENDBRANCH  18  22
BRANCH  19  24
ATOM     24  O   UNL     1      -3.709 -12.652  32.777  1.00  0.00    -0.384 OA
ATOM     25  H   UNL     1      -3.178 -13.338  32.295  1.00  0.00     0.211 HD
ENDBRANCH  19  24
ENDBRANCH  12  13
ENDBRANCH   1  12
BRANCH   3  26
ATOM     26  O   UNL     1      -0.619 -10.679  27.335  1.00  0.00    -0.507 OA
ATOM     27  H   UNL     1      -0.371 -10.303  26.432  1.00  0.00     0.293 HD
ENDBRANCH   3  26
BRANCH   8  28
ATOM     28  C   UNL     1      -0.446 -16.804  24.774  1.00  0.00     0.021 A 
ATOM     29  C   UNL     1       0.367 -17.792  25.361  1.00  0.00     0.016 A 
ATOM     30  C   UNL     1      -1.138 -17.105  23.589  1.00  0.00     0.016 A 
ATOM     31  C   UNL     1       0.509 -19.042  24.753  1.00  0.00     0.047 A 
ATOM     32  C   UNL     1      -0.992 -18.356  22.983  1.00  0.00     0.047 A 
ATOM     33  C   UNL     1      -0.168 -19.327  23.559  1.00  0.00     0.115 A 
BRANCH  33  34
ATOM     34  O   UNL     1      -0.032 -20.569  22.944  1.00  0.00    -0.508 OA
ATOM     35  H   UNL     1       0.528 -21.306  23.357  1.00  0.00     0.293 HD
ENDBRANCH  33  34
ENDBRANCH   8  28
BRANCH   9  36
ATOM     36  O   UNL     1       0.750 -14.369  23.751  1.00  0.00    -0.502 OA
ATOM     37  H   UNL     1       1.697 -14.014  23.709  1.00  0.00     0.293 HD
ENDBRANCH   9  36
TORSDOF 9
ENDMDL
MODEL 6
REMARK VINA RESULT:    -7.763      2.497      9.944
REMARK INTER + INTRA:         -11.251
REMARK INTER:                 -10.776
REMARK INTRA:                  -0.475
REMARK UNBOUND:                -0.765
REMARK SMILES C[C@@H]1O[C@H](Oc2cc(O)c3c(=O)c(O)c(-c4ccc(O)cc4)oc3c2)[C@H](O)[C@@H](O)[C@@H]1O
REMARK SMILES IDX 6 1 7 2 8 3 10 4 24 5 25 6 23 7 15 8 13 9 11 10 12 11 5 12
REMARK SMILES IDX 4 13 1 14 2 15 30 16 3 17 28 18 26 19 31 20 29 22 27 24 9 26
REMARK SMILES IDX 16 28 17 29 22 30 18 31 21 32 19 33 20 34 14 36
REMARK H PARENT 31 21 29 23 27 25 9 27 20 35 14 37
REMARK Flexibility Score: inf
ROOT
ATOM      1  C   UNL     1      -8.168 -15.130  29.908  1.00  0.00     0.130 A 
ATOM      2  C   UNL     1      -7.898 -14.940  31.274  1.00  0.00     0.093 A 
ATOM      3  C   UNL     1      -6.623 -14.566  31.716  1.00  0.00     0.134 A 
ATOM      4  C   UNL     1      -5.596 -14.300  30.764  1.00  0.00     0.111 A 
ATOM      5  C   UNL     1      -5.876 -14.515  29.391  1.00  0.00     0.146 A 
ATOM      6  C   UNL     1      -7.146 -14.925  28.982  1.00  0.00     0.094 A 
ATOM      7  O   UNL     1      -4.942 -14.326  28.467  1.00  0.00    -0.452 OA
ATOM      8  C   UNL     1      -3.711 -13.915  28.744  1.00  0.00     0.180 A 
ATOM      9  C   UNL     1      -3.361 -13.606  30.070  1.00  0.00     0.208 A 
ATOM     10  C   UNL     1      -4.313 -13.793  31.085  1.00  0.00     0.238 A 
ATOM     11  O   UNL     1      -4.014 -13.462  32.262  1.00  0.00    -0.285 OA
ENDROOT
BRANCH   1  12
ATOM     12  O   UNL     1      -9.426 -15.517  29.416  1.00  0.00    -0.462 OA
BRANCH  12  13
ATOM     13  C   UNL     1      -9.707 -16.604  28.527  1.00  0.00     0.339 C 
ATOM     14  C   UNL     1     -11.308 -16.746  31.175  1.00  0.00     0.042 C 
ATOM     15  C   UNL     1     -11.377 -17.620  29.907  1.00  0.00     0.151 C 
ATOM     16  C   UNL     1     -12.509 -17.228  28.929  1.00  0.00     0.174 C 
ATOM     17  O   UNL     1     -10.111 -17.751  29.265  1.00  0.00    -0.335 OA
ATOM     18  C   UNL     1     -12.120 -15.992  28.101  1.00  0.00     0.180 C 
ATOM     19  C   UNL     1     -10.747 -16.221  27.452  1.00  0.00     0.214 C 
BRANCH  16  20
ATOM     20  O   UNL     1     -13.698 -16.987  29.639  1.00  0.00    -0.388 OA
ATOM     21  H   UNL     1     -13.678 -17.569  30.443  1.00  0.00     0.211 HD
ENDBRANCH  16  20
BRANCH  18  22
ATOM     22  O   UNL     1     -13.095 -15.715  27.127  1.00  0.00    -0.387 OA
ATOM     23  H   UNL     1     -13.928 -16.192  27.385  1.00  0.00     0.211 HD
ENDBRANCH  18  22
BRANCH  19  24
ATOM     24  O   UNL     1     -10.337 -15.064  26.772  1.00  0.00    -0.384 OA
ATOM     25  H   UNL     1      -9.659 -14.616  27.343  1.00  0.00     0.211 HD
ENDBRANCH  19  24
ENDBRANCH  12  13
ENDBRANCH   1  12
BRANCH   3  26
ATOM     26  O   UNL     1      -6.437 -14.502  33.100  1.00  0.00    -0.507 OA
ATOM     27  H   UNL     1      -6.558 -13.671  33.658  1.00  0.00     0.293 HD
ENDBRANCH   3  26
BRANCH   8  28
ATOM     28  C   UNL     1      -2.754 -13.769  27.622  1.00  0.00     0.021 A 
ATOM     29  C   UNL     1      -1.967 -12.612  27.475  1.00  0.00     0.016 A 
ATOM     30  C   UNL     1      -2.582 -14.830  26.717  1.00  0.00     0.016 A 
ATOM     31  C   UNL     1      -1.053 -12.508  26.423  1.00  0.00     0.047 A 
ATOM     32  C   UNL     1      -1.668 -14.723  25.665  1.00  0.00     0.047 A 
ATOM     33  C   UNL     1      -0.903 -13.562  25.512  1.00  0.00     0.115 A 
BRANCH  33  34
ATOM     34  O   UNL     1       0.003 -13.469  24.459  1.00  0.00    -0.508 OA
ATOM     35  H   UNL     1       0.119 -14.223  23.792  1.00  0.00     0.293 HD
ENDBRANCH  33  34
ENDBRANCH   8  28
BRANCH   9  36
ATOM     36  O   UNL     1      -2.097 -13.086  30.362  1.00  0.00    -0.502 OA
ATOM     37  H   UNL     1      -1.710 -13.089  31.298  1.00  0.00     0.293 HD
ENDBRANCH   9  36
TORSDOF 9
ENDMDL
MODEL 7
REMARK VINA RESULT:    -7.676      9.650     12.516
REMARK INTER + INTRA:         -11.133
REMARK INTER:                 -10.585
REMARK INTRA:                  -0.548
REMARK UNBOUND:                -0.765
REMARK SMILES C[C@@H]1O[C@H](Oc2cc(O)c3c(=O)c(O)c(-c4ccc(O)cc4)oc3c2)[C@H](O)[C@@H](O)[C@@H]1O
REMARK SMILES IDX 6 1 7 2 8 3 10 4 24 5 25 6 23 7 15 8 13 9 11 10 12 11 5 12
REMARK SMILES IDX 4 13 1 14 2 15 30 16 3 17 28 18 26 19 31 20 29 22 27 24 9 26
REMARK SMILES IDX 16 28 17 29 22 30 18 31 21 32 19 33 20 34 14 36
REMARK H PARENT 31 21 29 23 27 25 9 27 20 35 14 37
REMARK Flexibility Score: inf
ROOT
ATOM      1  C   UNL     1      -0.799 -21.183  27.560  1.00  0.00     0.130 A 
ATOM      2  C   UNL     1      -0.557 -21.857  26.350  1.00  0.00     0.093 A 
ATOM      3  C   UNL     1      -0.491 -21.165  25.135  1.00  0.00     0.134 A 
ATOM      4  C   UNL     1      -0.598 -19.743  25.125  1.00  0.00     0.111 A 
ATOM      5  C   UNL     1      -0.862 -19.079  26.349  1.00  0.00     0.146 A 
ATOM      6  C   UNL     1      -0.960 -19.798  27.541  1.00  0.00     0.094 A 
ATOM      7  O   UNL     1      -1.016 -17.761  26.389  1.00  0.00    -0.452 OA
ATOM      8  C   UNL     1      -0.920 -16.980  25.320  1.00  0.00     0.180 A 
ATOM      9  C   UNL     1      -0.588 -17.541  24.074  1.00  0.00     0.208 A 
ATOM     10  C   UNL     1      -0.418 -18.931  23.979  1.00  0.00     0.238 A 
ATOM     11  O   UNL     1      -0.067 -19.422  22.875  1.00  0.00    -0.285 OA
ENDROOT
BRANCH   1  12
ATOM     12  O   UNL     1      -0.886 -21.833  28.803  1.00  0.00    -0.462 OA
BRANCH  12  13
ATOM     13  C   UNL     1      -0.417 -23.148  29.122  1.00  0.00     0.339 C 
ATOM     14  C   UNL     1       1.178 -20.905  30.541  1.00  0.00     0.042 C 
ATOM     15  C   UNL     1       1.255 -22.437  30.678  1.00  0.00     0.151 C 
ATOM     16  C   UNL     1       0.465 -23.006  31.880  1.00  0.00     0.174 C 
ATOM     17  O   UNL     1       0.965 -23.110  29.455  1.00  0.00    -0.335 OA
ATOM     18  C   UNL     1      -1.040 -23.072  31.568  1.00  0.00     0.180 C 
ATOM     19  C   UNL     1      -1.257 -23.808  30.237  1.00  0.00     0.214 C 
BRANCH  16  20
ATOM     20  O   UNL     1       0.694 -22.222  33.023  1.00  0.00    -0.388 OA
ATOM     21  H   UNL     1       0.247 -22.680  33.782  1.00  0.00     0.211 HD
ENDBRANCH  16  20
BRANCH  18  22
ATOM     22  O   UNL     1      -1.739 -23.706  32.611  1.00  0.00    -0.387 OA
ATOM     23  H   UNL     1      -2.374 -23.047  32.997  1.00  0.00     0.211 HD
ENDBRANCH  18  22
BRANCH  19  24
ATOM     24  O   UNL     1      -2.617 -23.791  29.895  1.00  0.00    -0.384 OA
ATOM     25  H   UNL     1      -3.128 -23.971  30.727  1.00  0.00     0.211 HD
ENDBRANCH  19  24
ENDBRANCH  12  13
ENDBRANCH   1  12
BRANCH   3  26
ATOM     26  O   UNL     1      -0.346 -21.943  23.982  1.00  0.00    -0.507 OA
ATOM     27  H   UNL     1      -0.724 -21.705  23.078  1.00  0.00     0.293 HD
ENDBRANCH   3  26
BRANCH   8  28
ATOM     28  C   UNL     1      -1.140 -15.525  25.495  1.00  0.00     0.021 A 
ATOM     29  C   UNL     1      -2.338 -15.025  26.038  1.00  0.00     0.016 A 
ATOM     30  C   UNL     1      -0.111 -14.625  25.169  1.00  0.00     0.016 A 
ATOM     31  C   UNL     1      -2.514 -13.650  26.217  1.00  0.00     0.047 A 
ATOM     32  C   UNL     1      -0.290 -13.251  25.348  1.00  0.00     0.047 A 
ATOM     33  C   UNL     1      -1.491 -12.758  25.869  1.00  0.00     0.115 A 
BRANCH  33  34
ATOM     34  O   UNL     1      -1.654 -11.386  26.042  1.00  0.00    -0.508 OA
ATOM     35  H   UNL     1      -1.236 -10.897  26.825  1.00  0.00     0.293 HD
ENDBRANCH  33  34
ENDBRANCH   8  28
BRANCH   9  36
ATOM     36  O   UNL     1      -0.394 -16.719  22.961  1.00  0.00    -0.502 OA
ATOM     37  H   UNL     1      -1.164 -16.356  22.412  1.00  0.00     0.293 HD
ENDBRANCH   9  36
TORSDOF 9
ENDMDL
MODEL 8
REMARK VINA RESULT:    -7.629      7.510     10.264
REMARK INTER + INTRA:         -11.070
REMARK INTER:                 -10.453
REMARK INTRA:                  -0.616
REMARK UNBOUND:                -0.765
REMARK SMILES C[C@@H]1O[C@H](Oc2cc(O)c3c(=O)c(O)c(-c4ccc(O)cc4)oc3c2)[C@H](O)[C@@H](O)[C@@H]1O
REMARK SMILES IDX 6 1 7 2 8 3 10 4 24 5 25 6 23 7 15 8 13 9 11 10 12 11 5 12
REMARK SMILES IDX 4 13 1 14 2 15 30 16 3 17 28 18 26 19 31 20 29 22 27 24 9 26
REMARK SMILES IDX 16 28 17 29 22 30 18 31 21 32 19 33 20 34 14 36
REMARK H PARENT 31 21 29 23 27 25 9 27 20 35 14 37
REMARK Flexibility Score: inf
ROOT
ATOM      1  C   UNL     1      -1.769 -15.738  26.584  1.00  0.00     0.130 A 
ATOM      2  C   UNL     1      -1.542 -15.706  25.197  1.00  0.00     0.093 A 
ATOM      3  C   UNL     1      -1.162 -16.858  24.498  1.00  0.00     0.134 A 
ATOM      4  C   UNL     1      -1.072 -18.103  25.185  1.00  0.00     0.111 A 
ATOM      5  C   UNL     1      -1.283 -18.117  26.586  1.00  0.00     0.146 A 
ATOM      6  C   UNL     1      -1.624 -16.946  27.265  1.00  0.00     0.094 A 
ATOM      7  O   UNL     1      -1.167 -19.242  27.282  1.00  0.00    -0.452 OA
ATOM      8  C   UNL     1      -0.870 -20.414  26.734  1.00  0.00     0.180 A 
ATOM      9  C   UNL     1      -0.714 -20.513  25.341  1.00  0.00     0.208 A 
ATOM     10  C   UNL     1      -0.824 -19.351  24.561  1.00  0.00     0.238 A 
ATOM     11  O   UNL     1      -0.739 -19.453  23.310  1.00  0.00    -0.285 OA
ENDROOT
BRANCH   1  12
ATOM     12  O   UNL     1      -2.140 -14.608  27.332  1.00  0.00    -0.462 OA
BRANCH  12  13
ATOM     13  C   UNL     1      -2.555 -14.579  28.702  1.00  0.00     0.339 C 
ATOM     14  C   UNL     1      -1.388 -11.883  27.725  1.00  0.00     0.042 C 
ATOM     15  C   UNL     1      -2.052 -12.268  29.060  1.00  0.00     0.151 C 
ATOM     16  C   UNL     1      -3.550 -11.894  29.153  1.00  0.00     0.174 C 
ATOM     17  O   UNL     1      -1.795 -13.621  29.428  1.00  0.00    -0.335 OA
ATOM     18  C   UNL     1      -4.419 -12.905  28.387  1.00  0.00     0.180 C 
ATOM     19  C   UNL     1      -4.073 -14.330  28.844  1.00  0.00     0.214 C 
BRANCH  16  20
ATOM     20  O   UNL     1      -3.755 -10.596  28.657  1.00  0.00    -0.388 OA
ATOM     21  H   UNL     1      -2.887 -10.119  28.726  1.00  0.00     0.211 HD
ENDBRANCH  16  20
BRANCH  18  22
ATOM     22  O   UNL     1      -5.786 -12.635  28.579  1.00  0.00    -0.387 OA
ATOM     23  H   UNL     1      -6.303 -13.383  28.178  1.00  0.00     0.211 HD
ENDBRANCH  18  22
BRANCH  19  24
ATOM     24  O   UNL     1      -4.790 -15.266  28.083  1.00  0.00    -0.384 OA
ATOM     25  H   UNL     1      -4.750 -16.129  28.572  1.00  0.00     0.211 HD
ENDBRANCH  19  24
ENDBRANCH  12  13
ENDBRANCH   1  12
BRANCH   3  26
ATOM     26  O   UNL     1      -0.865 -16.694  23.142  1.00  0.00    -0.507 OA
ATOM     27  H   UNL     1      -0.320 -15.935  22.761  1.00  0.00     0.293 HD
ENDBRANCH   3  26
BRANCH   8  28
ATOM     28  C   UNL     1      -0.743 -21.590  27.627  1.00  0.00     0.021 A 
ATOM     29  C   UNL     1       0.435 -22.360  27.662  1.00  0.00     0.016 A 
ATOM     30  C   UNL     1      -1.796 -21.913  28.500  1.00  0.00     0.016 A 
ATOM     31  C   UNL     1       0.540 -23.450  28.531  1.00  0.00     0.047 A 
ATOM     32  C   UNL     1      -1.687 -23.004  29.366  1.00  0.00     0.047 A 
ATOM     33  C   UNL     1      -0.523 -23.778  29.383  1.00  0.00     0.115 A 
BRANCH  33  34
ATOM     34  O   UNL     1      -0.429 -24.863  30.251  1.00  0.00    -0.508 OA
ATOM     35  H   UNL     1      -0.624 -24.767  31.241  1.00  0.00     0.293 HD
ENDBRANCH  33  34
ENDBRANCH   8  28
BRANCH   9  36
ATOM     36  O   UNL     1      -0.492 -21.756  24.744  1.00  0.00    -0.502 OA
ATOM     37  H   UNL     1       0.355 -22.291  24.899  1.00  0.00     0.293 HD
ENDBRANCH   9  36
TORSDOF 9
ENDMDL
