MODEL 1
REMARK VINA RESULT:    -4.537      0.000      0.000
REMARK INTER + INTRA:          -4.956
REMARK INTER:                  -4.802
REMARK INTRA:                  -0.154
REMARK UNBOUND:                -0.154
REMARK SMILES CC(C)[C@@H]1CC[C@@H](C)CC1=O
REMARK SMILES IDX 8 1 7 2 6 3 5 4 4 5 10 6 11 7 9 8 2 9 1 10 3 11
REMARK H PARENT
REMARK Flexibility Score: inf
ROOT
ATOM      1  C   UNL     1     182.166 186.002 189.904  1.00  0.00     0.008 C 
ATOM      2  C   UNL     1     183.253 187.076 190.009  1.00  0.00    -0.007 C 
ATOM      3  C   UNL     1     182.871 188.135 191.063  1.00  0.00     0.004 C 
ATOM      4  C   UNL     1     183.942 189.237 191.177  1.00  0.00     0.012 C 
ATOM      5  C   UNL     1     184.194 189.936 189.818  1.00  0.00     0.058 C 
ATOM      6  C   UNL     1     184.489 188.850 188.796  1.00  0.00     0.136 C 
ATOM      7  O   UNL     1     185.537 188.819 188.169  1.00  0.00    -0.299 OA
ATOM      8  C   UNL     1     183.495 187.736 188.639  1.00  0.00     0.079 C 
ENDROOT
BRANCH   5   9
ATOM      9  C   UNL     1     185.309 191.031 189.883  1.00  0.00    -0.007 C 
ATOM     10  C   UNL     1     184.957 192.226 188.977  1.00  0.00     0.008 C 
ATOM     11  C   UNL     1     185.549 191.553 191.310  1.00  0.00     0.008 C 
ENDBRANCH   5   9
TORSDOF 1
ENDMDL
MODEL 2
REMARK VINA RESULT:    -4.456      1.387      4.069
REMARK INTER + INTRA:          -4.870
REMARK INTER:                  -4.696
REMARK INTRA:                  -0.174
REMARK UNBOUND:                -0.154
REMARK SMILES CC(C)[C@@H]1CC[C@@H](C)CC1=O
REMARK SMILES IDX 8 1 7 2 6 3 5 4 4 5 10 6 11 7 9 8 2 9 1 10 3 11
REMARK H PARENT
REMARK Flexibility Score: inf
ROOT
ATOM      1  C   UNL     1     185.029 192.136 187.507  1.00  0.00     0.008 C 
ATOM      2  C   UNL     1     184.331 190.965 188.204  1.00  0.00    -0.007 C 
ATOM      3  C   UNL     1     184.610 190.991 189.722  1.00  0.00     0.004 C 
ATOM      4  C   UNL     1     183.931 189.813 190.445  1.00  0.00     0.012 C 
ATOM      5  C   UNL     1     184.380 188.448 189.866  1.00  0.00     0.058 C 
ATOM      6  C   UNL     1     184.160 188.497 188.363  1.00  0.00     0.136 C 
ATOM      7  O   UNL     1     183.434 187.699 187.788  1.00  0.00    -0.299 OA
ATOM      8  C   UNL     1     184.781 189.626 187.593  1.00  0.00     0.079 C 
ENDROOT
BRANCH   5   9
ATOM      9  C   UNL     1     183.676 187.226 190.545  1.00  0.00    -0.007 C 
ATOM     10  C   UNL     1     184.575 186.612 191.635  1.00  0.00     0.008 C 
ATOM     11  C   UNL     1     182.323 187.595 191.179  1.00  0.00     0.008 C 
ENDBRANCH   5   9
TORSDOF 1
ENDMDL
MODEL 3
REMARK VINA RESULT:    -4.454      1.730      4.836
REMARK INTER + INTRA:          -4.868
REMARK INTER:                  -4.700
REMARK INTRA:                  -0.168
REMARK UNBOUND:                -0.154
REMARK SMILES CC(C)[C@@H]1CC[C@@H](C)CC1=O
REMARK SMILES IDX 8 1 7 2 6 3 5 4 4 5 10 6 11 7 9 8 2 9 1 10 3 11
REMARK H PARENT
REMARK Flexibility Score: inf
ROOT
ATOM      1  C   UNL     1     186.667 194.607 189.398  1.00  0.00     0.008 C 
ATOM      2  C   UNL     1     185.723 193.402 189.455  1.00  0.00    -0.007 C 
ATOM      3  C   UNL     1     186.103 192.469 190.625  1.00  0.00     0.004 C 
ATOM      4  C   UNL     1     185.177 191.240 190.695  1.00  0.00     0.012 C 
ATOM      5  C   UNL     1     185.191 190.434 189.372  1.00  0.00     0.058 C 
ATOM      6  C   UNL     1     184.890 191.407 188.244  1.00  0.00     0.136 C 
ATOM      7  O   UNL     1     183.934 191.256 187.497  1.00  0.00    -0.299 OA
ATOM      8  C   UNL     1     185.743 192.635 188.121  1.00  0.00     0.079 C 
ENDROOT
BRANCH   5   9
ATOM      9  C   UNL     1     184.227 189.202 189.388  1.00  0.00    -0.007 C 
ATOM     10  C   UNL     1     184.993 187.903 189.075  1.00  0.00     0.008 C 
ATOM     11  C   UNL     1     183.503 189.029 190.735  1.00  0.00     0.008 C 
ENDBRANCH   5   9
TORSDOF 1
ENDMDL
MODEL 4
REMARK VINA RESULT:    -4.376      2.258      3.715
REMARK INTER + INTRA:          -4.786
REMARK INTER:                  -4.611
REMARK INTRA:                  -0.175
REMARK UNBOUND:                -0.154
REMARK SMILES CC(C)[C@@H]1CC[C@@H](C)CC1=O
REMARK SMILES IDX 8 1 7 2 6 3 5 4 4 5 10 6 11 7 9 8 2 9 1 10 3 11
REMARK H PARENT
REMARK Flexibility Score: inf
ROOT
ATOM      1  C   UNL     1     183.782 189.295 190.807  1.00  0.00     0.008 C 
ATOM      2  C   UNL     1     184.806 190.317 190.304  1.00  0.00    -0.007 C 
ATOM      3  C   UNL     1     185.385 191.131 191.480  1.00  0.00     0.004 C 
ATOM      4  C   UNL     1     186.407 192.178 190.998  1.00  0.00     0.012 C 
ATOM      5  C   UNL     1     185.790 193.148 189.959  1.00  0.00     0.058 C 
ATOM      6  C   UNL     1     185.165 192.301 188.862  1.00  0.00     0.136 C 
ATOM      7  O   UNL     1     185.510 192.399 187.694  1.00  0.00    -0.299 OA
ATOM      8  C   UNL     1     184.169 191.251 189.259  1.00  0.00     0.079 C 
ENDROOT
BRANCH   5   9
ATOM      9  C   UNL     1     186.811 194.199 189.411  1.00  0.00    -0.007 C 
ATOM     10  C   UNL     1     186.593 195.572 190.074  1.00  0.00     0.008 C 
ATOM     11  C   UNL     1     188.275 193.777 189.630  1.00  0.00     0.008 C 
ENDBRANCH   5   9
TORSDOF 1
ENDMDL
MODEL 5
REMARK VINA RESULT:    -4.312      1.644      4.650
REMARK INTER + INTRA:          -4.717
REMARK INTER:                  -4.544
REMARK INTRA:                  -0.174
REMARK UNBOUND:                -0.154
REMARK SMILES CC(C)[C@@H]1CC[C@@H](C)CC1=O
REMARK SMILES IDX 8 1 7 2 6 3 5 4 4 5 10 6 11 7 9 8 2 9 1 10 3 11
REMARK H PARENT
REMARK Flexibility Score: inf
ROOT
ATOM      1  C   UNL     1     185.743 193.301 189.637  1.00  0.00     0.008 C 
ATOM      2  C   UNL     1     185.559 191.798 189.869  1.00  0.00    -0.007 C 
ATOM      3  C   UNL     1     184.355 191.267 189.063  1.00  0.00     0.004 C 
ATOM      4  C   UNL     1     184.138 189.759 189.291  1.00  0.00     0.012 C 
ATOM      5  C   UNL     1     183.936 189.428 190.791  1.00  0.00     0.058 C 
ATOM      6  C   UNL     1     185.103 190.037 191.552  1.00  0.00     0.136 C 
ATOM      7  O   UNL     1     185.856 189.358 192.234  1.00  0.00    -0.299 OA
ATOM      8  C   UNL     1     185.382 191.500 191.368  1.00  0.00     0.079 C 
ENDROOT
BRANCH   5   9
ATOM      9  C   UNL     1     183.759 187.899 191.069  1.00  0.00    -0.007 C 
ATOM     10  C   UNL     1     182.268 187.534 191.195  1.00  0.00     0.008 C 
ATOM     11  C   UNL     1     184.387 187.018 189.975  1.00  0.00     0.008 C 
ENDBRANCH   5   9
TORSDOF 1
ENDMDL
MODEL 6
REMARK VINA RESULT:    -4.251      3.395      4.615
REMARK INTER + INTRA:          -4.653
REMARK INTER:                  -4.479
REMARK INTRA:                  -0.174
REMARK UNBOUND:                -0.154
REMARK SMILES CC(C)[C@@H]1CC[C@@H](C)CC1=O
REMARK SMILES IDX 8 1 7 2 6 3 5 4 4 5 10 6 11 7 9 8 2 9 1 10 3 11
REMARK H PARENT
REMARK Flexibility Score: inf
ROOT
ATOM      1  C   UNL     1     187.275 189.330 184.658  1.00  0.00     0.008 C 
ATOM      2  C   UNL     1     186.704 190.342 185.656  1.00  0.00    -0.007 C 
ATOM      3  C   UNL     1     187.768 190.731 186.704  1.00  0.00     0.004 C 
ATOM      4  C   UNL     1     187.214 191.738 187.730  1.00  0.00     0.012 C 
ATOM      5  C   UNL     1     185.959 191.189 188.453  1.00  0.00     0.058 C 
ATOM      6  C   UNL     1     184.974 190.748 187.384  1.00  0.00     0.136 C 
ATOM      7  O   UNL     1     183.849 191.219 187.305  1.00  0.00    -0.299 OA
ATOM      8  C   UNL     1     185.448 189.777 186.342  1.00  0.00     0.079 C 
ENDROOT
BRANCH   5   9
ATOM      9  C   UNL     1     185.339 192.203 189.471  1.00  0.00    -0.007 C 
ATOM     10  C   UNL     1     185.616 191.762 190.921  1.00  0.00     0.008 C 
ATOM     11  C   UNL     1     185.872 193.635 189.286  1.00  0.00     0.008 C 
ENDBRANCH   5   9
TORSDOF 1
ENDMDL
MODEL 7
REMARK VINA RESULT:    -4.211      3.125      6.431
REMARK INTER + INTRA:          -4.611
REMARK INTER:                  -4.453
REMARK INTRA:                  -0.158
REMARK UNBOUND:                -0.154
REMARK SMILES CC(C)[C@@H]1CC[C@@H](C)CC1=O
REMARK SMILES IDX 8 1 7 2 6 3 5 4 4 5 10 6 11 7 9 8 2 9 1 10 3 11
REMARK H PARENT
REMARK Flexibility Score: inf
ROOT
ATOM      1  C   UNL     1     187.619 196.147 192.404  1.00  0.00     0.008 C 
ATOM      2  C   UNL     1     187.416 194.986 191.426  1.00  0.00    -0.007 C 
ATOM      3  C   UNL     1     186.467 195.399 190.281  1.00  0.00     0.004 C 
ATOM      4  C   UNL     1     186.235 194.242 189.290  1.00  0.00     0.012 C 
ATOM      5  C   UNL     1     185.667 192.986 189.997  1.00  0.00     0.058 C 
ATOM      6  C   UNL     1     186.589 192.664 191.162  1.00  0.00     0.136 C 
ATOM      7  O   UNL     1     187.161 191.588 191.258  1.00  0.00    -0.299 OA
ATOM      8  C   UNL     1     186.873 193.748 192.161  1.00  0.00     0.079 C 
ENDROOT
BRANCH   5   9
ATOM      9  C   UNL     1     185.460 191.773 189.031  1.00  0.00    -0.007 C 
ATOM     10  C   UNL     1     184.168 191.010 189.379  1.00  0.00     0.008 C 
ATOM     11  C   UNL     1     185.397 192.193 187.552  1.00  0.00     0.008 C 
ENDBRANCH   5   9
TORSDOF 1
ENDMDL
MODEL 8
REMARK VINA RESULT:    -4.154      3.033      4.458
REMARK INTER + INTRA:          -4.551
REMARK INTER:                  -4.388
REMARK INTRA:                  -0.163
REMARK UNBOUND:                -0.154
REMARK SMILES CC(C)[C@@H]1CC[C@@H](C)CC1=O
REMARK SMILES IDX 8 1 7 2 6 3 5 4 4 5 10 6 11 7 9 8 2 9 1 10 3 11
REMARK H PARENT
REMARK Flexibility Score: inf
ROOT
ATOM      1  C   UNL     1     184.442 189.976 187.372  1.00  0.00     0.008 C 
ATOM      2  C   UNL     1     184.686 191.095 188.389  1.00  0.00    -0.007 C 
ATOM      3  C   UNL     1     185.461 192.260 187.740  1.00  0.00     0.004 C 
ATOM      4  C   UNL     1     185.733 193.394 188.747  1.00  0.00     0.012 C 
ATOM      5  C   UNL     1     186.514 192.887 189.985  1.00  0.00     0.058 C 
ATOM      6  C   UNL     1     185.756 191.693 190.543  1.00  0.00     0.136 C 
ATOM      7  O   UNL     1     185.330 191.675 191.689  1.00  0.00    -0.299 OA
ATOM      8  C   UNL     1     185.444 190.555 189.615  1.00  0.00     0.079 C 
ENDROOT
BRANCH   5   9
ATOM      9  C   UNL     1     186.769 194.000 191.054  1.00  0.00    -0.007 C 
ATOM     10  C   UNL     1     188.219 193.942 191.570  1.00  0.00     0.008 C 
ATOM     11  C   UNL     1     186.499 195.416 190.515  1.00  0.00     0.008 C 
ENDBRANCH   5   9
TORSDOF 1
ENDMDL
MODEL 9
REMARK VINA RESULT:    -4.083      1.970      3.031
REMARK INTER + INTRA:          -4.475
REMARK INTER:                  -4.301
REMARK INTRA:                  -0.174
REMARK UNBOUND:                -0.154
REMARK SMILES CC(C)[C@@H]1CC[C@@H](C)CC1=O
REMARK SMILES IDX 8 1 7 2 6 3 5 4 4 5 10 6 11 7 9 8 2 9 1 10 3 11
REMARK H PARENT
REMARK Flexibility Score: inf
ROOT
ATOM      1  C   UNL     1     182.971 187.914 191.110  1.00  0.00     0.008 C 
ATOM      2  C   UNL     1     183.619 189.259 190.768  1.00  0.00    -0.007 C 
ATOM      3  C   UNL     1     184.154 189.253 189.321  1.00  0.00     0.004 C 
ATOM      4  C   UNL     1     184.825 190.591 188.957  1.00  0.00     0.012 C 
ATOM      5  C   UNL     1     185.981 190.937 189.929  1.00  0.00     0.058 C 
ATOM      6  C   UNL     1     185.427 190.854 191.342  1.00  0.00     0.136 C 
ATOM      7  O   UNL     1     185.449 191.810 192.103  1.00  0.00    -0.299 OA
ATOM      8  C   UNL     1     184.747 189.584 191.763  1.00  0.00     0.079 C 
ENDROOT
BRANCH   5   9
ATOM      9  C   UNL     1     186.659 192.312 189.619  1.00  0.00    -0.007 C 
ATOM     10  C   UNL     1     187.950 192.116 188.804  1.00  0.00     0.008 C 
ATOM     11  C   UNL     1     185.735 193.271 188.847  1.00  0.00     0.008 C 
ENDBRANCH   5   9
TORSDOF 1
ENDMDL
