MODEL 1
REMARK VINA RESULT:    -3.893      0.000      0.000
REMARK INTER + INTRA:          -4.608
REMARK INTER:                  -5.487
REMARK INTRA:                   0.878
REMARK UNBOUND:                 0.878
REMARK SMILES CC1=CCCC(C)=CCC(C)(C)C=CC1
REMARK SMILES IDX 2 1 3 2 1 3 4 4 5 5 6 6 7 7 8 8 15 10 14 11 13 12 10 13
REMARK SMILES IDX 11 14 12 15 9 16
REMARK H PARENT
REMARK Flexibility Score: 60.00
ROOT
ATOM      1  C   UNL     1       5.173  -2.417  17.307  1.00  0.00    -0.074 C 
ATOM      2  C   UNL     1       5.103  -2.250  15.962  1.00  0.00    -0.027 C 
ATOM      3  C   UNL     1       6.500  -2.856  17.879  1.00  0.00     0.039 C 
ENDROOT
BRANCH   2   4
ATOM      4  C   UNL     1       3.900  -1.783  15.176  1.00  0.00     0.032 C 
BRANCH   4   5
ATOM      5  C   UNL     1       2.748  -2.811  15.150  1.00  0.00     0.034 C 
BRANCH   5   6
ATOM      6  C   UNL     1       1.426  -2.298  15.700  1.00  0.00    -0.077 C 
ATOM      7  C   UNL     1       0.786  -1.096  15.052  1.00  0.00     0.039 C 
ATOM      8  C   UNL     1       0.796  -2.856  16.757  1.00  0.00    -0.027 CG0
ATOM      9  G   UNL     1       1.287  -4.068  17.518  1.00  0.00     0.000 G0
ENDBRANCH   5   6
ENDBRANCH   4   5
ENDBRANCH   2   4
BRANCH   1  10
ATOM     10  C   UNL     1       4.028  -2.143  18.273  1.00  0.00     0.057 C 
BRANCH  10  11
ATOM     11  C   UNL     1       3.900  -3.252  19.292  1.00  0.00    -0.026 C 
ATOM     12  C   UNL     1       2.790  -3.945  19.632  1.00  0.00    -0.024 C 
BRANCH  12  13
ATOM     13  C   UNL     1       1.364  -3.824  19.070  1.00  0.00    -0.014 C 
ATOM     14  C   UNL     1       0.776  -2.442  19.431  1.00  0.00     0.016 C 
ATOM     15  C   UNL     1       0.488  -4.890  19.774  1.00  0.00     0.016 C 
BRANCH  13  16
ATOM     16  C   UNL     1       1.280  -4.067  17.529  1.00  0.00     0.038 CG0
ATOM     17  G   UNL     1       0.782  -2.858  16.769  1.00  0.00     0.000 G0
ENDBRANCH  13  16
ENDBRANCH  12  13
ENDBRANCH  10  11
ENDBRANCH   1  10
TORSDOF 0
ENDMDL
MODEL 2
REMARK VINA RESULT:    -3.890      2.213      3.438
REMARK INTER + INTRA:          -4.604
REMARK INTER:                  -5.409
REMARK INTRA:                   0.805
REMARK UNBOUND:                 0.878
REMARK SMILES CC1=CCCC(C)=CCC(C)(C)C=CC1
REMARK SMILES IDX 2 1 3 2 1 3 4 4 5 5 6 6 7 7 8 8 15 10 14 11 13 12 10 13
REMARK SMILES IDX 11 14 12 15 9 16
REMARK H PARENT
REMARK Flexibility Score: 60.00
ROOT
ATOM      1  C   UNL     1       5.438  -2.521  18.142  1.00  0.00    -0.074 C 
ATOM      2  C   UNL     1       4.491  -2.665  17.180  1.00  0.00    -0.027 C 
ATOM      3  C   UNL     1       6.881  -2.646  17.713  1.00  0.00     0.039 C 
ENDROOT
BRANCH   2   4
ATOM      4  C   UNL     1       2.996  -2.544  17.366  1.00  0.00     0.032 C 
BRANCH   4   5
ATOM      5  C   UNL     1       2.341  -3.829  17.914  1.00  0.00     0.034 C 
BRANCH   5   6
ATOM      6  C   UNL     1       1.660  -3.670  19.265  1.00  0.00    -0.077 C 
ATOM      7  C   UNL     1       0.330  -2.963  19.329  1.00  0.00     0.039 C 
ATOM      8  C   UNL     1       2.196  -4.117  20.422  1.00  0.00    -0.027 CG0
ATOM      9  G   UNL     1       3.511  -4.854  20.542  1.00  0.00     0.000 G0
ENDBRANCH   5   6
ENDBRANCH   4   5
ENDBRANCH   2   4
BRANCH   1  10
ATOM     10  C   UNL     1       5.146  -2.194  19.600  1.00  0.00     0.057 C 
BRANCH  10  11
ATOM     11  C   UNL     1       6.067  -2.958  20.523  1.00  0.00    -0.026 C 
ATOM     12  C   UNL     1       5.734  -3.888  21.447  1.00  0.00    -0.024 C 
BRANCH  12  13
ATOM     13  C   UNL     1       4.346  -4.445  21.802  1.00  0.00    -0.014 C 
ATOM     14  C   UNL     1       3.568  -3.412  22.647  1.00  0.00     0.016 C 
ATOM     15  C   UNL     1       4.554  -5.696  22.692  1.00  0.00     0.016 C 
BRANCH  13  16
ATOM     16  C   UNL     1       3.509  -4.871  20.554  1.00  0.00     0.038 CG0
ATOM     17  G   UNL     1       2.204  -4.116  20.435  1.00  0.00     0.000 G0
ENDBRANCH  13  16
ENDBRANCH  12  13
ENDBRANCH  10  11
ENDBRANCH   1  10
TORSDOF 0
ENDMDL
MODEL 3
REMARK VINA RESULT:    -3.801      1.025      3.619
REMARK INTER + INTRA:          -4.477
REMARK INTER:                  -5.807
REMARK INTRA:                   1.329
REMARK UNBOUND:                 0.878
REMARK SMILES CC1=CCCC(C)=CCC(C)(C)C=CC1
REMARK SMILES IDX 2 1 3 2 1 3 4 4 5 5 6 6 7 7 8 8 15 10 14 11 13 12 10 13
REMARK SMILES IDX 11 14 12 15 9 16
REMARK H PARENT
REMARK Flexibility Score: 60.00
ROOT
ATOM      1  C   UNL     1       5.486  -2.261  16.072  1.00  0.00    -0.074 C 
ATOM      2  C   UNL     1       5.506  -2.380  17.423  1.00  0.00    -0.027 C 
ATOM      3  C   UNL     1       6.817  -2.269  15.359  1.00  0.00     0.039 C 
ENDROOT
BRANCH   2   4
ATOM      4  C   UNL     1       4.304  -2.434  18.338  1.00  0.00     0.032 C 
BRANCH   4   5
ATOM      5  C   UNL     1       3.320  -3.571  17.992  1.00  0.00     0.034 C 
BRANCH   5   6
ATOM      6  C   UNL     1       1.856  -3.247  18.247  1.00  0.00    -0.077 C 
ATOM      7  C   UNL     1       1.336  -3.298  19.661  1.00  0.00     0.039 C 
ATOM      8  C   UNL     1       0.985  -2.928  17.264  1.00  0.00    -0.027 CG0
ATOM      9  G   UNL     1       1.335  -2.819  15.797  1.00  0.00     0.000 G0
ENDBRANCH   5   6
ENDBRANCH   4   5
ENDBRANCH   2   4
BRANCH   1  10
ATOM     10  C   UNL     1       4.220  -2.172  15.230  1.00  0.00     0.057 C 
BRANCH  10  11
ATOM     11  C   UNL     1       3.603  -0.795  15.320  1.00  0.00    -0.026 C 
ATOM     12  C   UNL     1       2.291  -0.468  15.296  1.00  0.00    -0.024 C 
BRANCH  12  13
ATOM     13  C   UNL     1       1.066  -1.391  15.198  1.00  0.00    -0.014 C 
ATOM     14  C   UNL     1       0.599  -1.485  13.728  1.00  0.00     0.016 C 
ATOM     15  C   UNL     1      -0.085  -0.734  16.000  1.00  0.00     0.016 C 
BRANCH  13  16
ATOM     16  C   UNL     1       1.313  -2.818  15.784  1.00  0.00     0.038 CG0
ATOM     17  G   UNL     1       0.993  -2.913  17.259  1.00  0.00     0.000 G0
ENDBRANCH  13  16
ENDBRANCH  12  13
ENDBRANCH  10  11
ENDBRANCH   1  10
TORSDOF 0
ENDMDL
MODEL 4
REMARK VINA RESULT:    -3.773      2.269      4.666
REMARK INTER + INTRA:          -4.438
REMARK INTER:                  -5.386
REMARK INTRA:                   0.948
REMARK UNBOUND:                 0.878
REMARK SMILES CC1=CCCC(C)=CCC(C)(C)C=CC1
REMARK SMILES IDX 2 1 3 2 1 3 4 4 5 5 6 6 7 7 8 8 15 10 14 11 13 12 10 13
REMARK SMILES IDX 11 14 12 15 9 16
REMARK H PARENT
REMARK Flexibility Score: 60.00
ROOT
ATOM      1  C   UNL     1       1.606  -2.552  17.737  1.00  0.00    -0.074 C 
ATOM      2  C   UNL     1       0.518  -2.489  18.546  1.00  0.00    -0.027 C 
ATOM      3  C   UNL     1       1.355  -2.673  16.253  1.00  0.00     0.039 C 
ENDROOT
BRANCH   2   4
ATOM      4  C   UNL     1       0.523  -2.329  20.049  1.00  0.00     0.032 C 
BRANCH   4   5
ATOM      5  C   UNL     1      -0.159  -3.497  20.792  1.00  0.00     0.034 C 
BRANCH   5   6
ATOM      6  C   UNL     1       0.532  -4.843  20.633  1.00  0.00    -0.077 C 
ATOM      7  C   UNL     1      -0.279  -6.025  20.165  1.00  0.00     0.039 C 
ATOM      8  C   UNL     1       1.840  -5.041  20.908  1.00  0.00    -0.027 CG0
ATOM      9  G   UNL     1       2.800  -3.971  21.376  1.00  0.00     0.000 G0
ENDBRANCH   5   6
ENDBRANCH   4   5
ENDBRANCH   2   4
BRANCH   1  10
ATOM     10  C   UNL     1       3.047  -2.457  18.219  1.00  0.00     0.057 C 
BRANCH  10  11
ATOM     11  C   UNL     1       3.715  -3.813  18.205  1.00  0.00    -0.026 C 
ATOM     12  C   UNL     1       4.221  -4.502  19.253  1.00  0.00    -0.024 C 
BRANCH  12  13
ATOM     13  C   UNL     1       4.241  -4.121  20.742  1.00  0.00    -0.014 C 
ATOM     14  C   UNL     1       5.061  -2.826  20.939  1.00  0.00     0.016 C 
ATOM     15  C   UNL     1       4.979  -5.247  21.507  1.00  0.00     0.016 C 
BRANCH  13  16
ATOM     16  C   UNL     1       2.816  -3.964  21.363  1.00  0.00     0.038 CG0
ATOM     17  G   UNL     1       1.859  -5.048  20.921  1.00  0.00     0.000 G0
ENDBRANCH  13  16
ENDBRANCH  12  13
ENDBRANCH  10  11
ENDBRANCH   1  10
TORSDOF 0
ENDMDL
MODEL 5
REMARK VINA RESULT:    -3.755      1.579      3.961
REMARK INTER + INTRA:          -4.413
REMARK INTER:                  -5.478
REMARK INTRA:                   1.066
REMARK UNBOUND:                 0.878
REMARK SMILES CC1=CCCC(C)=CCC(C)(C)C=CC1
REMARK SMILES IDX 2 1 3 2 1 3 4 4 5 5 6 6 7 7 8 8 15 10 14 11 13 12 10 13
REMARK SMILES IDX 11 14 12 15 9 16
REMARK H PARENT
REMARK Flexibility Score: 60.00
ROOT
ATOM      1  C   UNL     1       0.653  -0.920  15.628  1.00  0.00    -0.074 C 
ATOM      2  C   UNL     1       1.678  -0.500  14.843  1.00  0.00    -0.027 C 
ATOM      3  C   UNL     1      -0.743  -0.785  15.068  1.00  0.00     0.039 C 
ENDROOT
BRANCH   2   4
ATOM      4  C   UNL     1       3.151  -0.571  15.174  1.00  0.00     0.032 C 
BRANCH   4   5
ATOM      5  C   UNL     1       3.726  -2.001  15.107  1.00  0.00     0.034 C 
BRANCH   5   6
ATOM      6  C   UNL     1       4.961  -2.232  15.965  1.00  0.00    -0.077 C 
ATOM      7  C   UNL     1       6.292  -2.433  15.285  1.00  0.00     0.039 C 
ATOM      8  C   UNL     1       4.926  -2.284  17.315  1.00  0.00    -0.027 CG0
ATOM      9  G   UNL     1       3.686  -2.093  18.159  1.00  0.00     0.000 G0
ENDBRANCH   5   6
ENDBRANCH   4   5
ENDBRANCH   2   4
BRANCH   1  10
ATOM     10  C   UNL     1       0.821  -1.558  17.000  1.00  0.00     0.057 C 
BRANCH  10  11
ATOM     11  C   UNL     1       0.991  -3.055  16.886  1.00  0.00    -0.026 C 
ATOM     12  C   UNL     1       1.896  -3.840  17.513  1.00  0.00    -0.024 C 
BRANCH  12  13
ATOM     13  C   UNL     1       2.982  -3.443  18.527  1.00  0.00    -0.014 C 
ATOM     14  C   UNL     1       4.014  -4.585  18.660  1.00  0.00     0.016 C 
ATOM     15  C   UNL     1       2.300  -3.284  19.909  1.00  0.00     0.016 C 
BRANCH  13  16
ATOM     16  C   UNL     1       3.697  -2.099  18.179  1.00  0.00     0.038 CG0
ATOM     17  G   UNL     1       4.928  -2.291  17.322  1.00  0.00     0.000 G0
ENDBRANCH  13  16
ENDBRANCH  12  13
ENDBRANCH  10  11
ENDBRANCH   1  10
TORSDOF 0
ENDMDL
MODEL 6
REMARK VINA RESULT:    -3.743      1.319      1.698
REMARK INTER + INTRA:          -4.396
REMARK INTER:                  -5.318
REMARK INTRA:                   0.922
REMARK UNBOUND:                 0.878
REMARK SMILES CC1=CCCC(C)=CCC(C)(C)C=CC1
REMARK SMILES IDX 2 1 3 2 1 3 4 4 5 5 6 6 7 7 8 8 15 10 14 11 13 12 10 13
REMARK SMILES IDX 11 14 12 15 9 16
REMARK H PARENT
REMARK Flexibility Score: 60.00
ROOT
ATOM      1  C   UNL     1       5.016  -3.218  18.859  1.00  0.00    -0.074 C 
ATOM      2  C   UNL     1       5.092  -2.451  17.743  1.00  0.00    -0.027 C 
ATOM      3  C   UNL     1       5.977  -2.902  19.980  1.00  0.00     0.039 C 
ENDROOT
BRANCH   2   4
ATOM      4  C   UNL     1       4.213  -2.557  16.518  1.00  0.00     0.032 C 
BRANCH   4   5
ATOM      5  C   UNL     1       2.969  -1.647  16.576  1.00  0.00     0.034 C 
BRANCH   5   6
ATOM      6  C   UNL     1       1.639  -2.385  16.570  1.00  0.00    -0.077 C 
ATOM      7  C   UNL     1       1.040  -2.794  15.247  1.00  0.00     0.039 C 
ATOM      8  C   UNL     1       0.951  -2.683  17.694  1.00  0.00    -0.027 CG0
ATOM      9  G   UNL     1       1.406  -2.360  19.100  1.00  0.00     0.000 G0
ENDBRANCH   5   6
ENDBRANCH   4   5
ENDBRANCH   2   4
BRANCH   1  10
ATOM     10  C   UNL     1       4.001  -4.332  19.075  1.00  0.00     0.057 C 
BRANCH  10  11
ATOM     11  C   UNL     1       3.494  -4.338  20.498  1.00  0.00    -0.026 C 
ATOM     12  C   UNL     1       2.273  -3.968  20.949  1.00  0.00    -0.024 C 
BRANCH  12  13
ATOM     13  C   UNL     1       1.060  -3.464  20.150  1.00  0.00    -0.014 C 
ATOM     14  C   UNL     1      -0.030  -2.957  21.121  1.00  0.00     0.016 C 
ATOM     15  C   UNL     1       0.463  -4.674  19.388  1.00  0.00     0.016 C 
BRANCH  13  16
ATOM     16  C   UNL     1       1.417  -2.360  19.105  1.00  0.00     0.038 CG0
ATOM     17  G   UNL     1       0.956  -2.703  17.706  1.00  0.00     0.000 G0
ENDBRANCH  13  16
ENDBRANCH  12  13
ENDBRANCH  10  11
ENDBRANCH   1  10
TORSDOF 0
ENDMDL
MODEL 7
REMARK VINA RESULT:    -3.706      2.282      4.697
REMARK INTER + INTRA:          -4.345
REMARK INTER:                  -5.167
REMARK INTRA:                   0.822
REMARK UNBOUND:                 0.878
REMARK SMILES CC1=CCCC(C)=CCC(C)(C)C=CC1
REMARK SMILES IDX 2 1 3 2 1 3 4 4 5 5 6 6 7 7 8 8 15 10 14 11 13 12 10 13
REMARK SMILES IDX 11 14 12 15 9 16
REMARK H PARENT
REMARK Flexibility Score: 60.00
ROOT
ATOM      1  C   UNL     1       5.469  -3.210  19.653  1.00  0.00    -0.074 C 
ATOM      2  C   UNL     1       5.767  -3.677  20.892  1.00  0.00    -0.027 C 
ATOM      3  C   UNL     1       6.163  -1.945  19.207  1.00  0.00     0.039 C 
ENDROOT
BRANCH   2   4
ATOM      4  C   UNL     1       5.227  -4.935  21.532  1.00  0.00     0.032 C 
BRANCH   4   5
ATOM      5  C   UNL     1       3.995  -4.688  22.427  1.00  0.00     0.034 C 
BRANCH   5   6
ATOM      6  C   UNL     1       2.717  -5.360  21.950  1.00  0.00    -0.077 C 
ATOM      7  C   UNL     1       2.413  -6.760  22.419  1.00  0.00     0.039 C 
ATOM      8  C   UNL     1       1.839  -4.771  21.108  1.00  0.00    -0.027 CG0
ATOM      9  G   UNL     1       1.978  -3.372  20.550  1.00  0.00     0.000 G0
ENDBRANCH   5   6
ENDBRANCH   4   5
ENDBRANCH   2   4
BRANCH   1  10
ATOM     10  C   UNL     1       4.528  -3.898  18.673  1.00  0.00     0.057 C 
BRANCH  10  11
ATOM     11  C   UNL     1       3.690  -2.888  17.924  1.00  0.00    -0.026 C 
ATOM     12  C   UNL     1       2.378  -2.606  18.093  1.00  0.00    -0.024 C 
BRANCH  12  13
ATOM     13  C   UNL     1       1.382  -3.206  19.099  1.00  0.00    -0.014 C 
ATOM     14  C   UNL     1       0.869  -4.567  18.578  1.00  0.00     0.016 C 
ATOM     15  C   UNL     1       0.159  -2.258  19.174  1.00  0.00     0.016 C 
BRANCH  13  16
ATOM     16  C   UNL     1       1.967  -3.358  20.539  1.00  0.00     0.038 CG0
ATOM     17  G   UNL     1       1.842  -4.766  21.079  1.00  0.00     0.000 G0
ENDBRANCH  13  16
ENDBRANCH  12  13
ENDBRANCH  10  11
ENDBRANCH   1  10
TORSDOF 0
ENDMDL
MODEL 8
REMARK VINA RESULT:    -3.700      1.862      4.053
REMARK INTER + INTRA:          -4.335
REMARK INTER:                  -5.320
REMARK INTRA:                   0.985
REMARK UNBOUND:                 0.878
REMARK SMILES CC1=CCCC(C)=CCC(C)(C)C=CC1
REMARK SMILES IDX 2 1 3 2 1 3 4 4 5 5 6 6 7 7 8 8 15 10 14 11 13 12 10 13
REMARK SMILES IDX 11 14 12 15 9 16
REMARK H PARENT
REMARK Flexibility Score: 60.00
ROOT
ATOM      1  C   UNL     1       3.807  -2.281  16.715  1.00  0.00    -0.074 C 
ATOM      2  C   UNL     1       4.968  -2.516  17.377  1.00  0.00    -0.027 C 
ATOM      3  C   UNL     1       3.904  -1.995  15.235  1.00  0.00     0.039 C 
ENDROOT
BRANCH   2   4
ATOM      4  C   UNL     1       5.113  -2.859  18.842  1.00  0.00     0.032 C 
BRANCH   4   5
ATOM      5  C   UNL     1       4.915  -4.360  19.143  1.00  0.00     0.034 C 
BRANCH   5   6
ATOM      6  C   UNL     1       4.445  -4.669  20.556  1.00  0.00    -0.077 C 
ATOM      7  C   UNL     1       5.316  -5.526  21.440  1.00  0.00     0.039 C 
ATOM      8  C   UNL     1       3.271  -4.228  21.061  1.00  0.00    -0.027 CG0
ATOM      9  G   UNL     1       2.284  -3.353  20.322  1.00  0.00     0.000 G0
ENDBRANCH   5   6
ENDBRANCH   4   5
ENDBRANCH   2   4
BRANCH   1  10
ATOM     10  C   UNL     1       2.424  -2.337  17.348  1.00  0.00     0.057 C 
BRANCH  10  11
ATOM     11  C   UNL     1       1.829  -3.721  17.235  1.00  0.00    -0.026 C 
ATOM     12  C   UNL     1       1.279  -4.473  18.216  1.00  0.00    -0.024 C 
BRANCH  12  13
ATOM     13  C   UNL     1       1.081  -4.131  19.701  1.00  0.00    -0.014 C 
ATOM     14  C   UNL     1       0.803  -5.422  20.502  1.00  0.00     0.016 C 
ATOM     15  C   UNL     1      -0.184  -3.243  19.815  1.00  0.00     0.016 C 
BRANCH  13  16
ATOM     16  C   UNL     1       2.281  -3.349  20.325  1.00  0.00     0.038 CG0
ATOM     17  G   UNL     1       3.261  -4.251  21.042  1.00  0.00     0.000 G0
ENDBRANCH  13  16
ENDBRANCH  12  13
ENDBRANCH  10  11
ENDBRANCH   1  10
TORSDOF 0
ENDMDL
MODEL 9
REMARK VINA RESULT:    -3.673      2.829      5.263
REMARK INTER + INTRA:          -4.297
REMARK INTER:                  -5.322
REMARK INTRA:                   1.025
REMARK UNBOUND:                 0.878
REMARK SMILES CC1=CCCC(C)=CCC(C)(C)C=CC1
REMARK SMILES IDX 2 1 3 2 1 3 4 4 5 5 6 6 7 7 8 8 15 10 14 11 13 12 10 13
REMARK SMILES IDX 11 14 12 15 9 16
REMARK H PARENT
REMARK Flexibility Score: 60.00
ROOT
ATOM      1  C   UNL     1       0.488  -5.280  20.219  1.00  0.00    -0.074 C 
ATOM      2  C   UNL     1       0.829  -4.662  19.060  1.00  0.00    -0.027 C 
ATOM      3  C   UNL     1      -0.435  -6.471  20.120  1.00  0.00     0.039 C 
ENDROOT
BRANCH   2   4
ATOM      4  C   UNL     1       1.762  -3.482  18.911  1.00  0.00     0.032 C 
BRANCH   4   5
ATOM      5  C   UNL     1       3.139  -3.860  18.328  1.00  0.00     0.034 C 
BRANCH   5   6
ATOM      6  C   UNL     1       4.329  -3.272  19.072  1.00  0.00    -0.077 C 
ATOM      7  C   UNL     1       4.844  -1.916  18.662  1.00  0.00     0.039 C 
ATOM      8  C   UNL     1       4.964  -3.912  20.078  1.00  0.00    -0.027 CG0
ATOM      9  G   UNL     1       4.577  -5.268  20.625  1.00  0.00     0.000 G0
ENDBRANCH   5   6
ENDBRANCH   4   5
ENDBRANCH   2   4
BRANCH   1  10
ATOM     10  C   UNL     1       1.010  -4.886  21.594  1.00  0.00     0.057 C 
BRANCH  10  11
ATOM     11  C   UNL     1       1.708  -6.047  22.264  1.00  0.00    -0.026 C 
ATOM     12  C   UNL     1       3.033  -6.207  22.482  1.00  0.00    -0.024 C 
BRANCH  12  13
ATOM     13  C   UNL     1       4.191  -5.257  22.139  1.00  0.00    -0.014 C 
ATOM     14  C   UNL     1       5.419  -5.593  23.014  1.00  0.00     0.016 C 
ATOM     15  C   UNL     1       3.748  -3.820  22.512  1.00  0.00     0.016 C 
BRANCH  13  16
ATOM     16  C   UNL     1       4.579  -5.269  20.626  1.00  0.00     0.038 CG0
ATOM     17  G   UNL     1       4.970  -3.903  20.108  1.00  0.00     0.000 G0
ENDBRANCH  13  16
ENDBRANCH  12  13
ENDBRANCH  10  11
ENDBRANCH   1  10
TORSDOF 0
ENDMDL
