MODEL 1
REMARK VINA RESULT:    -4.624      0.000      0.000
REMARK INTER + INTRA:         -10.718
REMARK INTER:                  -8.137
REMARK INTRA:                  -2.581
REMARK UNBOUND:                -2.581
REMARK SMILES CCCCCCC=CCCCCCCCC(=O)[O-]
REMARK SMILES IDX 10 1 11 2 12 3 13 4 14 5 15 6 16 7 17 8 18 9 9 10 8 11 7 12
REMARK SMILES IDX 6 13 5 14 4 15 3 16 2 17 1 18
REMARK H PARENT
REMARK Flexibility Score: inf
ROOT
ATOM      1  C   UNL     1      -5.612 -22.637  48.866  1.00  0.00     0.004 C 
ENDROOT
BRANCH   1   2
ATOM      2  C   UNL     1      -5.406 -24.118  48.527  1.00  0.00     0.000 C 
BRANCH   2   3
ATOM      3  C   UNL     1      -4.260 -24.718  49.357  1.00  0.00     0.000 C 
BRANCH   3   4
ATOM      4  C   UNL     1      -3.712 -23.723  50.401  1.00  0.00     0.000 C 
BRANCH   4   5
ATOM      5  C   UNL     1      -2.176 -23.657  50.443  1.00  0.00     0.006 C 
BRANCH   5   6
ATOM      6  C   UNL     1      -1.644 -22.229  50.619  1.00  0.00     0.053 C 
BRANCH   6   7
ATOM      7  C   UNL     1      -0.152 -22.208  50.489  1.00  0.00     0.041 C 
ATOM      8  O   UNL     1       0.572 -22.557  51.457  1.00  0.00    -0.550 OA
ATOM      9  O   UNL     1       0.439 -21.748  49.319  1.00  0.00    -0.550 OA
ENDBRANCH   6   7
ENDBRANCH   5   6
ENDBRANCH   4   5
ENDBRANCH   3   4
ENDBRANCH   2   3
ENDBRANCH   1   2
BRANCH   1  10
ATOM     10  C   UNL     1      -5.517 -21.765  47.610  1.00  0.00     0.027 C 
BRANCH  10  11
ATOM     11  C   UNL     1      -4.206 -22.000  46.913  1.00  0.00    -0.031 C 
ATOM     12  C   UNL     1      -3.045 -21.569  47.436  1.00  0.00    -0.031 C 
BRANCH  12  13
ATOM     13  C   UNL     1      -1.743 -21.753  46.710  1.00  0.00     0.027 C 
BRANCH  13  14
ATOM     14  C   UNL     1      -1.717 -23.102  45.973  1.00  0.00     0.004 C 
BRANCH  14  15
ATOM     15  C   UNL     1      -1.404 -24.280  46.909  1.00  0.00     0.000 C 
BRANCH  15  16
ATOM     16  C   UNL     1      -2.150 -25.563  46.506  1.00  0.00    -0.000 C 
BRANCH  16  17
ATOM     17  C   UNL     1      -3.312 -25.291  45.539  1.00  0.00    -0.003 C 
ATOM     18  C   UNL     1      -4.183 -26.523  45.292  1.00  0.00     0.004 C 
ENDBRANCH  16  17
ENDBRANCH  15  16
ENDBRANCH  14  15
ENDBRANCH  13  14
ENDBRANCH  12  13
ENDBRANCH  10  11
ENDBRANCH   1  10
TORSDOF 13
ENDMDL
MODEL 2
REMARK VINA RESULT:    -4.480      1.642      3.944
REMARK INTER + INTRA:         -10.465
REMARK INTER:                  -8.293
REMARK INTRA:                  -2.172
REMARK UNBOUND:                -2.581
REMARK SMILES CCCCCCC=CCCCCCCCC(=O)[O-]
REMARK SMILES IDX 10 1 11 2 12 3 13 4 14 5 15 6 16 7 17 8 18 9 9 10 8 11 7 12
REMARK SMILES IDX 6 13 5 14 4 15 3 16 2 17 1 18
REMARK H PARENT
REMARK Flexibility Score: inf
ROOT
ATOM      1  C   UNL     1      -4.495 -24.400  47.208  1.00  0.00     0.004 C 
ENDROOT
BRANCH   1   2
ATOM      2  C   UNL     1      -3.123 -25.066  47.050  1.00  0.00     0.000 C 
BRANCH   2   3
ATOM      3  C   UNL     1      -2.218 -24.753  48.252  1.00  0.00     0.000 C 
BRANCH   3   4
ATOM      4  C   UNL     1      -1.345 -23.502  48.016  1.00  0.00     0.000 C 
BRANCH   4   5
ATOM      5  C   UNL     1      -1.826 -22.261  48.787  1.00  0.00     0.006 C 
BRANCH   5   6
ATOM      6  C   UNL     1      -1.843 -22.471  50.306  1.00  0.00     0.053 C 
BRANCH   6   7
ATOM      7  C   UNL     1      -0.455 -22.700  50.818  1.00  0.00     0.041 C 
ATOM      8  O   UNL     1       0.378 -21.756  50.831  1.00  0.00    -0.550 OA
ATOM      9  O   UNL     1      -0.063 -23.968  51.229  1.00  0.00    -0.550 OA
ENDBRANCH   6   7
ENDBRANCH   5   6
ENDBRANCH   4   5
ENDBRANCH   3   4
ENDBRANCH   2   3
ENDBRANCH   1   2
BRANCH   1  10
ATOM     10  C   UNL     1      -5.034 -24.576  48.631  1.00  0.00     0.027 C 
BRANCH  10  11
ATOM     11  C   UNL     1      -5.351 -23.237  49.235  1.00  0.00    -0.031 C 
ATOM     12  C   UNL     1      -5.591 -22.160  48.468  1.00  0.00    -0.031 C 
BRANCH  12  13
ATOM     13  C   UNL     1      -5.850 -20.809  49.074  1.00  0.00     0.027 C 
BRANCH  13  14
ATOM     14  C   UNL     1      -6.471 -19.858  48.039  1.00  0.00     0.004 C 
BRANCH  14  15
ATOM     15  C   UNL     1      -6.298 -20.361  46.596  1.00  0.00     0.000 C 
BRANCH  15  16
ATOM     16  C   UNL     1      -5.439 -19.412  45.744  1.00  0.00    -0.000 C 
BRANCH  16  17
ATOM     17  C   UNL     1      -4.430 -20.163  44.862  1.00  0.00    -0.003 C 
ATOM     18  C   UNL     1      -3.531 -21.110  45.658  1.00  0.00     0.004 C 
ENDBRANCH  16  17
ENDBRANCH  15  16
ENDBRANCH  14  15
ENDBRANCH  13  14
ENDBRANCH  12  13
ENDBRANCH  10  11
ENDBRANCH   1  10
TORSDOF 13
ENDMDL
MODEL 3
REMARK VINA RESULT:    -4.476      1.528      2.729
REMARK INTER + INTRA:         -10.458
REMARK INTER:                  -8.906
REMARK INTRA:                  -1.551
REMARK UNBOUND:                -2.581
REMARK SMILES CCCCCCC=CCCCCCCCC(=O)[O-]
REMARK SMILES IDX 10 1 11 2 12 3 13 4 14 5 15 6 16 7 17 8 18 9 9 10 8 11 7 12
REMARK SMILES IDX 6 13 5 14 4 15 3 16 2 17 1 18
REMARK H PARENT
REMARK Flexibility Score: inf
ROOT
ATOM      1  C   UNL     1      -5.384 -22.510  47.971  1.00  0.00     0.004 C 
ENDROOT
BRANCH   1   2
ATOM      2  C   UNL     1      -5.185 -21.296  48.885  1.00  0.00     0.000 C 
BRANCH   2   3
ATOM      3  C   UNL     1      -3.695 -21.076  49.191  1.00  0.00     0.000 C 
BRANCH   3   4
ATOM      4  C   UNL     1      -3.300 -21.610  50.584  1.00  0.00     0.000 C 
BRANCH   4   5
ATOM      5  C   UNL     1      -2.123 -22.600  50.554  1.00  0.00     0.006 C 
BRANCH   5   6
ATOM      6  C   UNL     1      -1.113 -22.292  49.443  1.00  0.00     0.053 C 
BRANCH   6   7
ATOM      7  C   UNL     1       0.227 -21.968  50.029  1.00  0.00     0.041 C 
ATOM      8  O   UNL     1       0.396 -21.999  51.275  1.00  0.00    -0.550 OA
ATOM      9  O   UNL     1       1.273 -21.577  49.203  1.00  0.00    -0.550 OA
ENDBRANCH   6   7
ENDBRANCH   5   6
ENDBRANCH   4   5
ENDBRANCH   3   4
ENDBRANCH   2   3
ENDBRANCH   1   2
BRANCH   1  10
ATOM     10  C   UNL     1      -5.560 -23.793  48.790  1.00  0.00     0.027 C 
BRANCH  10  11
ATOM     11  C   UNL     1      -4.459 -24.766  48.473  1.00  0.00    -0.031 C 
ATOM     12  C   UNL     1      -3.559 -24.517  47.506  1.00  0.00    -0.031 C 
BRANCH  12  13
ATOM     13  C   UNL     1      -2.494 -25.517  47.152  1.00  0.00     0.027 C 
BRANCH  13  14
ATOM     14  C   UNL     1      -2.658 -25.996  45.700  1.00  0.00     0.004 C 
BRANCH  14  15
ATOM     15  C   UNL     1      -4.105 -26.396  45.370  1.00  0.00     0.000 C 
BRANCH  15  16
ATOM     16  C   UNL     1      -4.183 -27.713  44.580  1.00  0.00    -0.000 C 
BRANCH  16  17
ATOM     17  C   UNL     1      -3.270 -28.804  45.159  1.00  0.00    -0.003 C 
ATOM     18  C   UNL     1      -3.360 -30.125  44.394  1.00  0.00     0.004 C 
ENDBRANCH  16  17
ENDBRANCH  15  16
ENDBRANCH  14  15
ENDBRANCH  13  14
ENDBRANCH  12  13
ENDBRANCH  10  11
ENDBRANCH   1  10
TORSDOF 13
ENDMDL
MODEL 4
REMARK VINA RESULT:    -4.458      1.700      4.044
REMARK INTER + INTRA:         -10.428
REMARK INTER:                  -8.474
REMARK INTRA:                  -1.954
REMARK UNBOUND:                -2.581
REMARK SMILES CCCCCCC=CCCCCCCCC(=O)[O-]
REMARK SMILES IDX 10 1 11 2 12 3 13 4 14 5 15 6 16 7 17 8 18 9 9 10 8 11 7 12
REMARK SMILES IDX 6 13 5 14 4 15 3 16 2 17 1 18
REMARK H PARENT
REMARK Flexibility Score: inf
ROOT
ATOM      1  C   UNL     1      -4.610 -25.067  47.251  1.00  0.00     0.004 C 
ENDROOT
BRANCH   1   2
ATOM      2  C   UNL     1      -3.661 -24.004  46.686  1.00  0.00     0.000 C 
BRANCH   2   3
ATOM      3  C   UNL     1      -2.195 -24.442  46.831  1.00  0.00     0.000 C 
BRANCH   3   4
ATOM      4  C   UNL     1      -1.979 -25.369  48.046  1.00  0.00     0.000 C 
BRANCH   4   5
ATOM      5  C   UNL     1      -1.157 -24.724  49.175  1.00  0.00     0.006 C 
BRANCH   5   6
ATOM      6  C   UNL     1      -0.789 -23.263  48.887  1.00  0.00     0.053 C 
BRANCH   6   7
ATOM      7  C   UNL     1      -0.059 -22.669  50.050  1.00  0.00     0.041 C 
ATOM      8  O   UNL     1      -0.081 -23.242  51.170  1.00  0.00    -0.550 OA
ATOM      9  O   UNL     1       0.600 -21.453  49.913  1.00  0.00    -0.550 OA
ENDBRANCH   6   7
ENDBRANCH   5   6
ENDBRANCH   4   5
ENDBRANCH   3   4
ENDBRANCH   2   3
ENDBRANCH   1   2
BRANCH   1  10
ATOM     10  C   UNL     1      -5.501 -24.484  48.352  1.00  0.00     0.027 C 
BRANCH  10  11
ATOM     11  C   UNL     1      -4.912 -23.202  48.870  1.00  0.00    -0.031 C 
ATOM     12  C   UNL     1      -4.315 -23.140  50.073  1.00  0.00    -0.031 C 
BRANCH  12  13
ATOM     13  C   UNL     1      -3.779 -21.844  50.614  1.00  0.00     0.027 C 
BRANCH  13  14
ATOM     14  C   UNL     1      -4.006 -20.700  49.614  1.00  0.00     0.004 C 
BRANCH  14  15
ATOM     15  C   UNL     1      -5.275 -19.889  49.922  1.00  0.00     0.000 C 
BRANCH  15  16
ATOM     16  C   UNL     1      -6.414 -20.182  48.931  1.00  0.00    -0.000 C 
BRANCH  16  17
ATOM     17  C   UNL     1      -6.111 -19.667  47.516  1.00  0.00    -0.003 C 
ATOM     18  C   UNL     1      -6.057 -20.785  46.475  1.00  0.00     0.004 C 
ENDBRANCH  16  17
ENDBRANCH  15  16
ENDBRANCH  14  15
ENDBRANCH  13  14
ENDBRANCH  12  13
ENDBRANCH  10  11
ENDBRANCH   1  10
TORSDOF 13
ENDMDL
MODEL 5
REMARK VINA RESULT:    -4.454      2.785      5.513
REMARK INTER + INTRA:         -10.420
REMARK INTER:                  -8.093
REMARK INTRA:                  -2.326
REMARK UNBOUND:                -2.581
REMARK SMILES CCCCCCC=CCCCCCCCC(=O)[O-]
REMARK SMILES IDX 10 1 11 2 12 3 13 4 14 5 15 6 16 7 17 8 18 9 9 10 8 11 7 12
REMARK SMILES IDX 6 13 5 14 4 15 3 16 2 17 1 18
REMARK H PARENT
REMARK Flexibility Score: inf
ROOT
ATOM      1  C   UNL     1      -0.395 -23.288  50.599  1.00  0.00     0.004 C 
ENDROOT
BRANCH   1   2
ATOM      2  C   UNL     1       0.702 -22.538  49.836  1.00  0.00     0.000 C 
BRANCH   2   3
ATOM      3  C   UNL     1       0.097 -21.620  48.763  1.00  0.00     0.000 C 
BRANCH   3   4
ATOM      4  C   UNL     1       0.320 -22.164  47.335  1.00  0.00     0.000 C 
BRANCH   4   5
ATOM      5  C   UNL     1      -0.984 -22.526  46.603  1.00  0.00     0.006 C 
BRANCH   5   6
ATOM      6  C   UNL     1      -2.107 -21.511  46.848  1.00  0.00     0.053 C 
BRANCH   6   7
ATOM      7  C   UNL     1      -2.562 -20.911  45.554  1.00  0.00     0.041 C 
ATOM      8  O   UNL     1      -1.741 -20.310  44.813  1.00  0.00    -0.550 OA
ATOM      9  O   UNL     1      -3.902 -20.968  45.192  1.00  0.00    -0.550 OA
ENDBRANCH   6   7
ENDBRANCH   5   6
ENDBRANCH   4   5
ENDBRANCH   3   4
ENDBRANCH   2   3
ENDBRANCH   1   2
BRANCH   1  10
ATOM     10  C   UNL     1      -1.605 -22.384  50.857  1.00  0.00     0.027 C 
BRANCH  10  11
ATOM     11  C   UNL     1      -2.878 -23.124  50.559  1.00  0.00    -0.031 C 
ATOM     12  C   UNL     1      -2.984 -23.940  49.496  1.00  0.00    -0.031 C 
BRANCH  12  13
ATOM     13  C   UNL     1      -4.276 -24.634  49.167  1.00  0.00     0.027 C 
BRANCH  13  14
ATOM     14  C   UNL     1      -5.442 -23.633  49.150  1.00  0.00     0.004 C 
BRANCH  14  15
ATOM     15  C   UNL     1      -5.413 -22.712  47.919  1.00  0.00     0.000 C 
BRANCH  15  16
ATOM     16  C   UNL     1      -5.617 -21.233  48.288  1.00  0.00    -0.000 C 
BRANCH  16  17
ATOM     17  C   UNL     1      -5.775 -21.019  49.801  1.00  0.00    -0.003 C 
ATOM     18  C   UNL     1      -4.829 -19.953  50.354  1.00  0.00     0.004 C 
ENDBRANCH  16  17
ENDBRANCH  15  16
ENDBRANCH  14  15
ENDBRANCH  13  14
ENDBRANCH  12  13
ENDBRANCH  10  11
ENDBRANCH   1  10
TORSDOF 13
ENDMDL
MODEL 6
REMARK VINA RESULT:    -4.451      1.735      2.709
REMARK INTER + INTRA:         -10.415
REMARK INTER:                  -8.331
REMARK INTRA:                  -2.084
REMARK UNBOUND:                -2.581
REMARK SMILES CCCCCCC=CCCCCCCCC(=O)[O-]
REMARK SMILES IDX 10 1 11 2 12 3 13 4 14 5 15 6 16 7 17 8 18 9 9 10 8 11 7 12
REMARK SMILES IDX 6 13 5 14 4 15 3 16 2 17 1 18
REMARK H PARENT
REMARK Flexibility Score: inf
ROOT
ATOM      1  C   UNL     1      -5.991 -20.723  49.243  1.00  0.00     0.004 C 
ENDROOT
BRANCH   1   2
ATOM      2  C   UNL     1      -4.748 -20.385  50.072  1.00  0.00     0.000 C 
BRANCH   2   3
ATOM      3  C   UNL     1      -3.503 -21.092  49.512  1.00  0.00     0.000 C 
BRANCH   3   4
ATOM      4  C   UNL     1      -2.883 -22.074  50.529  1.00  0.00     0.000 C 
BRANCH   4   5
ATOM      5  C   UNL     1      -1.963 -23.126  49.886  1.00  0.00     0.006 C 
BRANCH   5   6
ATOM      6  C   UNL     1      -0.693 -23.388  50.705  1.00  0.00     0.053 C 
BRANCH   6   7
ATOM      7  C   UNL     1       0.277 -22.258  50.541  1.00  0.00     0.041 C 
ATOM      8  O   UNL     1       0.868 -22.086  49.444  1.00  0.00    -0.550 OA
ATOM      9  O   UNL     1       0.570 -21.430  51.618  1.00  0.00    -0.550 OA
ENDBRANCH   6   7
ENDBRANCH   5   6
ENDBRANCH   4   5
ENDBRANCH   3   4
ENDBRANCH   2   3
ENDBRANCH   1   2
BRANCH   1  10
ATOM     10  C   UNL     1      -6.070 -19.852  47.985  1.00  0.00     0.027 C 
BRANCH  10  11
ATOM     11  C   UNL     1      -6.024 -20.713  46.754  1.00  0.00    -0.031 C 
ATOM     12  C   UNL     1      -4.859 -21.133  46.234  1.00  0.00    -0.031 C 
BRANCH  12  13
ATOM     13  C   UNL     1      -4.813 -21.945  44.970  1.00  0.00     0.027 C 
BRANCH  13  14
ATOM     14  C   UNL     1      -3.948 -23.202  45.161  1.00  0.00     0.004 C 
BRANCH  14  15
ATOM     15  C   UNL     1      -3.633 -23.483  46.639  1.00  0.00     0.000 C 
BRANCH  15  16
ATOM     16  C   UNL     1      -4.492 -24.621  47.215  1.00  0.00    -0.000 C 
BRANCH  16  17
ATOM     17  C   UNL     1      -5.411 -24.148  48.352  1.00  0.00    -0.003 C 
ATOM     18  C   UNL     1      -5.108 -24.830  49.686  1.00  0.00     0.004 C 
ENDBRANCH  16  17
ENDBRANCH  15  16
ENDBRANCH  14  15
ENDBRANCH  13  14
ENDBRANCH  12  13
ENDBRANCH  10  11
ENDBRANCH   1  10
TORSDOF 13
ENDMDL
MODEL 7
REMARK VINA RESULT:    -4.420      2.494      3.690
REMARK INTER + INTRA:         -10.359
REMARK INTER:                  -7.866
REMARK INTRA:                  -2.493
REMARK UNBOUND:                -2.581
REMARK SMILES CCCCCCC=CCCCCCCCC(=O)[O-]
REMARK SMILES IDX 10 1 11 2 12 3 13 4 14 5 15 6 16 7 17 8 18 9 9 10 8 11 7 12
REMARK SMILES IDX 6 13 5 14 4 15 3 16 2 17 1 18
REMARK H PARENT
REMARK Flexibility Score: inf
ROOT
ATOM      1  C   UNL     1      -1.994 -24.111  50.293  1.00  0.00     0.004 C 
ENDROOT
BRANCH   1   2
ATOM      2  C   UNL     1      -2.932 -24.773  49.277  1.00  0.00     0.000 C 
BRANCH   2   3
ATOM      3  C   UNL     1      -4.404 -24.508  49.632  1.00  0.00     0.000 C 
BRANCH   3   4
ATOM      4  C   UNL     1      -5.232 -24.078  48.403  1.00  0.00     0.000 C 
BRANCH   4   5
ATOM      5  C   UNL     1      -5.628 -22.591  48.415  1.00  0.00     0.006 C 
BRANCH   5   6
ATOM      6  C   UNL     1      -5.028 -21.824  49.600  1.00  0.00     0.053 C 
BRANCH   6   7
ATOM      7  C   UNL     1      -5.500 -20.403  49.595  1.00  0.00     0.041 C 
ATOM      8  O   UNL     1      -5.153 -19.618  50.516  1.00  0.00    -0.550 OA
ATOM      9  O   UNL     1      -6.368 -19.960  48.605  1.00  0.00    -0.550 OA
ENDBRANCH   6   7
ENDBRANCH   5   6
ENDBRANCH   4   5
ENDBRANCH   3   4
ENDBRANCH   2   3
ENDBRANCH   1   2
BRANCH   1  10
ATOM     10  C   UNL     1      -1.081 -23.085  49.613  1.00  0.00     0.027 C 
BRANCH  10  11
ATOM     11  C   UNL     1      -1.564 -22.805  48.218  1.00  0.00    -0.031 C 
ATOM     12  C   UNL     1      -1.854 -21.556  47.813  1.00  0.00    -0.031 C 
BRANCH  12  13
ATOM     13  C   UNL     1      -2.392 -21.285  46.436  1.00  0.00     0.027 C 
BRANCH  13  14
ATOM     14  C   UNL     1      -2.525 -22.591  45.637  1.00  0.00     0.004 C 
BRANCH  14  15
ATOM     15  C   UNL     1      -3.954 -22.824  45.119  1.00  0.00     0.000 C 
BRANCH  15  16
ATOM     16  C   UNL     1      -4.187 -24.279  44.677  1.00  0.00    -0.000 C 
BRANCH  16  17
ATOM     17  C   UNL     1      -3.287 -25.274  45.424  1.00  0.00    -0.003 C 
ATOM     18  C   UNL     1      -3.806 -26.711  45.361  1.00  0.00     0.004 C 
ENDBRANCH  16  17
ENDBRANCH  15  16
ENDBRANCH  14  15
ENDBRANCH  13  14
ENDBRANCH  12  13
ENDBRANCH  10  11
ENDBRANCH   1  10
TORSDOF 13
ENDMDL
MODEL 8
REMARK VINA RESULT:    -4.392      1.593      4.654
REMARK INTER + INTRA:         -10.310
REMARK INTER:                  -7.964
REMARK INTRA:                  -2.346
REMARK UNBOUND:                -2.581
REMARK SMILES CCCCCCC=CCCCCCCCC(=O)[O-]
REMARK SMILES IDX 10 1 11 2 12 3 13 4 14 5 15 6 16 7 17 8 18 9 9 10 8 11 7 12
REMARK SMILES IDX 6 13 5 14 4 15 3 16 2 17 1 18
REMARK H PARENT
REMARK Flexibility Score: inf
ROOT
ATOM      1  C   UNL     1      -2.867 -23.553  44.971  1.00  0.00     0.004 C 
ENDROOT
BRANCH   1   2
ATOM      2  C   UNL     1      -1.750 -22.518  45.148  1.00  0.00     0.000 C 
BRANCH   2   3
ATOM      3  C   UNL     1      -2.074 -21.548  46.295  1.00  0.00     0.000 C 
BRANCH   3   4
ATOM      4  C   UNL     1      -1.094 -21.695  47.479  1.00  0.00     0.000 C 
BRANCH   4   5
ATOM      5  C   UNL     1      -1.756 -22.207  48.768  1.00  0.00     0.006 C 
BRANCH   5   6
ATOM      6  C   UNL     1      -1.099 -23.482  49.312  1.00  0.00     0.053 C 
BRANCH   6   7
ATOM      7  C   UNL     1      -0.390 -23.196  50.599  1.00  0.00     0.041 C 
ATOM      8  O   UNL     1      -0.153 -24.128  51.411  1.00  0.00    -0.550 OA
ATOM      9  O   UNL     1      -0.041 -21.892  50.929  1.00  0.00    -0.550 OA
ENDBRANCH   6   7
ENDBRANCH   5   6
ENDBRANCH   4   5
ENDBRANCH   3   4
ENDBRANCH   2   3
ENDBRANCH   1   2
BRANCH   1  10
ATOM     10  C   UNL     1      -2.506 -24.876  45.654  1.00  0.00     0.027 C 
BRANCH  10  11
ATOM     11  C   UNL     1      -3.321 -25.053  46.905  1.00  0.00    -0.031 C 
ATOM     12  C   UNL     1      -4.442 -24.343  47.119  1.00  0.00    -0.031 C 
BRANCH  12  13
ATOM     13  C   UNL     1      -5.223 -24.479  48.396  1.00  0.00     0.027 C 
BRANCH  13  14
ATOM     14  C   UNL     1      -5.336 -23.124  49.112  1.00  0.00     0.004 C 
BRANCH  14  15
ATOM     15  C   UNL     1      -5.409 -21.942  48.132  1.00  0.00     0.000 C 
BRANCH  15  16
ATOM     16  C   UNL     1      -5.421 -20.583  48.852  1.00  0.00    -0.000 C 
BRANCH  16  17
ATOM     17  C   UNL     1      -5.312 -20.723  50.378  1.00  0.00    -0.003 C 
ATOM     18  C   UNL     1      -4.401 -19.670  51.009  1.00  0.00     0.004 C 
ENDBRANCH  16  17
ENDBRANCH  15  16
ENDBRANCH  14  15
ENDBRANCH  13  14
ENDBRANCH  12  13
ENDBRANCH  10  11
ENDBRANCH   1  10
TORSDOF 13
ENDMDL
MODEL 9
REMARK VINA RESULT:    -4.376      2.478      5.540
REMARK INTER + INTRA:         -10.282
REMARK INTER:                  -8.159
REMARK INTRA:                  -2.123
REMARK UNBOUND:                -2.581
REMARK SMILES CCCCCCC=CCCCCCCCC(=O)[O-]
REMARK SMILES IDX 10 1 11 2 12 3 13 4 14 5 15 6 16 7 17 8 18 9 9 10 8 11 7 12
REMARK SMILES IDX 6 13 5 14 4 15 3 16 2 17 1 18
REMARK H PARENT
REMARK Flexibility Score: inf
ROOT
ATOM      1  C   UNL     1      -0.345 -22.965  50.198  1.00  0.00     0.004 C 
ENDROOT
BRANCH   1   2
ATOM      2  C   UNL     1      -0.783 -21.987  49.103  1.00  0.00     0.000 C 
BRANCH   2   3
ATOM      3  C   UNL     1       0.241 -21.949  47.957  1.00  0.00     0.000 C 
BRANCH   3   4
ATOM      4  C   UNL     1      -0.417 -22.176  46.579  1.00  0.00     0.000 C 
BRANCH   4   5
ATOM      5  C   UNL     1      -1.692 -23.034  46.637  1.00  0.00     0.006 C 
BRANCH   5   6
ATOM      6  C   UNL     1      -1.678 -24.193  45.634  1.00  0.00     0.053 C 
BRANCH   6   7
ATOM      7  C   UNL     1      -2.641 -25.260  46.054  1.00  0.00     0.041 C 
ATOM      8  O   UNL     1      -2.224 -26.296  46.632  1.00  0.00    -0.550 OA
ATOM      9  O   UNL     1      -3.993 -25.134  45.757  1.00  0.00    -0.550 OA
ENDBRANCH   6   7
ENDBRANCH   5   6
ENDBRANCH   4   5
ENDBRANCH   3   4
ENDBRANCH   2   3
ENDBRANCH   1   2
BRANCH   1  10
ATOM     10  C   UNL     1      -1.072 -24.307  50.062  1.00  0.00     0.027 C 
BRANCH  10  11
ATOM     11  C   UNL     1      -2.540 -24.133  50.336  1.00  0.00    -0.031 C 
ATOM     12  C   UNL     1      -3.472 -24.587  49.481  1.00  0.00    -0.031 C 
BRANCH  12  13
ATOM     13  C   UNL     1      -4.937 -24.360  49.728  1.00  0.00     0.027 C 
BRANCH  13  14
ATOM     14  C   UNL     1      -5.602 -23.714  48.502  1.00  0.00     0.004 C 
BRANCH  14  15
ATOM     15  C   UNL     1      -4.955 -22.373  48.118  1.00  0.00     0.000 C 
BRANCH  15  16
ATOM     16  C   UNL     1      -5.879 -21.175  48.396  1.00  0.00    -0.000 C 
BRANCH  16  17
ATOM     17  C   UNL     1      -5.580 -20.499  49.743  1.00  0.00    -0.003 C 
ATOM     18  C   UNL     1      -4.134 -20.696  50.200  1.00  0.00     0.004 C 
ENDBRANCH  16  17
ENDBRANCH  15  16
ENDBRANCH  14  15
ENDBRANCH  13  14
ENDBRANCH  12  13
ENDBRANCH  10  11
ENDBRANCH   1  10
TORSDOF 13
ENDMDL
