MODEL 1
REMARK VINA RESULT:    -2.403      0.000      0.000
REMARK INTER + INTRA:          -8.779
REMARK INTER:                  -6.337
REMARK INTRA:                  -2.442
REMARK UNBOUND:                -2.442
REMARK SMILES CCCCCCCCCCCCCCCCCCCCCCCCCCCCCC(=O)[O-]
REMARK SMILES IDX 16 1 17 2 18 3 19 4 20 5 21 6 22 7 23 8 24 9 25 10 26 11
REMARK SMILES IDX 27 12 28 13 29 14 30 15 31 16 32 17 15 18 14 19 13 20 12 21
REMARK SMILES IDX 11 22 10 23 9 24 8 25 7 26 6 27 5 28 4 29 3 30 2 31 1 32
REMARK H PARENT
REMARK Flexibility Score: inf
ROOT
ATOM      1  C   UNL     1      -8.509  -7.766  10.006  1.00  0.00     0.000 C 
ENDROOT
BRANCH   1   2
ATOM      2  C   UNL     1      -9.813  -8.479   9.619  1.00  0.00     0.000 C 
BRANCH   2   3
ATOM      3  C   UNL     1     -10.125  -8.374   8.118  1.00  0.00     0.000 C 
BRANCH   3   4
ATOM      4  C   UNL     1     -10.044  -9.753   7.449  1.00  0.00     0.000 C 
BRANCH   4   5
ATOM      5  C   UNL     1      -8.616 -10.125   7.010  1.00  0.00     0.000 C 
BRANCH   5   6
ATOM      6  C   UNL     1      -7.997  -9.210   5.932  1.00  0.00     0.000 C 
BRANCH   6   7
ATOM      7  C   UNL     1      -6.673  -8.531   6.329  1.00  0.00     0.000 C 
BRANCH   7   8
ATOM      8  C   UNL     1      -5.589  -9.533   6.754  1.00  0.00     0.000 C 
BRANCH   8   9
ATOM      9  C   UNL     1      -4.979  -9.137   8.104  1.00  0.00     0.000 C 
BRANCH   9  10
ATOM     10  C   UNL     1      -5.853  -8.099   8.823  1.00  0.00     0.000 C 
BRANCH  10  11
ATOM     11  C   UNL     1      -5.047  -7.184   9.762  1.00  0.00     0.000 C 
BRANCH  11  12
ATOM     12  C   UNL     1      -4.244  -6.075   9.057  1.00  0.00     0.000 C 
BRANCH  12  13
ATOM     13  C   UNL     1      -4.588  -5.944   7.563  1.00  0.00     0.006 C 
BRANCH  13  14
ATOM     14  C   UNL     1      -4.172  -4.584   6.991  1.00  0.00     0.053 C 
BRANCH  14  15
ATOM     15  C   UNL     1      -4.395  -4.516   5.510  1.00  0.00     0.041 C 
ATOM     16  O   UNL     1      -3.986  -3.523   4.851  1.00  0.00    -0.550 OA
ATOM     17  O   UNL     1      -5.086  -5.532   4.863  1.00  0.00    -0.550 OA
ENDBRANCH  14  15
ENDBRANCH  13  14
ENDBRANCH  12  13
ENDBRANCH  11  12
ENDBRANCH  10  11
ENDBRANCH   9  10
ENDBRANCH   8   9
ENDBRANCH   7   8
ENDBRANCH   6   7
ENDBRANCH   5   6
ENDBRANCH   4   5
ENDBRANCH   3   4
ENDBRANCH   2   3
ENDBRANCH   1   2
BRANCH   1  18
ATOM     18  C   UNL     1      -8.621  -6.233   9.923  1.00  0.00     0.000 C 
BRANCH  18  19
ATOM     19  C   UNL     1      -9.282  -5.760   8.614  1.00  0.00     0.000 C 
BRANCH  19  20
ATOM     20  C   UNL     1      -8.302  -5.110   7.616  1.00  0.00     0.000 C 
BRANCH  20  21
ATOM     21  C   UNL     1      -7.639  -3.815   8.130  1.00  0.00     0.000 C 
BRANCH  21  22
ATOM     22  C   UNL     1      -8.416  -2.530   7.769  1.00  0.00     0.000 C 
BRANCH  22  23
ATOM     23  C   UNL     1      -9.771  -2.403   8.489  1.00  0.00     0.000 C 
BRANCH  23  24
ATOM     24  C   UNL     1      -9.710  -1.474   9.711  1.00  0.00    -0.000 C 
BRANCH  24  25
ATOM     25  C   UNL     1      -8.382  -0.705   9.813  1.00  0.00    -0.000 C 
BRANCH  25  26
ATOM     26  C   UNL     1      -8.556   0.823   9.944  1.00  0.00    -0.000 C 
BRANCH  26  27
ATOM     27  C   UNL     1      -9.994   1.280   9.649  1.00  0.00    -0.000 C 
BRANCH  27  28
ATOM     28  C   UNL     1      -9.999   2.516   8.741  1.00  0.00    -0.000 C 
BRANCH  28  29
ATOM     29  C   UNL     1      -8.567   2.976   8.426  1.00  0.00    -0.000 C 
BRANCH  29  30
ATOM     30  C   UNL     1      -8.329   4.461   8.762  1.00  0.00    -0.000 C 
BRANCH  30  31
ATOM     31  C   UNL     1      -6.990   4.759   9.460  1.00  0.00    -0.003 C 
ATOM     32  C   UNL     1      -6.296   3.504   9.989  1.00  0.00     0.004 C 
ENDBRANCH  30  31
ENDBRANCH  29  30
ENDBRANCH  28  29
ENDBRANCH  27  28
ENDBRANCH  26  27
ENDBRANCH  25  26
ENDBRANCH  24  25
ENDBRANCH  23  24
ENDBRANCH  22  23
ENDBRANCH  21  22
ENDBRANCH  20  21
ENDBRANCH  19  20
ENDBRANCH  18  19
ENDBRANCH   1  18
TORSDOF 28
ENDMDL
MODEL 2
REMARK VINA RESULT:    -2.030      2.350      4.186
REMARK INTER + INTRA:          -7.794
REMARK INTER:                  -5.478
REMARK INTRA:                  -2.316
REMARK UNBOUND:                -2.442
REMARK SMILES CCCCCCCCCCCCCCCCCCCCCCCCCCCCCC(=O)[O-]
REMARK SMILES IDX 16 1 17 2 18 3 19 4 20 5 21 6 22 7 23 8 24 9 25 10 26 11
REMARK SMILES IDX 27 12 28 13 29 14 30 15 31 16 32 17 15 18 14 19 13 20 12 21
REMARK SMILES IDX 11 22 10 23 9 24 8 25 7 26 6 27 5 28 4 29 3 30 2 31 1 32
REMARK H PARENT
REMARK Flexibility Score: inf
ROOT
ATOM      1  C   UNL     1      -5.856  -5.834   7.560  1.00  0.00     0.000 C 
ENDROOT
BRANCH   1   2
ATOM      2  C   UNL     1      -4.927  -7.047   7.406  1.00  0.00     0.000 C 
BRANCH   2   3
ATOM      3  C   UNL     1      -5.685  -8.384   7.431  1.00  0.00     0.000 C 
BRANCH   3   4
ATOM      4  C   UNL     1      -5.299  -9.205   8.669  1.00  0.00     0.000 C 
BRANCH   4   5
ATOM      5  C   UNL     1      -6.449  -9.336   9.685  1.00  0.00     0.000 C 
BRANCH   5   6
ATOM      6  C   UNL     1      -7.735  -9.996   9.144  1.00  0.00     0.000 C 
BRANCH   6   7
ATOM      7  C   UNL     1      -9.049  -9.297   9.543  1.00  0.00     0.000 C 
BRANCH   7   8
ATOM      8  C   UNL     1      -9.881  -8.848   8.333  1.00  0.00     0.000 C 
BRANCH   8   9
ATOM      9  C   UNL     1      -9.006  -8.739   7.079  1.00  0.00     0.000 C 
BRANCH   9  10
ATOM     10  C   UNL     1      -9.866  -8.603   5.813  1.00  0.00     0.000 C 
BRANCH  10  11
ATOM     11  C   UNL     1      -9.643  -7.269   5.078  1.00  0.00     0.000 C 
BRANCH  11  12
ATOM     12  C   UNL     1      -9.106  -6.125   5.957  1.00  0.00     0.000 C 
BRANCH  12  13
ATOM     13  C   UNL     1     -10.052  -4.913   6.007  1.00  0.00     0.006 C 
BRANCH  13  14
ATOM     14  C   UNL     1      -9.659  -3.917   7.105  1.00  0.00     0.053 C 
BRANCH  14  15
ATOM     15  C   UNL     1      -9.984  -4.442   8.470  1.00  0.00     0.041 C 
ATOM     16  O   UNL     1     -10.118  -3.650   9.441  1.00  0.00    -0.550 OA
ATOM     17  O   UNL     1     -10.103  -5.810   8.680  1.00  0.00    -0.550 OA
ENDBRANCH  14  15
ENDBRANCH  13  14
ENDBRANCH  12  13
ENDBRANCH  11  12
ENDBRANCH  10  11
ENDBRANCH   9  10
ENDBRANCH   8   9
ENDBRANCH   7   8
ENDBRANCH   6   7
ENDBRANCH   5   6
ENDBRANCH   4   5
ENDBRANCH   3   4
ENDBRANCH   2   3
ENDBRANCH   1   2
BRANCH   1  18
ATOM     18  C   UNL     1      -6.524  -5.769   8.946  1.00  0.00     0.000 C 
BRANCH  18  19
ATOM     19  C   UNL     1      -6.608  -4.331   9.493  1.00  0.00     0.000 C 
BRANCH  19  20
ATOM     20  C   UNL     1      -5.482  -3.402   8.993  1.00  0.00     0.000 C 
BRANCH  20  21
ATOM     21  C   UNL     1      -5.105  -2.276   9.978  1.00  0.00     0.000 C 
BRANCH  21  22
ATOM     22  C   UNL     1      -6.079  -1.077   9.958  1.00  0.00     0.000 C 
BRANCH  22  23
ATOM     23  C   UNL     1      -7.563  -1.486   9.953  1.00  0.00     0.000 C 
BRANCH  23  24
ATOM     24  C   UNL     1      -8.378  -0.752   8.877  1.00  0.00    -0.000 C 
BRANCH  24  25
ATOM     25  C   UNL     1      -8.298   0.778   9.004  1.00  0.00    -0.000 C 
BRANCH  25  26
ATOM     26  C   UNL     1      -9.547   1.513   8.475  1.00  0.00    -0.000 C 
BRANCH  26  27
ATOM     27  C   UNL     1      -9.199   2.616   7.463  1.00  0.00    -0.000 C 
BRANCH  27  28
ATOM     28  C   UNL     1      -9.568   4.000   8.012  1.00  0.00    -0.000 C 
BRANCH  28  29
ATOM     29  C   UNL     1      -9.505   4.019   9.548  1.00  0.00    -0.000 C 
BRANCH  29  30
ATOM     30  C   UNL     1      -8.352   4.887  10.087  1.00  0.00    -0.000 C 
BRANCH  30  31
ATOM     31  C   UNL     1      -6.985   4.632   9.425  1.00  0.00    -0.003 C 
ATOM     32  C   UNL     1      -6.373   3.286   9.812  1.00  0.00     0.004 C 
ENDBRANCH  30  31
ENDBRANCH  29  30
ENDBRANCH  28  29
ENDBRANCH  27  28
ENDBRANCH  26  27
ENDBRANCH  25  26
ENDBRANCH  24  25
ENDBRANCH  23  24
ENDBRANCH  22  23
ENDBRANCH  21  22
ENDBRANCH  20  21
ENDBRANCH  19  20
ENDBRANCH  18  19
ENDBRANCH   1  18
TORSDOF 28
ENDMDL
MODEL 3
REMARK VINA RESULT:    -2.016      1.507      2.676
REMARK INTER + INTRA:          -7.758
REMARK INTER:                  -7.523
REMARK INTRA:                  -0.235
REMARK UNBOUND:                -2.442
REMARK SMILES CCCCCCCCCCCCCCCCCCCCCCCCCCCCCC(=O)[O-]
REMARK SMILES IDX 16 1 17 2 18 3 19 4 20 5 21 6 22 7 23 8 24 9 25 10 26 11
REMARK SMILES IDX 27 12 28 13 29 14 30 15 31 16 32 17 15 18 14 19 13 20 12 21
REMARK SMILES IDX 11 22 10 23 9 24 8 25 7 26 6 27 5 28 4 29 3 30 2 31 1 32
REMARK H PARENT
REMARK Flexibility Score: inf
ROOT
ATOM      1  C   UNL     1      -8.597  -4.657   8.429  1.00  0.00     0.000 C 
ENDROOT
BRANCH   1   2
ATOM      2  C   UNL     1      -9.275  -5.152   9.715  1.00  0.00     0.000 C 
BRANCH   2   3
ATOM      3  C   UNL     1     -10.094  -6.434   9.499  1.00  0.00     0.000 C 
BRANCH   3   4
ATOM      4  C   UNL     1      -9.386  -7.644  10.125  1.00  0.00     0.000 C 
BRANCH   4   5
ATOM      5  C   UNL     1      -8.967  -8.699   9.085  1.00  0.00     0.000 C 
BRANCH   5   6
ATOM      6  C   UNL     1      -7.759  -9.574   9.481  1.00  0.00     0.000 C 
BRANCH   6   7
ATOM      7  C   UNL     1      -6.384  -8.892   9.346  1.00  0.00     0.000 C 
BRANCH   7   8
ATOM      8  C   UNL     1      -5.994  -8.609   7.888  1.00  0.00     0.000 C 
BRANCH   8   9
ATOM      9  C   UNL     1      -6.709  -9.574   6.935  1.00  0.00     0.000 C 
BRANCH   9  10
ATOM     10  C   UNL     1      -7.843  -8.868   6.178  1.00  0.00     0.000 C 
BRANCH  10  11
ATOM     11  C   UNL     1      -7.357  -7.654   5.366  1.00  0.00     0.000 C 
BRANCH  11  12
ATOM     12  C   UNL     1      -5.898  -7.239   5.629  1.00  0.00     0.000 C 
BRANCH  12  13
ATOM     13  C   UNL     1      -5.578  -5.821   5.127  1.00  0.00     0.006 C 
BRANCH  13  14
ATOM     14  C   UNL     1      -4.302  -5.256   5.764  1.00  0.00     0.053 C 
BRANCH  14  15
ATOM     15  C   UNL     1      -4.144  -3.792   5.480  1.00  0.00     0.041 C 
ATOM     16  O   UNL     1      -3.357  -3.401   4.578  1.00  0.00    -0.550 OA
ATOM     17  O   UNL     1      -4.841  -2.858   6.235  1.00  0.00    -0.550 OA
ENDBRANCH  14  15
ENDBRANCH  13  14
ENDBRANCH  12  13
ENDBRANCH  11  12
ENDBRANCH  10  11
ENDBRANCH   9  10
ENDBRANCH   8   9
ENDBRANCH   7   8
ENDBRANCH   6   7
ENDBRANCH   5   6
ENDBRANCH   4   5
ENDBRANCH   3   4
ENDBRANCH   2   3
ENDBRANCH   1   2
BRANCH   1  18
ATOM     18  C   UNL     1      -7.182  -5.235   8.242  1.00  0.00     0.000 C 
BRANCH  18  19
ATOM     19  C   UNL     1      -6.355  -5.201   9.541  1.00  0.00     0.000 C 
BRANCH  19  20
ATOM     20  C   UNL     1      -5.170  -4.213   9.505  1.00  0.00     0.000 C 
BRANCH  20  21
ATOM     21  C   UNL     1      -5.506  -2.800  10.024  1.00  0.00     0.000 C 
BRANCH  21  22
ATOM     22  C   UNL     1      -6.414  -1.986   9.076  1.00  0.00     0.000 C 
BRANCH  22  23
ATOM     23  C   UNL     1      -7.705  -1.477   9.742  1.00  0.00     0.000 C 
BRANCH  23  24
ATOM     24  C   UNL     1      -7.632   0.009  10.125  1.00  0.00    -0.000 C 
BRANCH  24  25
ATOM     25  C   UNL     1      -8.245   0.933   9.060  1.00  0.00    -0.000 C 
BRANCH  25  26
ATOM     26  C   UNL     1      -9.320   0.250   8.188  1.00  0.00    -0.000 C 
BRANCH  26  27
ATOM     27  C   UNL     1      -9.631   1.041   6.908  1.00  0.00    -0.000 C 
BRANCH  27  28
ATOM     28  C   UNL     1      -9.986   2.497   7.237  1.00  0.00    -0.000 C 
BRANCH  28  29
ATOM     29  C   UNL     1      -9.624   2.839   8.690  1.00  0.00    -0.000 C 
BRANCH  29  30
ATOM     30  C   UNL     1      -9.513   4.355   8.938  1.00  0.00    -0.000 C 
BRANCH  30  31
ATOM     31  C   UNL     1      -8.078   4.874   9.145  1.00  0.00    -0.003 C 
ATOM     32  C   UNL     1      -7.019   3.778   9.014  1.00  0.00     0.004 C 
ENDBRANCH  30  31
ENDBRANCH  29  30
ENDBRANCH  28  29
ENDBRANCH  27  28
ENDBRANCH  26  27
ENDBRANCH  25  26
ENDBRANCH  24  25
ENDBRANCH  23  24
ENDBRANCH  22  23
ENDBRANCH  21  22
ENDBRANCH  20  21
ENDBRANCH  19  20
ENDBRANCH  18  19
ENDBRANCH   1  18
TORSDOF 28
ENDMDL
MODEL 4
REMARK VINA RESULT:    -1.728      2.803      8.906
REMARK INTER + INTRA:          -6.998
REMARK INTER:                  -5.843
REMARK INTRA:                  -1.155
REMARK UNBOUND:                -2.442
REMARK SMILES CCCCCCCCCCCCCCCCCCCCCCCCCCCCCC(=O)[O-]
REMARK SMILES IDX 16 1 17 2 18 3 19 4 20 5 21 6 22 7 23 8 24 9 25 10 26 11
REMARK SMILES IDX 27 12 28 13 29 14 30 15 31 16 32 17 15 18 14 19 13 20 12 21
REMARK SMILES IDX 11 22 10 23 9 24 8 25 7 26 6 27 5 28 4 29 3 30 2 31 1 32
REMARK H PARENT
REMARK Flexibility Score: inf
ROOT
ATOM      1  C   UNL     1      -4.419  -4.227   8.117  1.00  0.00     0.000 C 
ENDROOT
BRANCH   1   2
ATOM      2  C   UNL     1      -5.826  -4.577   7.611  1.00  0.00     0.000 C 
BRANCH   2   3
ATOM      3  C   UNL     1      -6.560  -3.369   7.009  1.00  0.00     0.000 C 
BRANCH   3   4
ATOM      4  C   UNL     1      -6.569  -2.192   7.994  1.00  0.00     0.000 C 
BRANCH   4   5
ATOM      5  C   UNL     1      -7.471  -2.439   9.217  1.00  0.00     0.000 C 
BRANCH   5   6
ATOM      6  C   UNL     1      -7.901  -1.172   9.986  1.00  0.00     0.000 C 
BRANCH   6   7
ATOM      7  C   UNL     1      -9.377  -0.769   9.813  1.00  0.00     0.000 C 
BRANCH   7   8
ATOM      8  C   UNL     1      -9.863  -0.877   8.360  1.00  0.00     0.000 C 
BRANCH   8   9
ATOM      9  C   UNL     1      -9.280   0.255   7.505  1.00  0.00     0.000 C 
BRANCH   9  10
ATOM     10  C   UNL     1      -9.927   1.603   7.854  1.00  0.00     0.000 C 
BRANCH  10  11
ATOM     11  C   UNL     1     -10.100   1.811   9.369  1.00  0.00     0.000 C 
BRANCH  11  12
ATOM     12  C   UNL     1      -9.536   3.138   9.911  1.00  0.00     0.000 C 
BRANCH  12  13
ATOM     13  C   UNL     1      -8.009   3.243   9.768  1.00  0.00     0.006 C 
BRANCH  13  14
ATOM     14  C   UNL     1      -7.542   4.694   9.597  1.00  0.00     0.053 C 
BRANCH  14  15
ATOM     15  C   UNL     1      -6.061   4.775   9.376  1.00  0.00     0.041 C 
ATOM     16  O   UNL     1      -5.426   3.774   8.950  1.00  0.00    -0.550 OA
ATOM     17  O   UNL     1      -5.376   5.946   9.674  1.00  0.00    -0.550 OA
ENDBRANCH  14  15
ENDBRANCH  13  14
ENDBRANCH  12  13
ENDBRANCH  11  12
ENDBRANCH  10  11
ENDBRANCH   9  10
ENDBRANCH   8   9
ENDBRANCH   7   8
ENDBRANCH   6   7
ENDBRANCH   5   6
ENDBRANCH   4   5
ENDBRANCH   3   4
ENDBRANCH   2   3
ENDBRANCH   1   2
BRANCH   1  18
ATOM     18  C   UNL     1      -3.765  -5.379   8.901  1.00  0.00     0.000 C 
BRANCH  18  19
ATOM     19  C   UNL     1      -4.644  -6.643   8.935  1.00  0.00     0.000 C 
BRANCH  19  20
ATOM     20  C   UNL     1      -5.450  -6.882   7.642  1.00  0.00     0.000 C 
BRANCH  20  21
ATOM     21  C   UNL     1      -6.111  -8.273   7.555  1.00  0.00     0.000 C 
BRANCH  21  22
ATOM     22  C   UNL     1      -6.118  -9.047   8.891  1.00  0.00     0.000 C 
BRANCH  22  23
ATOM     23  C   UNL     1      -7.334  -9.976   9.062  1.00  0.00     0.000 C 
BRANCH  23  24
ATOM     24  C   UNL     1      -8.595  -9.437   8.371  1.00  0.00    -0.000 C 
BRANCH  24  25
ATOM     25  C   UNL     1      -8.882 -10.125   7.026  1.00  0.00    -0.000 C 
BRANCH  25  26
ATOM     26  C   UNL     1      -8.960  -9.150   5.832  1.00  0.00    -0.000 C 
BRANCH  26  27
ATOM     27  C   UNL     1     -10.124  -8.154   5.960  1.00  0.00    -0.000 C 
BRANCH  27  28
ATOM     28  C   UNL     1      -9.721  -6.770   5.435  1.00  0.00    -0.000 C 
BRANCH  28  29
ATOM     29  C   UNL     1      -9.869  -5.700   6.527  1.00  0.00    -0.000 C 
BRANCH  29  30
ATOM     30  C   UNL     1      -8.794  -5.813   7.625  1.00  0.00    -0.000 C 
BRANCH  30  31
ATOM     31  C   UNL     1      -9.303  -5.564   9.056  1.00  0.00    -0.003 C 
ATOM     32  C   UNL     1      -8.243  -5.828  10.125  1.00  0.00     0.004 C 
ENDBRANCH  30  31
ENDBRANCH  29  30
ENDBRANCH  28  29
ENDBRANCH  27  28
ENDBRANCH  26  27
ENDBRANCH  25  26
ENDBRANCH  24  25
ENDBRANCH  23  24
ENDBRANCH  22  23
ENDBRANCH  21  22
ENDBRANCH  20  21
ENDBRANCH  19  20
ENDBRANCH  18  19
ENDBRANCH   1  18
TORSDOF 28
ENDMDL
MODEL 5
REMARK VINA RESULT:    -1.639      2.498      9.201
REMARK INTER + INTRA:          -6.763
REMARK INTER:                  -5.032
REMARK INTRA:                  -1.731
REMARK UNBOUND:                -2.442
REMARK SMILES CCCCCCCCCCCCCCCCCCCCCCCCCCCCCC(=O)[O-]
REMARK SMILES IDX 16 1 17 2 18 3 19 4 20 5 21 6 22 7 23 8 24 9 25 10 26 11
REMARK SMILES IDX 27 12 28 13 29 14 30 15 31 16 32 17 15 18 14 19 13 20 12 21
REMARK SMILES IDX 11 22 10 23 9 24 8 25 7 26 6 27 5 28 4 29 3 30 2 31 1 32
REMARK H PARENT
REMARK Flexibility Score: inf
ROOT
ATOM      1  C   UNL     1      -4.610  -3.816   7.159  1.00  0.00     0.000 C 
ENDROOT
BRANCH   1   2
ATOM      2  C   UNL     1      -6.137  -3.873   7.004  1.00  0.00     0.000 C 
BRANCH   2   3
ATOM      3  C   UNL     1      -6.732  -2.556   6.482  1.00  0.00     0.000 C 
BRANCH   3   4
ATOM      4  C   UNL     1      -7.428  -1.787   7.613  1.00  0.00     0.000 C 
BRANCH   4   5
ATOM      5  C   UNL     1      -7.231  -2.440   8.993  1.00  0.00     0.000 C 
BRANCH   5   6
ATOM      6  C   UNL     1      -6.809  -1.479  10.124  1.00  0.00     0.000 C 
BRANCH   6   7
ATOM      7  C   UNL     1      -7.447  -0.078  10.067  1.00  0.00     0.000 C 
BRANCH   7   8
ATOM      8  C   UNL     1      -6.501   0.990   9.499  1.00  0.00     0.000 C 
BRANCH   8   9
ATOM      9  C   UNL     1      -6.789   2.361  10.122  1.00  0.00     0.000 C 
BRANCH   9  10
ATOM     10  C   UNL     1      -6.912   3.446   9.042  1.00  0.00     0.000 C 
BRANCH  10  11
ATOM     11  C   UNL     1      -7.969   4.512   9.380  1.00  0.00     0.000 C 
BRANCH  11  12
ATOM     12  C   UNL     1      -9.428   4.025   9.310  1.00  0.00     0.000 C 
BRANCH  12  13
ATOM     13  C   UNL     1     -10.065   4.236   7.926  1.00  0.00     0.006 C 
BRANCH  13  14
ATOM     14  C   UNL     1      -9.779   3.069   6.974  1.00  0.00     0.053 C 
BRANCH  14  15
ATOM     15  C   UNL     1      -9.923   1.745   7.663  1.00  0.00     0.041 C 
ATOM     16  O   UNL     1     -10.087   1.693   8.910  1.00  0.00    -0.550 OA
ATOM     17  O   UNL     1      -9.841   0.567   6.931  1.00  0.00    -0.550 OA
ENDBRANCH  14  15
ENDBRANCH  13  14
ENDBRANCH  12  13
ENDBRANCH  11  12
ENDBRANCH  10  11
ENDBRANCH   9  10
ENDBRANCH   8   9
ENDBRANCH   7   8
ENDBRANCH   6   7
ENDBRANCH   5   6
ENDBRANCH   4   5
ENDBRANCH   3   4
ENDBRANCH   2   3
ENDBRANCH   1   2
BRANCH   1  18
ATOM     18  C   UNL     1      -3.930  -5.162   6.848  1.00  0.00     0.000 C 
BRANCH  18  19
ATOM     19  C   UNL     1      -3.537  -5.932   8.123  1.00  0.00     0.000 C 
BRANCH  19  20
ATOM     20  C   UNL     1      -4.379  -5.566   9.362  1.00  0.00     0.000 C 
BRANCH  20  21
ATOM     21  C   UNL     1      -5.550  -6.531   9.640  1.00  0.00     0.000 C 
BRANCH  21  22
ATOM     22  C   UNL     1      -6.925  -5.834   9.735  1.00  0.00     0.000 C 
BRANCH  22  23
ATOM     23  C   UNL     1      -8.108  -6.813   9.844  1.00  0.00     0.000 C 
BRANCH  23  24
ATOM     24  C   UNL     1      -9.168  -6.588   8.755  1.00  0.00    -0.000 C 
BRANCH  24  25
ATOM     25  C   UNL     1      -8.636  -5.783   7.558  1.00  0.00    -0.000 C 
BRANCH  25  26
ATOM     26  C   UNL     1      -9.712  -5.450   6.503  1.00  0.00    -0.000 C 
BRANCH  26  27
ATOM     27  C   UNL     1     -10.052  -6.652   5.607  1.00  0.00    -0.000 C 
BRANCH  27  28
ATOM     28  C   UNL     1      -8.938  -7.705   5.660  1.00  0.00    -0.000 C 
BRANCH  28  29
ATOM     29  C   UNL     1      -9.326  -8.874   6.579  1.00  0.00    -0.000 C 
BRANCH  29  30
ATOM     30  C   UNL     1      -8.116  -9.729   7.001  1.00  0.00    -0.000 C 
BRANCH  30  31
ATOM     31  C   UNL     1      -6.790  -8.957   7.127  1.00  0.00    -0.003 C 
ATOM     32  C   UNL     1      -5.714  -9.450   6.161  1.00  0.00     0.004 C 
ENDBRANCH  30  31
ENDBRANCH  29  30
ENDBRANCH  28  29
ENDBRANCH  27  28
ENDBRANCH  26  27
ENDBRANCH  25  26
ENDBRANCH  24  25
ENDBRANCH  23  24
ENDBRANCH  22  23
ENDBRANCH  21  22
ENDBRANCH  20  21
ENDBRANCH  19  20
ENDBRANCH  18  19
ENDBRANCH   1  18
TORSDOF 28
ENDMDL
MODEL 6
REMARK VINA RESULT:    -1.364      1.799      5.715
REMARK INTER + INTRA:          -6.039
REMARK INTER:                  -4.073
REMARK INTRA:                  -1.965
REMARK UNBOUND:                -2.442
REMARK SMILES CCCCCCCCCCCCCCCCCCCCCCCCCCCCCC(=O)[O-]
REMARK SMILES IDX 16 1 17 2 18 3 19 4 20 5 21 6 22 7 23 8 24 9 25 10 26 11
REMARK SMILES IDX 27 12 28 13 29 14 30 15 31 16 32 17 15 18 14 19 13 20 12 21
REMARK SMILES IDX 11 22 10 23 9 24 8 25 7 26 6 27 5 28 4 29 3 30 2 31 1 32
REMARK H PARENT
REMARK Flexibility Score: inf
ROOT
ATOM      1  C   UNL     1      -8.422  -0.289   7.770  1.00  0.00     0.000 C 
ENDROOT
BRANCH   1   2
ATOM      2  C   UNL     1      -9.459  -0.642   8.847  1.00  0.00     0.000 C 
BRANCH   2   3
ATOM      3  C   UNL     1      -9.966  -2.088   8.734  1.00  0.00     0.000 C 
BRANCH   3   4
ATOM      4  C   UNL     1     -10.027  -2.752  10.117  1.00  0.00     0.000 C 
BRANCH   4   5
ATOM      5  C   UNL     1     -10.051  -4.290  10.043  1.00  0.00     0.000 C 
BRANCH   5   6
ATOM      6  C   UNL     1      -9.467  -4.898   8.751  1.00  0.00     0.000 C 
BRANCH   6   7
ATOM      7  C   UNL     1      -9.738  -6.401   8.552  1.00  0.00     0.000 C 
BRANCH   7   8
ATOM      8  C   UNL     1      -8.525  -7.280   8.891  1.00  0.00     0.000 C 
BRANCH   8   9
ATOM      9  C   UNL     1      -8.506  -8.542   8.021  1.00  0.00     0.000 C 
BRANCH   9  10
ATOM     10  C   UNL     1      -7.083  -9.107   7.894  1.00  0.00     0.000 C 
BRANCH  10  11
ATOM     11  C   UNL     1      -6.483  -8.911   6.491  1.00  0.00     0.000 C 
BRANCH  11  12
ATOM     12  C   UNL     1      -6.549  -7.470   5.952  1.00  0.00     0.000 C 
BRANCH  12  13
ATOM     13  C   UNL     1      -5.337  -7.100   5.081  1.00  0.00     0.006 C 
BRANCH  13  14
ATOM     14  C   UNL     1      -5.325  -5.613   4.706  1.00  0.00     0.053 C 
BRANCH  14  15
ATOM     15  C   UNL     1      -4.414  -4.825   5.598  1.00  0.00     0.041 C 
ATOM     16  O   UNL     1      -3.532  -5.411   6.282  1.00  0.00    -0.550 OA
ATOM     17  O   UNL     1      -4.559  -3.448   5.701  1.00  0.00    -0.550 OA
ENDBRANCH  14  15
ENDBRANCH  13  14
ENDBRANCH  12  13
ENDBRANCH  11  12
ENDBRANCH  10  11
ENDBRANCH   9  10
ENDBRANCH   8   9
ENDBRANCH   7   8
ENDBRANCH   6   7
ENDBRANCH   5   6
ENDBRANCH   4   5
ENDBRANCH   3   4
ENDBRANCH   2   3
ENDBRANCH   1   2
BRANCH   1  18
ATOM     18  C   UNL     1      -9.039  -0.182   6.364  1.00  0.00     0.000 C 
BRANCH  18  19
ATOM     19  C   UNL     1     -10.124   0.909   6.277  1.00  0.00     0.000 C 
BRANCH  19  20
ATOM     20  C   UNL     1     -10.110   1.903   7.456  1.00  0.00     0.000 C 
BRANCH  20  21
ATOM     21  C   UNL     1      -9.541   3.293   7.107  1.00  0.00     0.000 C 
BRANCH  21  22
ATOM     22  C   UNL     1      -9.800   4.364   8.189  1.00  0.00     0.000 C 
BRANCH  22  23
ATOM     23  C   UNL     1      -8.895   4.226   9.426  1.00  0.00     0.000 C 
BRANCH  23  24
ATOM     24  C   UNL     1      -8.329   2.807   9.593  1.00  0.00    -0.000 C 
BRANCH  24  25
ATOM     25  C   UNL     1      -6.884   2.675   9.083  1.00  0.00    -0.000 C 
BRANCH  25  26
ATOM     26  C   UNL     1      -5.985   1.799   9.981  1.00  0.00    -0.000 C 
BRANCH  26  27
ATOM     27  C   UNL     1      -6.460   0.338  10.044  1.00  0.00    -0.000 C 
BRANCH  27  28
ATOM     28  C   UNL     1      -5.266  -0.626  10.031  1.00  0.00    -0.000 C 
BRANCH  28  29
ATOM     29  C   UNL     1      -5.735  -2.086  10.125  1.00  0.00    -0.000 C 
BRANCH  29  30
ATOM     30  C   UNL     1      -6.062  -2.698   8.750  1.00  0.00    -0.000 C 
BRANCH  30  31
ATOM     31  C   UNL     1      -5.814  -4.214   8.641  1.00  0.00    -0.003 C 
ATOM     32  C   UNL     1      -5.881  -4.931   9.989  1.00  0.00     0.004 C 
ENDBRANCH  30  31
ENDBRANCH  29  30
ENDBRANCH  28  29
ENDBRANCH  27  28
ENDBRANCH  26  27
ENDBRANCH  25  26
ENDBRANCH  24  25
ENDBRANCH  23  24
ENDBRANCH  22  23
ENDBRANCH  21  22
ENDBRANCH  20  21
ENDBRANCH  19  20
ENDBRANCH  18  19
ENDBRANCH   1  18
TORSDOF 28
ENDMDL
MODEL 7
REMARK VINA RESULT:    -0.885      2.899      8.549
REMARK INTER + INTRA:          -4.776
REMARK INTER:                  -6.127
REMARK INTRA:                   1.351
REMARK UNBOUND:                -2.442
REMARK SMILES CCCCCCCCCCCCCCCCCCCCCCCCCCCCCC(=O)[O-]
REMARK SMILES IDX 16 1 17 2 18 3 19 4 20 5 21 6 22 7 23 8 24 9 25 10 26 11
REMARK SMILES IDX 27 12 28 13 29 14 30 15 31 16 32 17 15 18 14 19 13 20 12 21
REMARK SMILES IDX 11 22 10 23 9 24 8 25 7 26 6 27 5 28 4 29 3 30 2 31 1 32
REMARK H PARENT
REMARK Flexibility Score: inf
ROOT
ATOM      1  C   UNL     1      -5.376  -4.496   8.635  1.00  0.00     0.000 C 
ENDROOT
BRANCH   1   2
ATOM      2  C   UNL     1      -5.629  -4.622   7.125  1.00  0.00     0.000 C 
BRANCH   2   3
ATOM      3  C   UNL     1      -5.261  -3.346   6.352  1.00  0.00     0.000 C 
BRANCH   3   4
ATOM      4  C   UNL     1      -5.649  -2.094   7.150  1.00  0.00     0.000 C 
BRANCH   4   5
ATOM      5  C   UNL     1      -5.773  -2.361   8.662  1.00  0.00     0.000 C 
BRANCH   5   6
ATOM      6  C   UNL     1      -6.281  -1.170   9.502  1.00  0.00     0.000 C 
BRANCH   6   7
ATOM      7  C   UNL     1      -7.716  -1.311  10.041  1.00  0.00     0.000 C 
BRANCH   7   8
ATOM      8  C   UNL     1      -8.653  -2.042   9.067  1.00  0.00     0.000 C 
BRANCH   8   9
ATOM      9  C   UNL     1      -8.880  -1.210   7.800  1.00  0.00     0.000 C 
BRANCH   9  10
ATOM     10  C   UNL     1      -9.792  -0.007   8.082  1.00  0.00     0.000 C 
BRANCH  10  11
ATOM     11  C   UNL     1      -9.897   0.328   9.581  1.00  0.00     0.000 C 
BRANCH  11  12
ATOM     12  C   UNL     1      -9.546   1.782   9.947  1.00  0.00     0.000 C 
BRANCH  12  13
ATOM     13  C   UNL     1      -8.107   2.167   9.563  1.00  0.00     0.006 C 
BRANCH  13  14
ATOM     14  C   UNL     1      -7.994   3.637   9.143  1.00  0.00     0.053 C 
BRANCH  14  15
ATOM     15  C   UNL     1      -9.150   4.058   8.287  1.00  0.00     0.041 C 
ATOM     16  O   UNL     1      -9.914   4.986   8.663  1.00  0.00    -0.550 OA
ATOM     17  O   UNL     1      -9.404   3.403   7.089  1.00  0.00    -0.550 OA
ENDBRANCH  14  15
ENDBRANCH  13  14
ENDBRANCH  12  13
ENDBRANCH  11  12
ENDBRANCH  10  11
ENDBRANCH   9  10
ENDBRANCH   8   9
ENDBRANCH   7   8
ENDBRANCH   6   7
ENDBRANCH   5   6
ENDBRANCH   4   5
ENDBRANCH   3   4
ENDBRANCH   2   3
ENDBRANCH   1   2
BRANCH   1  18
ATOM     18  C   UNL     1      -5.819  -5.744   9.418  1.00  0.00     0.000 C 
BRANCH  18  19
ATOM     19  C   UNL     1      -5.323  -7.052   8.773  1.00  0.00     0.000 C 
BRANCH  19  20
ATOM     20  C   UNL     1      -4.895  -6.902   7.299  1.00  0.00     0.000 C 
BRANCH  20  21
ATOM     21  C   UNL     1      -5.566  -7.905   6.338  1.00  0.00     0.000 C 
BRANCH  21  22
ATOM     22  C   UNL     1      -6.308  -9.055   7.054  1.00  0.00     0.000 C 
BRANCH  22  23
ATOM     23  C   UNL     1      -7.350  -9.764   6.169  1.00  0.00     0.000 C 
BRANCH  23  24
ATOM     24  C   UNL     1      -8.693  -9.975   6.884  1.00  0.00    -0.000 C 
BRANCH  24  25
ATOM     25  C   UNL     1      -9.785  -9.003   6.408  1.00  0.00    -0.000 C 
BRANCH  25  26
ATOM     26  C   UNL     1      -9.247  -7.830   5.561  1.00  0.00    -0.000 C 
BRANCH  26  27
ATOM     27  C   UNL     1      -8.490  -6.792   6.405  1.00  0.00    -0.000 C 
BRANCH  27  28
ATOM     28  C   UNL     1      -9.242  -5.455   6.431  1.00  0.00    -0.000 C 
BRANCH  28  29
ATOM     29  C   UNL     1      -9.554  -5.025   7.873  1.00  0.00    -0.000 C 
BRANCH  29  30
ATOM     30  C   UNL     1     -10.124  -6.173   8.729  1.00  0.00    -0.000 C 
BRANCH  30  31
ATOM     31  C   UNL     1      -9.331  -6.477  10.013  1.00  0.00    -0.003 C 
ATOM     32  C   UNL     1      -8.535  -7.779   9.933  1.00  0.00     0.004 C 
ENDBRANCH  30  31
ENDBRANCH  29  30
ENDBRANCH  28  29
ENDBRANCH  27  28
ENDBRANCH  26  27
ENDBRANCH  25  26
ENDBRANCH  24  25
ENDBRANCH  23  24
ENDBRANCH  22  23
ENDBRANCH  21  22
ENDBRANCH  20  21
ENDBRANCH  19  20
ENDBRANCH  18  19
ENDBRANCH   1  18
TORSDOF 28
ENDMDL
