MODEL 1
REMARK VINA RESULT:    -4.187      0.000      0.000
REMARK INTER + INTRA:          -4.526
REMARK INTER:                  -4.432
REMARK INTRA:                  -0.095
REMARK UNBOUND:                -0.095
REMARK SMILES C=C(C)[C@@H]1CC=C(C)C(=O)C1
REMARK SMILES IDX 8 1 7 2 6 3 5 4 4 5 11 6 9 7 10 8 2 9 1 10 3 11
REMARK H PARENT
REMARK Flexibility Score: inf
ROOT
ATOM      1  C   UNL     1       3.088 -11.333 -43.936  1.00  0.00     0.048 C 
ATOM      2  C   UNL     1       1.969 -10.901 -43.030  1.00  0.00    -0.012 C 
ATOM      3  C   UNL     1       1.335  -9.737 -43.257  1.00  0.00    -0.019 C 
ATOM      4  C   UNL     1       0.196  -9.266 -42.392  1.00  0.00     0.036 C 
ATOM      5  C   UNL     1       0.379  -9.729 -40.934  1.00  0.00     0.025 C 
ATOM      6  C   UNL     1       0.560 -11.258 -40.878  1.00  0.00     0.089 C 
ATOM      7  C   UNL     1       1.650 -11.695 -41.817  1.00  0.00     0.158 C 
ATOM      8  O   UNL     1       2.269 -12.769 -41.583  1.00  0.00    -0.295 OA
ENDROOT
BRANCH   5   9
ATOM      9  C   UNL     1      -0.771  -9.268 -40.049  1.00  0.00    -0.077 C 
ATOM     10  C   UNL     1      -0.718  -9.394 -38.711  1.00  0.00     0.008 C 
ATOM     11  C   UNL     1      -2.001  -8.656 -40.667  1.00  0.00     0.039 C 
ENDBRANCH   5   9
TORSDOF 1
ENDMDL
MODEL 2
REMARK VINA RESULT:    -4.182      1.452      1.928
REMARK INTER + INTRA:          -4.522
REMARK INTER:                  -4.428
REMARK INTRA:                  -0.094
REMARK UNBOUND:                -0.095
REMARK SMILES C=C(C)[C@@H]1CC=C(C)C(=O)C1
REMARK SMILES IDX 8 1 7 2 6 3 5 4 4 5 11 6 9 7 10 8 2 9 1 10 3 11
REMARK H PARENT
REMARK Flexibility Score: inf
ROOT
ATOM      1  C   UNL     1       3.301 -11.225 -41.810  1.00  0.00     0.048 C 
ATOM      2  C   UNL     1       1.893 -10.716 -41.945  1.00  0.00    -0.012 C 
ATOM      3  C   UNL     1       1.662  -9.546 -42.564  1.00  0.00    -0.019 C 
ATOM      4  C   UNL     1       0.269  -8.998 -42.743  1.00  0.00     0.036 C 
ATOM      5  C   UNL     1      -0.638  -9.397 -41.563  1.00  0.00     0.025 C 
ATOM      6  C   UNL     1      -0.632 -10.926 -41.377  1.00  0.00     0.089 C 
ATOM      7  C   UNL     1       0.778 -11.441 -41.287  1.00  0.00     0.158 C 
ATOM      8  O   UNL     1       0.999 -12.521 -40.674  1.00  0.00    -0.295 OA
ENDROOT
BRANCH   5   9
ATOM      9  C   UNL     1      -2.052  -8.858 -41.735  1.00  0.00    -0.077 C 
ATOM     10  C   UNL     1      -2.646  -8.824 -42.940  1.00  0.00     0.008 C 
ATOM     11  C   UNL     1      -2.816  -8.347 -40.541  1.00  0.00     0.039 C 
ENDBRANCH   5   9
TORSDOF 1
ENDMDL
MODEL 3
REMARK VINA RESULT:    -4.181     14.674     16.106
REMARK INTER + INTRA:          -4.520
REMARK INTER:                  -4.427
REMARK INTRA:                  -0.093
REMARK UNBOUND:                -0.095
REMARK SMILES C=C(C)[C@@H]1CC=C(C)C(=O)C1
REMARK SMILES IDX 8 1 7 2 6 3 5 4 4 5 11 6 9 7 10 8 2 9 1 10 3 11
REMARK H PARENT
REMARK Flexibility Score: inf
ROOT
ATOM      1  C   UNL     1       2.695 -24.197 -46.119  1.00  0.00     0.048 C 
ATOM      2  C   UNL     1       1.336 -24.833 -46.192  1.00  0.00    -0.012 C 
ATOM      3  C   UNL     1       1.165 -25.971 -46.887  1.00  0.00    -0.019 C 
ATOM      4  C   UNL     1      -0.171 -26.659 -46.977  1.00  0.00     0.036 C 
ATOM      5  C   UNL     1      -1.324 -25.637 -46.948  1.00  0.00     0.025 C 
ATOM      6  C   UNL     1      -1.212 -24.742 -45.700  1.00  0.00     0.089 C 
ATOM      7  C   UNL     1       0.162 -24.140 -45.603  1.00  0.00     0.158 C 
ATOM      8  O   UNL     1       0.314 -23.054 -44.981  1.00  0.00    -0.295 OA
ENDROOT
BRANCH   5   9
ATOM      9  C   UNL     1      -2.683 -26.320 -47.030  1.00  0.00    -0.077 C 
ATOM     10  C   UNL     1      -3.003 -27.121 -48.061  1.00  0.00     0.008 C 
ATOM     11  C   UNL     1      -3.703 -26.104 -45.942  1.00  0.00     0.039 C 
ENDBRANCH   5   9
TORSDOF 1
ENDMDL
MODEL 4
REMARK VINA RESULT:    -4.004      2.983      5.711
REMARK INTER + INTRA:          -4.333
REMARK INTER:                  -4.240
REMARK INTRA:                  -0.093
REMARK UNBOUND:                -0.095
REMARK SMILES C=C(C)[C@@H]1CC=C(C)C(=O)C1
REMARK SMILES IDX 8 1 7 2 6 3 5 4 4 5 11 6 9 7 10 8 2 9 1 10 3 11
REMARK H PARENT
REMARK Flexibility Score: inf
ROOT
ATOM      1  C   UNL     1      -0.999 -10.168 -34.866  1.00  0.00     0.048 C 
ATOM      2  C   UNL     1      -1.082  -9.879 -36.339  1.00  0.00    -0.012 C 
ATOM      3  C   UNL     1      -1.480 -10.842 -37.188  1.00  0.00    -0.019 C 
ATOM      4  C   UNL     1      -1.599 -10.601 -38.670  1.00  0.00     0.036 C 
ATOM      5  C   UNL     1      -0.544  -9.587 -39.152  1.00  0.00     0.025 C 
ATOM      6  C   UNL     1      -0.645  -8.283 -38.339  1.00  0.00     0.089 C 
ATOM      7  C   UNL     1      -0.606  -8.575 -36.865  1.00  0.00     0.158 C 
ATOM      8  O   UNL     1      -0.198  -7.683 -36.073  1.00  0.00    -0.295 OA
ENDROOT
BRANCH   5   9
ATOM      9  C   UNL     1      -0.658  -9.326 -40.649  1.00  0.00    -0.077 C 
ATOM     10  C   UNL     1      -1.770  -8.791 -41.183  1.00  0.00     0.008 C 
ATOM     11  C   UNL     1       0.487  -9.670 -41.565  1.00  0.00     0.039 C 
ENDBRANCH   5   9
TORSDOF 1
ENDMDL
MODEL 5
REMARK VINA RESULT:    -3.964     11.025     12.537
REMARK INTER + INTRA:          -4.291
REMARK INTER:                  -4.196
REMARK INTRA:                  -0.094
REMARK UNBOUND:                -0.095
REMARK SMILES C=C(C)[C@@H]1CC=C(C)C(=O)C1
REMARK SMILES IDX 8 1 7 2 6 3 5 4 4 5 11 6 9 7 10 8 2 9 1 10 3 11
REMARK H PARENT
REMARK Flexibility Score: inf
ROOT
ATOM      1  C   UNL     1       2.291 -16.537 -33.493  1.00  0.00     0.048 C 
ATOM      2  C   UNL     1       3.726 -16.937 -33.293  1.00  0.00    -0.012 C 
ATOM      3  C   UNL     1       4.358 -16.614 -32.152  1.00  0.00    -0.019 C 
ATOM      4  C   UNL     1       5.790 -17.006 -31.893  1.00  0.00     0.036 C 
ATOM      5  C   UNL     1       6.603 -17.030 -33.201  1.00  0.00     0.025 C 
ATOM      6  C   UNL     1       5.924 -17.948 -34.236  1.00  0.00     0.089 C 
ATOM      7  C   UNL     1       4.477 -17.576 -34.403  1.00  0.00     0.158 C 
ATOM      8  O   UNL     1       3.895 -17.847 -35.488  1.00  0.00    -0.295 OA
ENDROOT
BRANCH   5   9
ATOM      9  C   UNL     1       8.051 -17.435 -32.956  1.00  0.00    -0.077 C 
ATOM     10  C   UNL     1       8.767 -16.895 -31.954  1.00  0.00     0.008 C 
ATOM     11  C   UNL     1       8.711 -18.457 -33.844  1.00  0.00     0.039 C 
ENDBRANCH   5   9
TORSDOF 1
ENDMDL
MODEL 6
REMARK VINA RESULT:    -3.937      2.411      3.176
REMARK INTER + INTRA:          -4.261
REMARK INTER:                  -4.164
REMARK INTRA:                  -0.098
REMARK UNBOUND:                -0.095
REMARK SMILES C=C(C)[C@@H]1CC=C(C)C(=O)C1
REMARK SMILES IDX 8 1 7 2 6 3 5 4 4 5 11 6 9 7 10 8 2 9 1 10 3 11
REMARK H PARENT
REMARK Flexibility Score: inf
ROOT
ATOM      1  C   UNL     1       3.136 -10.790 -41.923  1.00  0.00     0.048 C 
ATOM      2  C   UNL     1       1.635 -10.761 -41.847  1.00  0.00    -0.012 C 
ATOM      3  C   UNL     1       0.976 -11.761 -41.235  1.00  0.00    -0.019 C 
ATOM      4  C   UNL     1      -0.525 -11.772 -41.115  1.00  0.00     0.036 C 
ATOM      5  C   UNL     1      -1.184 -11.097 -42.333  1.00  0.00     0.025 C 
ATOM      6  C   UNL     1      -0.624  -9.674 -42.522  1.00  0.00     0.089 C 
ATOM      7  C   UNL     1       0.879  -9.697 -42.554  1.00  0.00     0.158 C 
ATOM      8  O   UNL     1       1.494  -8.779 -43.160  1.00  0.00    -0.295 OA
ENDROOT
BRANCH   5   9
ATOM      9  C   UNL     1      -2.703 -11.092 -42.221  1.00  0.00    -0.077 C 
ATOM     10  C   UNL     1      -3.440 -10.098 -42.744  1.00  0.00     0.008 C 
ATOM     11  C   UNL     1      -3.411 -12.217 -41.510  1.00  0.00     0.039 C 
ENDBRANCH   5   9
TORSDOF 1
ENDMDL
MODEL 7
REMARK VINA RESULT:    -3.933     15.141     16.695
REMARK INTER + INTRA:          -4.258
REMARK INTER:                  -4.166
REMARK INTRA:                  -0.092
REMARK UNBOUND:                -0.095
REMARK SMILES C=C(C)[C@@H]1CC=C(C)C(=O)C1
REMARK SMILES IDX 8 1 7 2 6 3 5 4 4 5 11 6 9 7 10 8 2 9 1 10 3 11
REMARK H PARENT
REMARK Flexibility Score: inf
ROOT
ATOM      1  C   UNL     1      -4.811 -26.335 -46.067  1.00  0.00     0.048 C 
ATOM      2  C   UNL     1      -3.323 -26.125 -46.044  1.00  0.00    -0.012 C 
ATOM      3  C   UNL     1      -2.756 -25.463 -45.020  1.00  0.00    -0.019 C 
ATOM      4  C   UNL     1      -1.268 -25.240 -44.939  1.00  0.00     0.036 C 
ATOM      5  C   UNL     1      -0.654 -25.085 -46.343  1.00  0.00     0.025 C 
ATOM      6  C   UNL     1      -1.015 -26.298 -47.221  1.00  0.00     0.089 C 
ATOM      7  C   UNL     1      -2.499 -26.536 -47.209  1.00  0.00     0.158 C 
ATOM      8  O   UNL     1      -3.035 -27.125 -48.187  1.00  0.00    -0.295 OA
ENDROOT
BRANCH   5   9
ATOM      9  C   UNL     1       0.853 -24.869 -46.277  1.00  0.00    -0.077 C 
ATOM     10  C   UNL     1       1.376 -23.756 -45.733  1.00  0.00     0.008 C 
ATOM     11  C   UNL     1       1.791 -25.910 -46.829  1.00  0.00     0.039 C 
ENDBRANCH   5   9
TORSDOF 1
ENDMDL
MODEL 8
REMARK VINA RESULT:    -2.462     14.717     16.250
REMARK INTER + INTRA:          -2.700
REMARK INTER:                  -2.605
REMARK INTRA:                  -0.095
REMARK UNBOUND:                -0.095
REMARK SMILES C=C(C)[C@@H]1CC=C(C)C(=O)C1
REMARK SMILES IDX 8 1 7 2 6 3 5 4 4 5 11 6 9 7 10 8 2 9 1 10 3 11
REMARK H PARENT
REMARK Flexibility Score: inf
ROOT
ATOM      1  C   UNL     1      -3.063 -27.125 -47.480  1.00  0.00     0.048 C 
ATOM      2  C   UNL     1      -1.821 -26.366 -47.105  1.00  0.00    -0.012 C 
ATOM      3  C   UNL     1      -0.624 -26.775 -47.559  1.00  0.00    -0.019 C 
ATOM      4  C   UNL     1       0.649 -26.040 -47.228  1.00  0.00     0.036 C 
ATOM      5  C   UNL     1       0.574 -25.404 -45.827  1.00  0.00     0.025 C 
ATOM      6  C   UNL     1      -0.667 -24.499 -45.717  1.00  0.00     0.089 C 
ATOM      7  C   UNL     1      -1.904 -25.245 -46.135  1.00  0.00     0.158 C 
ATOM      8  O   UNL     1      -3.023 -24.883 -45.679  1.00  0.00    -0.295 OA
ENDROOT
BRANCH   5   9
ATOM      9  C   UNL     1       1.852 -24.650 -45.483  1.00  0.00    -0.077 C 
ATOM     10  C   UNL     1       2.656 -24.162 -46.443  1.00  0.00     0.008 C 
ATOM     11  C   UNL     1       2.239 -24.439 -44.042  1.00  0.00     0.039 C 
ENDBRANCH   5   9
TORSDOF 1
ENDMDL
