MODEL 1
REMARK VINA RESULT:    -5.733      0.000      0.000
REMARK INTER + INTRA:          -6.617
REMARK INTER:                  -6.404
REMARK INTRA:                  -0.213
REMARK UNBOUND:                -0.213
REMARK SMILES CC(C)c1ccc(C(=O)[O-])cc1
REMARK SMILES IDX 7 1 6 2 11 3 5 4 12 5 4 6 8 7 9 8 10 9 2 10 1 11 3 12
REMARK H PARENT
REMARK Flexibility Score: inf
ROOT
ATOM      1  C   UNL     1      14.018 -32.179  21.719  1.00  0.00    -0.003 A 
ATOM      2  C   UNL     1      13.075 -31.383  21.048  1.00  0.00     0.010 A 
ATOM      3  C   UNL     1      14.351 -31.865  23.048  1.00  0.00     0.010 A 
ATOM      4  C   UNL     1      12.478 -30.296  21.693  1.00  0.00     0.004 A 
ATOM      5  C   UNL     1      13.755 -30.778  23.692  1.00  0.00     0.004 A 
ATOM      6  C   UNL     1      12.811 -29.981  23.022  1.00  0.00    -0.045 A 
ENDROOT
BRANCH   1   7
ATOM      7  C   UNL     1      14.648 -33.329  21.035  1.00  0.00     0.071 C 
ATOM      8  O   UNL     1      14.387 -33.578  19.827  1.00  0.00    -0.545 OA
ATOM      9  O   UNL     1      15.539 -34.152  21.715  1.00  0.00    -0.545 OA
ENDBRANCH   1   7
BRANCH   6  10
ATOM     10  C   UNL     1      12.170 -28.803  23.733  1.00  0.00     0.013 C 
ATOM     11  C   UNL     1      13.157 -27.636  23.869  1.00  0.00     0.012 C 
ATOM     12  C   UNL     1      10.887 -28.360  23.022  1.00  0.00     0.012 C 
ENDBRANCH   6  10
TORSDOF 2
ENDMDL
MODEL 2
REMARK VINA RESULT:    -5.733      0.094      1.399
REMARK INTER + INTRA:          -6.616
REMARK INTER:                  -6.402
REMARK INTRA:                  -0.214
REMARK UNBOUND:                -0.213
REMARK SMILES CC(C)c1ccc(C(=O)[O-])cc1
REMARK SMILES IDX 7 1 6 2 11 3 5 4 12 5 4 6 8 7 9 8 10 9 2 10 1 11 3 12
REMARK H PARENT
REMARK Flexibility Score: inf
ROOT
ATOM      1  C   UNL     1      14.030 -32.154  21.696  1.00  0.00    -0.003 A 
ATOM      2  C   UNL     1      14.425 -31.782  22.991  1.00  0.00     0.010 A 
ATOM      3  C   UNL     1      13.035 -31.405  21.046  1.00  0.00     0.010 A 
ATOM      4  C   UNL     1      13.836 -30.683  23.624  1.00  0.00     0.004 A 
ATOM      5  C   UNL     1      12.446 -30.307  21.678  1.00  0.00     0.004 A 
ATOM      6  C   UNL     1      12.840 -29.933  22.974  1.00  0.00    -0.045 A 
ENDROOT
BRANCH   1   7
ATOM      7  C   UNL     1      14.656 -33.317  21.029  1.00  0.00     0.071 C 
ATOM      8  O   UNL     1      14.357 -33.613  19.841  1.00  0.00    -0.545 OA
ATOM      9  O   UNL     1      15.585 -34.101  21.705  1.00  0.00    -0.545 OA
ENDBRANCH   1   7
BRANCH   6  10
ATOM     10  C   UNL     1      12.192 -28.738  23.650  1.00  0.00     0.013 C 
ATOM     11  C   UNL     1      13.152 -27.544  23.699  1.00  0.00     0.012 C 
ATOM     12  C   UNL     1      10.875 -28.361  22.962  1.00  0.00     0.012 C 
ENDBRANCH   6  10
TORSDOF 2
ENDMDL
MODEL 3
REMARK VINA RESULT:    -5.351      2.888      5.293
REMARK INTER + INTRA:          -6.189
REMARK INTER:                  -5.971
REMARK INTRA:                  -0.218
REMARK UNBOUND:                -0.213
REMARK SMILES CC(C)c1ccc(C(=O)[O-])cc1
REMARK SMILES IDX 7 1 6 2 11 3 5 4 12 5 4 6 8 7 9 8 10 9 2 10 1 11 3 12
REMARK H PARENT
REMARK Flexibility Score: inf
ROOT
ATOM      1  C   UNL     1      12.838 -30.252  22.723  1.00  0.00    -0.003 A 
ATOM      2  C   UNL     1      13.607 -30.981  23.645  1.00  0.00     0.010 A 
ATOM      3  C   UNL     1      12.781 -30.689  21.389  1.00  0.00     0.010 A 
ATOM      4  C   UNL     1      14.305 -32.123  23.241  1.00  0.00     0.004 A 
ATOM      5  C   UNL     1      13.478 -31.830  20.984  1.00  0.00     0.004 A 
ATOM      6  C   UNL     1      14.249 -32.560  21.905  1.00  0.00    -0.045 A 
ENDROOT
BRANCH   1   7
ATOM      7  C   UNL     1      12.100 -29.045  23.154  1.00  0.00     0.071 C 
ATOM      8  O   UNL     1      12.528 -28.337  24.105  1.00  0.00    -0.545 OA
ATOM      9  O   UNL     1      10.923 -28.673  22.514  1.00  0.00    -0.545 OA
ENDBRANCH   1   7
BRANCH   6  10
ATOM     10  C   UNL     1      15.002 -33.798  21.453  1.00  0.00     0.013 C 
ATOM     11  C   UNL     1      14.957 -33.946  19.928  1.00  0.00     0.012 C 
ATOM     12  C   UNL     1      16.447 -33.783  21.965  1.00  0.00     0.012 C 
ENDBRANCH   6  10
TORSDOF 2
ENDMDL
MODEL 4
REMARK VINA RESULT:    -5.349      2.866      5.122
REMARK INTER + INTRA:          -6.188
REMARK INTER:                  -5.969
REMARK INTRA:                  -0.219
REMARK UNBOUND:                -0.213
REMARK SMILES CC(C)c1ccc(C(=O)[O-])cc1
REMARK SMILES IDX 7 1 6 2 11 3 5 4 12 5 4 6 8 7 9 8 10 9 2 10 1 11 3 12
REMARK H PARENT
REMARK Flexibility Score: inf
ROOT
ATOM      1  C   UNL     1      12.898 -30.334  22.771  1.00  0.00    -0.003 A 
ATOM      2  C   UNL     1      12.820 -30.736  21.428  1.00  0.00     0.010 A 
ATOM      3  C   UNL     1      13.670 -31.093  23.666  1.00  0.00     0.010 A 
ATOM      4  C   UNL     1      13.501 -31.875  20.988  1.00  0.00     0.004 A 
ATOM      5  C   UNL     1      14.351 -32.232  23.227  1.00  0.00     0.004 A 
ATOM      6  C   UNL     1      14.274 -32.636  21.883  1.00  0.00    -0.045 A 
ENDROOT
BRANCH   1   7
ATOM      7  C   UNL     1      12.176 -29.128  23.233  1.00  0.00     0.071 C 
ATOM      8  O   UNL     1      12.563 -28.500  24.255  1.00  0.00    -0.545 OA
ATOM      9  O   UNL     1      11.058 -28.669  22.544  1.00  0.00    -0.545 OA
ENDBRANCH   1   7
BRANCH   6  10
ATOM     10  C   UNL     1      15.019 -33.875  21.419  1.00  0.00     0.013 C 
ATOM     11  C   UNL     1      14.977 -34.005  19.892  1.00  0.00     0.012 C 
ATOM     12  C   UNL     1      16.462 -33.877  21.935  1.00  0.00     0.012 C 
ENDBRANCH   6  10
TORSDOF 2
ENDMDL
MODEL 5
REMARK VINA RESULT:    -5.316      1.882      2.322
REMARK INTER + INTRA:          -6.150
REMARK INTER:                  -5.939
REMARK INTRA:                  -0.212
REMARK UNBOUND:                -0.213
REMARK SMILES CC(C)c1ccc(C(=O)[O-])cc1
REMARK SMILES IDX 7 1 6 2 11 3 5 4 12 5 4 6 8 7 9 8 10 9 2 10 1 11 3 12
REMARK H PARENT
REMARK Flexibility Score: inf
ROOT
ATOM      1  C   UNL     1      15.501 -30.807  22.187  1.00  0.00    -0.003 A 
ATOM      2  C   UNL     1      14.620 -31.452  23.070  1.00  0.00     0.010 A 
ATOM      3  C   UNL     1      15.330 -29.435  21.935  1.00  0.00     0.010 A 
ATOM      4  C   UNL     1      13.588 -30.739  23.688  1.00  0.00     0.004 A 
ATOM      5  C   UNL     1      14.299 -28.723  22.553  1.00  0.00     0.004 A 
ATOM      6  C   UNL     1      13.416 -29.366  23.436  1.00  0.00    -0.045 A 
ENDROOT
BRANCH   1   7
ATOM      7  C   UNL     1      16.592 -31.564  21.534  1.00  0.00     0.071 C 
ATOM      8  O   UNL     1      16.780 -32.781  21.806  1.00  0.00    -0.545 OA
ATOM      9  O   UNL     1      17.425 -30.943  20.611  1.00  0.00    -0.545 OA
ENDBRANCH   1   7
BRANCH   6  10
ATOM     10  C   UNL     1      12.300 -28.581  24.101  1.00  0.00     0.013 C 
ATOM     11  C   UNL     1      12.824 -27.265  24.687  1.00  0.00     0.012 C 
ATOM     12  C   UNL     1      11.145 -28.330  23.125  1.00  0.00     0.012 C 
ENDBRANCH   6  10
TORSDOF 2
ENDMDL
MODEL 6
REMARK VINA RESULT:    -5.157      1.205      2.221
REMARK INTER + INTRA:          -5.973
REMARK INTER:                  -5.762
REMARK INTRA:                  -0.212
REMARK UNBOUND:                -0.213
REMARK SMILES CC(C)c1ccc(C(=O)[O-])cc1
REMARK SMILES IDX 7 1 6 2 11 3 5 4 12 5 4 6 8 7 9 8 10 9 2 10 1 11 3 12
REMARK H PARENT
REMARK Flexibility Score: inf
ROOT
ATOM      1  C   UNL     1      15.007 -33.282  21.916  1.00  0.00    -0.003 A 
ATOM      2  C   UNL     1      14.989 -32.862  23.256  1.00  0.00     0.010 A 
ATOM      3  C   UNL     1      14.229 -32.588  20.974  1.00  0.00     0.010 A 
ATOM      4  C   UNL     1      14.207 -31.770  23.646  1.00  0.00     0.004 A 
ATOM      5  C   UNL     1      13.448 -31.497  21.364  1.00  0.00     0.004 A 
ATOM      6  C   UNL     1      13.428 -31.075  22.704  1.00  0.00    -0.045 A 
ENDROOT
BRANCH   1   7
ATOM      7  C   UNL     1      15.835 -34.438  21.506  1.00  0.00     0.071 C 
ATOM      8  O   UNL     1      16.839 -34.781  22.186  1.00  0.00    -0.545 OA
ATOM      9  O   UNL     1      15.516 -35.163  20.364  1.00  0.00    -0.545 OA
ENDBRANCH   1   7
BRANCH   6  10
ATOM     10  C   UNL     1      12.575 -29.889  23.114  1.00  0.00     0.013 C 
ATOM     11  C   UNL     1      13.424 -28.619  23.252  1.00  0.00     0.012 C 
ATOM     12  C   UNL     1      11.417 -29.676  22.133  1.00  0.00     0.012 C 
ENDBRANCH   6  10
TORSDOF 2
ENDMDL
MODEL 7
REMARK VINA RESULT:    -4.997      1.631      2.045
REMARK INTER + INTRA:          -5.795
REMARK INTER:                  -5.584
REMARK INTRA:                  -0.211
REMARK UNBOUND:                -0.213
REMARK SMILES CC(C)c1ccc(C(=O)[O-])cc1
REMARK SMILES IDX 7 1 6 2 11 3 5 4 12 5 4 6 8 7 9 8 10 9 2 10 1 11 3 12
REMARK H PARENT
REMARK Flexibility Score: inf
ROOT
ATOM      1  C   UNL     1      15.279 -31.229  22.329  1.00  0.00    -0.003 A 
ATOM      2  C   UNL     1      15.493 -29.941  21.812  1.00  0.00     0.010 A 
ATOM      3  C   UNL     1      14.177 -31.450  23.173  1.00  0.00     0.010 A 
ATOM      4  C   UNL     1      14.623 -28.894  22.135  1.00  0.00     0.004 A 
ATOM      5  C   UNL     1      13.308 -30.405  23.495  1.00  0.00     0.004 A 
ATOM      6  C   UNL     1      13.521 -29.115  22.980  1.00  0.00    -0.045 A 
ENDROOT
BRANCH   1   7
ATOM      7  C   UNL     1      16.201 -32.334  21.986  1.00  0.00     0.071 C 
ATOM      8  O   UNL     1      17.057 -32.195  21.071  1.00  0.00    -0.545 OA
ATOM      9  O   UNL     1      16.136 -33.543  22.669  1.00  0.00    -0.545 OA
ENDBRANCH   1   7
BRANCH   6  10
ATOM     10  C   UNL     1      12.570 -27.987  23.338  1.00  0.00     0.013 C 
ATOM     11  C   UNL     1      11.114 -28.387  23.070  1.00  0.00     0.012 C 
ATOM     12  C   UNL     1      12.762 -27.543  24.792  1.00  0.00     0.012 C 
ENDBRANCH   6  10
TORSDOF 2
ENDMDL
MODEL 8
REMARK VINA RESULT:    -4.996      1.793      3.101
REMARK INTER + INTRA:          -5.793
REMARK INTER:                  -5.572
REMARK INTRA:                  -0.221
REMARK UNBOUND:                -0.213
REMARK SMILES CC(C)c1ccc(C(=O)[O-])cc1
REMARK SMILES IDX 7 1 6 2 11 3 5 4 12 5 4 6 8 7 9 8 10 9 2 10 1 11 3 12
REMARK H PARENT
REMARK Flexibility Score: inf
ROOT
ATOM      1  C   UNL     1      15.613 -34.093  21.136  1.00  0.00    -0.003 A 
ATOM      2  C   UNL     1      15.923 -33.391  22.313  1.00  0.00     0.010 A 
ATOM      3  C   UNL     1      14.581 -33.617  20.311  1.00  0.00     0.010 A 
ATOM      4  C   UNL     1      15.213 -32.236  22.657  1.00  0.00     0.004 A 
ATOM      5  C   UNL     1      13.872 -32.463  20.655  1.00  0.00     0.004 A 
ATOM      6  C   UNL     1      14.180 -31.760  21.831  1.00  0.00    -0.045 A 
ENDROOT
BRANCH   1   7
ATOM      7  C   UNL     1      16.366 -35.315  20.775  1.00  0.00     0.071 C 
ATOM      8  O   UNL     1      16.153 -35.899  19.679  1.00  0.00    -0.545 OA
ATOM      9  O   UNL     1      17.320 -35.836  21.642  1.00  0.00    -0.545 OA
ENDBRANCH   1   7
BRANCH   6  10
ATOM     10  C   UNL     1      13.401 -30.507  22.193  1.00  0.00     0.013 C 
ATOM     11  C   UNL     1      11.958 -30.586  21.681  1.00  0.00     0.012 C 
ATOM     12  C   UNL     1      13.439 -30.252  23.704  1.00  0.00     0.012 C 
ENDBRANCH   6  10
TORSDOF 2
ENDMDL
