MODEL 1
REMARK VINA RESULT:    24.525      0.000      0.000
REMARK INTER + INTRA:          29.258
REMARK INTER:                  28.826
REMARK INTRA:                   0.432
REMARK UNBOUND:                 0.432
REMARK SMILES Oc1ccc(-c2[o+]c3cc(O)cc(O)c3cc2O)cc1
REMARK SMILES IDX 6 1 7 2 8 3 9 4 10 5 12 6 13 7 15 8 16 9 17 10 5 11 4 12
REMARK SMILES IDX 3 13 2 14 19 15 20 16 1 17 18 19 11 21 14 23
REMARK H PARENT 1 18 18 20 11 22 14 24
REMARK Flexibility Score: inf
ROOT
ATOM      1  C   UNL     1      14.940  -2.292  12.959  1.00  0.00     0.401 A 
ATOM      2  O   UNL     1      14.345  -2.859  14.005  1.00  0.00    -0.202 OA
ATOM      3  C   UNL     1      13.027  -2.858  14.184  1.00  0.00     0.368 A 
ATOM      4  C   UNL     1      12.496  -3.478  15.318  1.00  0.00     0.162 A 
ATOM      5  C   UNL     1      11.117  -3.490  15.534  1.00  0.00     0.128 A 
ATOM      6  C   UNL     1      10.262  -2.879  14.611  1.00  0.00     0.093 A 
ATOM      7  C   UNL     1      10.770  -2.251  13.466  1.00  0.00     0.136 A 
ATOM      8  C   UNL     1      12.172  -2.239  13.243  1.00  0.00     0.125 A 
ATOM      9  C   UNL     1      12.768  -1.645  12.118  1.00  0.00     0.078 A 
ATOM     10  C   UNL     1      14.158  -1.678  11.963  1.00  0.00     0.223 A 
ENDROOT
BRANCH   1  11
ATOM     11  C   UNL     1      16.417  -2.351  12.877  1.00  0.00     0.084 A 
ATOM     12  C   UNL     1      17.139  -3.019  13.879  1.00  0.00     0.022 A 
ATOM     13  C   UNL     1      18.535  -3.068  13.834  1.00  0.00     0.047 A 
ATOM     14  C   UNL     1      19.228  -2.438  12.796  1.00  0.00     0.115 A 
ATOM     15  C   UNL     1      17.121  -1.701  11.846  1.00  0.00     0.022 A 
ATOM     16  C   UNL     1      18.517  -1.751  11.804  1.00  0.00     0.047 A 
BRANCH  14  17
ATOM     17  O   UNL     1      20.619  -2.495  12.764  1.00  0.00    -0.508 OA
ATOM     18  H   UNL     1      21.186  -2.008  13.450  1.00  0.00     0.293 HD
ENDBRANCH  14  17
ENDBRANCH   1  11
BRANCH  10  19
ATOM     19  O   UNL     1      14.747  -1.133  10.822  1.00  0.00    -0.500 OA
ATOM     20  H   UNL     1      15.508  -0.466  10.883  1.00  0.00     0.294 HD
ENDBRANCH  10  19
BRANCH   5  21
ATOM     21  O   UNL     1      10.606  -4.113  16.671  1.00  0.00    -0.507 OA
ATOM     22  H   UNL     1      11.021  -4.959  17.043  1.00  0.00     0.293 HD
ENDBRANCH   5  21
BRANCH   7  23
ATOM     23  O   UNL     1       9.851  -1.660  12.595  1.00  0.00    -0.507 OA
ATOM     24  H   UNL     1       8.849  -1.737  12.684  1.00  0.00     0.293 HD
ENDBRANCH   7  23
TORSDOF 5
ENDMDL
MODEL 2
REMARK VINA RESULT:    25.507      8.294      8.893
REMARK INTER + INTRA:          30.413
REMARK INTER:                  30.734
REMARK INTRA:                  -0.322
REMARK UNBOUND:                 0.432
REMARK SMILES Oc1ccc(-c2[o+]c3cc(O)cc(O)c3cc2O)cc1
REMARK SMILES IDX 6 1 7 2 8 3 9 4 10 5 12 6 13 7 15 8 16 9 17 10 5 11 4 12
REMARK SMILES IDX 3 13 2 14 19 15 20 16 1 17 18 19 11 21 14 23
REMARK H PARENT 1 18 18 20 11 22 14 24
REMARK Flexibility Score: inf
ROOT
ATOM      1  C   UNL     1      15.135   4.639  15.130  1.00  0.00     0.401 A 
ATOM      2  O   UNL     1      15.361   5.821  15.697  1.00  0.00    -0.202 OA
ATOM      3  C   UNL     1      14.624   6.901  15.452  1.00  0.00     0.368 A 
ATOM      4  C   UNL     1      14.943   8.100  16.095  1.00  0.00     0.162 A 
ATOM      5  C   UNL     1      14.190   9.250  15.856  1.00  0.00     0.128 A 
ATOM      6  C   UNL     1      13.109   9.203  14.968  1.00  0.00     0.093 A 
ATOM      7  C   UNL     1      12.770   8.013  14.311  1.00  0.00     0.136 A 
ATOM      8  C   UNL     1      13.533   6.841  14.554  1.00  0.00     0.125 A 
ATOM      9  C   UNL     1      13.258   5.603  13.951  1.00  0.00     0.078 A 
ATOM     10  C   UNL     1      14.051   4.489  14.244  1.00  0.00     0.223 A 
ENDROOT
BRANCH   1  11
ATOM     11  C   UNL     1      16.032   3.513  15.475  1.00  0.00     0.084 A 
ATOM     12  C   UNL     1      15.755   2.732  16.609  1.00  0.00     0.022 A 
ATOM     13  C   UNL     1      16.600   1.677  16.967  1.00  0.00     0.047 A 
ATOM     14  C   UNL     1      17.740   1.401  16.207  1.00  0.00     0.115 A 
ATOM     15  C   UNL     1      17.192   3.243  14.726  1.00  0.00     0.022 A 
ATOM     16  C   UNL     1      18.036   2.188  15.087  1.00  0.00     0.047 A 
BRANCH  14  17
ATOM     17  O   UNL     1      18.573   0.347  16.575  1.00  0.00    -0.508 OA
ATOM     18  H   UNL     1      18.213  -0.591  16.710  1.00  0.00     0.293 HD
ENDBRANCH  14  17
ENDBRANCH   1  11
BRANCH  10  19
ATOM     19  O   UNL     1      13.748   3.248  13.685  1.00  0.00    -0.500 OA
ATOM     20  H   UNL     1      13.936   2.382  14.177  1.00  0.00     0.294 HD
ENDBRANCH  10  19
BRANCH   5  21
ATOM     21  O   UNL     1      14.523  10.436  16.506  1.00  0.00    -0.507 OA
ATOM     22  H   UNL     1      15.438  10.577  16.917  1.00  0.00     0.293 HD
ENDBRANCH   5  21
BRANCH   7  23
ATOM     23  O   UNL     1      11.680   8.049  13.437  1.00  0.00    -0.507 OA
ATOM     24  H   UNL     1      11.448   8.834  12.846  1.00  0.00     0.293 HD
ENDBRANCH   7  23
TORSDOF 5
ENDMDL
MODEL 3
REMARK VINA RESULT:    26.613      7.706      9.712
REMARK INTER + INTRA:          31.713
REMARK INTER:                  32.030
REMARK INTRA:                  -0.317
REMARK UNBOUND:                 0.432
REMARK SMILES Oc1ccc(-c2[o+]c3cc(O)cc(O)c3cc2O)cc1
REMARK SMILES IDX 6 1 7 2 8 3 9 4 10 5 12 6 13 7 15 8 16 9 17 10 5 11 4 12
REMARK SMILES IDX 3 13 2 14 19 15 20 16 1 17 18 19 11 21 14 23
REMARK H PARENT 1 18 18 20 11 22 14 24
REMARK Flexibility Score: inf
ROOT
ATOM      1  C   UNL     1      14.997   5.068  15.437  1.00  0.00     0.401 A 
ATOM      2  O   UNL     1      15.781   4.493  14.529  1.00  0.00    -0.202 OA
ATOM      3  C   UNL     1      16.537   3.430  14.785  1.00  0.00     0.368 A 
ATOM      4  C   UNL     1      17.329   2.899  13.764  1.00  0.00     0.162 A 
ATOM      5  C   UNL     1      18.135   1.785  14.004  1.00  0.00     0.128 A 
ATOM      6  C   UNL     1      18.149   1.196  15.274  1.00  0.00     0.093 A 
ATOM      7  C   UNL     1      17.363   1.710  16.314  1.00  0.00     0.136 A 
ATOM      8  C   UNL     1      16.542   2.841  16.071  1.00  0.00     0.125 A 
ATOM      9  C   UNL     1      15.712   3.415  17.049  1.00  0.00     0.078 A 
ATOM     10  C   UNL     1      14.925   4.527  16.735  1.00  0.00     0.223 A 
ENDROOT
BRANCH   1  11
ATOM     11  C   UNL     1      14.210   6.256  15.033  1.00  0.00     0.084 A 
ATOM     12  C   UNL     1      14.733   7.540  15.257  1.00  0.00     0.022 A 
ATOM     13  C   UNL     1      13.998   8.675  14.904  1.00  0.00     0.047 A 
ATOM     14  C   UNL     1      12.726   8.543  14.339  1.00  0.00     0.115 A 
ATOM     15  C   UNL     1      12.922   6.129  14.483  1.00  0.00     0.022 A 
ATOM     16  C   UNL     1      12.188   7.266  14.132  1.00  0.00     0.047 A 
BRANCH  14  17
ATOM     17  O   UNL     1      12.005   9.683  13.992  1.00  0.00    -0.508 OA
ATOM     18  H   UNL     1      11.263   9.650  13.301  1.00  0.00     0.293 HD
ENDBRANCH  14  17
ENDBRANCH   1  11
BRANCH  10  19
ATOM     19  O   UNL     1      14.064   5.067  17.690  1.00  0.00    -0.500 OA
ATOM     20  H   UNL     1      13.635   4.493  18.406  1.00  0.00     0.294 HD
ENDBRANCH  10  19
BRANCH   5  21
ATOM     21  O   UNL     1      18.919   1.269  12.974  1.00  0.00    -0.507 OA
ATOM     22  H   UNL     1      19.429   1.875  12.342  1.00  0.00     0.293 HD
ENDBRANCH   5  21
BRANCH   7  23
ATOM     23  O   UNL     1      17.437   1.069  17.553  1.00  0.00    -0.507 OA
ATOM     24  H   UNL     1      18.235   0.543  17.877  1.00  0.00     0.293 HD
ENDBRANCH   7  23
TORSDOF 5
ENDMDL
MODEL 4
REMARK VINA RESULT:    26.702     10.447     10.958
REMARK INTER + INTRA:          31.818
REMARK INTER:                  31.807
REMARK INTRA:                   0.011
REMARK UNBOUND:                 0.432
REMARK SMILES Oc1ccc(-c2[o+]c3cc(O)cc(O)c3cc2O)cc1
REMARK SMILES IDX 6 1 7 2 8 3 9 4 10 5 12 6 13 7 15 8 16 9 17 10 5 11 4 12
REMARK SMILES IDX 3 13 2 14 19 15 20 16 1 17 18 19 11 21 14 23
REMARK H PARENT 1 18 18 20 11 22 14 24
REMARK Flexibility Score: inf
ROOT
ATOM      1  C   UNL     1      14.905   7.955  15.929  1.00  0.00     0.401 A 
ATOM      2  O   UNL     1      15.300   6.842  16.540  1.00  0.00    -0.202 OA
ATOM      3  C   UNL     1      14.876   5.630  16.196  1.00  0.00     0.368 A 
ATOM      4  C   UNL     1      15.346   4.519  16.902  1.00  0.00     0.162 A 
ATOM      5  C   UNL     1      14.916   3.236  16.566  1.00  0.00     0.128 A 
ATOM      6  C   UNL     1      14.009   3.058  15.515  1.00  0.00     0.093 A 
ATOM      7  C   UNL     1      13.522   4.155  14.792  1.00  0.00     0.136 A 
ATOM      8  C   UNL     1      13.960   5.462  15.131  1.00  0.00     0.125 A 
ATOM      9  C   UNL     1      13.536   6.617  14.454  1.00  0.00     0.078 A 
ATOM     10  C   UNL     1      14.015   7.872  14.841  1.00  0.00     0.223 A 
ENDROOT
BRANCH   1  11
ATOM     11  C   UNL     1      15.442   9.248  16.411  1.00  0.00     0.084 A 
ATOM     12  C   UNL     1      14.559  10.312  16.662  1.00  0.00     0.022 A 
ATOM     13  C   UNL     1      15.045  11.548  17.096  1.00  0.00     0.047 A 
ATOM     14  C   UNL     1      16.418  11.743  17.270  1.00  0.00     0.115 A 
ATOM     15  C   UNL     1      16.824   9.456  16.568  1.00  0.00     0.022 A 
ATOM     16  C   UNL     1      17.307  10.694  17.002  1.00  0.00     0.047 A 
BRANCH  14  17
ATOM     17  O   UNL     1      16.888  12.980  17.704  1.00  0.00    -0.508 OA
ATOM     18  H   UNL     1      16.966  13.768  17.071  1.00  0.00     0.293 HD
ENDBRANCH  14  17
ENDBRANCH   1  11
BRANCH  10  19
ATOM     19  O   UNL     1      13.634   9.014  14.138  1.00  0.00    -0.500 OA
ATOM     20  H   UNL     1      12.840   9.011  13.507  1.00  0.00     0.294 HD
ENDBRANCH  10  19
BRANCH   5  21
ATOM     21  O   UNL     1      15.397   2.141  17.281  1.00  0.00    -0.507 OA
ATOM     22  H   UNL     1      15.615   1.264  16.824  1.00  0.00     0.293 HD
ENDBRANCH   5  21
BRANCH   7  23
ATOM     23  O   UNL     1      12.616   3.895  13.761  1.00  0.00    -0.507 OA
ATOM     24  H   UNL     1      12.568   3.027  13.249  1.00  0.00     0.293 HD
ENDBRANCH   7  23
TORSDOF 5
ENDMDL
