MODEL 1
REMARK VINA RESULT:    -5.203      0.000      0.000
REMARK INTER + INTRA:          -8.068
REMARK INTER:                  -7.028
REMARK INTRA:                  -1.040
REMARK UNBOUND:                -1.040
REMARK SMILES CC(=O)CCC=C(C)CCC=C(C)C
REMARK SMILES IDX 7 1 6 2 8 3 9 4 10 5 11 6 13 7 12 8 14 9 5 10 4 11 2 12 3 13
REMARK SMILES IDX 1 14
REMARK H PARENT
REMARK Flexibility Score: inf
ROOT
ATOM      1  C   UNL     1      12.367  19.215  58.173  1.00  0.00    -0.077 C 
ATOM      2  C   UNL     1      13.679  19.230  58.505  1.00  0.00    -0.028 C 
ATOM      3  C   UNL     1      11.698  17.981  57.616  1.00  0.00     0.039 C 
ENDROOT
BRANCH   1   4
ATOM      4  C   UNL     1      11.540  20.468  58.385  1.00  0.00     0.034 C 
BRANCH   4   5
ATOM      5  C   UNL     1      10.194  20.161  59.057  1.00  0.00     0.032 C 
BRANCH   5   6
ATOM      6  C   UNL     1      10.299  20.205  60.564  1.00  0.00    -0.028 C 
ATOM      7  C   UNL     1      10.330  19.330  62.858  1.00  0.00     0.039 C 
ATOM      8  C   UNL     1      10.146  19.137  61.375  1.00  0.00    -0.080 C 
ATOM      9  C   UNL     1       9.782  17.770  60.842  1.00  0.00     0.039 C 
ENDBRANCH   5   6
ENDBRANCH   4   5
ENDBRANCH   1   4
BRANCH   2  10
ATOM     10  C   UNL     1      14.619  18.065  58.318  1.00  0.00     0.035 C 
BRANCH  10  11
ATOM     11  C   UNL     1      15.495  18.267  57.078  1.00  0.00     0.079 C 
BRANCH  11  12
ATOM     12  C   UNL     1      14.867  17.620  55.872  1.00  0.00     0.130 C 
ATOM     13  O   UNL     1      14.619  16.424  55.893  1.00  0.00    -0.300 OA
ATOM     14  C   UNL     1      14.528  18.415  54.646  1.00  0.00     0.087 C 
ENDBRANCH  11  12
ENDBRANCH  10  11
ENDBRANCH   2  10
TORSDOF 6
ENDMDL
MODEL 2
REMARK VINA RESULT:    -5.140      2.098      6.183
REMARK INTER + INTRA:          -7.982
REMARK INTER:                  -7.018
REMARK INTRA:                  -0.964
REMARK UNBOUND:                -1.040
REMARK SMILES CC(=O)CCC=C(C)CCC=C(C)C
REMARK SMILES IDX 7 1 6 2 8 3 9 4 10 5 11 6 13 7 12 8 14 9 5 10 4 11 2 12 3 13
REMARK SMILES IDX 1 14
REMARK H PARENT
REMARK Flexibility Score: inf
ROOT
ATOM      1  C   UNL     1      13.740  18.633  58.881  1.00  0.00    -0.077 C 
ATOM      2  C   UNL     1      12.577  18.948  58.266  1.00  0.00    -0.028 C 
ATOM      3  C   UNL     1      13.794  17.677  60.049  1.00  0.00     0.039 C 
ENDROOT
BRANCH   1   4
ATOM      4  C   UNL     1      15.031  19.242  58.368  1.00  0.00     0.034 C 
BRANCH   4   5
ATOM      5  C   UNL     1      15.763  18.304  57.397  1.00  0.00     0.032 C 
BRANCH   5   6
ATOM      6  C   UNL     1      15.353  18.552  55.964  1.00  0.00    -0.028 C 
ATOM      7  C   UNL     1      14.182  18.153  53.843  1.00  0.00     0.039 C 
ATOM      8  C   UNL     1      14.541  17.744  55.248  1.00  0.00    -0.080 C 
ATOM      9  C   UNL     1      14.005  16.446  55.805  1.00  0.00     0.039 C 
ENDBRANCH   5   6
ENDBRANCH   4   5
ENDBRANCH   1   4
BRANCH   2  10
ATOM     10  C   UNL     1      11.222  18.438  58.692  1.00  0.00     0.035 C 
BRANCH  10  11
ATOM     11  C   UNL     1      10.595  19.366  59.737  1.00  0.00     0.079 C 
BRANCH  11  12
ATOM     12  C   UNL     1      10.199  18.592  60.966  1.00  0.00     0.130 C 
ATOM     13  O   UNL     1       9.999  17.390  60.881  1.00  0.00    -0.300 OA
ATOM     14  C   UNL     1      10.054  19.264  62.300  1.00  0.00     0.087 C 
ENDBRANCH  11  12
ENDBRANCH  10  11
ENDBRANCH   2  10
TORSDOF 6
ENDMDL
MODEL 3
REMARK VINA RESULT:    -4.888      1.994      2.743
REMARK INTER + INTRA:          -7.642
REMARK INTER:                  -7.106
REMARK INTRA:                  -0.536
REMARK UNBOUND:                -1.040
REMARK SMILES CC(=O)CCC=C(C)CCC=C(C)C
REMARK SMILES IDX 7 1 6 2 8 3 9 4 10 5 11 6 13 7 12 8 14 9 5 10 4 11 2 12 3 13
REMARK SMILES IDX 1 14
REMARK H PARENT
REMARK Flexibility Score: inf
ROOT
ATOM      1  C   UNL     1      12.639  18.627  59.182  1.00  0.00    -0.077 C 
ATOM      2  C   UNL     1      13.924  18.253  58.980  1.00  0.00    -0.028 C 
ATOM      3  C   UNL     1      12.099  19.940  58.668  1.00  0.00     0.039 C 
ENDROOT
BRANCH   1   4
ATOM      4  C   UNL     1      11.709  17.690  59.927  1.00  0.00     0.034 C 
BRANCH   4   5
ATOM      5  C   UNL     1      10.713  18.454  60.812  1.00  0.00     0.032 C 
BRANCH   5   6
ATOM      6  C   UNL     1       9.415  17.697  60.974  1.00  0.00    -0.028 C 
ATOM      7  C   UNL     1       7.152  16.936  60.402  1.00  0.00     0.039 C 
ATOM      8  C   UNL     1       8.361  17.794  60.136  1.00  0.00    -0.080 C 
ATOM      9  C   UNL     1       8.356  18.744  58.960  1.00  0.00     0.039 C 
ENDBRANCH   5   6
ENDBRANCH   4   5
ENDBRANCH   1   4
BRANCH   2  10
ATOM     10  C   UNL     1      14.959  19.100  58.282  1.00  0.00     0.035 C 
BRANCH  10  11
ATOM     11  C   UNL     1      15.732  18.275  57.249  1.00  0.00     0.079 C 
BRANCH  11  12
ATOM     12  C   UNL     1      17.049  18.927  56.925  1.00  0.00     0.130 C 
ATOM     13  O   UNL     1      18.024  18.693  57.624  1.00  0.00    -0.300 OA
ATOM     14  C   UNL     1      17.197  19.850  55.751  1.00  0.00     0.087 C 
ENDBRANCH  11  12
ENDBRANCH  10  11
ENDBRANCH   2  10
TORSDOF 6
ENDMDL
MODEL 4
REMARK VINA RESULT:    -4.874     11.101     13.394
REMARK INTER + INTRA:          -7.624
REMARK INTER:                  -6.435
REMARK INTRA:                  -1.189
REMARK UNBOUND:                -1.040
REMARK SMILES CC(=O)CCC=C(C)CCC=C(C)C
REMARK SMILES IDX 7 1 6 2 8 3 9 4 10 5 11 6 13 7 12 8 14 9 5 10 4 11 2 12 3 13
REMARK SMILES IDX 1 14
REMARK H PARENT
REMARK Flexibility Score: inf
ROOT
ATOM      1  C   UNL     1      19.894  12.384  52.607  1.00  0.00    -0.077 C 
ATOM      2  C   UNL     1      19.226  11.799  53.628  1.00  0.00    -0.028 C 
ATOM      3  C   UNL     1      19.304  12.486  51.221  1.00  0.00     0.039 C 
ENDROOT
BRANCH   1   4
ATOM      4  C   UNL     1      21.266  12.974  52.868  1.00  0.00     0.034 C 
BRANCH   4   5
ATOM      5  C   UNL     1      22.263  11.915  53.359  1.00  0.00     0.032 C 
BRANCH   5   6
ATOM      6  C   UNL     1      22.381  10.765  52.386  1.00  0.00    -0.028 C 
ATOM      7  C   UNL     1      22.227   8.446  51.592  1.00  0.00     0.039 C 
ATOM      8  C   UNL     1      22.111   9.476  52.686  1.00  0.00    -0.080 C 
ATOM      9  C   UNL     1      21.719   9.041  54.078  1.00  0.00     0.039 C 
ENDBRANCH   5   6
ENDBRANCH   4   5
ENDBRANCH   1   4
BRANCH   2  10
ATOM     10  C   UNL     1      17.872  11.148  53.499  1.00  0.00     0.035 C 
BRANCH  10  11
ATOM     11  C   UNL     1      18.009   9.633  53.328  1.00  0.00     0.079 C 
BRANCH  11  12
ATOM     12  C   UNL     1      17.615   8.916  54.592  1.00  0.00     0.130 C 
ATOM     13  O   UNL     1      16.593   9.245  55.176  1.00  0.00    -0.300 OA
ATOM     14  C   UNL     1      18.444   7.796  55.148  1.00  0.00     0.087 C 
ENDBRANCH  11  12
ENDBRANCH  10  11
ENDBRANCH   2  10
TORSDOF 6
ENDMDL
MODEL 5
REMARK VINA RESULT:    -4.849      2.435      6.019
REMARK INTER + INTRA:          -7.590
REMARK INTER:                  -6.815
REMARK INTRA:                  -0.774
REMARK UNBOUND:                -1.040
REMARK SMILES CC(=O)CCC=C(C)CCC=C(C)C
REMARK SMILES IDX 7 1 6 2 8 3 9 4 10 5 11 6 13 7 12 8 14 9 5 10 4 11 2 12 3 13
REMARK SMILES IDX 1 14
REMARK H PARENT
REMARK Flexibility Score: inf
ROOT
ATOM      1  C   UNL     1      11.937  18.693  56.680  1.00  0.00    -0.077 C 
ATOM      2  C   UNL     1      11.602  17.754  57.595  1.00  0.00    -0.028 C 
ATOM      3  C   UNL     1      11.248  20.036  56.625  1.00  0.00     0.039 C 
ENDROOT
BRANCH   1   4
ATOM      4  C   UNL     1      13.052  18.397  55.696  1.00  0.00     0.034 C 
BRANCH   4   5
ATOM      5  C   UNL     1      14.037  17.352  56.241  1.00  0.00     0.032 C 
BRANCH   5   6
ATOM      6  C   UNL     1      15.444  17.898  56.319  1.00  0.00    -0.028 C 
ATOM      7  C   UNL     1      17.380  19.031  57.316  1.00  0.00     0.039 C 
ATOM      8  C   UNL     1      15.939  18.596  57.363  1.00  0.00    -0.080 C 
ATOM      9  C   UNL     1      15.089  18.966  58.557  1.00  0.00     0.039 C 
ENDBRANCH   5   6
ENDBRANCH   4   5
ENDBRANCH   1   4
BRANCH   2  10
ATOM     10  C   UNL     1      10.496  17.907  58.609  1.00  0.00     0.035 C 
BRANCH  10  11
ATOM     11  C   UNL     1      11.069  18.077  60.019  1.00  0.00     0.079 C 
BRANCH  11  12
ATOM     12  C   UNL     1       9.963  18.251  61.025  1.00  0.00     0.130 C 
ATOM     13  O   UNL     1       8.923  17.623  60.890  1.00  0.00    -0.300 OA
ATOM     14  C   UNL     1      10.112  19.171  62.201  1.00  0.00     0.087 C 
ENDBRANCH  11  12
ENDBRANCH  10  11
ENDBRANCH   2  10
TORSDOF 6
ENDMDL
MODEL 6
REMARK VINA RESULT:    -4.833      2.259      4.305
REMARK INTER + INTRA:          -7.568
REMARK INTER:                  -6.174
REMARK INTRA:                  -1.394
REMARK UNBOUND:                -1.040
REMARK SMILES CC(=O)CCC=C(C)CCC=C(C)C
REMARK SMILES IDX 7 1 6 2 8 3 9 4 10 5 11 6 13 7 12 8 14 9 5 10 4 11 2 12 3 13
REMARK SMILES IDX 1 14
REMARK H PARENT
REMARK Flexibility Score: inf
ROOT
ATOM      1  C   UNL     1      14.912  17.674  55.817  1.00  0.00    -0.077 C 
ATOM      2  C   UNL     1      14.304  16.465  55.825  1.00  0.00    -0.028 C 
ATOM      3  C   UNL     1      14.648  18.694  54.735  1.00  0.00     0.039 C 
ENDROOT
BRANCH   1   4
ATOM      4  C   UNL     1      15.870  18.023  56.939  1.00  0.00     0.034 C 
BRANCH   4   5
ATOM      5  C   UNL     1      15.240  18.989  57.953  1.00  0.00     0.032 C 
BRANCH   5   6
ATOM      6  C   UNL     1      14.254  18.287  58.856  1.00  0.00    -0.028 C 
ATOM      7  C   UNL     1      12.056  17.653  59.750  1.00  0.00     0.039 C 
ATOM      8  C   UNL     1      12.916  18.465  58.817  1.00  0.00    -0.080 C 
ATOM      9  C   UNL     1      12.266  19.460  57.884  1.00  0.00     0.039 C 
ENDBRANCH   5   6
ENDBRANCH   4   5
ENDBRANCH   1   4
BRANCH   2  10
ATOM     10  C   UNL     1      13.356  15.981  54.757  1.00  0.00     0.035 C 
BRANCH  10  11
ATOM     11  C   UNL     1      12.042  15.494  55.375  1.00  0.00     0.079 C 
BRANCH  11  12
ATOM     12  C   UNL     1      11.108  16.649  55.620  1.00  0.00     0.130 C 
ATOM     13  O   UNL     1      10.434  16.671  56.638  1.00  0.00    -0.300 OA
ATOM     14  C   UNL     1      10.995  17.784  54.645  1.00  0.00     0.087 C 
ENDBRANCH  11  12
ENDBRANCH  10  11
ENDBRANCH   2  10
TORSDOF 6
ENDMDL
MODEL 7
REMARK VINA RESULT:    -4.730      2.026      3.196
REMARK INTER + INTRA:          -7.429
REMARK INTER:                  -6.115
REMARK INTRA:                  -1.314
REMARK UNBOUND:                -1.040
REMARK SMILES CC(=O)CCC=C(C)CCC=C(C)C
REMARK SMILES IDX 7 1 6 2 8 3 9 4 10 5 11 6 13 7 12 8 14 9 5 10 4 11 2 12 3 13
REMARK SMILES IDX 1 14
REMARK H PARENT
REMARK Flexibility Score: inf
ROOT
ATOM      1  C   UNL     1      11.053  17.530  56.400  1.00  0.00    -0.077 C 
ATOM      2  C   UNL     1      11.841  16.457  56.161  1.00  0.00    -0.028 C 
ATOM      3  C   UNL     1      11.143  18.788  55.568  1.00  0.00     0.039 C 
ENDROOT
BRANCH   1   4
ATOM      4  C   UNL     1      10.035  17.461  57.522  1.00  0.00     0.034 C 
BRANCH   4   5
ATOM      5  C   UNL     1      10.429  18.351  58.710  1.00  0.00     0.032 C 
BRANCH   5   6
ATOM      6  C   UNL     1      11.635  17.808  59.440  1.00  0.00    -0.028 C 
ATOM      7  C   UNL     1      13.957  17.738  60.236  1.00  0.00     0.039 C 
ATOM      8  C   UNL     1      12.864  18.369  59.414  1.00  0.00    -0.080 C 
ATOM      9  C   UNL     1      13.172  19.588  58.576  1.00  0.00     0.039 C 
ENDBRANCH   5   6
ENDBRANCH   4   5
ENDBRANCH   1   4
BRANCH   2  10
ATOM     10  C   UNL     1      12.911  16.403  55.100  1.00  0.00     0.035 C 
BRANCH  10  11
ATOM     11  C   UNL     1      14.306  16.399  55.732  1.00  0.00     0.079 C 
BRANCH  11  12
ATOM     12  C   UNL     1      14.893  17.785  55.734  1.00  0.00     0.130 C 
ATOM     13  O   UNL     1      14.580  18.572  54.853  1.00  0.00    -0.300 OA
ATOM     14  C   UNL     1      15.849  18.228  56.802  1.00  0.00     0.087 C 
ENDBRANCH  11  12
ENDBRANCH  10  11
ENDBRANCH   2  10
TORSDOF 6
ENDMDL
MODEL 8
REMARK VINA RESULT:    -4.683      2.554      3.925
REMARK INTER + INTRA:          -7.365
REMARK INTER:                  -6.984
REMARK INTRA:                  -0.381
REMARK UNBOUND:                -1.040
REMARK SMILES CC(=O)CCC=C(C)CCC=C(C)C
REMARK SMILES IDX 7 1 6 2 8 3 9 4 10 5 11 6 13 7 12 8 14 9 5 10 4 11 2 12 3 13
REMARK SMILES IDX 1 14
REMARK H PARENT
REMARK Flexibility Score: inf
ROOT
ATOM      1  C   UNL     1      11.540  19.701  58.909  1.00  0.00    -0.077 C 
ATOM      2  C   UNL     1      12.801  19.790  58.428  1.00  0.00    -0.028 C 
ATOM      3  C   UNL     1      10.957  18.391  59.384  1.00  0.00     0.039 C 
ENDROOT
BRANCH   1   4
ATOM      4  C   UNL     1      10.694  20.956  58.993  1.00  0.00     0.034 C 
BRANCH   4   5
ATOM      5  C   UNL     1       9.789  21.123  57.764  1.00  0.00     0.032 C 
BRANCH   5   6
ATOM      6  C   UNL     1       9.041  22.435  57.794  1.00  0.00    -0.028 C 
ATOM      7  C   UNL     1       8.044  24.494  56.902  1.00  0.00     0.039 C 
ATOM      8  C   UNL     1       8.858  23.239  56.725  1.00  0.00    -0.080 C 
ATOM      9  C   UNL     1       9.457  22.925  55.373  1.00  0.00     0.039 C 
ENDBRANCH   5   6
ENDBRANCH   4   5
ENDBRANCH   1   4
BRANCH   2  10
ATOM     10  C   UNL     1      13.736  18.618  58.263  1.00  0.00     0.035 C 
BRANCH  10  11
ATOM     11  C   UNL     1      15.193  19.052  58.449  1.00  0.00     0.079 C 
BRANCH  11  12
ATOM     12  C   UNL     1      16.031  18.619  57.276  1.00  0.00     0.130 C 
ATOM     13  O   UNL     1      15.519  17.966  56.380  1.00  0.00    -0.300 OA
ATOM     14  C   UNL     1      17.484  18.983  57.176  1.00  0.00     0.087 C 
ENDBRANCH  11  12
ENDBRANCH  10  11
ENDBRANCH   2  10
TORSDOF 6
ENDMDL
MODEL 9
REMARK VINA RESULT:    -4.660      6.789      8.856
REMARK INTER + INTRA:          -7.335
REMARK INTER:                  -5.825
REMARK INTRA:                  -1.510
REMARK UNBOUND:                -1.040
REMARK SMILES CC(=O)CCC=C(C)CCC=C(C)C
REMARK SMILES IDX 7 1 6 2 8 3 9 4 10 5 11 6 13 7 12 8 14 9 5 10 4 11 2 12 3 13
REMARK SMILES IDX 1 14
REMARK H PARENT
REMARK Flexibility Score: inf
ROOT
ATOM      1  C   UNL     1       5.489  24.663  55.807  1.00  0.00    -0.077 C 
ATOM      2  C   UNL     1       5.773  24.534  54.491  1.00  0.00    -0.028 C 
ATOM      3  C   UNL     1       4.481  23.775  56.498  1.00  0.00     0.039 C 
ENDROOT
BRANCH   1   4
ATOM      4  C   UNL     1       6.220  25.715  56.618  1.00  0.00     0.034 C 
BRANCH   4   5
ATOM      5  C   UNL     1       7.733  25.457  56.663  1.00  0.00     0.032 C 
BRANCH   5   6
ATOM      6  C   UNL     1       8.060  24.172  57.387  1.00  0.00    -0.028 C 
ATOM      7  C   UNL     1       9.035  21.943  57.714  1.00  0.00     0.039 C 
ATOM      8  C   UNL     1       8.743  23.140  56.848  1.00  0.00    -0.080 C 
ATOM      9  C   UNL     1       9.201  23.146  55.408  1.00  0.00     0.039 C 
ENDBRANCH   5   6
ENDBRANCH   4   5
ENDBRANCH   1   4
BRANCH   2  10
ATOM     10  C   UNL     1       5.099  23.552  53.565  1.00  0.00     0.035 C 
BRANCH  10  11
ATOM     11  C   UNL     1       6.017  22.362  53.273  1.00  0.00     0.079 C 
BRANCH  11  12
ATOM     12  C   UNL     1       5.597  21.156  54.071  1.00  0.00     0.130 C 
ATOM     13  O   UNL     1       4.624  20.510  53.715  1.00  0.00    -0.300 OA
ATOM     14  C   UNL     1       6.356  20.722  55.290  1.00  0.00     0.087 C 
ENDBRANCH  11  12
ENDBRANCH  10  11
ENDBRANCH   2  10
TORSDOF 6
ENDMDL
