MODEL 1
REMARK VINA RESULT:    -2.756      0.000      0.000
REMARK INTER + INTRA:          -3.150
REMARK INTER:                  -3.079
REMARK INTRA:                  -0.071
REMARK UNBOUND:                -0.071
REMARK SMILES CCCC(=O)[O-]
REMARK SMILES IDX 3 1 4 2 5 3 6 4 2 5 1 6
REMARK H PARENT
REMARK Flexibility Score: inf
ROOT
ATOM      1  C   UNL     1       7.013  -0.044   0.996  1.00  0.00     0.052 C 
ENDROOT
BRANCH   1   2
ATOM      2  C   UNL     1       5.920   0.417   1.909  1.00  0.00     0.041 C 
ATOM      3  O   UNL     1       5.351  -0.401   2.680  1.00  0.00    -0.550 OA
ATOM      4  O   UNL     1       5.504   1.742   1.887  1.00  0.00    -0.550 OA
ENDBRANCH   1   2
BRANCH   1   5
ATOM      5  C   UNL     1       6.508  -1.070  -0.025  1.00  0.00     0.003 C 
ATOM      6  C   UNL     1       5.481  -0.477  -0.988  1.00  0.00     0.004 C 
ENDBRANCH   1   5
TORSDOF 2
ENDMDL
MODEL 2
REMARK VINA RESULT:    -2.402      5.192      5.941
REMARK INTER + INTRA:          -2.755
REMARK INTER:                  -2.742
REMARK INTRA:                  -0.012
REMARK UNBOUND:                -0.071
REMARK SMILES CCCC(=O)[O-]
REMARK SMILES IDX 3 1 4 2 5 3 6 4 2 5 1 6
REMARK H PARENT
REMARK Flexibility Score: inf
ROOT
ATOM      1  C   UNL     1       2.464   4.522   0.879  1.00  0.00     0.052 C 
ENDROOT
BRANCH   1   2
ATOM      2  C   UNL     1       3.040   3.808   2.062  1.00  0.00     0.041 C 
ATOM      3  O   UNL     1       4.125   3.177   1.954  1.00  0.00    -0.550 OA
ATOM      4  O   UNL     1       2.363   3.809   3.274  1.00  0.00    -0.550 OA
ENDBRANCH   1   2
BRANCH   1   5
ATOM      5  C   UNL     1       2.767   6.025   0.919  1.00  0.00     0.003 C 
ATOM      6  C   UNL     1       3.321   6.544  -0.408  1.00  0.00     0.004 C 
ENDBRANCH   1   5
TORSDOF 2
ENDMDL
MODEL 3
REMARK VINA RESULT:    -2.373      6.773      7.651
REMARK INTER + INTRA:          -2.722
REMARK INTER:                  -2.711
REMARK INTRA:                  -0.011
REMARK UNBOUND:                -0.071
REMARK SMILES CCCC(=O)[O-]
REMARK SMILES IDX 3 1 4 2 5 3 6 4 2 5 1 6
REMARK H PARENT
REMARK Flexibility Score: inf
ROOT
ATOM      1  C   UNL     1       1.962  -3.700  -4.406  1.00  0.00     0.052 C 
ENDROOT
BRANCH   1   2
ATOM      2  C   UNL     1       2.291  -2.240  -4.458  1.00  0.00     0.041 C 
ATOM      3  O   UNL     1       2.684  -1.642  -3.422  1.00  0.00    -0.550 OA
ATOM      4  O   UNL     1       2.134  -1.532  -5.642  1.00  0.00    -0.550 OA
ENDBRANCH   1   2
BRANCH   1   5
ATOM      5  C   UNL     1       1.010  -4.027  -3.250  1.00  0.00     0.003 C 
ATOM      6  C   UNL     1       1.052  -5.504  -2.860  1.00  0.00     0.004 C 
ENDBRANCH   1   5
TORSDOF 2
ENDMDL
MODEL 4
REMARK VINA RESULT:    -2.359      7.228      7.882
REMARK INTER + INTRA:          -2.706
REMARK INTER:                  -2.692
REMARK INTRA:                  -0.014
REMARK UNBOUND:                -0.071
REMARK SMILES CCCC(=O)[O-]
REMARK SMILES IDX 3 1 4 2 5 3 6 4 2 5 1 6
REMARK H PARENT
REMARK Flexibility Score: inf
ROOT
ATOM      1  C   UNL     1       2.211  -3.633  -4.669  1.00  0.00     0.052 C 
ENDROOT
BRANCH   1   2
ATOM      2  C   UNL     1       1.494  -4.605  -3.784  1.00  0.00     0.041 C 
ATOM      3  O   UNL     1       1.773  -5.832  -3.833  1.00  0.00    -0.550 OA
ATOM      4  O   UNL     1       0.494  -4.161  -2.928  1.00  0.00    -0.550 OA
ENDBRANCH   1   2
BRANCH   1   5
ATOM      5  C   UNL     1       2.400  -2.273  -3.986  1.00  0.00     0.003 C 
ATOM      6  C   UNL     1       2.444  -1.119  -4.987  1.00  0.00     0.004 C 
ENDBRANCH   1   5
TORSDOF 2
ENDMDL
MODEL 5
REMARK VINA RESULT:    -2.294     13.366     13.882
REMARK INTER + INTRA:          -2.634
REMARK INTER:                  -2.628
REMARK INTRA:                  -0.006
REMARK UNBOUND:                -0.071
REMARK SMILES CCCC(=O)[O-]
REMARK SMILES IDX 3 1 4 2 5 3 6 4 2 5 1 6
REMARK H PARENT
REMARK Flexibility Score: inf
ROOT
ATOM      1  C   UNL     1      -4.101   8.243  -3.333  1.00  0.00     0.052 C 
ENDROOT
BRANCH   1   2
ATOM      2  C   UNL     1      -4.752   7.001  -3.859  1.00  0.00     0.041 C 
ATOM      3  O   UNL     1      -4.324   5.867  -3.516  1.00  0.00    -0.550 OA
ATOM      4  O   UNL     1      -5.809   7.094  -4.756  1.00  0.00    -0.550 OA
ENDBRANCH   1   2
BRANCH   1   5
ATOM      5  C   UNL     1      -3.219   8.916  -4.392  1.00  0.00     0.003 C 
ATOM      6  C   UNL     1      -2.087   9.734  -3.774  1.00  0.00     0.004 C 
ENDBRANCH   1   5
TORSDOF 2
ENDMDL
MODEL 6
REMARK VINA RESULT:    -2.274      6.502      7.156
REMARK INTER + INTRA:          -2.611
REMARK INTER:                  -2.580
REMARK INTRA:                  -0.031
REMARK UNBOUND:                -0.071
REMARK SMILES CCCC(=O)[O-]
REMARK SMILES IDX 3 1 4 2 5 3 6 4 2 5 1 6
REMARK H PARENT
REMARK Flexibility Score: inf
ROOT
ATOM      1  C   UNL     1       2.795  -1.724  -3.874  1.00  0.00     0.052 C 
ENDROOT
BRANCH   1   2
ATOM      2  C   UNL     1       2.032  -2.953  -4.264  1.00  0.00     0.041 C 
ATOM      3  O   UNL     1       2.075  -3.375  -5.450  1.00  0.00    -0.550 OA
ATOM      4  O   UNL     1       1.248  -3.613  -3.327  1.00  0.00    -0.550 OA
ENDBRANCH   1   2
BRANCH   1   5
ATOM      5  C   UNL     1       4.301  -1.890  -4.112  1.00  0.00     0.003 C 
ATOM      6  C   UNL     1       4.878  -0.780  -4.988  1.00  0.00     0.004 C 
ENDBRANCH   1   5
TORSDOF 2
ENDMDL
MODEL 7
REMARK VINA RESULT:    -2.266     11.434     11.808
REMARK INTER + INTRA:          -2.602
REMARK INTER:                  -2.581
REMARK INTRA:                  -0.021
REMARK UNBOUND:                -0.071
REMARK SMILES CCCC(=O)[O-]
REMARK SMILES IDX 3 1 4 2 5 3 6 4 2 5 1 6
REMARK H PARENT
REMARK Flexibility Score: inf
ROOT
ATOM      1  C   UNL     1      -1.807  -6.645   6.166  1.00  0.00     0.052 C 
ENDROOT
BRANCH   1   2
ATOM      2  C   UNL     1      -1.209  -8.014   6.062  1.00  0.00     0.041 C 
ATOM      3  O   UNL     1      -0.479  -8.458   6.988  1.00  0.00    -0.550 OA
ATOM      4  O   UNL     1      -1.430  -8.787   4.930  1.00  0.00    -0.550 OA
ENDBRANCH   1   2
BRANCH   1   5
ATOM      5  C   UNL     1      -2.206  -6.093   4.792  1.00  0.00     0.003 C 
ATOM      6  C   UNL     1      -3.552  -5.371   4.822  1.00  0.00     0.004 C 
ENDBRANCH   1   5
TORSDOF 2
ENDMDL
MODEL 8
REMARK VINA RESULT:    -2.258      1.765      1.948
REMARK INTER + INTRA:          -2.593
REMARK INTER:                  -2.556
REMARK INTRA:                  -0.037
REMARK UNBOUND:                -0.071
REMARK SMILES CCCC(=O)[O-]
REMARK SMILES IDX 3 1 4 2 5 3 6 4 2 5 1 6
REMARK H PARENT
REMARK Flexibility Score: inf
ROOT
ATOM      1  C   UNL     1       5.569   0.193   0.254  1.00  0.00     0.052 C 
ENDROOT
BRANCH   1   2
ATOM      2  C   UNL     1       6.086  -0.003   1.645  1.00  0.00     0.041 C 
ATOM      3  O   UNL     1       5.300  -0.334   2.572  1.00  0.00    -0.550 OA
ATOM      4  O   UNL     1       7.429   0.211   1.926  1.00  0.00    -0.550 OA
ENDBRANCH   1   2
BRANCH   1   5
ATOM      5  C   UNL     1       5.892   1.594  -0.281  1.00  0.00     0.003 C 
ATOM      6  C   UNL     1       6.821   1.555  -1.493  1.00  0.00     0.004 C 
ENDBRANCH   1   5
TORSDOF 2
ENDMDL
MODEL 9
REMARK VINA RESULT:    -2.230      6.600      7.419
REMARK INTER + INTRA:          -2.562
REMARK INTER:                  -2.536
REMARK INTRA:                  -0.027
REMARK UNBOUND:                -0.071
REMARK SMILES CCCC(=O)[O-]
REMARK SMILES IDX 3 1 4 2 5 3 6 4 2 5 1 6
REMARK H PARENT
REMARK Flexibility Score: inf
ROOT
ATOM      1  C   UNL     1       2.686  -1.387  -5.114  1.00  0.00     0.052 C 
ENDROOT
BRANCH   1   2
ATOM      2  C   UNL     1       4.120  -1.471  -5.536  1.00  0.00     0.041 C 
ATOM      3  O   UNL     1       4.976  -0.699  -5.028  1.00  0.00    -0.550 OA
ATOM      4  O   UNL     1       4.506  -2.377  -6.515  1.00  0.00    -0.550 OA
ENDBRANCH   1   2
BRANCH   1   5
ATOM      5  C   UNL     1       2.457  -2.043  -3.746  1.00  0.00     0.003 C 
ATOM      6  C   UNL     1       1.739  -3.387  -3.857  1.00  0.00     0.004 C 
ENDBRANCH   1   5
TORSDOF 2
ENDMDL
