MODEL 1
REMARK VINA RESULT:    -3.831      0.000      0.000
REMARK INTER + INTRA:          -5.694
REMARK INTER:                  -5.175
REMARK INTRA:                  -0.519
REMARK UNBOUND:                -0.519
REMARK SMILES CCCCCCCC(=O)[O-]
REMARK SMILES IDX 5 1 6 2 7 3 8 4 9 5 10 6 4 7 3 8 2 9 1 10
REMARK H PARENT
REMARK Flexibility Score: inf
ROOT
ATOM      1  C   UNL     1     -54.407 122.848 -11.928  1.00  0.00     0.000 C 
ENDROOT
BRANCH   1   2
ATOM      2  C   UNL     1     -55.808 122.224 -12.007  1.00  0.00     0.006 C 
BRANCH   2   3
ATOM      3  C   UNL     1     -55.758 120.696 -12.125  1.00  0.00     0.053 C 
BRANCH   3   4
ATOM      4  C   UNL     1     -56.833 120.041 -11.312  1.00  0.00     0.041 C 
ATOM      5  O   UNL     1     -57.966 120.580 -11.205  1.00  0.00    -0.550 OA
ATOM      6  O   UNL     1     -56.592 118.817 -10.699  1.00  0.00    -0.550 OA
ENDBRANCH   3   4
ENDBRANCH   2   3
ENDBRANCH   1   2
BRANCH   1   7
ATOM      7  C   UNL     1     -53.448 121.947 -11.139  1.00  0.00     0.000 C 
BRANCH   7   8
ATOM      8  C   UNL     1     -53.386 122.365  -9.666  1.00  0.00    -0.000 C 
BRANCH   8   9
ATOM      9  C   UNL     1     -53.513 121.149  -8.743  1.00  0.00    -0.003 C 
ATOM     10  C   UNL     1     -53.327 119.847  -9.516  1.00  0.00     0.004 C 
ENDBRANCH   8   9
ENDBRANCH   7   8
ENDBRANCH   1   7
TORSDOF 6
ENDMDL
MODEL 2
REMARK VINA RESULT:    -3.760      1.891      2.758
REMARK INTER + INTRA:          -5.597
REMARK INTER:                  -5.104
REMARK INTRA:                  -0.494
REMARK UNBOUND:                -0.519
REMARK SMILES CCCCCCCC(=O)[O-]
REMARK SMILES IDX 5 1 6 2 7 3 8 4 9 5 10 6 4 7 3 8 2 9 1 10
REMARK H PARENT
REMARK Flexibility Score: inf
ROOT
ATOM      1  C   UNL     1     -53.768 119.825  -9.849  1.00  0.00     0.000 C 
ENDROOT
BRANCH   1   2
ATOM      2  C   UNL     1     -54.155 120.280 -11.264  1.00  0.00     0.006 C 
BRANCH   2   3
ATOM      3  C   UNL     1     -55.674 120.397 -11.441  1.00  0.00     0.053 C 
BRANCH   3   4
ATOM      4  C   UNL     1     -56.197 121.694 -10.903  1.00  0.00     0.041 C 
ATOM      5  O   UNL     1     -56.761 121.734  -9.778  1.00  0.00    -0.550 OA
ATOM      6  O   UNL     1     -56.031 122.866 -11.631  1.00  0.00    -0.550 OA
ENDBRANCH   3   4
ENDBRANCH   2   3
ENDBRANCH   1   2
BRANCH   1   7
ATOM      7  C   UNL     1     -53.024 120.937  -9.098  1.00  0.00     0.000 C 
BRANCH   7   8
ATOM      8  C   UNL     1     -52.574 122.043 -10.059  1.00  0.00    -0.000 C 
BRANCH   8   9
ATOM      9  C   UNL     1     -51.045 122.103 -10.150  1.00  0.00    -0.003 C 
ATOM     10  C   UNL     1     -50.538 121.371 -11.389  1.00  0.00     0.004 C 
ENDBRANCH   8   9
ENDBRANCH   7   8
ENDBRANCH   1   7
TORSDOF 6
ENDMDL
MODEL 3
REMARK VINA RESULT:    -3.717      1.839      2.359
REMARK INTER + INTRA:          -5.540
REMARK INTER:                  -4.919
REMARK INTRA:                  -0.621
REMARK UNBOUND:                -0.519
REMARK SMILES CCCCCCCC(=O)[O-]
REMARK SMILES IDX 5 1 6 2 7 3 8 4 9 5 10 6 4 7 3 8 2 9 1 10
REMARK H PARENT
REMARK Flexibility Score: inf
ROOT
ATOM      1  C   UNL     1     -53.383 120.200 -11.702  1.00  0.00     0.000 C 
ENDROOT
BRANCH   1   2
ATOM      2  C   UNL     1     -54.858 120.286 -12.125  1.00  0.00     0.006 C 
BRANCH   2   3
ATOM      3  C   UNL     1     -55.809 120.267 -10.922  1.00  0.00     0.053 C 
BRANCH   3   4
ATOM      4  C   UNL     1     -56.252 121.648 -10.544  1.00  0.00     0.041 C 
ATOM      5  O   UNL     1     -56.810 121.855  -9.434  1.00  0.00    -0.550 OA
ATOM      6  O   UNL     1     -56.020 122.712 -11.406  1.00  0.00    -0.550 OA
ENDBRANCH   3   4
ENDBRANCH   2   3
ENDBRANCH   1   2
BRANCH   1   7
ATOM      7  C   UNL     1     -52.676 121.546 -11.902  1.00  0.00     0.000 C 
BRANCH   7   8
ATOM      8  C   UNL     1     -51.904 121.955 -10.643  1.00  0.00    -0.000 C 
BRANCH   8   9
ATOM      9  C   UNL     1     -52.694 121.607  -9.376  1.00  0.00    -0.003 C 
ATOM     10  C   UNL     1     -53.289 122.858  -8.737  1.00  0.00     0.004 C 
ENDBRANCH   8   9
ENDBRANCH   7   8
ENDBRANCH   1   7
TORSDOF 6
ENDMDL
MODEL 4
REMARK VINA RESULT:    -3.686      1.309      2.171
REMARK INTER + INTRA:          -5.498
REMARK INTER:                  -5.006
REMARK INTRA:                  -0.493
REMARK UNBOUND:                -0.519
REMARK SMILES CCCCCCCC(=O)[O-]
REMARK SMILES IDX 5 1 6 2 7 3 8 4 9 5 10 6 4 7 3 8 2 9 1 10
REMARK H PARENT
REMARK Flexibility Score: inf
ROOT
ATOM      1  C   UNL     1     -54.816 121.453  -9.130  1.00  0.00     0.000 C 
ENDROOT
BRANCH   1   2
ATOM      2  C   UNL     1     -55.257 121.825 -10.553  1.00  0.00     0.006 C 
BRANCH   2   3
ATOM      3  C   UNL     1     -55.410 120.593 -11.454  1.00  0.00     0.053 C 
BRANCH   3   4
ATOM      4  C   UNL     1     -56.704 119.880 -11.204  1.00  0.00     0.041 C 
ATOM      5  O   UNL     1     -56.709 118.741 -10.668  1.00  0.00    -0.550 OA
ATOM      6  O   UNL     1     -57.908 120.490 -11.534  1.00  0.00    -0.550 OA
ENDBRANCH   3   4
ENDBRANCH   2   3
ENDBRANCH   1   2
BRANCH   1   7
ATOM      7  C   UNL     1     -53.359 120.973  -9.113  1.00  0.00     0.000 C 
BRANCH   7   8
ATOM      8  C   UNL     1     -52.412 122.071  -9.607  1.00  0.00    -0.000 C 
BRANCH   8   9
ATOM      9  C   UNL     1     -51.205 121.471 -10.336  1.00  0.00    -0.003 C 
ATOM     10  C   UNL     1     -51.578 121.027 -11.748  1.00  0.00     0.004 C 
ENDBRANCH   8   9
ENDBRANCH   7   8
ENDBRANCH   1   7
TORSDOF 6
ENDMDL
MODEL 5
REMARK VINA RESULT:    -3.276      2.417      4.127
REMARK INTER + INTRA:          -4.944
REMARK INTER:                  -4.589
REMARK INTRA:                  -0.355
REMARK UNBOUND:                -0.519
REMARK SMILES CCCCCCCC(=O)[O-]
REMARK SMILES IDX 5 1 6 2 7 3 8 4 9 5 10 6 4 7 3 8 2 9 1 10
REMARK H PARENT
REMARK Flexibility Score: inf
ROOT
ATOM      1  C   UNL     1     -53.772 119.855 -10.101  1.00  0.00     0.000 C 
ENDROOT
BRANCH   1   2
ATOM      2  C   UNL     1     -52.708 120.776  -9.485  1.00  0.00     0.006 C 
BRANCH   2   3
ATOM      3  C   UNL     1     -52.658 122.146 -10.172  1.00  0.00     0.053 C 
BRANCH   3   4
ATOM      4  C   UNL     1     -53.885 122.957  -9.882  1.00  0.00     0.041 C 
ATOM      5  O   UNL     1     -54.605 123.378 -10.825  1.00  0.00    -0.550 OA
ATOM      6  O   UNL     1     -54.250 123.219  -8.568  1.00  0.00    -0.550 OA
ENDBRANCH   3   4
ENDBRANCH   2   3
ENDBRANCH   1   2
BRANCH   1   7
ATOM      7  C   UNL     1     -53.827 120.020 -11.624  1.00  0.00     0.000 C 
BRANCH   7   8
ATOM      8  C   UNL     1     -55.275 120.135 -12.114  1.00  0.00    -0.000 C 
BRANCH   8   9
ATOM      9  C   UNL     1     -56.258 119.642 -11.046  1.00  0.00    -0.003 C 
ATOM     10  C   UNL     1     -57.679 120.106 -11.348  1.00  0.00     0.004 C 
ENDBRANCH   8   9
ENDBRANCH   7   8
ENDBRANCH   1   7
TORSDOF 6
ENDMDL
MODEL 6
REMARK VINA RESULT:    -3.253      2.684      3.388
REMARK INTER + INTRA:          -4.914
REMARK INTER:                  -4.639
REMARK INTRA:                  -0.275
REMARK UNBOUND:                -0.519
REMARK SMILES CCCCCCCC(=O)[O-]
REMARK SMILES IDX 5 1 6 2 7 3 8 4 9 5 10 6 4 7 3 8 2 9 1 10
REMARK H PARENT
REMARK Flexibility Score: inf
ROOT
ATOM      1  C   UNL     1     -52.758 122.003 -10.226  1.00  0.00     0.000 C 
ENDROOT
BRANCH   1   2
ATOM      2  C   UNL     1     -53.497 121.169  -9.170  1.00  0.00     0.006 C 
BRANCH   2   3
ATOM      3  C   UNL     1     -54.762 120.509  -9.732  1.00  0.00     0.053 C 
BRANCH   3   4
ATOM      4  C   UNL     1     -55.956 121.407  -9.611  1.00  0.00     0.041 C 
ATOM      5  O   UNL     1     -56.210 121.983  -8.521  1.00  0.00    -0.550 OA
ATOM      6  O   UNL     1     -56.771 121.631 -10.714  1.00  0.00    -0.550 OA
ENDBRANCH   3   4
ENDBRANCH   2   3
ENDBRANCH   1   2
BRANCH   1   7
ATOM      7  C   UNL     1     -51.830 121.122 -11.071  1.00  0.00     0.000 C 
BRANCH   7   8
ATOM      8  C   UNL     1     -50.534 121.863 -11.419  1.00  0.00    -0.000 C 
BRANCH   8   9
ATOM      9  C   UNL     1     -49.427 121.540 -10.408  1.00  0.00    -0.003 C 
ATOM     10  C   UNL     1     -49.029 122.779  -9.612  1.00  0.00     0.004 C 
ENDBRANCH   8   9
ENDBRANCH   7   8
ENDBRANCH   1   7
TORSDOF 6
ENDMDL
MODEL 7
REMARK VINA RESULT:    -3.127      2.328      3.944
REMARK INTER + INTRA:          -4.743
REMARK INTER:                  -4.369
REMARK INTRA:                  -0.373
REMARK UNBOUND:                -0.519
REMARK SMILES CCCCCCCC(=O)[O-]
REMARK SMILES IDX 5 1 6 2 7 3 8 4 9 5 10 6 4 7 3 8 2 9 1 10
REMARK H PARENT
REMARK Flexibility Score: inf
ROOT
ATOM      1  C   UNL     1     -54.467 122.555 -11.752  1.00  0.00     0.000 C 
ENDROOT
BRANCH   1   2
ATOM      2  C   UNL     1     -53.146 121.794 -11.566  1.00  0.00     0.006 C 
BRANCH   2   3
ATOM      3  C   UNL     1     -52.420 122.195 -10.276  1.00  0.00     0.053 C 
BRANCH   3   4
ATOM      4  C   UNL     1     -53.356 122.246  -9.107  1.00  0.00     0.041 C 
ATOM      5  O   UNL     1     -53.725 123.354  -8.636  1.00  0.00    -0.550 OA
ATOM      6  O   UNL     1     -53.847 121.068  -8.558  1.00  0.00    -0.550 OA
ENDBRANCH   3   4
ENDBRANCH   2   3
ENDBRANCH   1   2
BRANCH   1   7
ATOM      7  C   UNL     1     -55.606 121.596 -12.120  1.00  0.00     0.000 C 
BRANCH   7   8
ATOM      8  C   UNL     1     -55.310 120.175 -11.629  1.00  0.00    -0.000 C 
BRANCH   8   9
ATOM      9  C   UNL     1     -56.566 119.522 -11.042  1.00  0.00    -0.003 C 
ATOM     10  C   UNL     1     -57.832 120.209 -11.546  1.00  0.00     0.004 C 
ENDBRANCH   8   9
ENDBRANCH   7   8
ENDBRANCH   1   7
TORSDOF 6
ENDMDL
MODEL 8
REMARK VINA RESULT:    -3.120      3.572      4.769
REMARK INTER + INTRA:          -4.734
REMARK INTER:                  -4.271
REMARK INTRA:                  -0.463
REMARK UNBOUND:                -0.519
REMARK SMILES CCCCCCCC(=O)[O-]
REMARK SMILES IDX 5 1 6 2 7 3 8 4 9 5 10 6 4 7 3 8 2 9 1 10
REMARK H PARENT
REMARK Flexibility Score: inf
ROOT
ATOM      1  C   UNL     1     -53.681 120.959  -8.813  1.00  0.00     0.000 C 
ENDROOT
BRANCH   1   2
ATOM      2  C   UNL     1     -52.991 120.343 -10.039  1.00  0.00     0.006 C 
BRANCH   2   3
ATOM      3  C   UNL     1     -52.549 121.406 -11.052  1.00  0.00     0.053 C 
BRANCH   3   4
ATOM      4  C   UNL     1     -51.086 121.708 -10.936  1.00  0.00     0.041 C 
ATOM      5  O   UNL     1     -50.285 121.325 -11.828  1.00  0.00    -0.550 OA
ATOM      6  O   UNL     1     -50.613 122.444  -9.856  1.00  0.00    -0.550 OA
ENDBRANCH   3   4
ENDBRANCH   2   3
ENDBRANCH   1   2
BRANCH   1   7
ATOM      7  C   UNL     1     -54.775 121.947  -9.236  1.00  0.00     0.000 C 
BRANCH   7   8
ATOM      8  C   UNL     1     -56.170 121.350  -9.016  1.00  0.00    -0.000 C 
BRANCH   8   9
ATOM      9  C   UNL     1     -56.829 120.985 -10.350  1.00  0.00    -0.003 C 
ATOM     10  C   UNL     1     -56.672 119.498 -10.654  1.00  0.00     0.004 C 
ENDBRANCH   8   9
ENDBRANCH   7   8
ENDBRANCH   1   7
TORSDOF 6
ENDMDL
MODEL 9
REMARK VINA RESULT:    -2.982      2.149      2.570
REMARK INTER + INTRA:          -4.547
REMARK INTER:                  -4.179
REMARK INTRA:                  -0.369
REMARK UNBOUND:                -0.519
REMARK SMILES CCCCCCCC(=O)[O-]
REMARK SMILES IDX 5 1 6 2 7 3 8 4 9 5 10 6 4 7 3 8 2 9 1 10
REMARK H PARENT
REMARK Flexibility Score: inf
ROOT
ATOM      1  C   UNL     1     -53.258 122.257 -11.967  1.00  0.00     0.000 C 
ENDROOT
BRANCH   1   2
ATOM      2  C   UNL     1     -54.192 122.136 -10.754  1.00  0.00     0.006 C 
BRANCH   2   3
ATOM      3  C   UNL     1     -55.505 121.423 -11.102  1.00  0.00     0.053 C 
BRANCH   3   4
ATOM      4  C   UNL     1     -55.472 119.978 -10.710  1.00  0.00     0.041 C 
ATOM      5  O   UNL     1     -56.408 119.206 -11.049  1.00  0.00    -0.550 OA
ATOM      6  O   UNL     1     -54.391 119.476  -9.997  1.00  0.00    -0.550 OA
ENDBRANCH   3   4
ENDBRANCH   2   3
ENDBRANCH   1   2
BRANCH   1   7
ATOM      7  C   UNL     1     -51.995 121.409 -11.775  1.00  0.00     0.000 C 
BRANCH   7   8
ATOM      8  C   UNL     1     -51.515 121.458 -10.320  1.00  0.00    -0.000 C 
BRANCH   8   9
ATOM      9  C   UNL     1     -49.989 121.589 -10.248  1.00  0.00    -0.003 C 
ATOM     10  C   UNL     1     -49.577 122.957  -9.713  1.00  0.00     0.004 C 
ENDBRANCH   8   9
ENDBRANCH   7   8
ENDBRANCH   1   7
TORSDOF 6
ENDMDL
