MODEL 1
REMARK VINA RESULT:    -3.419      0.000      0.000
REMARK INTER + INTRA:          -3.972
REMARK INTER:                  -3.919
REMARK INTRA:                  -0.053
REMARK UNBOUND:                -0.053
REMARK SMILES COc1cc(C=O)ccc1O
REMARK SMILES IDX 3 1 10 2 9 3 8 4 5 5 4 6 2 7 1 8 11 9 6 11 7 12
REMARK H PARENT 11 10
REMARK Flexibility Score: inf
ROOT
ATOM      1  C   UNL     1     115.514 116.097 117.792  1.00  0.00     0.161 A 
ATOM      2  C   UNL     1     116.480 116.740 118.578  1.00  0.00     0.157 A 
ATOM      3  C   UNL     1     117.589 117.346 117.973  1.00  0.00     0.051 A 
ATOM      4  C   UNL     1     117.740 117.316 116.586  1.00  0.00     0.015 A 
ATOM      5  C   UNL     1     116.781 116.676 115.784  1.00  0.00     0.018 A 
ATOM      6  C   UNL     1     115.670 116.069 116.391  1.00  0.00     0.062 A 
ENDROOT
BRANCH   1   7
ATOM      7  O   UNL     1     114.418 115.502 118.434  1.00  0.00    -0.493 OA
ATOM      8  C   UNL     1     113.425 114.720 117.778  1.00  0.00     0.278 C 
ENDBRANCH   1   7
BRANCH   2   9
ATOM      9  O   UNL     1     116.332 116.771 119.964  1.00  0.00    -0.504 OA
ATOM     10  H   UNL     1     116.240 115.921 120.507  1.00  0.00     0.293 HD
ENDBRANCH   2   9
BRANCH   5  11
ATOM     11  C   UNL     1     116.924 116.633 114.316  1.00  0.00     0.260 C 
ATOM     12  O   UNL     1     115.981 116.992 113.561  1.00  0.00    -0.298 OA
ENDBRANCH   5  11
TORSDOF 3
ENDMDL
MODEL 2
REMARK VINA RESULT:    -3.405      1.270      3.074
REMARK INTER + INTRA:          -3.955
REMARK INTER:                  -3.898
REMARK INTRA:                  -0.057
REMARK UNBOUND:                -0.053
REMARK SMILES COc1cc(C=O)ccc1O
REMARK SMILES IDX 3 1 10 2 9 3 8 4 5 5 4 6 2 7 1 8 11 9 6 11 7 12
REMARK H PARENT 11 10
REMARK Flexibility Score: inf
ROOT
ATOM      1  C   UNL     1     117.485 117.486 117.706  1.00  0.00     0.161 A 
ATOM      2  C   UNL     1     116.513 116.859 118.497  1.00  0.00     0.157 A 
ATOM      3  C   UNL     1     115.516 116.078 117.898  1.00  0.00     0.051 A 
ATOM      4  C   UNL     1     115.484 115.917 116.512  1.00  0.00     0.015 A 
ATOM      5  C   UNL     1     116.450 116.538 115.705  1.00  0.00     0.018 A 
ATOM      6  C   UNL     1     117.449 117.321 116.306  1.00  0.00     0.062 A 
ENDROOT
BRANCH   1   7
ATOM      7  O   UNL     1     118.468 118.260 118.342  1.00  0.00    -0.493 OA
ATOM      8  C   UNL     1     119.784 118.467 117.839  1.00  0.00     0.278 C 
ENDBRANCH   1   7
BRANCH   2   9
ATOM      9  O   UNL     1     116.543 117.019 119.881  1.00  0.00    -0.504 OA
ATOM     10  H   UNL     1     116.694 117.925 120.308  1.00  0.00     0.293 HD
ENDBRANCH   2   9
BRANCH   5  11
ATOM     11  C   UNL     1     116.432 116.380 114.239  1.00  0.00     0.260 C 
ATOM     12  O   UNL     1     117.117 117.132 113.495  1.00  0.00    -0.298 OA
ENDBRANCH   5  11
TORSDOF 3
ENDMDL
MODEL 3
REMARK VINA RESULT:    -3.378      1.847      2.219
REMARK INTER + INTRA:          -3.925
REMARK INTER:                  -3.864
REMARK INTRA:                  -0.061
REMARK UNBOUND:                -0.053
REMARK SMILES COc1cc(C=O)ccc1O
REMARK SMILES IDX 3 1 10 2 9 3 8 4 5 5 4 6 2 7 1 8 11 9 6 11 7 12
REMARK H PARENT 11 10
REMARK Flexibility Score: inf
ROOT
ATOM      1  C   UNL     1     116.987 115.340 117.703  1.00  0.00     0.161 A 
ATOM      2  C   UNL     1     116.395 116.301 118.533  1.00  0.00     0.157 A 
ATOM      3  C   UNL     1     115.902 117.493 117.988  1.00  0.00     0.051 A 
ATOM      4  C   UNL     1     115.994 117.732 116.616  1.00  0.00     0.015 A 
ATOM      5  C   UNL     1     116.583 116.779 115.769  1.00  0.00     0.018 A 
ATOM      6  C   UNL     1     117.078 115.585 116.317  1.00  0.00     0.062 A 
ENDROOT
BRANCH   1   7
ATOM      7  O   UNL     1     117.470 114.158 118.287  1.00  0.00    -0.493 OA
ATOM      8  C   UNL     1     118.676 113.505 117.905  1.00  0.00     0.278 C 
ENDBRANCH   1   7
BRANCH   2   9
ATOM      9  O   UNL     1     116.303 116.066 119.904  1.00  0.00    -0.504 OA
ATOM     10  H   UNL     1     115.502 115.595 120.309  1.00  0.00     0.293 HD
ENDBRANCH   2   9
BRANCH   5  11
ATOM     11  C   UNL     1     116.690 117.013 114.317  1.00  0.00     0.260 C 
ATOM     12  O   UNL     1     117.027 116.087 113.532  1.00  0.00    -0.298 OA
ENDBRANCH   5  11
TORSDOF 3
ENDMDL
MODEL 4
REMARK VINA RESULT:    -3.374      1.603      2.098
REMARK INTER + INTRA:          -3.919
REMARK INTER:                  -3.861
REMARK INTRA:                  -0.058
REMARK UNBOUND:                -0.053
REMARK SMILES COc1cc(C=O)ccc1O
REMARK SMILES IDX 3 1 10 2 9 3 8 4 5 5 4 6 2 7 1 8 11 9 6 11 7 12
REMARK H PARENT 11 10
REMARK Flexibility Score: inf
ROOT
ATOM      1  C   UNL     1     115.702 117.481 117.702  1.00  0.00     0.161 A 
ATOM      2  C   UNL     1     116.295 116.446 118.438  1.00  0.00     0.157 A 
ATOM      3  C   UNL     1     117.083 115.485 117.791  1.00  0.00     0.051 A 
ATOM      4  C   UNL     1     117.285 115.552 116.411  1.00  0.00     0.015 A 
ATOM      5  C   UNL     1     116.699 116.582 115.659  1.00  0.00     0.018 A 
ATOM      6  C   UNL     1     115.908 117.544 116.308  1.00  0.00     0.062 A 
ENDROOT
BRANCH   1   7
ATOM      7  O   UNL     1     114.919 118.424 118.385  1.00  0.00    -0.493 OA
ATOM      8  C   UNL     1     114.827 119.801 118.037  1.00  0.00     0.278 C 
ENDBRANCH   1   7
BRANCH   2   9
ATOM      9  O   UNL     1     116.094 116.377 119.815  1.00  0.00    -0.504 OA
ATOM     10  H   UNL     1     116.218 115.511 120.327  1.00  0.00     0.293 HD
ENDBRANCH   2   9
BRANCH   5  11
ATOM     11  C   UNL     1     116.901 116.669 114.201  1.00  0.00     0.260 C 
ATOM     12  O   UNL     1     116.021 117.171 113.451  1.00  0.00    -0.298 OA
ENDBRANCH   5  11
TORSDOF 3
ENDMDL
MODEL 5
REMARK VINA RESULT:    -3.126      2.532      2.851
REMARK INTER + INTRA:          -3.635
REMARK INTER:                  -3.562
REMARK INTRA:                  -0.073
REMARK UNBOUND:                -0.053
REMARK SMILES COc1cc(C=O)ccc1O
REMARK SMILES IDX 3 1 10 2 9 3 8 4 5 5 4 6 2 7 1 8 11 9 6 11 7 12
REMARK H PARENT 11 10
REMARK Flexibility Score: inf
ROOT
ATOM      1  C   UNL     1     118.287 114.811 118.327  1.00  0.00     0.161 A 
ATOM      2  C   UNL     1     119.118 115.841 118.788  1.00  0.00     0.157 A 
ATOM      3  C   UNL     1     119.025 117.123 118.229  1.00  0.00     0.051 A 
ATOM      4  C   UNL     1     118.105 117.383 117.212  1.00  0.00     0.015 A 
ATOM      5  C   UNL     1     117.264 116.362 116.740  1.00  0.00     0.018 A 
ATOM      6  C   UNL     1     117.358 115.078 117.300  1.00  0.00     0.062 A 
ENDROOT
BRANCH   1   7
ATOM      7  O   UNL     1     118.410 113.541 118.912  1.00  0.00    -0.493 OA
ATOM      8  C   UNL     1     117.530 113.020 119.902  1.00  0.00     0.278 C 
ENDBRANCH   1   7
BRANCH   2   9
ATOM      9  O   UNL     1     120.038 115.583 119.802  1.00  0.00    -0.504 OA
ATOM     10  H   UNL     1     120.894 116.118 119.892  1.00  0.00     0.293 HD
ENDBRANCH   2   9
BRANCH   5  11
ATOM     11  C   UNL     1     116.286 116.618 115.666  1.00  0.00     0.260 C 
ATOM     12  O   UNL     1     116.499 116.231 114.486  1.00  0.00    -0.298 OA
ENDBRANCH   5  11
TORSDOF 3
ENDMDL
MODEL 6
REMARK VINA RESULT:    -3.125      2.410      2.773
REMARK INTER + INTRA:          -3.634
REMARK INTER:                  -3.581
REMARK INTRA:                  -0.053
REMARK UNBOUND:                -0.053
REMARK SMILES COc1cc(C=O)ccc1O
REMARK SMILES IDX 3 1 10 2 9 3 8 4 5 5 4 6 2 7 1 8 11 9 6 11 7 12
REMARK H PARENT 11 10
REMARK Flexibility Score: inf
ROOT
ATOM      1  C   UNL     1     116.042 118.998 118.231  1.00  0.00     0.161 A 
ATOM      2  C   UNL     1     117.325 119.172 118.769  1.00  0.00     0.157 A 
ATOM      3  C   UNL     1     118.390 118.384 118.313  1.00  0.00     0.051 A 
ATOM      4  C   UNL     1     118.183 117.424 117.322  1.00  0.00     0.015 A 
ATOM      5  C   UNL     1     116.905 117.237 116.773  1.00  0.00     0.018 A 
ATOM      6  C   UNL     1     115.837 118.027 117.230  1.00  0.00     0.062 A 
ENDROOT
BRANCH   1   7
ATOM      7  O   UNL     1     115.000 119.806 118.713  1.00  0.00    -0.493 OA
ATOM      8  C   UNL     1     113.625 119.626 118.393  1.00  0.00     0.278 C 
ENDBRANCH   1   7
BRANCH   2   9
ATOM      9  O   UNL     1     117.533 120.130 119.759  1.00  0.00    -0.504 OA
ATOM     10  H   UNL     1     118.298 120.793 119.704  1.00  0.00     0.293 HD
ENDBRANCH   2   9
BRANCH   5  11
ATOM     11  C   UNL     1     116.666 116.227 115.725  1.00  0.00     0.260 C 
ATOM     12  O   UNL     1     116.959 116.457 114.521  1.00  0.00    -0.298 OA
ENDBRANCH   5  11
TORSDOF 3
ENDMDL
MODEL 7
REMARK VINA RESULT:    -3.100      3.539      4.703
REMARK INTER + INTRA:          -3.606
REMARK INTER:                  -3.554
REMARK INTRA:                  -0.052
REMARK UNBOUND:                -0.053
REMARK SMILES COc1cc(C=O)ccc1O
REMARK SMILES IDX 3 1 10 2 9 3 8 4 5 5 4 6 2 7 1 8 11 9 6 11 7 12
REMARK H PARENT 11 10
REMARK Flexibility Score: inf
ROOT
ATOM      1  C   UNL     1     119.263 114.588 118.683  1.00  0.00     0.161 A 
ATOM      2  C   UNL     1     118.115 114.251 117.954  1.00  0.00     0.157 A 
ATOM      3  C   UNL     1     117.355 115.254 117.336  1.00  0.00     0.051 A 
ATOM      4  C   UNL     1     117.737 116.592 117.441  1.00  0.00     0.015 A 
ATOM      5  C   UNL     1     118.885 116.946 118.167  1.00  0.00     0.018 A 
ATOM      6  C   UNL     1     119.645 115.941 118.786  1.00  0.00     0.062 A 
ENDROOT
BRANCH   1   7
ATOM      7  O   UNL     1     119.997 113.556 119.288  1.00  0.00    -0.493 OA
ATOM      8  C   UNL     1     121.084 112.871 118.673  1.00  0.00     0.278 C 
ENDBRANCH   1   7
BRANCH   2   9
ATOM      9  O   UNL     1     117.732 112.915 117.849  1.00  0.00    -0.504 OA
ATOM     10  H   UNL     1     116.926 112.635 117.301  1.00  0.00     0.293 HD
ENDBRANCH   2   9
BRANCH   5  11
ATOM     11  C   UNL     1     119.303 118.355 118.289  1.00  0.00     0.260 C 
ATOM     12  O   UNL     1     120.030 118.896 117.414  1.00  0.00    -0.298 OA
ENDBRANCH   5  11
TORSDOF 3
ENDMDL
MODEL 8
REMARK VINA RESULT:    -3.095      3.254      5.051
REMARK INTER + INTRA:          -3.600
REMARK INTER:                  -3.542
REMARK INTRA:                  -0.058
REMARK UNBOUND:                -0.053
REMARK SMILES COc1cc(C=O)ccc1O
REMARK SMILES IDX 3 1 10 2 9 3 8 4 5 5 4 6 2 7 1 8 11 9 6 11 7 12
REMARK H PARENT 11 10
REMARK Flexibility Score: inf
ROOT
ATOM      1  C   UNL     1     118.679 119.283 118.669  1.00  0.00     0.161 A 
ATOM      2  C   UNL     1     118.994 118.123 117.948  1.00  0.00     0.157 A 
ATOM      3  C   UNL     1     117.973 117.357 117.369  1.00  0.00     0.051 A 
ATOM      4  C   UNL     1     116.639 117.744 117.504  1.00  0.00     0.015 A 
ATOM      5  C   UNL     1     116.307 118.904 118.222  1.00  0.00     0.018 A 
ATOM      6  C   UNL     1     117.330 119.670 118.803  1.00  0.00     0.062 A 
ENDROOT
BRANCH   1   7
ATOM      7  O   UNL     1     119.729 120.024 119.234  1.00  0.00    -0.493 OA
ATOM      8  C   UNL     1     120.376 121.122 118.599  1.00  0.00     0.278 C 
ENDBRANCH   1   7
BRANCH   2   9
ATOM      9  O   UNL     1     120.325 117.735 117.813  1.00  0.00    -0.504 OA
ATOM     10  H   UNL     1     120.588 116.760 117.725  1.00  0.00     0.293 HD
ENDBRANCH   2   9
BRANCH   5  11
ATOM     11  C   UNL     1     114.903 119.328 118.376  1.00  0.00     0.260 C 
ATOM     12  O   UNL     1     114.320 119.988 117.474  1.00  0.00    -0.298 OA
ENDBRANCH   5  11
TORSDOF 3
ENDMDL
MODEL 9
REMARK VINA RESULT:    -3.065      1.762      3.574
REMARK INTER + INTRA:          -3.566
REMARK INTER:                  -3.513
REMARK INTRA:                  -0.052
REMARK UNBOUND:                -0.053
REMARK SMILES COc1cc(C=O)ccc1O
REMARK SMILES IDX 3 1 10 2 9 3 8 4 5 5 4 6 2 7 1 8 11 9 6 11 7 12
REMARK H PARENT 11 10
REMARK Flexibility Score: inf
ROOT
ATOM      1  C   UNL     1     116.503 116.434 116.382  1.00  0.00     0.161 A 
ATOM      2  C   UNL     1     115.750 116.036 117.495  1.00  0.00     0.157 A 
ATOM      3  C   UNL     1     116.257 116.221 118.788  1.00  0.00     0.051 A 
ATOM      4  C   UNL     1     117.511 116.804 118.978  1.00  0.00     0.015 A 
ATOM      5  C   UNL     1     118.277 117.209 117.873  1.00  0.00     0.018 A 
ATOM      6  C   UNL     1     117.770 117.022 116.577  1.00  0.00     0.062 A 
ENDROOT
BRANCH   1   7
ATOM      7  O   UNL     1     115.962 116.232 115.102  1.00  0.00    -0.493 OA
ATOM      8  C   UNL     1     116.641 116.520 113.885  1.00  0.00     0.278 C 
ENDBRANCH   1   7
BRANCH   2   9
ATOM      9  O   UNL     1     114.498 115.454 117.308  1.00  0.00    -0.504 OA
ATOM     10  H   UNL     1     114.267 114.951 116.459  1.00  0.00     0.293 HD
ENDBRANCH   2   9
BRANCH   5  11
ATOM     11  C   UNL     1     119.605 117.825 118.053  1.00  0.00     0.260 C 
ATOM     12  O   UNL     1     119.834 119.002 117.663  1.00  0.00    -0.298 OA
ENDBRANCH   5  11
TORSDOF 3
ENDMDL
