MODEL 1
REMARK VINA RESULT:    -3.819      0.000      0.000
REMARK INTER + INTRA:          -5.502
REMARK INTER:                  -5.382
REMARK INTRA:                  -0.120
REMARK UNBOUND:                -0.120
REMARK SMILES CC1=CCC(=C(C)C)C(=O)CC(C)=CCC1
REMARK SMILES IDX 12 1 14 2 13 3 15 4 16 5 2 6 1 7 3 8 11 10 9 11 10 12 5 13
REMARK SMILES IDX 6 14 7 15 8 16 4 17
REMARK H PARENT
REMARK Flexibility Score: 60.00
ROOT
ATOM      1  C   UNL     1      -2.619  -1.609 -18.360  1.00  0.00    -0.070 C 
ATOM      2  C   UNL     1      -1.396  -1.069 -18.153  1.00  0.00    -0.027 C 
ATOM      3  C   UNL     1      -2.982  -2.032 -19.760  1.00  0.00     0.039 C 
ENDROOT
BRANCH   2   4
ATOM      4  C   UNL     1      -0.927  -0.460 -16.857  1.00  0.00     0.032 C 
BRANCH   4   5
ATOM      5  C   UNL     1      -0.192  -1.515 -16.022  1.00  0.00     0.034 C 
BRANCH   5   6
ATOM      6  C   UNL     1      -0.613  -1.499 -14.566  1.00  0.00    -0.077 C 
ATOM      7  C   UNL     1      -0.129  -0.374 -13.686  1.00  0.00     0.039 C 
ATOM      8  C   UNL     1      -1.465  -2.404 -14.022  1.00  0.00    -0.023 CG0
ATOM      9  G   UNL     1      -2.036  -3.646 -14.682  1.00  0.00     0.000 G0
ENDBRANCH   5   6
ENDBRANCH   4   5
ENDBRANCH   2   4
BRANCH   1  10
ATOM     10  C   UNL     1      -3.632  -1.825 -17.253  1.00  0.00     0.111 C 
BRANCH  10  11
ATOM     11  C   UNL     1      -3.584  -3.234 -16.713  1.00  0.00     0.163 C 
ATOM     12  O   UNL     1      -3.649  -4.173 -17.551  1.00  0.00    -0.294 OA
BRANCH  11  13
ATOM     13  C   UNL     1      -3.442  -3.565 -15.255  1.00  0.00    -0.002 C 
ATOM     14  C   UNL     1      -4.533  -3.929 -14.515  1.00  0.00    -0.069 C 
ATOM     15  C   UNL     1      -5.940  -3.740 -15.037  1.00  0.00     0.039 C 
ATOM     16  C   UNL     1      -4.403  -4.490 -13.117  1.00  0.00     0.039 C 
BRANCH  13  17
ATOM     17  C   UNL     1      -2.032  -3.659 -14.681  1.00  0.00     0.066 CG0
ATOM     18  G   UNL     1      -1.486  -2.408 -14.018  1.00  0.00     0.000 G0
ENDBRANCH  13  17
ENDBRANCH  11  13
ENDBRANCH  10  11
ENDBRANCH   1  10
TORSDOF 0
ENDMDL
MODEL 2
REMARK VINA RESULT:    -3.578      6.362      8.040
REMARK INTER + INTRA:          -5.162
REMARK INTER:                  -5.348
REMARK INTRA:                   0.186
REMARK UNBOUND:                -0.120
REMARK SMILES CC1=CCC(=C(C)C)C(=O)CC(C)=CCC1
REMARK SMILES IDX 12 1 14 2 13 3 15 4 16 5 2 6 1 7 3 8 11 10 9 11 10 12 5 13
REMARK SMILES IDX 6 14 7 15 8 16 4 17
REMARK H PARENT
REMARK Flexibility Score: 60.00
ROOT
ATOM      1  C   UNL     1      -6.311   1.912 -10.525  1.00  0.00    -0.070 C 
ATOM      2  C   UNL     1      -6.954   0.828 -10.031  1.00  0.00    -0.027 C 
ATOM      3  C   UNL     1      -7.038   3.232 -10.519  1.00  0.00     0.039 C 
ENDROOT
BRANCH   2   4
ATOM      4  C   UNL     1      -6.438  -0.587 -10.095  1.00  0.00     0.032 C 
BRANCH   4   5
ATOM      5  C   UNL     1      -5.572  -0.881  -8.865  1.00  0.00     0.034 C 
BRANCH   5   6
ATOM      6  C   UNL     1      -4.448  -1.853  -9.166  1.00  0.00    -0.077 C 
ATOM      7  C   UNL     1      -4.797  -3.288  -9.475  1.00  0.00     0.039 C 
ATOM      8  C   UNL     1      -3.143  -1.490  -9.246  1.00  0.00    -0.023 CG0
ATOM      9  G   UNL     1      -2.542  -0.133  -8.925  1.00  0.00     0.000 G0
ENDBRANCH   5   6
ENDBRANCH   4   5
ENDBRANCH   2   4
BRANCH   1  10
ATOM     10  C   UNL     1      -4.896   1.866 -11.065  1.00  0.00     0.111 C 
BRANCH  10  11
ATOM     11  C   UNL     1      -3.871   1.827  -9.956  1.00  0.00     0.163 C 
ATOM     12  O   UNL     1      -4.082   2.561  -8.953  1.00  0.00    -0.294 OA
BRANCH  11  13
ATOM     13  C   UNL     1      -2.649   0.956  -9.980  1.00  0.00    -0.002 C 
ATOM     14  C   UNL     1      -1.607   1.242 -10.820  1.00  0.00    -0.069 C 
ATOM     15  C   UNL     1      -1.749   2.248 -11.941  1.00  0.00     0.039 C 
ATOM     16  C   UNL     1      -0.274   0.537 -10.713  1.00  0.00     0.039 C 
BRANCH  13  17
ATOM     17  C   UNL     1      -2.531  -0.134  -8.920  1.00  0.00     0.066 CG0
ATOM     18  G   UNL     1      -3.144  -1.480  -9.263  1.00  0.00     0.000 G0
ENDBRANCH  13  17
ENDBRANCH  11  13
ENDBRANCH  10  11
ENDBRANCH   1  10
TORSDOF 0
ENDMDL
MODEL 3
REMARK VINA RESULT:    -3.537      5.624      8.694
REMARK INTER + INTRA:          -5.104
REMARK INTER:                  -5.122
REMARK INTRA:                   0.018
REMARK UNBOUND:                -0.120
REMARK SMILES CC1=CCC(=C(C)C)C(=O)CC(C)=CCC1
REMARK SMILES IDX 12 1 14 2 13 3 15 4 16 5 2 6 1 7 3 8 11 10 9 11 10 12 5 13
REMARK SMILES IDX 6 14 7 15 8 16 4 17
REMARK H PARENT
REMARK Flexibility Score: 60.00
ROOT
ATOM      1  C   UNL     1      -8.504  -8.567 -13.889  1.00  0.00    -0.070 C 
ATOM      2  C   UNL     1      -9.830  -8.581 -14.161  1.00  0.00    -0.027 C 
ATOM      3  C   UNL     1      -7.729  -9.847 -14.067  1.00  0.00     0.039 C 
ENDROOT
BRANCH   2   4
ATOM      4  C   UNL     1     -10.779  -7.440 -13.899  1.00  0.00     0.032 C 
BRANCH   4   5
ATOM      5  C   UNL     1     -10.938  -6.594 -15.166  1.00  0.00     0.034 C 
BRANCH   5   6
ATOM      6  C   UNL     1     -11.122  -5.121 -14.861  1.00  0.00    -0.077 C 
ATOM      7  C   UNL     1     -12.448  -4.656 -14.310  1.00  0.00     0.039 C 
ATOM      8  C   UNL     1     -10.134  -4.199 -14.987  1.00  0.00    -0.023 CG0
ATOM      9  G   UNL     1      -8.747  -4.408 -15.567  1.00  0.00     0.000 G0
ENDBRANCH   5   6
ENDBRANCH   4   5
ENDBRANCH   2   4
BRANCH   1  10
ATOM     10  C   UNL     1      -7.761  -7.327 -13.435  1.00  0.00     0.111 C 
BRANCH  10  11
ATOM     11  C   UNL     1      -7.423  -6.417 -14.591  1.00  0.00     0.163 C 
ATOM     12  O   UNL     1      -6.907  -6.950 -15.610  1.00  0.00    -0.294 OA
BRANCH  11  13
ATOM     13  C   UNL     1      -7.688  -4.939 -14.595  1.00  0.00    -0.002 C 
ATOM     14  C   UNL     1      -6.897  -4.088 -13.872  1.00  0.00    -0.069 C 
ATOM     15  C   UNL     1      -5.927  -4.604 -12.833  1.00  0.00     0.039 C 
ATOM     16  C   UNL     1      -6.981  -2.587 -14.029  1.00  0.00     0.039 C 
BRANCH  13  17
ATOM     17  C   UNL     1      -8.739  -4.407 -15.564  1.00  0.00     0.066 CG0
ATOM     18  G   UNL     1     -10.131  -4.190 -15.001  1.00  0.00     0.000 G0
ENDBRANCH  13  17
ENDBRANCH  11  13
ENDBRANCH  10  11
ENDBRANCH   1  10
TORSDOF 0
ENDMDL
MODEL 4
REMARK VINA RESULT:    -3.524      6.143      7.303
REMARK INTER + INTRA:          -5.086
REMARK INTER:                  -4.982
REMARK INTRA:                  -0.104
REMARK UNBOUND:                -0.120
REMARK SMILES CC1=CCC(=C(C)C)C(=O)CC(C)=CCC1
REMARK SMILES IDX 12 1 14 2 13 3 15 4 16 5 2 6 1 7 3 8 11 10 9 11 10 12 5 13
REMARK SMILES IDX 6 14 7 15 8 16 4 17
REMARK H PARENT
REMARK Flexibility Score: 60.00
ROOT
ATOM      1  C   UNL     1      -9.431  -3.916 -15.106  1.00  0.00    -0.070 C 
ATOM      2  C   UNL     1      -8.520  -3.130 -14.487  1.00  0.00    -0.027 C 
ATOM      3  C   UNL     1      -9.879  -3.528 -16.492  1.00  0.00     0.039 C 
ENDROOT
BRANCH   2   4
ATOM      4  C   UNL     1      -8.075  -3.284 -13.056  1.00  0.00     0.032 C 
BRANCH   4   5
ATOM      5  C   UNL     1      -6.762  -4.072 -13.001  1.00  0.00     0.034 C 
BRANCH   5   6
ATOM      6  C   UNL     1      -6.784  -5.164 -11.949  1.00  0.00    -0.077 C 
ATOM      7  C   UNL     1      -6.589  -4.779 -10.504  1.00  0.00     0.039 C 
ATOM      8  C   UNL     1      -7.044  -6.467 -12.225  1.00  0.00    -0.023 CG0
ATOM      9  G   UNL     1      -7.216  -7.103 -13.593  1.00  0.00     0.000 G0
ENDBRANCH   5   6
ENDBRANCH   4   5
ENDBRANCH   2   4
BRANCH   1  10
ATOM     10  C   UNL     1     -10.005  -5.173 -14.484  1.00  0.00     0.111 C 
BRANCH  10  11
ATOM     11  C   UNL     1      -9.289  -6.415 -14.958  1.00  0.00     0.163 C 
ATOM     12  O   UNL     1      -9.231  -6.604 -16.203  1.00  0.00    -0.294 OA
BRANCH  11  13
ATOM     13  C   UNL     1      -8.636  -7.404 -14.037  1.00  0.00    -0.002 C 
ATOM     14  C   UNL     1      -9.246  -8.593 -13.748  1.00  0.00    -0.069 C 
ATOM     15  C   UNL     1     -10.697  -8.841 -14.096  1.00  0.00     0.039 C 
ATOM     16  C   UNL     1      -8.529  -9.708 -13.020  1.00  0.00     0.039 C 
BRANCH  13  17
ATOM     17  C   UNL     1      -7.205  -7.122 -13.589  1.00  0.00     0.066 CG0
ATOM     18  G   UNL     1      -7.038  -6.461 -12.233  1.00  0.00     0.000 G0
ENDBRANCH  13  17
ENDBRANCH  11  13
ENDBRANCH  10  11
ENDBRANCH   1  10
TORSDOF 0
ENDMDL
MODEL 5
REMARK VINA RESULT:    -3.510      6.354      7.529
REMARK INTER + INTRA:          -5.066
REMARK INTER:                  -5.209
REMARK INTRA:                   0.143
REMARK UNBOUND:                -0.120
REMARK SMILES CC1=CCC(=C(C)C)C(=O)CC(C)=CCC1
REMARK SMILES IDX 12 1 14 2 13 3 15 4 16 5 2 6 1 7 3 8 11 10 9 11 10 12 5 13
REMARK SMILES IDX 6 14 7 15 8 16 4 17
REMARK H PARENT
REMARK Flexibility Score: 60.00
ROOT
ATOM      1  C   UNL     1      -6.258   1.151  -9.008  1.00  0.00    -0.070 C 
ATOM      2  C   UNL     1      -5.462   1.657  -8.038  1.00  0.00    -0.027 C 
ATOM      3  C   UNL     1      -7.622   0.645  -8.614  1.00  0.00     0.039 C 
ENDROOT
BRANCH   2   4
ATOM      4  C   UNL     1      -4.024   2.068  -8.227  1.00  0.00     0.032 C 
BRANCH   4   5
ATOM      5  C   UNL     1      -3.101   1.080  -7.506  1.00  0.00     0.034 C 
BRANCH   5   6
ATOM      6  C   UNL     1      -2.264   0.260  -8.468  1.00  0.00    -0.077 C 
ATOM      7  C   UNL     1      -0.870   0.733  -8.799  1.00  0.00     0.039 C 
ATOM      8  C   UNL     1      -2.671  -0.922  -8.998  1.00  0.00    -0.023 CG0
ATOM      9  G   UNL     1      -4.037  -1.571  -8.862  1.00  0.00     0.000 G0
ENDBRANCH   5   6
ENDBRANCH   4   5
ENDBRANCH   2   4
BRANCH   1  10
ATOM     10  C   UNL     1      -5.855   1.087 -10.468  1.00  0.00     0.111 C 
BRANCH  10  11
ATOM     11  C   UNL     1      -4.960  -0.095 -10.753  1.00  0.00     0.163 C 
ATOM     12  O   UNL     1      -4.108   0.039 -11.673  1.00  0.00    -0.294 OA
BRANCH  11  13
ATOM     13  C   UNL     1      -5.017  -1.388  -9.994  1.00  0.00    -0.002 C 
ATOM     14  C   UNL     1      -5.820  -2.410 -10.421  1.00  0.00    -0.069 C 
ATOM     15  C   UNL     1      -6.879  -2.193 -11.479  1.00  0.00     0.039 C 
ATOM     16  C   UNL     1      -5.735  -3.799  -9.828  1.00  0.00     0.039 C 
BRANCH  13  17
ATOM     17  C   UNL     1      -4.025  -1.589  -8.853  1.00  0.00     0.066 CG0
ATOM     18  G   UNL     1      -2.672  -0.918  -9.006  1.00  0.00     0.000 G0
ENDBRANCH  13  17
ENDBRANCH  11  13
ENDBRANCH  10  11
ENDBRANCH   1  10
TORSDOF 0
ENDMDL
MODEL 6
REMARK VINA RESULT:    -3.469      4.766      7.290
REMARK INTER + INTRA:          -5.008
REMARK INTER:                  -4.988
REMARK INTRA:                  -0.020
REMARK UNBOUND:                -0.120
REMARK SMILES CC1=CCC(=C(C)C)C(=O)CC(C)=CCC1
REMARK SMILES IDX 12 1 14 2 13 3 15 4 16 5 2 6 1 7 3 8 11 10 9 11 10 12 5 13
REMARK SMILES IDX 6 14 7 15 8 16 4 17
REMARK H PARENT
REMARK Flexibility Score: 60.00
ROOT
ATOM      1  C   UNL     1      -6.762   0.147  -9.898  1.00  0.00    -0.070 C 
ATOM      2  C   UNL     1      -7.339  -0.991 -10.347  1.00  0.00    -0.027 C 
ATOM      3  C   UNL     1      -7.191   0.679  -8.555  1.00  0.00     0.039 C 
ENDROOT
BRANCH   2   4
ATOM      4  C   UNL     1      -7.140  -1.578 -11.721  1.00  0.00     0.032 C 
BRANCH   4   5
ATOM      5  C   UNL     1      -5.943  -2.535 -11.710  1.00  0.00     0.034 C 
BRANCH   5   6
ATOM      6  C   UNL     1      -4.995  -2.291 -12.867  1.00  0.00    -0.077 C 
ATOM      7  C   UNL     1      -5.444  -2.658 -14.259  1.00  0.00     0.039 C 
ATOM      8  C   UNL     1      -3.784  -1.691 -12.732  1.00  0.00    -0.023 CG0
ATOM      9  G   UNL     1      -3.094  -1.287 -11.442  1.00  0.00     0.000 G0
ENDBRANCH   5   6
ENDBRANCH   4   5
ENDBRANCH   2   4
BRANCH   1  10
ATOM     10  C   UNL     1      -5.695   0.899 -10.668  1.00  0.00     0.111 C 
BRANCH  10  11
ATOM     11  C   UNL     1      -4.309   0.599 -10.151  1.00  0.00     0.163 C 
ATOM     12  O   UNL     1      -4.126   0.698  -8.908  1.00  0.00    -0.294 OA
BRANCH  11  13
ATOM     13  C   UNL     1      -3.166   0.174 -11.026  1.00  0.00    -0.002 C 
ATOM     14  C   UNL     1      -2.148   1.042 -11.311  1.00  0.00    -0.069 C 
ATOM     15  C   UNL     1      -2.263   2.520 -11.010  1.00  0.00     0.039 C 
ATOM     16  C   UNL     1      -0.874   0.590 -11.988  1.00  0.00     0.039 C 
BRANCH  13  17
ATOM     17  C   UNL     1      -3.085  -1.295 -11.428  1.00  0.00     0.066 CG0
ATOM     18  G   UNL     1      -3.782  -1.683 -12.719  1.00  0.00     0.000 G0
ENDBRANCH  13  17
ENDBRANCH  11  13
ENDBRANCH  10  11
ENDBRANCH   1  10
TORSDOF 0
ENDMDL
MODEL 7
REMARK VINA RESULT:    -3.467      4.819      6.377
REMARK INTER + INTRA:          -5.005
REMARK INTER:                  -5.462
REMARK INTRA:                   0.457
REMARK UNBOUND:                -0.120
REMARK SMILES CC1=CCC(=C(C)C)C(=O)CC(C)=CCC1
REMARK SMILES IDX 12 1 14 2 13 3 15 4 16 5 2 6 1 7 3 8 11 10 9 11 10 12 5 13
REMARK SMILES IDX 6 14 7 15 8 16 4 17
REMARK H PARENT
REMARK Flexibility Score: 60.00
ROOT
ATOM      1  C   UNL     1      -6.640   0.474  -9.934  1.00  0.00    -0.070 C 
ATOM      2  C   UNL     1      -5.736   1.476 -10.028  1.00  0.00    -0.027 C 
ATOM      3  C   UNL     1      -7.332   0.264  -8.611  1.00  0.00     0.039 C 
ENDROOT
BRANCH   2   4
ATOM      4  C   UNL     1      -4.851   1.732 -11.221  1.00  0.00     0.032 C 
BRANCH   4   5
ATOM      5  C   UNL     1      -3.379   1.670 -10.800  1.00  0.00     0.034 C 
BRANCH   5   6
ATOM      6  C   UNL     1      -3.006   0.332 -10.192  1.00  0.00    -0.077 C 
ATOM      7  C   UNL     1      -2.432   0.307  -8.797  1.00  0.00     0.039 C 
ATOM      8  C   UNL     1      -3.227  -0.859 -10.804  1.00  0.00    -0.023 CG0
ATOM      9  G   UNL     1      -3.735  -1.089 -12.216  1.00  0.00     0.000 G0
ENDBRANCH   5   6
ENDBRANCH   4   5
ENDBRANCH   2   4
BRANCH   1  10
ATOM     10  C   UNL     1      -7.004  -0.432 -11.093  1.00  0.00     0.111 C 
BRANCH  10  11
ATOM     11  C   UNL     1      -6.078  -1.620 -11.192  1.00  0.00     0.163 C 
ATOM     12  O   UNL     1      -6.168  -2.495 -10.289  1.00  0.00    -0.294 OA
BRANCH  11  13
ATOM     13  C   UNL     1      -5.089  -1.817 -12.304  1.00  0.00    -0.002 C 
ATOM     14  C   UNL     1      -5.446  -2.489 -13.441  1.00  0.00    -0.069 C 
ATOM     15  C   UNL     1      -6.724  -3.295 -13.514  1.00  0.00     0.039 C 
ATOM     16  C   UNL     1      -4.566  -2.509 -14.671  1.00  0.00     0.039 C 
BRANCH  13  17
ATOM     17  C   UNL     1      -3.750  -1.095 -12.202  1.00  0.00     0.066 CG0
ATOM     18  G   UNL     1      -3.211  -0.861 -10.803  1.00  0.00     0.000 G0
ENDBRANCH  13  17
ENDBRANCH  11  13
ENDBRANCH  10  11
ENDBRANCH   1  10
TORSDOF 0
ENDMDL
MODEL 8
REMARK VINA RESULT:    -3.453      6.379      7.800
REMARK INTER + INTRA:          -4.986
REMARK INTER:                  -5.404
REMARK INTRA:                   0.418
REMARK UNBOUND:                -0.120
REMARK SMILES CC1=CCC(=C(C)C)C(=O)CC(C)=CCC1
REMARK SMILES IDX 12 1 14 2 13 3 15 4 16 5 2 6 1 7 3 8 11 10 9 11 10 12 5 13
REMARK SMILES IDX 6 14 7 15 8 16 4 17
REMARK H PARENT
REMARK Flexibility Score: 60.00
ROOT
ATOM      1  C   UNL     1      -9.918  -4.479 -15.266  1.00  0.00    -0.070 C 
ATOM      2  C   UNL     1     -10.426  -5.733 -15.293  1.00  0.00    -0.027 C 
ATOM      3  C   UNL     1      -9.914  -3.686 -16.548  1.00  0.00     0.039 C 
ENDROOT
BRANCH   2   4
ATOM      4  C   UNL     1     -10.374  -6.711 -14.148  1.00  0.00     0.032 C 
BRANCH   4   5
ATOM      5  C   UNL     1      -9.650  -7.989 -14.587  1.00  0.00     0.034 C 
BRANCH   5   6
ATOM      6  C   UNL     1      -8.234  -7.721 -15.056  1.00  0.00    -0.077 C 
ATOM      7  C   UNL     1      -7.834  -8.170 -16.440  1.00  0.00     0.039 C 
ATOM      8  C   UNL     1      -7.319  -7.032 -14.328  1.00  0.00    -0.023 CG0
ATOM      9  G   UNL     1      -7.464  -6.533 -12.902  1.00  0.00     0.000 G0
ENDBRANCH   5   6
ENDBRANCH   4   5
ENDBRANCH   2   4
BRANCH   1  10
ATOM     10  C   UNL     1      -9.373  -3.828 -14.010  1.00  0.00     0.111 C 
BRANCH  10  11
ATOM     11  C   UNL     1      -7.909  -4.132 -13.807  1.00  0.00     0.163 C 
ATOM     12  O   UNL     1      -7.095  -3.597 -14.608  1.00  0.00    -0.294 OA
BRANCH  11  13
ATOM     13  C   UNL     1      -7.382  -5.006 -12.706  1.00  0.00    -0.002 C 
ATOM     14  C   UNL     1      -7.005  -4.464 -11.508  1.00  0.00    -0.069 C 
ATOM     15  C   UNL     1      -6.830  -2.971 -11.337  1.00  0.00     0.039 C 
ATOM     16  C   UNL     1      -6.692  -5.322 -10.303  1.00  0.00     0.039 C 
BRANCH  13  17
ATOM     17  C   UNL     1      -7.454  -6.517 -12.901  1.00  0.00     0.066 CG0
ATOM     18  G   UNL     1      -7.318  -7.024 -14.325  1.00  0.00     0.000 G0
ENDBRANCH  13  17
ENDBRANCH  11  13
ENDBRANCH  10  11
ENDBRANCH   1  10
TORSDOF 0
ENDMDL
MODEL 9
REMARK VINA RESULT:    -3.379      5.306      6.805
REMARK INTER + INTRA:          -4.881
REMARK INTER:                  -4.848
REMARK INTRA:                  -0.032
REMARK UNBOUND:                -0.120
REMARK SMILES CC1=CCC(=C(C)C)C(=O)CC(C)=CCC1
REMARK SMILES IDX 12 1 14 2 13 3 15 4 16 5 2 6 1 7 3 8 11 10 9 11 10 12 5 13
REMARK SMILES IDX 6 14 7 15 8 16 4 17
REMARK H PARENT
REMARK Flexibility Score: 60.00
ROOT
ATOM      1  C   UNL     1      -2.258   0.148 -11.335  1.00  0.00    -0.070 C 
ATOM      2  C   UNL     1      -2.527   1.424 -10.973  1.00  0.00    -0.027 C 
ATOM      3  C   UNL     1      -0.848  -0.356 -11.158  1.00  0.00     0.039 C 
ENDROOT
BRANCH   2   4
ATOM      4  C   UNL     1      -3.835   2.133 -11.217  1.00  0.00     0.032 C 
BRANCH   4   5
ATOM      5  C   UNL     1      -4.774   1.917 -10.026  1.00  0.00     0.034 C 
BRANCH   5   6
ATOM      6  C   UNL     1      -6.221   1.759 -10.449  1.00  0.00    -0.077 C 
ATOM      7  C   UNL     1      -6.945   2.957 -11.010  1.00  0.00     0.039 C 
ATOM      8  C   UNL     1      -6.887   0.576 -10.420  1.00  0.00    -0.023 CG0
ATOM      9  G   UNL     1      -6.397  -0.743  -9.852  1.00  0.00     0.000 G0
ENDBRANCH   5   6
ENDBRANCH   4   5
ENDBRANCH   2   4
BRANCH   1  10
ATOM     10  C   UNL     1      -3.303  -0.799 -11.888  1.00  0.00     0.111 C 
BRANCH  10  11
ATOM     11  C   UNL     1      -4.086  -1.478 -10.790  1.00  0.00     0.163 C 
ATOM     12  O   UNL     1      -3.433  -1.918  -9.806  1.00  0.00    -0.294 OA
BRANCH  11  13
ATOM     13  C   UNL     1      -5.579  -1.631 -10.802  1.00  0.00    -0.002 C 
ATOM     14  C   UNL     1      -6.170  -2.640 -11.513  1.00  0.00    -0.069 C 
ATOM     15  C   UNL     1      -5.393  -3.451 -12.526  1.00  0.00     0.039 C 
ATOM     16  C   UNL     1      -7.638  -2.970 -11.368  1.00  0.00     0.039 C 
BRANCH  13  17
ATOM     17  C   UNL     1      -6.393  -0.749  -9.861  1.00  0.00     0.066 CG0
ATOM     18  G   UNL     1      -6.884   0.572 -10.426  1.00  0.00     0.000 G0
ENDBRANCH  13  17
ENDBRANCH  11  13
ENDBRANCH  10  11
ENDBRANCH   1  10
TORSDOF 0
ENDMDL
