MODEL 1
REMARK VINA RESULT:    -1.258      0.000      0.000
REMARK INTER + INTRA:          -3.289
REMARK INTER:                  -2.215
REMARK INTRA:                  -1.075
REMARK UNBOUND:                -1.075
REMARK SMILES CCCCCCC=CCCCCCCCC(=O)[O-]
REMARK SMILES IDX 10 1 11 2 12 3 13 4 14 5 15 6 16 7 17 8 18 9 9 10 8 11 7 12
REMARK SMILES IDX 6 13 5 14 4 15 3 16 2 17 1 18
REMARK H PARENT
REMARK Flexibility Score: inf
ROOT
ATOM      1  C   UNL     1      20.335  10.875  37.787  1.00  0.00     0.004 C 
ENDROOT
BRANCH   1   2
ATOM      2  C   UNL     1      21.666  11.403  37.221  1.00  0.00     0.000 C 
BRANCH   2   3
ATOM      3  C   UNL     1      22.075  12.753  37.833  1.00  0.00     0.000 C 
BRANCH   3   4
ATOM      4  C   UNL     1      22.463  13.791  36.766  1.00  0.00     0.000 C 
BRANCH   4   5
ATOM      5  C   UNL     1      21.270  14.651  36.317  1.00  0.00     0.006 C 
BRANCH   5   6
ATOM      6  C   UNL     1      20.054  13.811  35.905  1.00  0.00     0.053 C 
BRANCH   6   7
ATOM      7  C   UNL     1      20.145  13.431  34.461  1.00  0.00     0.041 C 
ATOM      8  O   UNL     1      19.127  13.010  33.851  1.00  0.00    -0.550 OA
ATOM      9  O   UNL     1      21.365  13.495  33.801  1.00  0.00    -0.550 OA
ENDBRANCH   6   7
ENDBRANCH   5   6
ENDBRANCH   4   5
ENDBRANCH   3   4
ENDBRANCH   2   3
ENDBRANCH   1   2
BRANCH   1  10
ATOM     10  C   UNL     1      20.196  11.158  39.290  1.00  0.00     0.027 C 
BRANCH  10  11
ATOM     11  C   UNL     1      18.894  11.848  39.617  1.00  0.00    -0.031 C 
ATOM     12  C   UNL     1      18.573  12.340  40.829  1.00  0.00    -0.031 C 
BRANCH  12  13
ATOM     13  C   UNL     1      19.499  12.362  42.018  1.00  0.00     0.027 C 
BRANCH  13  14
ATOM     14  C   UNL     1      20.651  13.347  41.789  1.00  0.00     0.004 C 
BRANCH  14  15
ATOM     15  C   UNL     1      20.218  14.784  42.113  1.00  0.00     0.000 C 
BRANCH  15  16
ATOM     16  C   UNL     1      20.562  15.783  40.992  1.00  0.00    -0.000 C 
BRANCH  16  17
ATOM     17  C   UNL     1      20.247  15.291  39.568  1.00  0.00    -0.003 C 
ATOM     18  C   UNL     1      18.750  15.234  39.271  1.00  0.00     0.004 C 
ENDBRANCH  16  17
ENDBRANCH  15  16
ENDBRANCH  14  15
ENDBRANCH  13  14
ENDBRANCH  12  13
ENDBRANCH  10  11
ENDBRANCH   1  10
TORSDOF 13
ENDMDL
MODEL 2
REMARK VINA RESULT:    -1.184      1.220      2.889
REMARK INTER + INTRA:          -3.159
REMARK INTER:                  -1.718
REMARK INTRA:                  -1.441
REMARK UNBOUND:                -1.075
REMARK SMILES CCCCCCC=CCCCCCCCC(=O)[O-]
REMARK SMILES IDX 10 1 11 2 12 3 13 4 14 5 15 6 16 7 17 8 18 9 9 10 8 11 7 12
REMARK SMILES IDX 6 13 5 14 4 15 3 16 2 17 1 18
REMARK H PARENT
REMARK Flexibility Score: inf
ROOT
ATOM      1  C   UNL     1      19.198  14.136  38.382  1.00  0.00     0.004 C 
ENDROOT
BRANCH   1   2
ATOM      2  C   UNL     1      20.255  15.254  38.445  1.00  0.00     0.000 C 
BRANCH   2   3
ATOM      3  C   UNL     1      20.896  15.539  37.076  1.00  0.00     0.000 C 
BRANCH   3   4
ATOM      4  C   UNL     1      22.034  14.559  36.742  1.00  0.00     0.000 C 
BRANCH   4   5
ATOM      5  C   UNL     1      21.678  13.614  35.583  1.00  0.00     0.006 C 
BRANCH   5   6
ATOM      6  C   UNL     1      20.165  13.416  35.419  1.00  0.00     0.053 C 
BRANCH   6   7
ATOM      7  C   UNL     1      19.792  13.406  33.970  1.00  0.00     0.041 C 
ATOM      8  O   UNL     1      20.421  14.124  33.149  1.00  0.00    -0.550 OA
ATOM      9  O   UNL     1      18.716  12.643  33.535  1.00  0.00    -0.550 OA
ENDBRANCH   6   7
ENDBRANCH   5   6
ENDBRANCH   4   5
ENDBRANCH   3   4
ENDBRANCH   2   3
ENDBRANCH   1   2
BRANCH   1  10
ATOM     10  C   UNL     1      18.197  14.223  39.543  1.00  0.00     0.027 C 
BRANCH  10  11
ATOM     11  C   UNL     1      18.025  12.897  40.243  1.00  0.00    -0.031 C 
ATOM     12  C   UNL     1      18.784  12.469  41.269  1.00  0.00    -0.031 C 
BRANCH  12  13
ATOM     13  C   UNL     1      19.860  13.287  41.938  1.00  0.00     0.027 C 
BRANCH  13  14
ATOM     14  C   UNL     1      21.227  13.006  41.303  1.00  0.00     0.004 C 
BRANCH  14  15
ATOM     15  C   UNL     1      21.181  11.738  40.438  1.00  0.00     0.000 C 
BRANCH  15  16
ATOM     16  C   UNL     1      21.566  11.998  38.970  1.00  0.00    -0.000 C 
BRANCH  16  17
ATOM     17  C   UNL     1      21.171  10.879  37.989  1.00  0.00    -0.003 C 
ATOM     18  C   UNL     1      19.681  10.876  37.654  1.00  0.00     0.004 C 
ENDBRANCH  16  17
ENDBRANCH  15  16
ENDBRANCH  14  15
ENDBRANCH  13  14
ENDBRANCH  12  13
ENDBRANCH  10  11
ENDBRANCH   1  10
TORSDOF 13
ENDMDL
MODEL 3
REMARK VINA RESULT:    -1.082      3.094      5.661
REMARK INTER + INTRA:          -2.979
REMARK INTER:                  -1.262
REMARK INTRA:                  -1.717
REMARK UNBOUND:                -1.075
REMARK SMILES CCCCCCC=CCCCCCCCC(=O)[O-]
REMARK SMILES IDX 10 1 11 2 12 3 13 4 14 5 15 6 16 7 17 8 18 9 9 10 8 11 7 12
REMARK SMILES IDX 6 13 5 14 4 15 3 16 2 17 1 18
REMARK H PARENT
REMARK Flexibility Score: inf
ROOT
ATOM      1  C   UNL     1      20.526  12.278  41.065  1.00  0.00     0.004 C 
ENDROOT
BRANCH   1   2
ATOM      2  C   UNL     1      19.127  11.979  40.496  1.00  0.00     0.000 C 
BRANCH   2   3
ATOM      3  C   UNL     1      18.280  13.249  40.312  1.00  0.00     0.000 C 
BRANCH   3   4
ATOM      4  C   UNL     1      18.783  14.130  39.155  1.00  0.00     0.000 C 
BRANCH   4   5
ATOM      5  C   UNL     1      18.984  15.596  39.572  1.00  0.00     0.006 C 
BRANCH   5   6
ATOM      6  C   UNL     1      20.450  15.933  39.872  1.00  0.00     0.053 C 
BRANCH   6   7
ATOM      7  C   UNL     1      20.627  16.251  41.324  1.00  0.00     0.041 C 
ATOM      8  O   UNL     1      21.018  15.362  42.125  1.00  0.00    -0.550 OA
ATOM      9  O   UNL     1      20.311  17.517  41.801  1.00  0.00    -0.550 OA
ENDBRANCH   6   7
ENDBRANCH   5   6
ENDBRANCH   4   5
ENDBRANCH   3   4
ENDBRANCH   2   3
ENDBRANCH   1   2
BRANCH   1  10
ATOM     10  C   UNL     1      21.621  12.158  39.995  1.00  0.00     0.027 C 
BRANCH  10  11
ATOM     11  C   UNL     1      21.139  11.415  38.773  1.00  0.00    -0.031 C 
ATOM     12  C   UNL     1      21.402  11.778  37.504  1.00  0.00    -0.031 C 
BRANCH  12  13
ATOM     13  C   UNL     1      22.296  12.926  37.109  1.00  0.00     0.027 C 
BRANCH  13  14
ATOM     14  C   UNL     1      21.470  14.192  36.856  1.00  0.00     0.004 C 
BRANCH  14  15
ATOM     15  C   UNL     1      21.458  14.552  35.363  1.00  0.00     0.000 C 
BRANCH  15  16
ATOM     16  C   UNL     1      20.864  13.438  34.481  1.00  0.00    -0.000 C 
BRANCH  16  17
ATOM     17  C   UNL     1      19.326  13.378  34.464  1.00  0.00    -0.003 C 
ATOM     18  C   UNL     1      18.774  12.493  33.348  1.00  0.00     0.004 C 
ENDBRANCH  16  17
ENDBRANCH  15  16
ENDBRANCH  14  15
ENDBRANCH  13  14
ENDBRANCH  12  13
ENDBRANCH  10  11
ENDBRANCH   1  10
TORSDOF 13
ENDMDL
MODEL 4
REMARK VINA RESULT:    -0.953      2.208      5.471
REMARK INTER + INTRA:          -2.751
REMARK INTER:                  -2.222
REMARK INTRA:                  -0.529
REMARK UNBOUND:                -1.075
REMARK SMILES CCCCCCC=CCCCCCCCC(=O)[O-]
REMARK SMILES IDX 10 1 11 2 12 3 13 4 14 5 15 6 16 7 17 8 18 9 9 10 8 11 7 12
REMARK SMILES IDX 6 13 5 14 4 15 3 16 2 17 1 18
REMARK H PARENT
REMARK Flexibility Score: inf
ROOT
ATOM      1  C   UNL     1      19.769  11.574  38.507  1.00  0.00     0.004 C 
ENDROOT
BRANCH   1   2
ATOM      2  C   UNL     1      20.156  11.418  39.989  1.00  0.00     0.000 C 
BRANCH   2   3
ATOM      3  C   UNL     1      19.102  12.008  40.940  1.00  0.00     0.000 C 
BRANCH   3   4
ATOM      4  C   UNL     1      19.727  12.856  42.061  1.00  0.00     0.000 C 
BRANCH   4   5
ATOM      5  C   UNL     1      20.733  13.889  41.529  1.00  0.00     0.006 C 
BRANCH   5   6
ATOM      6  C   UNL     1      20.096  15.261  41.272  1.00  0.00     0.053 C 
BRANCH   6   7
ATOM      7  C   UNL     1      19.594  15.349  39.865  1.00  0.00     0.041 C 
ATOM      8  O   UNL     1      20.158  16.112  39.037  1.00  0.00    -0.550 OA
ATOM      9  O   UNL     1      18.471  14.628  39.482  1.00  0.00    -0.550 OA
ENDBRANCH   6   7
ENDBRANCH   5   6
ENDBRANCH   4   5
ENDBRANCH   3   4
ENDBRANCH   2   3
ENDBRANCH   1   2
BRANCH   1  10
ATOM     10  C   UNL     1      20.783  10.898  37.572  1.00  0.00     0.027 C 
BRANCH  10  11
ATOM     11  C   UNL     1      22.145  11.544  37.654  1.00  0.00    -0.031 C 
ATOM     12  C   UNL     1      22.381  12.857  37.474  1.00  0.00    -0.031 C 
BRANCH  12  13
ATOM     13  C   UNL     1      21.312  13.898  37.257  1.00  0.00     0.027 C 
BRANCH  13  14
ATOM     14  C   UNL     1      21.590  14.701  35.981  1.00  0.00     0.004 C 
BRANCH  14  15
ATOM     15  C   UNL     1      21.260  13.876  34.729  1.00  0.00     0.000 C 
BRANCH  15  16
ATOM     16  C   UNL     1      19.875  13.205  34.799  1.00  0.00    -0.000 C 
BRANCH  16  17
ATOM     17  C   UNL     1      19.045  13.298  33.507  1.00  0.00    -0.003 C 
ATOM     18  C   UNL     1      18.286  12.011  33.189  1.00  0.00     0.004 C 
ENDBRANCH  16  17
ENDBRANCH  15  16
ENDBRANCH  14  15
ENDBRANCH  13  14
ENDBRANCH  12  13
ENDBRANCH  10  11
ENDBRANCH   1  10
TORSDOF 13
ENDMDL
MODEL 5
REMARK VINA RESULT:    -0.432      1.807      4.582
REMARK INTER + INTRA:          -1.836
REMARK INTER:                  -0.566
REMARK INTRA:                  -1.269
REMARK UNBOUND:                -1.075
REMARK SMILES CCCCCCC=CCCCCCCCC(=O)[O-]
REMARK SMILES IDX 10 1 11 2 12 3 13 4 14 5 15 6 16 7 17 8 18 9 9 10 8 11 7 12
REMARK SMILES IDX 6 13 5 14 4 15 3 16 2 17 1 18
REMARK H PARENT
REMARK Flexibility Score: inf
ROOT
ATOM      1  C   UNL     1      21.200  13.293  41.475  1.00  0.00     0.004 C 
ENDROOT
BRANCH   1   2
ATOM      2  C   UNL     1      20.545  12.003  40.946  1.00  0.00     0.000 C 
BRANCH   2   3
ATOM      3  C   UNL     1      19.182  12.261  40.284  1.00  0.00     0.000 C 
BRANCH   3   4
ATOM      4  C   UNL     1      19.132  11.774  38.825  1.00  0.00     0.000 C 
BRANCH   4   5
ATOM      5  C   UNL     1      20.324  10.875  38.462  1.00  0.00     0.006 C 
BRANCH   5   6
ATOM      6  C   UNL     1      21.118  11.398  37.257  1.00  0.00     0.053 C 
BRANCH   6   7
ATOM      7  C   UNL     1      22.446  11.929  37.696  1.00  0.00     0.041 C 
ATOM      8  O   UNL     1      23.167  12.577  36.893  1.00  0.00    -0.550 OA
ATOM      9  O   UNL     1      22.910  11.665  38.979  1.00  0.00    -0.550 OA
ENDBRANCH   6   7
ENDBRANCH   5   6
ENDBRANCH   4   5
ENDBRANCH   3   4
ENDBRANCH   2   3
ENDBRANCH   1   2
BRANCH   1  10
ATOM     10  C   UNL     1      20.162  14.278  42.035  1.00  0.00     0.027 C 
BRANCH  10  11
ATOM     11  C   UNL     1      20.448  15.700  41.616  1.00  0.00    -0.031 C 
ATOM     12  C   UNL     1      20.324  16.166  40.360  1.00  0.00    -0.031 C 
BRANCH  12  13
ATOM     13  C   UNL     1      19.791  15.367  39.197  1.00  0.00     0.027 C 
BRANCH  13  14
ATOM     14  C   UNL     1      20.899  15.098  38.173  1.00  0.00     0.004 C 
BRANCH  14  15
ATOM     15  C   UNL     1      20.307  14.631  36.834  1.00  0.00     0.000 C 
BRANCH  15  16
ATOM     16  C   UNL     1      21.332  14.650  35.685  1.00  0.00    -0.000 C 
BRANCH  16  17
ATOM     17  C   UNL     1      20.929  13.834  34.444  1.00  0.00    -0.003 C 
ATOM     18  C   UNL     1      19.506  13.286  34.525  1.00  0.00     0.004 C 
ENDBRANCH  16  17
ENDBRANCH  15  16
ENDBRANCH  14  15
ENDBRANCH  13  14
ENDBRANCH  12  13
ENDBRANCH  10  11
ENDBRANCH   1  10
TORSDOF 13
ENDMDL
MODEL 6
REMARK VINA RESULT:     0.350      1.091      1.997
REMARK INTER + INTRA:          -0.459
REMARK INTER:                  -0.081
REMARK INTRA:                  -0.378
REMARK UNBOUND:                -1.075
REMARK SMILES CCCCCCC=CCCCCCCCC(=O)[O-]
REMARK SMILES IDX 10 1 11 2 12 3 13 4 14 5 15 6 16 7 17 8 18 9 9 10 8 11 7 12
REMARK SMILES IDX 6 13 5 14 4 15 3 16 2 17 1 18
REMARK H PARENT
REMARK Flexibility Score: inf
ROOT
ATOM      1  C   UNL     1      21.992  11.355  38.400  1.00  0.00     0.004 C 
ENDROOT
BRANCH   1   2
ATOM      2  C   UNL     1      22.616  12.257  37.319  1.00  0.00     0.000 C 
BRANCH   2   3
ATOM      3  C   UNL     1      22.397  13.753  37.600  1.00  0.00     0.000 C 
BRANCH   3   4
ATOM      4  C   UNL     1      21.329  14.375  36.683  1.00  0.00     0.000 C 
BRANCH   4   5
ATOM      5  C   UNL     1      20.082  13.487  36.541  1.00  0.00     0.006 C 
BRANCH   5   6
ATOM      6  C   UNL     1      20.169  12.527  35.346  1.00  0.00     0.053 C 
BRANCH   6   7
ATOM      7  C   UNL     1      19.866  13.250  34.072  1.00  0.00     0.041 C 
ATOM      8  O   UNL     1      20.645  14.143  33.649  1.00  0.00    -0.550 OA
ATOM      9  O   UNL     1      18.695  12.972  33.377  1.00  0.00    -0.550 OA
ENDBRANCH   6   7
ENDBRANCH   5   6
ENDBRANCH   4   5
ENDBRANCH   3   4
ENDBRANCH   2   3
ENDBRANCH   1   2
BRANCH   1  10
ATOM     10  C   UNL     1      21.006  12.122  39.293  1.00  0.00     0.027 C 
BRANCH  10  11
ATOM     11  C   UNL     1      19.725  11.354  39.511  1.00  0.00    -0.031 C 
ATOM     12  C   UNL     1      18.637  11.843  40.135  1.00  0.00    -0.031 C 
BRANCH  12  13
ATOM     13  C   UNL     1      18.497  13.261  40.629  1.00  0.00     0.027 C 
BRANCH  13  14
ATOM     14  C   UNL     1      18.665  14.255  39.474  1.00  0.00     0.004 C 
BRANCH  14  15
ATOM     15  C   UNL     1      19.514  15.460  39.905  1.00  0.00     0.000 C 
BRANCH  15  16
ATOM     16  C   UNL     1      20.766  15.057  40.706  1.00  0.00    -0.000 C 
BRANCH  16  17
ATOM     17  C   UNL     1      20.849  15.655  42.122  1.00  0.00    -0.003 C 
ATOM     18  C   UNL     1      21.033  17.171  42.121  1.00  0.00     0.004 C 
ENDBRANCH  16  17
ENDBRANCH  15  16
ENDBRANCH  14  15
ENDBRANCH  13  14
ENDBRANCH  12  13
ENDBRANCH  10  11
ENDBRANCH   1  10
TORSDOF 13
ENDMDL
MODEL 7
REMARK VINA RESULT:     0.824      2.944      5.426
REMARK INTER + INTRA:           0.375
REMARK INTER:                  -0.395
REMARK INTRA:                   0.771
REMARK UNBOUND:                -1.075
REMARK SMILES CCCCCCC=CCCCCCCCC(=O)[O-]
REMARK SMILES IDX 10 1 11 2 12 3 13 4 14 5 15 6 16 7 17 8 18 9 9 10 8 11 7 12
REMARK SMILES IDX 6 13 5 14 4 15 3 16 2 17 1 18
REMARK H PARENT
REMARK Flexibility Score: inf
ROOT
ATOM      1  C   UNL     1      21.124  11.027  37.658  1.00  0.00     0.004 C 
ENDROOT
BRANCH   1   2
ATOM      2  C   UNL     1      20.723  11.321  39.115  1.00  0.00     0.000 C 
BRANCH   2   3
ATOM      3  C   UNL     1      19.249  10.990  39.400  1.00  0.00     0.000 C 
BRANCH   3   4
ATOM      4  C   UNL     1      18.568  12.049  40.285  1.00  0.00     0.000 C 
BRANCH   4   5
ATOM      5  C   UNL     1      19.209  12.157  41.678  1.00  0.00     0.006 C 
BRANCH   5   6
ATOM      6  C   UNL     1      19.440  13.610  42.115  1.00  0.00     0.053 C 
BRANCH   6   7
ATOM      7  C   UNL     1      20.899  13.943  42.072  1.00  0.00     0.041 C 
ATOM      8  O   UNL     1      21.276  15.143  42.116  1.00  0.00    -0.550 OA
ATOM      9  O   UNL     1      21.839  12.930  41.933  1.00  0.00    -0.550 OA
ENDBRANCH   6   7
ENDBRANCH   5   6
ENDBRANCH   4   5
ENDBRANCH   3   4
ENDBRANCH   2   3
ENDBRANCH   1   2
BRANCH   1  10
ATOM     10  C   UNL     1      21.133  12.298  36.795  1.00  0.00     0.027 C 
BRANCH  10  11
ATOM     11  C   UNL     1      20.018  12.298  35.777  1.00  0.00    -0.031 C 
ATOM     12  C   UNL     1      19.794  13.284  34.889  1.00  0.00    -0.031 C 
BRANCH  12  13
ATOM     13  C   UNL     1      20.677  14.493  34.710  1.00  0.00     0.027 C 
BRANCH  13  14
ATOM     14  C   UNL     1      21.766  14.533  35.788  1.00  0.00     0.004 C 
BRANCH  14  15
ATOM     15  C   UNL     1      21.404  15.532  36.897  1.00  0.00     0.000 C 
BRANCH  15  16
ATOM     16  C   UNL     1      20.818  14.853  38.149  1.00  0.00    -0.000 C 
BRANCH  16  17
ATOM     17  C   UNL     1      19.754  15.679  38.894  1.00  0.00    -0.003 C 
ATOM     18  C   UNL     1      18.508  14.869  39.248  1.00  0.00     0.004 C 
ENDBRANCH  16  17
ENDBRANCH  15  16
ENDBRANCH  14  15
ENDBRANCH  13  14
ENDBRANCH  12  13
ENDBRANCH  10  11
ENDBRANCH   1  10
TORSDOF 13
ENDMDL
MODEL 8
REMARK VINA RESULT:     1.014      2.751      5.556
REMARK INTER + INTRA:           0.711
REMARK INTER:                   0.680
REMARK INTRA:                   0.031
REMARK UNBOUND:                -1.075
REMARK SMILES CCCCCCC=CCCCCCCCC(=O)[O-]
REMARK SMILES IDX 10 1 11 2 12 3 13 4 14 5 15 6 16 7 17 8 18 9 9 10 8 11 7 12
REMARK SMILES IDX 6 13 5 14 4 15 3 16 2 17 1 18
REMARK H PARENT
REMARK Flexibility Score: inf
ROOT
ATOM      1  C   UNL     1      21.622  15.339  36.833  1.00  0.00     0.004 C 
ENDROOT
BRANCH   1   2
ATOM      2  C   UNL     1      20.381  15.002  37.680  1.00  0.00     0.000 C 
BRANCH   2   3
ATOM      3  C   UNL     1      20.333  15.794  38.997  1.00  0.00     0.000 C 
BRANCH   3   4
ATOM      4  C   UNL     1      19.344  15.192  40.011  1.00  0.00     0.000 C 
BRANCH   4   5
ATOM      5  C   UNL     1      18.587  13.978  39.449  1.00  0.00     0.006 C 
BRANCH   5   6
ATOM      6  C   UNL     1      18.689  12.743  40.354  1.00  0.00     0.053 C 
BRANCH   6   7
ATOM      7  C   UNL     1      19.982  12.751  41.106  1.00  0.00     0.041 C 
ATOM      8  O   UNL     1      20.118  13.478  42.125  1.00  0.00    -0.550 OA
ATOM      9  O   UNL     1      21.054  11.993  40.653  1.00  0.00    -0.550 OA
ENDBRANCH   6   7
ENDBRANCH   5   6
ENDBRANCH   4   5
ENDBRANCH   3   4
ENDBRANCH   2   3
ENDBRANCH   1   2
BRANCH   1  10
ATOM     10  C   UNL     1      22.413  14.081  36.443  1.00  0.00     0.027 C 
BRANCH  10  11
ATOM     11  C   UNL     1      23.028  13.405  37.645  1.00  0.00    -0.031 C 
ATOM     12  C   UNL     1      22.786  12.133  38.014  1.00  0.00    -0.031 C 
BRANCH  12  13
ATOM     13  C   UNL     1      21.938  11.161  37.233  1.00  0.00     0.027 C 
BRANCH  13  14
ATOM     14  C   UNL     1      20.450  11.381  37.528  1.00  0.00     0.004 C 
BRANCH  14  15
ATOM     15  C   UNL     1      19.658  11.591  36.230  1.00  0.00     0.000 C 
BRANCH  15  16
ATOM     16  C   UNL     1      19.722  13.041  35.715  1.00  0.00    -0.000 C 
BRANCH  16  17
ATOM     17  C   UNL     1      19.590  13.193  34.190  1.00  0.00    -0.003 C 
ATOM     18  C   UNL     1      20.907  13.555  33.507  1.00  0.00     0.004 C 
ENDBRANCH  16  17
ENDBRANCH  15  16
ENDBRANCH  14  15
ENDBRANCH  13  14
ENDBRANCH  12  13
ENDBRANCH  10  11
ENDBRANCH   1  10
TORSDOF 13
ENDMDL
MODEL 9
REMARK VINA RESULT:     1.523      2.300      5.238
REMARK INTER + INTRA:           1.606
REMARK INTER:                   1.860
REMARK INTRA:                  -0.254
REMARK UNBOUND:                -1.075
REMARK SMILES CCCCCCC=CCCCCCCCC(=O)[O-]
REMARK SMILES IDX 10 1 11 2 12 3 13 4 14 5 15 6 16 7 17 8 18 9 9 10 8 11 7 12
REMARK SMILES IDX 6 13 5 14 4 15 3 16 2 17 1 18
REMARK H PARENT
REMARK Flexibility Score: inf
ROOT
ATOM      1  C   UNL     1      20.276  10.984  37.297  1.00  0.00     0.004 C 
ENDROOT
BRANCH   1   2
ATOM      2  C   UNL     1      19.646  10.879  38.698  1.00  0.00     0.000 C 
BRANCH   2   3
ATOM      3  C   UNL     1      20.456  11.629  39.769  1.00  0.00     0.000 C 
BRANCH   3   4
ATOM      4  C   UNL     1      19.621  11.954  41.020  1.00  0.00     0.000 C 
BRANCH   4   5
ATOM      5  C   UNL     1      19.786  13.412  41.478  1.00  0.00     0.006 C 
BRANCH   5   6
ATOM      6  C   UNL     1      20.405  14.308  40.397  1.00  0.00     0.053 C 
BRANCH   6   7
ATOM      7  C   UNL     1      19.342  15.096  39.699  1.00  0.00     0.041 C 
ATOM      8  O   UNL     1      18.356  14.510  39.180  1.00  0.00    -0.550 OA
ATOM      9  O   UNL     1      19.466  16.474  39.577  1.00  0.00    -0.550 OA
ENDBRANCH   6   7
ENDBRANCH   5   6
ENDBRANCH   4   5
ENDBRANCH   3   4
ENDBRANCH   2   3
ENDBRANCH   1   2
BRANCH   1  10
ATOM     10  C   UNL     1      19.914  12.304  36.600  1.00  0.00     0.027 C 
BRANCH  10  11
ATOM     11  C   UNL     1      19.415  12.082  35.193  1.00  0.00    -0.031 C 
ATOM     12  C   UNL     1      19.485  12.993  34.204  1.00  0.00    -0.031 C 
BRANCH  12  13
ATOM     13  C   UNL     1      20.157  14.338  34.324  1.00  0.00     0.027 C 
BRANCH  13  14
ATOM     14  C   UNL     1      21.532  14.199  34.986  1.00  0.00     0.004 C 
BRANCH  14  15
ATOM     15  C   UNL     1      21.605  15.024  36.279  1.00  0.00     0.000 C 
BRANCH  15  16
ATOM     16  C   UNL     1      22.349  14.298  37.415  1.00  0.00    -0.000 C 
BRANCH  16  17
ATOM     17  C   UNL     1      23.059  12.998  36.996  1.00  0.00    -0.003 C 
ATOM     18  C   UNL     1      23.301  12.044  38.164  1.00  0.00     0.004 C 
ENDBRANCH  16  17
ENDBRANCH  15  16
ENDBRANCH  14  15
ENDBRANCH  13  14
ENDBRANCH  12  13
ENDBRANCH  10  11
ENDBRANCH   1  10
TORSDOF 13
ENDMDL
