MODEL 1
REMARK VINA RESULT:    -2.280      0.000      0.000
REMARK INTER + INTRA:          -3.224
REMARK INTER:                  -2.680
REMARK INTRA:                  -0.544
REMARK UNBOUND:                -0.544
REMARK SMILES C=C[C@]1(C)CC[C@H](C(=C)C)C[C@H]1C(=C)C
REMARK SMILES IDX 7 1 6 2 5 3 3 4 12 5 11 6 4 7 8 8 10 9 9 10 13 11 14 12
REMARK SMILES IDX 15 13 2 14 1 15
REMARK H PARENT
REMARK Flexibility Score: inf
ROOT
ATOM      1  C   UNL     1     171.745 173.039 139.121  1.00  0.00     0.015 C 
ATOM      2  C   UNL     1     172.443 172.532 137.853  1.00  0.00     0.009 C 
ATOM      3  C   UNL     1     173.963 172.508 138.031  1.00  0.00     0.012 C 
ATOM      4  C   UNL     1     174.590 173.869 138.456  1.00  0.00    -0.008 C 
ATOM      5  C   UNL     1     173.777 174.590 139.615  1.00  0.00     0.024 C 
ATOM      6  C   UNL     1     172.232 174.448 139.516  1.00  0.00     0.017 C 
ATOM      7  C   UNL     1     176.043 173.568 138.921  1.00  0.00     0.016 C 
ENDROOT
BRANCH   1   8
ATOM      8  C   UNL     1     170.228 173.006 138.967  1.00  0.00    -0.077 C 
ATOM      9  C   UNL     1     169.341 173.113 140.181  1.00  0.00     0.039 C 
ATOM     10  C   UNL     1     169.650 172.882 137.760  1.00  0.00     0.008 C 
ENDBRANCH   1   8
BRANCH   5  11
ATOM     11  C   UNL     1     174.260 174.277 141.041  1.00  0.00    -0.077 C 
ATOM     12  C   UNL     1     174.940 175.208 141.736  1.00  0.00     0.008 C 
ATOM     13  C   UNL     1     173.950 172.961 141.713  1.00  0.00     0.039 C 
ENDBRANCH   5  11
BRANCH   4  14
ATOM     14  C   UNL     1     174.744 174.787 137.230  1.00  0.00    -0.028 C 
ATOM     15  C   UNL     1     174.773 176.125 137.251  1.00  0.00     0.004 C 
ENDBRANCH   4  14
TORSDOF 3
ENDMDL
MODEL 2
REMARK VINA RESULT:    -2.280     18.362     21.582
REMARK INTER + INTRA:          -3.224
REMARK INTER:                  -2.699
REMARK INTRA:                  -0.525
REMARK UNBOUND:                -0.544
REMARK SMILES C=C[C@]1(C)CC[C@H](C(=C)C)C[C@H]1C(=C)C
REMARK SMILES IDX 7 1 6 2 5 3 3 4 12 5 11 6 4 7 8 8 10 9 9 10 13 11 14 12
REMARK SMILES IDX 15 13 2 14 1 15
REMARK H PARENT
REMARK Flexibility Score: inf
ROOT
ATOM      1  C   UNL     1     160.232 159.017 139.129  1.00  0.00     0.015 C 
ATOM      2  C   UNL     1     159.599 159.528 137.828  1.00  0.00     0.009 C 
ATOM      3  C   UNL     1     158.071 159.494 137.907  1.00  0.00     0.012 C 
ATOM      4  C   UNL     1     157.467 158.104 138.264  1.00  0.00    -0.008 C 
ATOM      5  C   UNL     1     158.229 157.387 139.460  1.00  0.00     0.024 C 
ATOM      6  C   UNL     1     159.771 157.585 139.465  1.00  0.00     0.017 C 
ATOM      7  C   UNL     1     155.977 158.344 138.639  1.00  0.00     0.016 C 
ENDROOT
BRANCH   1   8
ATOM      8  C   UNL     1     161.753 159.106 139.076  1.00  0.00    -0.077 C 
ATOM      9  C   UNL     1     162.550 159.233 140.349  1.00  0.00     0.039 C 
ATOM     10  C   UNL     1     162.415 159.074 137.905  1.00  0.00     0.008 C 
ENDBRANCH   1   8
BRANCH   5  11
ATOM     11  C   UNL     1     157.644 157.652 140.857  1.00  0.00    -0.077 C 
ATOM     12  C   UNL     1     156.942 156.689 141.482  1.00  0.00     0.008 C 
ATOM     13  C   UNL     1     157.877 158.958 141.580  1.00  0.00     0.039 C 
ENDBRANCH   5  11
BRANCH   4  14
ATOM     14  C   UNL     1     157.426 157.208 137.014  1.00  0.00    -0.028 C 
ATOM     15  C   UNL     1     157.196 155.889 137.000  1.00  0.00     0.004 C 
ENDBRANCH   4  14
TORSDOF 3
ENDMDL
MODEL 3
REMARK VINA RESULT:    -2.231     15.585     18.067
REMARK INTER + INTRA:          -3.166
REMARK INTER:                  -2.649
REMARK INTRA:                  -0.517
REMARK UNBOUND:                -0.544
REMARK SMILES C=C[C@]1(C)CC[C@H](C(=C)C)C[C@H]1C(=C)C
REMARK SMILES IDX 7 1 6 2 5 3 3 4 12 5 11 6 4 7 8 8 10 9 9 10 13 11 14 12
REMARK SMILES IDX 15 13 2 14 1 15
REMARK H PARENT
REMARK Flexibility Score: inf
ROOT
ATOM      1  C   UNL     1     165.802 157.218 139.091  1.00  0.00     0.015 C 
ATOM      2  C   UNL     1     164.581 156.465 138.549  1.00  0.00     0.009 C 
ATOM      3  C   UNL     1     163.748 157.356 137.623  1.00  0.00     0.012 C 
ATOM      4  C   UNL     1     163.286 158.702 138.255  1.00  0.00    -0.008 C 
ATOM      5  C   UNL     1     164.445 159.440 139.054  1.00  0.00     0.024 C 
ATOM      6  C   UNL     1     165.395 158.498 139.847  1.00  0.00     0.017 C 
ATOM      7  C   UNL     1     162.780 159.596 137.088  1.00  0.00     0.016 C 
ENDROOT
BRANCH   1   8
ATOM      8  C   UNL     1     166.665 156.315 139.965  1.00  0.00    -0.077 C 
ATOM      9  C   UNL     1     166.179 155.889 141.326  1.00  0.00     0.039 C 
ATOM     10  C   UNL     1     167.868 155.881 139.548  1.00  0.00     0.008 C 
ENDBRANCH   1   8
BRANCH   5  11
ATOM     11  C   UNL     1     165.252 160.461 138.236  1.00  0.00    -0.077 C 
ATOM     12  C   UNL     1     165.085 161.778 138.457  1.00  0.00     0.008 C 
ATOM     13  C   UNL     1     166.275 160.026 137.213  1.00  0.00     0.039 C 
ENDBRANCH   5  11
BRANCH   4  14
ATOM     14  C   UNL     1     162.054 158.471 139.148  1.00  0.00    -0.028 C 
ATOM     15  C   UNL     1     161.541 159.349 140.019  1.00  0.00     0.004 C 
ENDBRANCH   4  14
TORSDOF 3
ENDMDL
MODEL 4
REMARK VINA RESULT:    -2.187      3.944      6.863
REMARK INTER + INTRA:          -3.114
REMARK INTER:                  -2.598
REMARK INTRA:                  -0.516
REMARK UNBOUND:                -0.544
REMARK SMILES C=C[C@]1(C)CC[C@H](C(=C)C)C[C@H]1C(=C)C
REMARK SMILES IDX 7 1 6 2 5 3 3 4 12 5 11 6 4 7 8 8 10 9 9 10 13 11 14 12
REMARK SMILES IDX 15 13 2 14 1 15
REMARK H PARENT
REMARK Flexibility Score: inf
ROOT
ATOM      1  C   UNL     1     166.210 174.753 139.139  1.00  0.00     0.015 C 
ATOM      2  C   UNL     1     167.441 175.480 138.584  1.00  0.00     0.009 C 
ATOM      3  C   UNL     1     168.248 174.570 137.654  1.00  0.00     0.012 C 
ATOM      4  C   UNL     1     168.689 173.217 138.288  1.00  0.00    -0.008 C 
ATOM      5  C   UNL     1     167.524 172.505 139.100  1.00  0.00     0.024 C 
ATOM      6  C   UNL     1     166.599 173.468 139.898  1.00  0.00     0.017 C 
ATOM      7  C   UNL     1     169.167 172.309 137.120  1.00  0.00     0.016 C 
ENDROOT
BRANCH   1   8
ATOM      8  C   UNL     1     165.373 175.676 140.018  1.00  0.00    -0.077 C 
ATOM      9  C   UNL     1     164.009 176.125 139.561  1.00  0.00     0.039 C 
ATOM     10  C   UNL     1     165.825 176.108 141.208  1.00  0.00     0.008 C 
ENDBRANCH   1   8
BRANCH   5  11
ATOM     11  C   UNL     1     166.689 171.497 138.293  1.00  0.00    -0.077 C 
ATOM     12  C   UNL     1     166.780 170.182 138.567  1.00  0.00     0.008 C 
ATOM     13  C   UNL     1     165.723 171.945 137.222  1.00  0.00     0.039 C 
ENDBRANCH   5  11
BRANCH   4  14
ATOM     14  C   UNL     1     169.933 173.427 139.168  1.00  0.00    -0.028 C 
ATOM     15  C   UNL     1     170.471 172.522 139.996  1.00  0.00     0.004 C 
ENDBRANCH   4  14
TORSDOF 3
ENDMDL
MODEL 5
REMARK VINA RESULT:    -2.120      2.808      6.013
REMARK INTER + INTRA:          -3.035
REMARK INTER:                  -2.519
REMARK INTRA:                  -0.516
REMARK UNBOUND:                -0.544
REMARK SMILES C=C[C@]1(C)CC[C@H](C(=C)C)C[C@H]1C(=C)C
REMARK SMILES IDX 7 1 6 2 5 3 3 4 12 5 11 6 4 7 8 8 10 9 9 10 13 11 14 12
REMARK SMILES IDX 15 13 2 14 1 15
REMARK H PARENT
REMARK Flexibility Score: inf
ROOT
ATOM      1  C   UNL     1     170.872 171.957 138.069  1.00  0.00     0.015 C 
ATOM      2  C   UNL     1     171.163 172.702 139.378  1.00  0.00     0.009 C 
ATOM      3  C   UNL     1     169.892 172.865 140.215  1.00  0.00     0.012 C 
ATOM      4  C   UNL     1     168.711 173.562 139.477  1.00  0.00    -0.008 C 
ATOM      5  C   UNL     1     168.492 173.012 138.002  1.00  0.00     0.024 C 
ATOM      6  C   UNL     1     169.799 172.678 137.229  1.00  0.00     0.017 C 
ATOM      7  C   UNL     1     167.439 173.322 140.338  1.00  0.00     0.016 C 
ENDROOT
BRANCH   1   8
ATOM      8  C   UNL     1     172.147 171.740 137.261  1.00  0.00    -0.077 C 
ATOM      9  C   UNL     1     172.572 170.345 136.879  1.00  0.00     0.039 C 
ATOM     10  C   UNL     1     172.914 172.774 136.875  1.00  0.00     0.008 C 
ENDBRANCH   1   8
BRANCH   5  11
ATOM     11  C   UNL     1     167.480 171.861 137.880  1.00  0.00    -0.077 C 
ATOM     12  C   UNL     1     166.296 172.072 137.275  1.00  0.00     0.008 C 
ATOM     13  C   UNL     1     167.795 170.471 138.380  1.00  0.00     0.039 C 
ENDBRANCH   5  11
BRANCH   4  14
ATOM     14  C   UNL     1     168.913 175.088 139.478  1.00  0.00    -0.028 C 
ATOM     15  C   UNL     1     168.197 175.974 138.775  1.00  0.00     0.004 C 
ENDBRANCH   4  14
TORSDOF 3
ENDMDL
MODEL 6
REMARK VINA RESULT:    -2.120      2.880      4.477
REMARK INTER + INTRA:          -3.035
REMARK INTER:                  -2.514
REMARK INTRA:                  -0.521
REMARK UNBOUND:                -0.544
REMARK SMILES C=C[C@]1(C)CC[C@H](C(=C)C)C[C@H]1C(=C)C
REMARK SMILES IDX 7 1 6 2 5 3 3 4 12 5 11 6 4 7 8 8 10 9 9 10 13 11 14 12
REMARK SMILES IDX 15 13 2 14 1 15
REMARK H PARENT
REMARK Flexibility Score: inf
ROOT
ATOM      1  C   UNL     1     168.263 173.508 138.502  1.00  0.00     0.015 C 
ATOM      2  C   UNL     1     168.518 173.179 137.026  1.00  0.00     0.009 C 
ATOM      3  C   UNL     1     169.249 171.843 136.875  1.00  0.00     0.012 C 
ATOM      4  C   UNL     1     170.587 171.740 137.665  1.00  0.00    -0.008 C 
ATOM      5  C   UNL     1     170.473 172.293 139.150  1.00  0.00     0.024 C 
ATOM      6  C   UNL     1     169.574 173.552 139.312  1.00  0.00     0.017 C 
ATOM      7  C   UNL     1     170.987 170.237 137.678  1.00  0.00     0.016 C 
ENDROOT
BRANCH   1   8
ATOM      8  C   UNL     1     167.481 174.809 138.652  1.00  0.00    -0.077 C 
ATOM      9  C   UNL     1     166.043 174.781 139.103  1.00  0.00     0.039 C 
ATOM     10  C   UNL     1     168.048 175.999 138.388  1.00  0.00     0.008 C 
ENDBRANCH   1   8
BRANCH   5  11
ATOM     11  C   UNL     1     170.125 171.238 140.213  1.00  0.00    -0.077 C 
ATOM     12  C   UNL     1     171.051 170.869 141.118  1.00  0.00     0.008 C 
ATOM     13  C   UNL     1     168.745 170.631 140.307  1.00  0.00     0.039 C 
ENDBRANCH   5  11
BRANCH   4  14
ATOM     14  C   UNL     1     171.714 172.448 136.893  1.00  0.00    -0.028 C 
ATOM     15  C   UNL     1     172.919 172.766 137.380  1.00  0.00     0.004 C 
ENDBRANCH   4  14
TORSDOF 3
ENDMDL
MODEL 7
REMARK VINA RESULT:    -2.108      1.925      5.748
REMARK INTER + INTRA:          -3.022
REMARK INTER:                  -2.470
REMARK INTRA:                  -0.552
REMARK UNBOUND:                -0.544
REMARK SMILES C=C[C@]1(C)CC[C@H](C(=C)C)C[C@H]1C(=C)C
REMARK SMILES IDX 7 1 6 2 5 3 3 4 12 5 11 6 4 7 8 8 10 9 9 10 13 11 14 12
REMARK SMILES IDX 15 13 2 14 1 15
REMARK H PARENT
REMARK Flexibility Score: inf
ROOT
ATOM      1  C   UNL     1     171.378 173.092 138.785  1.00  0.00     0.015 C 
ATOM      2  C   UNL     1     171.004 172.383 137.477  1.00  0.00     0.009 C 
ATOM      3  C   UNL     1     169.544 172.648 137.102  1.00  0.00     0.012 C 
ATOM      4  C   UNL     1     168.510 172.274 138.206  1.00  0.00    -0.008 C 
ATOM      5  C   UNL     1     168.945 172.765 139.653  1.00  0.00     0.024 C 
ATOM      6  C   UNL     1     170.467 172.657 139.951  1.00  0.00     0.017 C 
ATOM      7  C   UNL     1     167.160 172.927 137.796  1.00  0.00     0.016 C 
ENDROOT
BRANCH   1   8
ATOM      8  C   UNL     1     172.848 172.879 139.129  1.00  0.00    -0.077 C 
ATOM      9  C   UNL     1     173.573 173.870 140.003  1.00  0.00     0.039 C 
ATOM     10  C   UNL     1     173.527 171.815 138.666  1.00  0.00     0.008 C 
ENDBRANCH   1   8
BRANCH   5  11
ATOM     11  C   UNL     1     168.410 174.149 140.059  1.00  0.00    -0.077 C 
ATOM     12  C   UNL     1     167.459 174.247 141.007  1.00  0.00     0.008 C 
ATOM     13  C   UNL     1     168.959 175.420 139.455  1.00  0.00     0.039 C 
ENDBRANCH   5  11
BRANCH   4  14
ATOM     14  C   UNL     1     168.244 170.759 138.189  1.00  0.00    -0.028 C 
ATOM     15  C   UNL     1     167.878 170.015 139.240  1.00  0.00     0.004 C 
ENDBRANCH   4  14
TORSDOF 3
ENDMDL
MODEL 8
REMARK VINA RESULT:    -2.090     15.601     18.076
REMARK INTER + INTRA:          -3.001
REMARK INTER:                  -2.465
REMARK INTRA:                  -0.536
REMARK UNBOUND:                -0.544
REMARK SMILES C=C[C@]1(C)CC[C@H](C(=C)C)C[C@H]1C(=C)C
REMARK SMILES IDX 7 1 6 2 5 3 3 4 12 5 11 6 4 7 8 8 10 9 9 10 13 11 14 12
REMARK SMILES IDX 15 13 2 14 1 15
REMARK H PARENT
REMARK Flexibility Score: inf
ROOT
ATOM      1  C   UNL     1     161.033 159.056 138.293  1.00  0.00     0.015 C 
ATOM      2  C   UNL     1     161.664 159.662 137.033  1.00  0.00     0.009 C 
ATOM      3  C   UNL     1     163.141 159.277 136.915  1.00  0.00     0.012 C 
ATOM      4  C   UNL     1     164.011 159.641 138.154  1.00  0.00    -0.008 C 
ATOM      5  C   UNL     1     163.315 159.265 139.531  1.00  0.00     0.024 C 
ATOM      6  C   UNL     1     161.777 159.494 139.571  1.00  0.00     0.017 C 
ATOM      7  C   UNL     1     165.355 158.875 138.000  1.00  0.00     0.016 C 
ENDROOT
BRANCH   1   8
ATOM      8  C   UNL     1     159.548 159.388 138.382  1.00  0.00    -0.077 C 
ATOM      9  C   UNL     1     158.677 159.300 137.155  1.00  0.00     0.039 C 
ATOM     10  C   UNL     1     158.984 159.764 139.543  1.00  0.00     0.008 C 
ENDBRANCH   1   8
BRANCH   5  11
ATOM     11  C   UNL     1     163.670 157.874 140.082  1.00  0.00    -0.077 C 
ATOM     12  C   UNL     1     164.499 157.763 141.136  1.00  0.00     0.008 C 
ATOM     13  C   UNL     1     163.072 156.614 139.500  1.00  0.00     0.039 C 
ENDBRANCH   5  11
BRANCH   4  14
ATOM     14  C   UNL     1     164.392 161.132 138.112  1.00  0.00    -0.028 C 
ATOM     15  C   UNL     1     164.632 161.910 139.175  1.00  0.00     0.004 C 
ENDBRANCH   4  14
TORSDOF 3
ENDMDL
MODEL 9
REMARK VINA RESULT:    -2.067     15.589     18.219
REMARK INTER + INTRA:          -2.973
REMARK INTER:                  -2.447
REMARK INTRA:                  -0.526
REMARK UNBOUND:                -0.544
REMARK SMILES C=C[C@]1(C)CC[C@H](C(=C)C)C[C@H]1C(=C)C
REMARK SMILES IDX 7 1 6 2 5 3 3 4 12 5 11 6 4 7 8 8 10 9 9 10 13 11 14 12
REMARK SMILES IDX 15 13 2 14 1 15
REMARK H PARENT
REMARK Flexibility Score: inf
ROOT
ATOM      1  C   UNL     1     161.327 159.860 138.276  1.00  0.00     0.015 C 
ATOM      2  C   UNL     1     161.229 159.054 139.577  1.00  0.00     0.009 C 
ATOM      3  C   UNL     1     162.596 158.927 140.253  1.00  0.00     0.012 C 
ATOM      4  C   UNL     1     163.714 158.322 139.354  1.00  0.00    -0.008 C 
ATOM      5  C   UNL     1     163.731 158.937 137.889  1.00  0.00     0.024 C 
ATOM      6  C   UNL     1     162.327 159.230 137.287  1.00  0.00     0.017 C 
ATOM      7  C   UNL     1     165.066 158.599 140.071  1.00  0.00     0.016 C 
ENDROOT
BRANCH   1   8
ATOM      8  C   UNL     1     159.957 160.039 137.632  1.00  0.00    -0.077 C 
ATOM      9  C   UNL     1     158.883 159.001 137.833  1.00  0.00     0.039 C 
ATOM     10  C   UNL     1     159.675 161.116 136.877  1.00  0.00     0.008 C 
ENDBRANCH   1   8
BRANCH   5  11
ATOM     11  C   UNL     1     164.664 160.145 137.700  1.00  0.00    -0.077 C 
ATOM     12  C   UNL     1     165.832 159.992 137.049  1.00  0.00     0.008 C 
ATOM     13  C   UNL     1     164.284 161.524 138.184  1.00  0.00     0.039 C 
ENDBRANCH   5  11
BRANCH   4  14
ATOM     14  C   UNL     1     163.588 156.789 139.313  1.00  0.00    -0.028 C 
ATOM     15  C   UNL     1     164.148 155.980 138.405  1.00  0.00     0.004 C 
ENDBRANCH   4  14
TORSDOF 3
ENDMDL
