MODEL 1
REMARK VINA RESULT:    -5.239      0.000      0.000
REMARK INTER + INTRA:          -8.987
REMARK INTER:                  -8.302
REMARK INTRA:                  -0.685
REMARK UNBOUND:                -0.685
REMARK SMILES CCCCCCCCCCCC(=O)[O-]
REMARK SMILES IDX 7 1 8 2 9 3 10 4 11 5 12 6 13 7 14 8 6 9 5 10 4 11 3 12 2 13
REMARK SMILES IDX 1 14
REMARK H PARENT
REMARK Flexibility Score: inf
ROOT
ATOM      1  C   UNL     1      21.349  11.419  10.664  1.00  0.00     0.000 C 
ENDROOT
BRANCH   1   2
ATOM      2  C   UNL     1      22.531  12.346  10.338  1.00  0.00     0.000 C 
BRANCH   2   3
ATOM      3  C   UNL     1      22.586  12.735   8.851  1.00  0.00     0.000 C 
BRANCH   3   4
ATOM      4  C   UNL     1      23.929  13.373   8.451  1.00  0.00     0.006 C 
BRANCH   4   5
ATOM      5  C   UNL     1      25.038  13.232   9.505  1.00  0.00     0.053 C 
BRANCH   5   6
ATOM      6  C   UNL     1      26.352  13.756   9.012  1.00  0.00     0.041 C 
ATOM      7  O   UNL     1      26.681  13.608   7.806  1.00  0.00    -0.550 OA
ATOM      8  O   UNL     1      27.227  14.380   9.891  1.00  0.00    -0.550 OA
ENDBRANCH   5   6
ENDBRANCH   4   5
ENDBRANCH   3   4
ENDBRANCH   2   3
ENDBRANCH   1   2
BRANCH   1   9
ATOM      9  C   UNL     1      21.796  10.015  11.099  1.00  0.00     0.000 C 
BRANCH   9  10
ATOM     10  C   UNL     1      22.687  10.086  12.346  1.00  0.00    -0.000 C 
BRANCH  10  11
ATOM     11  C   UNL     1      22.141   9.186  13.465  1.00  0.00    -0.000 C 
BRANCH  11  12
ATOM     12  C   UNL     1      21.062   8.212  12.968  1.00  0.00    -0.000 C 
BRANCH  12  13
ATOM     13  C   UNL     1      19.775   8.277  13.804  1.00  0.00    -0.003 C 
ATOM     14  C   UNL     1      19.096   9.636  13.664  1.00  0.00     0.004 C 
ENDBRANCH  12  13
ENDBRANCH  11  12
ENDBRANCH  10  11
ENDBRANCH   9  10
ENDBRANCH   1   9
TORSDOF 10
ENDMDL
MODEL 2
REMARK VINA RESULT:    -5.236      2.374      3.194
REMARK INTER + INTRA:          -8.982
REMARK INTER:                  -8.180
REMARK INTRA:                  -0.802
REMARK UNBOUND:                -0.685
REMARK SMILES CCCCCCCCCCCC(=O)[O-]
REMARK SMILES IDX 7 1 8 2 9 3 10 4 11 5 12 6 13 7 14 8 6 9 5 10 4 11 3 12 2 13
REMARK SMILES IDX 1 14
REMARK H PARENT
REMARK Flexibility Score: inf
ROOT
ATOM      1  C   UNL     1      23.992  11.037  13.234  1.00  0.00     0.000 C 
ENDROOT
BRANCH   1   2
ATOM      2  C   UNL     1      25.449  11.361  12.867  1.00  0.00     0.000 C 
BRANCH   2   3
ATOM      3  C   UNL     1      25.567  12.135  11.542  1.00  0.00     0.000 C 
BRANCH   3   4
ATOM      4  C   UNL     1      24.252  12.826  11.137  1.00  0.00     0.006 C 
BRANCH   4   5
ATOM      5  C   UNL     1      24.187  13.256   9.663  1.00  0.00     0.053 C 
BRANCH   5   6
ATOM      6  C   UNL     1      22.796  13.623   9.246  1.00  0.00     0.041 C 
ATOM      7  O   UNL     1      21.985  14.092  10.087  1.00  0.00    -0.550 OA
ATOM      8  O   UNL     1      22.386  13.418   7.935  1.00  0.00    -0.550 OA
ENDBRANCH   5   6
ENDBRANCH   4   5
ENDBRANCH   3   4
ENDBRANCH   2   3
ENDBRANCH   1   2
BRANCH   1   9
ATOM      9  C   UNL     1      23.790   9.563  13.614  1.00  0.00     0.000 C 
BRANCH   9  10
ATOM     10  C   UNL     1      22.842   8.867  12.629  1.00  0.00    -0.000 C 
BRANCH  10  11
ATOM     11  C   UNL     1      21.842   9.865  12.028  1.00  0.00    -0.000 C 
BRANCH  11  12
ATOM     12  C   UNL     1      20.479   9.836  12.736  1.00  0.00    -0.000 C 
BRANCH  12  13
ATOM     13  C   UNL     1      20.156   8.463  13.344  1.00  0.00    -0.003 C 
ATOM     14  C   UNL     1      19.182   8.594  14.511  1.00  0.00     0.004 C 
ENDBRANCH  12  13
ENDBRANCH  11  12
ENDBRANCH  10  11
ENDBRANCH   9  10
ENDBRANCH   1   9
TORSDOF 10
ENDMDL
MODEL 3
REMARK VINA RESULT:    -5.003      4.138      7.574
REMARK INTER + INTRA:          -8.612
REMARK INTER:                  -8.069
REMARK INTRA:                  -0.544
REMARK UNBOUND:                -0.685
REMARK SMILES CCCCCCCCCCCC(=O)[O-]
REMARK SMILES IDX 7 1 8 2 9 3 10 4 11 5 12 6 13 7 14 8 6 9 5 10 4 11 3 12 2 13
REMARK SMILES IDX 1 14
REMARK H PARENT
REMARK Flexibility Score: inf
ROOT
ATOM      1  C   UNL     1      21.674  11.676  10.304  1.00  0.00     0.000 C 
ENDROOT
BRANCH   1   2
ATOM      2  C   UNL     1      22.194  11.020  11.593  1.00  0.00     0.000 C 
BRANCH   2   3
ATOM      3  C   UNL     1      22.106   9.484  11.551  1.00  0.00     0.000 C 
BRANCH   3   4
ATOM      4  C   UNL     1      21.952   8.859  12.950  1.00  0.00     0.006 C 
BRANCH   4   5
ATOM      5  C   UNL     1      20.665   8.042  13.144  1.00  0.00     0.053 C 
BRANCH   5   6
ATOM      6  C   UNL     1      19.605   8.825  13.856  1.00  0.00     0.041 C 
ATOM      7  O   UNL     1      19.250   9.953  13.422  1.00  0.00    -0.550 OA
ATOM      8  O   UNL     1      19.031   8.324  15.017  1.00  0.00    -0.550 OA
ENDBRANCH   5   6
ENDBRANCH   4   5
ENDBRANCH   3   4
ENDBRANCH   2   3
ENDBRANCH   1   2
BRANCH   1   9
ATOM      9  C   UNL     1      22.655  12.706   9.725  1.00  0.00     0.000 C 
BRANCH   9  10
ATOM     10  C   UNL     1      23.851  12.914  10.664  1.00  0.00    -0.000 C 
BRANCH  10  11
ATOM     11  C   UNL     1      25.138  13.172   9.868  1.00  0.00    -0.000 C 
BRANCH  11  12
ATOM     12  C   UNL     1      24.865  13.541   8.402  1.00  0.00    -0.000 C 
BRANCH  12  13
ATOM     13  C   UNL     1      26.084  14.169   7.711  1.00  0.00    -0.003 C 
ATOM     14  C   UNL     1      26.125  15.678   7.933  1.00  0.00     0.004 C 
ENDBRANCH  12  13
ENDBRANCH  11  12
ENDBRANCH  10  11
ENDBRANCH   9  10
ENDBRANCH   1   9
TORSDOF 10
ENDMDL
MODEL 4
REMARK VINA RESULT:    -4.924      4.255      7.044
REMARK INTER + INTRA:          -8.488
REMARK INTER:                  -7.794
REMARK INTRA:                  -0.694
REMARK UNBOUND:                -0.685
REMARK SMILES CCCCCCCCCCCC(=O)[O-]
REMARK SMILES IDX 7 1 8 2 9 3 10 4 11 5 12 6 13 7 14 8 6 9 5 10 4 11 3 12 2 13
REMARK SMILES IDX 1 14
REMARK H PARENT
REMARK Flexibility Score: inf
ROOT
ATOM      1  C   UNL     1      24.723  10.453  13.381  1.00  0.00     0.000 C 
ENDROOT
BRANCH   1   2
ATOM      2  C   UNL     1      23.269   9.964  13.488  1.00  0.00     0.000 C 
BRANCH   2   3
ATOM      3  C   UNL     1      22.431  10.327  12.249  1.00  0.00     0.000 C 
BRANCH   3   4
ATOM      4  C   UNL     1      21.331   9.291  11.951  1.00  0.00     0.006 C 
BRANCH   4   5
ATOM      5  C   UNL     1      20.912   8.442  13.161  1.00  0.00     0.053 C 
BRANCH   5   6
ATOM      6  C   UNL     1      19.668   8.966  13.811  1.00  0.00     0.041 C 
ATOM      7  O   UNL     1      19.136  10.029  13.397  1.00  0.00    -0.550 OA
ATOM      8  O   UNL     1      19.114   8.295  14.894  1.00  0.00    -0.550 OA
ENDBRANCH   5   6
ENDBRANCH   4   5
ENDBRANCH   3   4
ENDBRANCH   2   3
ENDBRANCH   1   2
BRANCH   1   9
ATOM      9  C   UNL     1      24.837  11.837  12.724  1.00  0.00     0.000 C 
BRANCH   9  10
ATOM     10  C   UNL     1      26.053  11.902  11.791  1.00  0.00    -0.000 C 
BRANCH  10  11
ATOM     11  C   UNL     1      25.840  12.943  10.682  1.00  0.00    -0.000 C 
BRANCH  11  12
ATOM     12  C   UNL     1      24.368  13.066  10.260  1.00  0.00    -0.000 C 
BRANCH  12  13
ATOM     13  C   UNL     1      24.205  13.397   8.769  1.00  0.00    -0.003 C 
ATOM     14  C   UNL     1      22.883  12.861   8.228  1.00  0.00     0.004 C 
ENDBRANCH  12  13
ENDBRANCH  11  12
ENDBRANCH  10  11
ENDBRANCH   9  10
ENDBRANCH   1   9
TORSDOF 10
ENDMDL
MODEL 5
REMARK VINA RESULT:    -4.800      1.560      2.508
REMARK INTER + INTRA:          -8.292
REMARK INTER:                  -7.587
REMARK INTRA:                  -0.705
REMARK UNBOUND:                -0.685
REMARK SMILES CCCCCCCCCCCC(=O)[O-]
REMARK SMILES IDX 7 1 8 2 9 3 10 4 11 5 12 6 13 7 14 8 6 9 5 10 4 11 3 12 2 13
REMARK SMILES IDX 1 14
REMARK H PARENT
REMARK Flexibility Score: inf
ROOT
ATOM      1  C   UNL     1      24.643  11.834  12.367  1.00  0.00     0.000 C 
ENDROOT
BRANCH   1   2
ATOM      2  C   UNL     1      26.078  12.090  11.878  1.00  0.00     0.000 C 
BRANCH   2   3
ATOM      3  C   UNL     1      26.120  12.785  10.506  1.00  0.00     0.000 C 
BRANCH   3   4
ATOM      4  C   UNL     1      24.722  13.183   9.997  1.00  0.00     0.006 C 
BRANCH   4   5
ATOM      5  C   UNL     1      24.628  13.367   8.474  1.00  0.00     0.053 C 
BRANCH   5   6
ATOM      6  C   UNL     1      25.719  14.248   7.947  1.00  0.00     0.041 C 
ATOM      7  O   UNL     1      25.739  15.473   8.233  1.00  0.00    -0.550 OA
ATOM      8  O   UNL     1      26.697  13.721   7.112  1.00  0.00    -0.550 OA
ENDBRANCH   5   6
ENDBRANCH   4   5
ENDBRANCH   3   4
ENDBRANCH   2   3
ENDBRANCH   1   2
BRANCH   1   9
ATOM      9  C   UNL     1      24.556  10.676  13.372  1.00  0.00     0.000 C 
BRANCH   9  10
ATOM     10  C   UNL     1      23.257   9.882  13.185  1.00  0.00    -0.000 C 
BRANCH  10  11
ATOM     11  C   UNL     1      22.490  10.365  11.945  1.00  0.00    -0.000 C 
BRANCH  11  12
ATOM     12  C   UNL     1      20.969  10.212  12.092  1.00  0.00    -0.000 C 
BRANCH  12  13
ATOM     13  C   UNL     1      20.579   9.145  13.126  1.00  0.00    -0.003 C 
ATOM     14  C   UNL     1      19.228   9.462  13.761  1.00  0.00     0.004 C 
ENDBRANCH  12  13
ENDBRANCH  11  12
ENDBRANCH  10  11
ENDBRANCH   9  10
ENDBRANCH   1   9
TORSDOF 10
ENDMDL
MODEL 6
REMARK VINA RESULT:    -4.800      1.841      3.141
REMARK INTER + INTRA:          -8.291
REMARK INTER:                  -7.531
REMARK INTRA:                  -0.761
REMARK UNBOUND:                -0.685
REMARK SMILES CCCCCCCCCCCC(=O)[O-]
REMARK SMILES IDX 7 1 8 2 9 3 10 4 11 5 12 6 13 7 14 8 6 9 5 10 4 11 3 12 2 13
REMARK SMILES IDX 1 14
REMARK H PARENT
REMARK Flexibility Score: inf
ROOT
ATOM      1  C   UNL     1      24.179  11.076  12.917  1.00  0.00     0.000 C 
ENDROOT
BRANCH   1   2
ATOM      2  C   UNL     1      25.592  11.565  13.272  1.00  0.00     0.000 C 
BRANCH   2   3
ATOM      3  C   UNL     1      26.372  12.064  12.042  1.00  0.00     0.000 C 
BRANCH   3   4
ATOM      4  C   UNL     1      25.452  12.629  10.944  1.00  0.00     0.006 C 
BRANCH   4   5
ATOM      5  C   UNL     1      26.192  13.160   9.706  1.00  0.00     0.053 C 
BRANCH   5   6
ATOM      6  C   UNL     1      25.250  13.730   8.691  1.00  0.00     0.041 C 
ATOM      7  O   UNL     1      25.499  14.838   8.147  1.00  0.00    -0.550 OA
ATOM      8  O   UNL     1      24.080  13.054   8.369  1.00  0.00    -0.550 OA
ENDBRANCH   5   6
ENDBRANCH   4   5
ENDBRANCH   3   4
ENDBRANCH   2   3
ENDBRANCH   1   2
BRANCH   1   9
ATOM      9  C   UNL     1      23.829   9.736  13.582  1.00  0.00     0.000 C 
BRANCH   9  10
ATOM     10  C   UNL     1      22.874   8.920  12.702  1.00  0.00    -0.000 C 
BRANCH  10  11
ATOM     11  C   UNL     1      21.415   9.124  13.135  1.00  0.00    -0.000 C 
BRANCH  11  12
ATOM     12  C   UNL     1      20.678  10.156  12.267  1.00  0.00    -0.000 C 
BRANCH  12  13
ATOM     13  C   UNL     1      21.263  10.264  10.851  1.00  0.00    -0.003 C 
ATOM     14  C   UNL     1      21.701  11.693  10.545  1.00  0.00     0.004 C 
ENDBRANCH  12  13
ENDBRANCH  11  12
ENDBRANCH  10  11
ENDBRANCH   9  10
ENDBRANCH   1   9
TORSDOF 10
ENDMDL
MODEL 7
REMARK VINA RESULT:    -4.765      2.588      6.619
REMARK INTER + INTRA:          -8.235
REMARK INTER:                  -7.605
REMARK INTRA:                  -0.630
REMARK UNBOUND:                -0.685
REMARK SMILES CCCCCCCCCCCC(=O)[O-]
REMARK SMILES IDX 7 1 8 2 9 3 10 4 11 5 12 6 13 7 14 8 6 9 5 10 4 11 3 12 2 13
REMARK SMILES IDX 1 14
REMARK H PARENT
REMARK Flexibility Score: inf
ROOT
ATOM      1  C   UNL     1      22.280  12.789  10.341  1.00  0.00     0.000 C 
ENDROOT
BRANCH   1   2
ATOM      2  C   UNL     1      21.869  11.327  10.102  1.00  0.00     0.000 C 
BRANCH   2   3
ATOM      3  C   UNL     1      21.014  10.758  11.248  1.00  0.00     0.000 C 
BRANCH   3   4
ATOM      4  C   UNL     1      21.620   9.486  11.869  1.00  0.00     0.006 C 
BRANCH   4   5
ATOM      5  C   UNL     1      22.097   9.652  13.320  1.00  0.00     0.053 C 
BRANCH   5   6
ATOM      6  C   UNL     1      23.561   9.960  13.398  1.00  0.00     0.041 C 
ATOM      7  O   UNL     1      24.365   9.108  13.859  1.00  0.00    -0.550 OA
ATOM      8  O   UNL     1      24.033  11.202  12.991  1.00  0.00    -0.550 OA
ENDBRANCH   5   6
ENDBRANCH   4   5
ENDBRANCH   3   4
ENDBRANCH   2   3
ENDBRANCH   1   2
BRANCH   1   9
ATOM      9  C   UNL     1      22.515  13.560   9.034  1.00  0.00     0.000 C 
BRANCH   9  10
ATOM     10  C   UNL     1      23.944  13.343   8.518  1.00  0.00    -0.000 C 
BRANCH  10  11
ATOM     11  C   UNL     1      24.934  13.197   9.682  1.00  0.00    -0.000 C 
BRANCH  11  12
ATOM     12  C   UNL     1      26.370  13.578   9.290  1.00  0.00    -0.000 C 
BRANCH  12  13
ATOM     13  C   UNL     1      26.456  14.194   7.886  1.00  0.00    -0.003 C 
ATOM     14  C   UNL     1      26.736  15.692   7.960  1.00  0.00     0.004 C 
ENDBRANCH  12  13
ENDBRANCH  11  12
ENDBRANCH  10  11
ENDBRANCH   9  10
ENDBRANCH   1   9
TORSDOF 10
ENDMDL
MODEL 8
REMARK VINA RESULT:    -4.755      1.323      2.441
REMARK INTER + INTRA:          -8.219
REMARK INTER:                  -7.867
REMARK INTRA:                  -0.352
REMARK UNBOUND:                -0.685
REMARK SMILES CCCCCCCCCCCC(=O)[O-]
REMARK SMILES IDX 7 1 8 2 9 3 10 4 11 5 12 6 13 7 14 8 6 9 5 10 4 11 3 12 2 13
REMARK SMILES IDX 1 14
REMARK H PARENT
REMARK Flexibility Score: inf
ROOT
ATOM      1  C   UNL     1      22.738  12.777   8.822  1.00  0.00     0.000 C 
ENDROOT
BRANCH   1   2
ATOM      2  C   UNL     1      24.134  13.346   8.526  1.00  0.00     0.000 C 
BRANCH   2   3
ATOM      3  C   UNL     1      25.113  13.153   9.698  1.00  0.00     0.000 C 
BRANCH   3   4
ATOM      4  C   UNL     1      26.576  13.421   9.302  1.00  0.00     0.006 C 
BRANCH   4   5
ATOM      5  C   UNL     1      26.989  14.900   9.355  1.00  0.00     0.053 C 
BRANCH   5   6
ATOM      6  C   UNL     1      26.861  15.568   8.020  1.00  0.00     0.041 C 
ATOM      7  O   UNL     1      25.940  16.401   7.814  1.00  0.00    -0.550 OA
ATOM      8  O   UNL     1      27.740  15.246   6.994  1.00  0.00    -0.550 OA
ENDBRANCH   5   6
ENDBRANCH   4   5
ENDBRANCH   3   4
ENDBRANCH   2   3
ENDBRANCH   1   2
BRANCH   1   9
ATOM      9  C   UNL     1      22.550  12.403  10.300  1.00  0.00     0.000 C 
BRANCH   9  10
ATOM     10  C   UNL     1      21.460  11.336  10.463  1.00  0.00    -0.000 C 
BRANCH  10  11
ATOM     11  C   UNL     1      21.783  10.391  11.629  1.00  0.00    -0.000 C 
BRANCH  11  12
ATOM     12  C   UNL     1      20.564  10.112  12.521  1.00  0.00    -0.000 C 
BRANCH  12  13
ATOM     13  C   UNL     1      20.715   8.824  13.344  1.00  0.00    -0.003 C 
ATOM     14  C   UNL     1      19.444   8.522  14.131  1.00  0.00     0.004 C 
ENDBRANCH  12  13
ENDBRANCH  11  12
ENDBRANCH  10  11
ENDBRANCH   9  10
ENDBRANCH   1   9
TORSDOF 10
ENDMDL
MODEL 9
REMARK VINA RESULT:    -4.720      1.483      2.026
REMARK INTER + INTRA:          -8.164
REMARK INTER:                  -7.659
REMARK INTRA:                  -0.505
REMARK UNBOUND:                -0.685
REMARK SMILES CCCCCCCCCCCC(=O)[O-]
REMARK SMILES IDX 7 1 8 2 9 3 10 4 11 5 12 6 13 7 14 8 6 9 5 10 4 11 3 12 2 13
REMARK SMILES IDX 1 14
REMARK H PARENT
REMARK Flexibility Score: inf
ROOT
ATOM      1  C   UNL     1      22.101  13.082  10.246  1.00  0.00     0.000 C 
ENDROOT
BRANCH   1   2
ATOM      2  C   UNL     1      22.561  13.575   8.864  1.00  0.00     0.000 C 
BRANCH   2   3
ATOM      3  C   UNL     1      23.997  13.136   8.528  1.00  0.00     0.000 C 
BRANCH   3   4
ATOM      4  C   UNL     1      25.048  13.779   9.452  1.00  0.00     0.006 C 
BRANCH   4   5
ATOM      5  C   UNL     1      26.416  13.079   9.444  1.00  0.00     0.053 C 
BRANCH   5   6
ATOM      6  C   UNL     1      26.680  12.346  10.723  1.00  0.00     0.041 C 
ATOM      7  O   UNL     1      27.797  11.801  10.922  1.00  0.00    -0.550 OA
ATOM      8  O   UNL     1      25.680  12.237  11.681  1.00  0.00    -0.550 OA
ENDBRANCH   5   6
ENDBRANCH   4   5
ENDBRANCH   3   4
ENDBRANCH   2   3
ENDBRANCH   1   2
BRANCH   1   9
ATOM      9  C   UNL     1      22.372  11.586  10.463  1.00  0.00     0.000 C 
BRANCH   9  10
ATOM     10  C   UNL     1      21.176  10.903  11.139  1.00  0.00    -0.000 C 
BRANCH  10  11
ATOM     11  C   UNL     1      21.526   9.469  11.560  1.00  0.00    -0.000 C 
BRANCH  11  12
ATOM     12  C   UNL     1      21.407   9.251  13.076  1.00  0.00    -0.000 C 
BRANCH  12  13
ATOM     13  C   UNL     1      20.362   8.187  13.442  1.00  0.00    -0.003 C 
ATOM     14  C   UNL     1      19.133   8.822  14.085  1.00  0.00     0.004 C 
ENDBRANCH  12  13
ENDBRANCH  11  12
ENDBRANCH  10  11
ENDBRANCH   9  10
ENDBRANCH   1   9
TORSDOF 10
ENDMDL
