MODEL 1
REMARK VINA RESULT:    -7.123      0.000      0.000
REMARK INTER + INTRA:          -8.744
REMARK INTER:                  -8.581
REMARK INTRA:                  -0.163
REMARK UNBOUND:                -0.163
REMARK SMILES O=c1c(O)c(-c2ccc(O)c(O)c2)oc2cc(O)cc(O)c12
REMARK SMILES IDX 5 1 3 2 2 3 1 4 22 5 20 6 19 7 17 8 16 9 15 10 14 11 6 12
REMARK SMILES IDX 7 13 8 14 9 15 13 16 11 17 10 18 12 20 4 22 21 24 18 26
REMARK H PARENT 10 19 12 21 4 23 21 25 18 27
REMARK Flexibility Score: inf
ROOT
ATOM      1  C   UNL     1      -1.042  13.347   5.835  1.00  0.00     0.180 A 
ATOM      2  C   UNL     1      -1.589  12.321   6.624  1.00  0.00     0.208 A 
ATOM      3  C   UNL     1      -2.952  12.375   6.962  1.00  0.00     0.238 A 
ATOM      4  O   UNL     1      -3.423  11.482   7.713  1.00  0.00    -0.285 OA
ATOM      5  C   UNL     1      -3.751  13.446   6.496  1.00  0.00     0.111 A 
ATOM      6  C   UNL     1      -5.151  13.580   6.743  1.00  0.00     0.134 A 
ATOM      7  C   UNL     1      -5.813  14.747   6.343  1.00  0.00     0.093 A 
ATOM      8  C   UNL     1      -5.143  15.754   5.646  1.00  0.00     0.123 A 
ATOM      9  C   UNL     1      -3.790  15.605   5.347  1.00  0.00     0.094 A 
ATOM     10  C   UNL     1      -3.092  14.469   5.764  1.00  0.00     0.146 A 
ATOM     11  O   UNL     1      -1.803  14.372   5.468  1.00  0.00    -0.452 OA
ENDROOT
BRANCH   1  12
ATOM     12  C   UNL     1       0.378  13.347   5.417  1.00  0.00     0.025 A 
ATOM     13  C   UNL     1       1.384  13.508   6.383  1.00  0.00     0.016 A 
ATOM     14  C   UNL     1       2.729  13.531   6.007  1.00  0.00     0.051 A 
ATOM     15  C   UNL     1       3.090  13.408   4.663  1.00  0.00     0.157 A 
ATOM     16  C   UNL     1       0.743  13.243   4.062  1.00  0.00     0.062 A 
ATOM     17  C   UNL     1       2.093  13.269   3.683  1.00  0.00     0.158 A 
BRANCH  15  18
ATOM     18  O   UNL     1       4.442  13.432   4.319  1.00  0.00    -0.504 OA
ATOM     19  H   UNL     1       4.850  12.745   3.695  1.00  0.00     0.293 HD
ENDBRANCH  15  18
BRANCH  17  20
ATOM     20  O   UNL     1       2.446  13.160   2.339  1.00  0.00    -0.504 OA
ATOM     21  H   UNL     1       3.380  13.385   2.015  1.00  0.00     0.293 HD
ENDBRANCH  17  20
ENDBRANCH   1  12
BRANCH   2  22
ATOM     22  O   UNL     1      -0.778  11.284   7.093  1.00  0.00    -0.502 OA
ATOM     23  H   UNL     1      -0.046  11.433   7.777  1.00  0.00     0.293 HD
ENDBRANCH   2  22
BRANCH   6  24
ATOM     24  O   UNL     1      -5.934  12.594   7.350  1.00  0.00    -0.507 OA
ATOM     25  H   UNL     1      -6.765  12.774   7.893  1.00  0.00     0.293 HD
ENDBRANCH   6  24
BRANCH   8  26
ATOM     26  O   UNL     1      -5.814  16.905   5.237  1.00  0.00    -0.508 OA
ATOM     27  H   UNL     1      -5.510  17.827   5.529  1.00  0.00     0.293 HD
ENDBRANCH   8  26
TORSDOF 6
ENDMDL
MODEL 2
REMARK VINA RESULT:    -6.434      4.723      5.729
REMARK INTER + INTRA:          -7.914
REMARK INTER:                  -7.620
REMARK INTRA:                  -0.294
REMARK UNBOUND:                -0.163
REMARK SMILES O=c1c(O)c(-c2ccc(O)c(O)c2)oc2cc(O)cc(O)c12
REMARK SMILES IDX 5 1 3 2 2 3 1 4 22 5 20 6 19 7 17 8 16 9 15 10 14 11 6 12
REMARK SMILES IDX 7 13 8 14 9 15 13 16 11 17 10 18 12 20 4 22 21 24 18 26
REMARK H PARENT 10 19 12 21 4 23 21 25 18 27
REMARK Flexibility Score: inf
ROOT
ATOM      1  C   UNL     1       0.765  14.458   1.201  1.00  0.00     0.180 A 
ATOM      2  C   UNL     1       0.637  13.487   0.193  1.00  0.00     0.208 A 
ATOM      3  C   UNL     1      -0.619  13.286  -0.403  1.00  0.00     0.238 A 
ATOM      4  O   UNL     1      -0.739  12.379  -1.267  1.00  0.00    -0.285 OA
ATOM      5  C   UNL     1      -1.726  14.068   0.006  1.00  0.00     0.111 A 
ATOM      6  C   UNL     1      -3.034  13.977  -0.558  1.00  0.00     0.134 A 
ATOM      7  C   UNL     1      -4.084  14.707   0.014  1.00  0.00     0.093 A 
ATOM      8  C   UNL     1      -3.859  15.575   1.084  1.00  0.00     0.123 A 
ATOM      9  C   UNL     1      -2.574  15.716   1.603  1.00  0.00     0.094 A 
ATOM     10  C   UNL     1      -1.512  14.973   1.078  1.00  0.00     0.146 A 
ATOM     11  O   UNL     1      -0.306  15.129   1.608  1.00  0.00    -0.452 OA
ENDROOT
BRANCH   1  12
ATOM     12  C   UNL     1       2.060  14.746   1.858  1.00  0.00     0.025 A 
ATOM     13  C   UNL     1       2.508  13.914   2.897  1.00  0.00     0.016 A 
ATOM     14  C   UNL     1       3.717  14.179   3.544  1.00  0.00     0.051 A 
ATOM     15  C   UNL     1       4.490  15.284   3.176  1.00  0.00     0.157 A 
ATOM     16  C   UNL     1       2.829  15.868   1.502  1.00  0.00     0.062 A 
ATOM     17  C   UNL     1       4.043  16.137   2.152  1.00  0.00     0.158 A 
BRANCH  15  18
ATOM     18  O   UNL     1       5.694  15.521   3.838  1.00  0.00    -0.504 OA
ATOM     19  H   UNL     1       6.552  15.045   3.582  1.00  0.00     0.293 HD
ENDBRANCH  15  18
BRANCH  17  20
ATOM     20  O   UNL     1       4.801  17.249   1.790  1.00  0.00    -0.504 OA
ATOM     21  H   UNL     1       5.133  17.913   2.480  1.00  0.00     0.293 HD
ENDBRANCH  17  20
ENDBRANCH   1  12
BRANCH   2  22
ATOM     22  O   UNL     1       1.738  12.711  -0.180  1.00  0.00    -0.502 OA
ATOM     23  H   UNL     1       1.795  11.719   0.013  1.00  0.00     0.293 HD
ENDBRANCH   2  22
BRANCH   6  24
ATOM     24  O   UNL     1      -3.347  13.211  -1.684  1.00  0.00    -0.507 OA
ATOM     25  H   UNL     1      -3.195  12.216  -1.763  1.00  0.00     0.293 HD
ENDBRANCH   6  24
BRANCH   8  26
ATOM     26  O   UNL     1      -4.906  16.310   1.636  1.00  0.00    -0.508 OA
ATOM     27  H   UNL     1      -5.873  16.107   1.410  1.00  0.00     0.293 HD
ENDBRANCH   8  26
TORSDOF 6
ENDMDL
MODEL 3
REMARK VINA RESULT:    -6.387      4.745      5.808
REMARK INTER + INTRA:          -7.856
REMARK INTER:                  -7.597
REMARK INTRA:                  -0.259
REMARK UNBOUND:                -0.163
REMARK SMILES O=c1c(O)c(-c2ccc(O)c(O)c2)oc2cc(O)cc(O)c12
REMARK SMILES IDX 5 1 3 2 2 3 1 4 22 5 20 6 19 7 17 8 16 9 15 10 14 11 6 12
REMARK SMILES IDX 7 13 8 14 9 15 13 16 11 17 10 18 12 20 4 22 21 24 18 26
REMARK H PARENT 10 19 12 21 4 23 21 25 18 27
REMARK Flexibility Score: inf
ROOT
ATOM      1  C   UNL     1       0.642  14.379   1.130  1.00  0.00     0.180 A 
ATOM      2  C   UNL     1       0.564  13.400   0.125  1.00  0.00     0.208 A 
ATOM      3  C   UNL     1      -0.657  13.201  -0.539  1.00  0.00     0.238 A 
ATOM      4  O   UNL     1      -0.734  12.286  -1.401  1.00  0.00    -0.285 OA
ATOM      5  C   UNL     1      -1.780  13.994  -0.201  1.00  0.00     0.111 A 
ATOM      6  C   UNL     1      -3.055  13.907  -0.837  1.00  0.00     0.134 A 
ATOM      7  C   UNL     1      -4.130  14.649  -0.333  1.00  0.00     0.093 A 
ATOM      8  C   UNL     1      -3.960  15.525   0.741  1.00  0.00     0.123 A 
ATOM      9  C   UNL     1      -2.705  15.662   1.330  1.00  0.00     0.094 A 
ATOM     10  C   UNL     1      -1.621  14.908   0.874  1.00  0.00     0.146 A 
ATOM     11  O   UNL     1      -0.446  15.061   1.469  1.00  0.00    -0.452 OA
ENDROOT
BRANCH   1  12
ATOM     12  C   UNL     1       1.900  14.664   1.857  1.00  0.00     0.025 A 
ATOM     13  C   UNL     1       2.649  15.803   1.522  1.00  0.00     0.016 A 
ATOM     14  C   UNL     1       3.850  16.079   2.181  1.00  0.00     0.051 A 
ATOM     15  C   UNL     1       4.327  15.217   3.172  1.00  0.00     0.157 A 
ATOM     16  C   UNL     1       2.392  13.787   2.841  1.00  0.00     0.062 A 
ATOM     17  C   UNL     1       3.599  14.062   3.502  1.00  0.00     0.158 A 
BRANCH  15  18
ATOM     18  O   UNL     1       5.527  15.521   3.815  1.00  0.00    -0.504 OA
ATOM     19  H   UNL     1       5.597  16.262   4.503  1.00  0.00     0.293 HD
ENDBRANCH  15  18
BRANCH  17  20
ATOM     20  O   UNL     1       4.076  13.191   4.480  1.00  0.00    -0.504 OA
ATOM     21  H   UNL     1       4.731  12.450   4.256  1.00  0.00     0.293 HD
ENDBRANCH  17  20
ENDBRANCH   1  12
BRANCH   2  22
ATOM     22  O   UNL     1       1.679  12.612  -0.178  1.00  0.00    -0.502 OA
ATOM     23  H   UNL     1       2.297  12.246   0.535  1.00  0.00     0.293 HD
ENDBRANCH   2  22
BRANCH   6  24
ATOM     24  O   UNL     1      -3.309  13.133  -1.973  1.00  0.00    -0.507 OA
ATOM     25  H   UNL     1      -4.222  12.808  -2.255  1.00  0.00     0.293 HD
ENDBRANCH   6  24
BRANCH   8  26
ATOM     26  O   UNL     1      -5.031  16.272   1.226  1.00  0.00    -0.508 OA
ATOM     27  H   UNL     1      -4.888  17.077   1.826  1.00  0.00     0.293 HD
ENDBRANCH   8  26
TORSDOF 6
ENDMDL
MODEL 4
REMARK VINA RESULT:    -6.346      1.804      6.642
REMARK INTER + INTRA:          -7.808
REMARK INTER:                  -7.936
REMARK INTRA:                   0.128
REMARK UNBOUND:                -0.163
REMARK SMILES O=c1c(O)c(-c2ccc(O)c(O)c2)oc2cc(O)cc(O)c12
REMARK SMILES IDX 5 1 3 2 2 3 1 4 22 5 20 6 19 7 17 8 16 9 15 10 14 11 6 12
REMARK SMILES IDX 7 13 8 14 9 15 13 16 11 17 10 18 12 20 4 22 21 24 18 26
REMARK H PARENT 10 19 12 21 4 23 21 25 18 27
REMARK Flexibility Score: inf
ROOT
ATOM      1  C   UNL     1      -0.445  13.303   5.293  1.00  0.00     0.180 A 
ATOM      2  C   UNL     1       0.858  13.150   5.797  1.00  0.00     0.208 A 
ATOM      3  C   UNL     1       1.947  13.533   4.996  1.00  0.00     0.238 A 
ATOM      4  O   UNL     1       3.112  13.344   5.432  1.00  0.00    -0.285 OA
ATOM      5  C   UNL     1       1.718  14.076   3.709  1.00  0.00     0.111 A 
ATOM      6  C   UNL     1       2.744  14.534   2.829  1.00  0.00     0.134 A 
ATOM      7  C   UNL     1       2.411  14.931   1.528  1.00  0.00     0.093 A 
ATOM      8  C   UNL     1       1.083  14.950   1.098  1.00  0.00     0.123 A 
ATOM      9  C   UNL     1       0.068  14.561   1.969  1.00  0.00     0.094 A 
ATOM     10  C   UNL     1       0.371  14.125   3.262  1.00  0.00     0.146 A 
ATOM     11  O   UNL     1      -0.624  13.754   4.056  1.00  0.00    -0.452 OA
ENDROOT
BRANCH   1  12
ATOM     12  C   UNL     1      -1.643  12.946   6.086  1.00  0.00     0.025 A 
ATOM     13  C   UNL     1      -1.668  11.735   6.795  1.00  0.00     0.016 A 
ATOM     14  C   UNL     1      -2.796  11.369   7.533  1.00  0.00     0.051 A 
ATOM     15  C   UNL     1      -3.921  12.199   7.563  1.00  0.00     0.157 A 
ATOM     16  C   UNL     1      -2.783  13.770   6.101  1.00  0.00     0.062 A 
ATOM     17  C   UNL     1      -3.919  13.404   6.840  1.00  0.00     0.158 A 
BRANCH  15  18
ATOM     18  O   UNL     1      -5.031  11.808   8.311  1.00  0.00    -0.504 OA
ATOM     19  H   UNL     1      -5.974  12.089   8.062  1.00  0.00     0.293 HD
ENDBRANCH  15  18
BRANCH  17  20
ATOM     20  O   UNL     1      -5.042  14.228   6.854  1.00  0.00    -0.504 OA
ATOM     21  H   UNL     1      -5.165  14.970   6.174  1.00  0.00     0.293 HD
ENDBRANCH  17  20
ENDBRANCH   1  12
BRANCH   2  22
ATOM     22  O   UNL     1       1.062  12.592   7.061  1.00  0.00    -0.502 OA
ATOM     23  H   UNL     1       0.297  12.311   7.663  1.00  0.00     0.293 HD
ENDBRANCH   2  22
BRANCH   6  24
ATOM     24  O   UNL     1       4.091  14.642   3.189  1.00  0.00    -0.507 OA
ATOM     25  H   UNL     1       4.479  15.392   3.742  1.00  0.00     0.293 HD
ENDBRANCH   6  24
BRANCH   8  26
ATOM     26  O   UNL     1       0.759  15.362  -0.193  1.00  0.00    -0.508 OA
ATOM     27  H   UNL     1       1.452  15.383  -0.932  1.00  0.00     0.293 HD
ENDBRANCH   8  26
TORSDOF 6
ENDMDL
MODEL 5
REMARK VINA RESULT:    -6.321      3.125      4.886
REMARK INTER + INTRA:          -7.777
REMARK INTER:                  -7.503
REMARK INTRA:                  -0.274
REMARK UNBOUND:                -0.163
REMARK SMILES O=c1c(O)c(-c2ccc(O)c(O)c2)oc2cc(O)cc(O)c12
REMARK SMILES IDX 5 1 3 2 2 3 1 4 22 5 20 6 19 7 17 8 16 9 15 10 14 11 6 12
REMARK SMILES IDX 7 13 8 14 9 15 13 16 11 17 10 18 12 20 4 22 21 24 18 26
REMARK H PARENT 10 19 12 21 4 23 21 25 18 27
REMARK Flexibility Score: inf
ROOT
ATOM      1  C   UNL     1       1.228  14.496   2.627  1.00  0.00     0.180 A 
ATOM      2  C   UNL     1       1.923  13.664   3.522  1.00  0.00     0.208 A 
ATOM      3  C   UNL     1       1.246  13.152   4.641  1.00  0.00     0.238 A 
ATOM      4  O   UNL     1       1.888  12.451   5.466  1.00  0.00    -0.285 OA
ATOM      5  C   UNL     1      -0.120  13.465   4.843  1.00  0.00     0.111 A 
ATOM      6  C   UNL     1      -0.915  12.969   5.919  1.00  0.00     0.134 A 
ATOM      7  C   UNL     1      -2.218  13.449   6.093  1.00  0.00     0.093 A 
ATOM      8  C   UNL     1      -2.778  14.357   5.192  1.00  0.00     0.123 A 
ATOM      9  C   UNL     1      -2.031  14.802   4.104  1.00  0.00     0.094 A 
ATOM     10  C   UNL     1      -0.714  14.369   3.923  1.00  0.00     0.146 A 
ATOM     11  O   UNL     1      -0.034  14.825   2.880  1.00  0.00    -0.452 OA
ENDROOT
BRANCH   1  12
ATOM     12  C   UNL     1       1.865  15.054   1.413  1.00  0.00     0.025 A 
ATOM     13  C   UNL     1       1.620  14.455   0.167  1.00  0.00     0.016 A 
ATOM     14  C   UNL     1       2.228  14.952  -0.989  1.00  0.00     0.051 A 
ATOM     15  C   UNL     1       3.099  16.043  -0.917  1.00  0.00     0.157 A 
ATOM     16  C   UNL     1       2.757  16.138   1.486  1.00  0.00     0.062 A 
ATOM     17  C   UNL     1       3.370  16.638   0.327  1.00  0.00     0.158 A 
BRANCH  15  18
ATOM     18  O   UNL     1       3.688  16.519  -2.088  1.00  0.00    -0.504 OA
ATOM     19  H   UNL     1       4.635  16.882  -2.105  1.00  0.00     0.293 HD
ENDBRANCH  15  18
BRANCH  17  20
ATOM     20  O   UNL     1       4.249  17.717   0.408  1.00  0.00    -0.504 OA
ATOM     21  H   UNL     1       4.079  18.579  -0.099  1.00  0.00     0.293 HD
ENDBRANCH  17  20
ENDBRANCH   1  12
BRANCH   2  22
ATOM     22  O   UNL     1       3.277  13.385   3.316  1.00  0.00    -0.502 OA
ATOM     23  H   UNL     1       4.015  13.978   3.674  1.00  0.00     0.293 HD
ENDBRANCH   2  22
BRANCH   6  24
ATOM     24  O   UNL     1      -0.483  11.993   6.822  1.00  0.00    -0.507 OA
ATOM     25  H   UNL     1      -0.513  10.998   6.651  1.00  0.00     0.293 HD
ENDBRANCH   6  24
BRANCH   8  26
ATOM     26  O   UNL     1      -4.082  14.818   5.363  1.00  0.00    -0.508 OA
ATOM     27  H   UNL     1      -4.624  14.581   6.187  1.00  0.00     0.293 HD
ENDBRANCH   8  26
TORSDOF 6
ENDMDL
MODEL 6
REMARK VINA RESULT:    -6.280      3.358      7.511
REMARK INTER + INTRA:          -7.728
REMARK INTER:                  -7.603
REMARK INTRA:                  -0.125
REMARK UNBOUND:                -0.163
REMARK SMILES O=c1c(O)c(-c2ccc(O)c(O)c2)oc2cc(O)cc(O)c12
REMARK SMILES IDX 5 1 3 2 2 3 1 4 22 5 20 6 19 7 17 8 16 9 15 10 14 11 6 12
REMARK SMILES IDX 7 13 8 14 9 15 13 16 11 17 10 18 12 20 4 22 21 24 18 26
REMARK H PARENT 10 19 12 21 4 23 21 25 18 27
REMARK Flexibility Score: inf
ROOT
ATOM      1  C   UNL     1      -0.530  14.466   2.432  1.00  0.00     0.180 A 
ATOM      2  C   UNL     1       0.593  14.694   1.619  1.00  0.00     0.208 A 
ATOM      3  C   UNL     1       1.876  14.514   2.163  1.00  0.00     0.238 A 
ATOM      4  O   UNL     1       2.877  14.772   1.445  1.00  0.00    -0.285 OA
ATOM      5  C   UNL     1       2.019  14.095   3.507  1.00  0.00     0.111 A 
ATOM      6  C   UNL     1       3.268  13.842   4.149  1.00  0.00     0.134 A 
ATOM      7  C   UNL     1       3.295  13.558   5.520  1.00  0.00     0.093 A 
ATOM      8  C   UNL     1       2.114  13.451   6.257  1.00  0.00     0.123 A 
ATOM      9  C   UNL     1       0.886  13.637   5.627  1.00  0.00     0.094 A 
ATOM     10  C   UNL     1       0.827  13.958   4.268  1.00  0.00     0.146 A 
ATOM     11  O   UNL     1      -0.362  14.137   3.708  1.00  0.00    -0.452 OA
ENDROOT
BRANCH   1  12
ATOM     12  C   UNL     1      -1.913  14.610   1.924  1.00  0.00     0.025 A 
ATOM     13  C   UNL     1      -2.345  13.803   0.860  1.00  0.00     0.016 A 
ATOM     14  C   UNL     1      -3.639  13.937   0.351  1.00  0.00     0.051 A 
ATOM     15  C   UNL     1      -4.516  14.885   0.886  1.00  0.00     0.157 A 
ATOM     16  C   UNL     1      -2.789  15.577   2.448  1.00  0.00     0.062 A 
ATOM     17  C   UNL     1      -4.089  15.714   1.938  1.00  0.00     0.158 A 
BRANCH  15  18
ATOM     18  O   UNL     1      -5.803  14.994   0.360  1.00  0.00    -0.504 OA
ATOM     19  H   UNL     1      -6.222  15.891   0.145  1.00  0.00     0.293 HD
ENDBRANCH  15  18
BRANCH  17  20
ATOM     20  O   UNL     1      -4.952  16.672   2.467  1.00  0.00    -0.504 OA
ATOM     21  H   UNL     1      -4.605  17.532   2.875  1.00  0.00     0.293 HD
ENDBRANCH  17  20
ENDBRANCH   1  12
BRANCH   2  22
ATOM     22  O   UNL     1       0.431  15.129   0.301  1.00  0.00    -0.502 OA
ATOM     23  H   UNL     1       0.830  14.636  -0.488  1.00  0.00     0.293 HD
ENDBRANCH   2  22
BRANCH   6  24
ATOM     24  O   UNL     1       4.499  13.833   3.485  1.00  0.00    -0.507 OA
ATOM     25  H   UNL     1       4.910  13.021   3.049  1.00  0.00     0.293 HD
ENDBRANCH   6  24
BRANCH   8  26
ATOM     26  O   UNL     1       2.149  13.152   7.617  1.00  0.00    -0.508 OA
ATOM     27  H   UNL     1       2.975  13.327   8.177  1.00  0.00     0.293 HD
ENDBRANCH   8  26
TORSDOF 6
ENDMDL
MODEL 7
REMARK VINA RESULT:    -6.221      3.795      7.019
REMARK INTER + INTRA:          -7.657
REMARK INTER:                  -7.322
REMARK INTRA:                  -0.335
REMARK UNBOUND:                -0.163
REMARK SMILES O=c1c(O)c(-c2ccc(O)c(O)c2)oc2cc(O)cc(O)c12
REMARK SMILES IDX 5 1 3 2 2 3 1 4 22 5 20 6 19 7 17 8 16 9 15 10 14 11 6 12
REMARK SMILES IDX 7 13 8 14 9 15 13 16 11 17 10 18 12 20 4 22 21 24 18 26
REMARK H PARENT 10 19 12 21 4 23 21 25 18 27
REMARK Flexibility Score: inf
ROOT
ATOM      1  C   UNL     1      -0.756  14.486   2.446  1.00  0.00     0.180 A 
ATOM      2  C   UNL     1      -1.283  14.416   3.747  1.00  0.00     0.208 A 
ATOM      3  C   UNL     1      -0.425  14.106   4.814  1.00  0.00     0.238 A 
ATOM      4  O   UNL     1      -0.914  13.992   5.969  1.00  0.00    -0.285 OA
ATOM      5  C   UNL     1       0.951  13.884   4.570  1.00  0.00     0.111 A 
ATOM      6  C   UNL     1       1.919  13.603   5.581  1.00  0.00     0.134 A 
ATOM      7  C   UNL     1       3.228  13.272   5.210  1.00  0.00     0.093 A 
ATOM      8  C   UNL     1       3.621  13.278   3.870  1.00  0.00     0.123 A 
ATOM      9  C   UNL     1       2.699  13.609   2.881  1.00  0.00     0.094 A 
ATOM     10  C   UNL     1       1.376  13.908   3.215  1.00  0.00     0.146 A 
ATOM     11  O   UNL     1       0.527  14.209   2.241  1.00  0.00    -0.452 OA
ENDROOT
BRANCH   1  12
ATOM     12  C   UNL     1      -1.591  14.833   1.274  1.00  0.00     0.025 A 
ATOM     13  C   UNL     1      -2.179  13.807   0.517  1.00  0.00     0.016 A 
ATOM     14  C   UNL     1      -2.954  14.111  -0.605  1.00  0.00     0.051 A 
ATOM     15  C   UNL     1      -3.143  15.439  -0.996  1.00  0.00     0.157 A 
ATOM     16  C   UNL     1      -1.766  16.168   0.868  1.00  0.00     0.062 A 
ATOM     17  C   UNL     1      -2.542  16.475  -0.260  1.00  0.00     0.158 A 
BRANCH  15  18
ATOM     18  O   UNL     1      -3.924  15.712  -2.118  1.00  0.00    -0.504 OA
ATOM     19  H   UNL     1      -4.751  16.296  -2.069  1.00  0.00     0.293 HD
ENDBRANCH  15  18
BRANCH  17  20
ATOM     20  O   UNL     1      -2.715  17.801  -0.652  1.00  0.00    -0.504 OA
ATOM     21  H   UNL     1      -1.967  18.481  -0.568  1.00  0.00     0.293 HD
ENDBRANCH  17  20
ENDBRANCH   1  12
BRANCH   2  22
ATOM     22  O   UNL     1      -2.650  14.617   3.964  1.00  0.00    -0.502 OA
ATOM     23  H   UNL     1      -3.328  14.606   3.211  1.00  0.00     0.293 HD
ENDBRANCH   2  22
BRANCH   6  24
ATOM     24  O   UNL     1       1.654  13.660   6.953  1.00  0.00    -0.507 OA
ATOM     25  H   UNL     1       2.359  13.674   7.674  1.00  0.00     0.293 HD
ENDBRANCH   6  24
BRANCH   8  26
ATOM     26  O   UNL     1       4.930  12.963   3.512  1.00  0.00    -0.508 OA
ATOM     27  H   UNL     1       5.137  12.204   2.872  1.00  0.00     0.293 HD
ENDBRANCH   8  26
TORSDOF 6
ENDMDL
MODEL 8
REMARK VINA RESULT:    -6.063      3.935      5.113
REMARK INTER + INTRA:          -7.466
REMARK INTER:                  -7.142
REMARK INTRA:                  -0.323
REMARK UNBOUND:                -0.163
REMARK SMILES O=c1c(O)c(-c2ccc(O)c(O)c2)oc2cc(O)cc(O)c12
REMARK SMILES IDX 5 1 3 2 2 3 1 4 22 5 20 6 19 7 17 8 16 9 15 10 14 11 6 12
REMARK SMILES IDX 7 13 8 14 9 15 13 16 11 17 10 18 12 20 4 22 21 24 18 26
REMARK H PARENT 10 19 12 21 4 23 21 25 18 27
REMARK Flexibility Score: inf
ROOT
ATOM      1  C   UNL     1      -0.104  14.461   1.588  1.00  0.00     0.180 A 
ATOM      2  C   UNL     1      -0.399  13.715   0.434  1.00  0.00     0.208 A 
ATOM      3  C   UNL     1      -1.705  13.747  -0.083  1.00  0.00     0.238 A 
ATOM      4  O   UNL     1      -1.975  13.035  -1.085  1.00  0.00    -0.285 OA
ATOM      5  C   UNL     1      -2.694  14.536   0.551  1.00  0.00     0.111 A 
ATOM      6  C   UNL     1      -4.038  14.675   0.090  1.00  0.00     0.134 A 
ATOM      7  C   UNL     1      -4.966  15.377   0.870  1.00  0.00     0.093 A 
ATOM      8  C   UNL     1      -4.583  16.001   2.059  1.00  0.00     0.123 A 
ATOM      9  C   UNL     1      -3.259  15.922   2.486  1.00  0.00     0.094 A 
ATOM     10  C   UNL     1      -2.318  15.198   1.750  1.00  0.00     0.146 A 
ATOM     11  O   UNL     1      -1.071  15.138   2.197  1.00  0.00    -0.452 OA
ENDROOT
BRANCH   1  12
ATOM     12  C   UNL     1       1.253  14.498   2.177  1.00  0.00     0.025 A 
ATOM     13  C   UNL     1       2.179  15.449   1.721  1.00  0.00     0.016 A 
ATOM     14  C   UNL     1       3.472  15.488   2.249  1.00  0.00     0.051 A 
ATOM     15  C   UNL     1       3.865  14.570   3.227  1.00  0.00     0.157 A 
ATOM     16  C   UNL     1       1.656  13.562   3.147  1.00  0.00     0.062 A 
ATOM     17  C   UNL     1       2.955  13.598   3.677  1.00  0.00     0.158 A 
BRANCH  15  18
ATOM     18  O   UNL     1       5.161  14.635   3.737  1.00  0.00    -0.504 OA
ATOM     19  H   UNL     1       5.786  15.404   3.522  1.00  0.00     0.293 HD
ENDBRANCH  15  18
BRANCH  17  20
ATOM     20  O   UNL     1       3.344  12.671   4.642  1.00  0.00    -0.504 OA
ATOM     21  H   UNL     1       3.781  12.960   5.510  1.00  0.00     0.293 HD
ENDBRANCH  17  20
ENDBRANCH   1  12
BRANCH   2  22
ATOM     22  O   UNL     1       0.587  12.925  -0.164  1.00  0.00    -0.502 OA
ATOM     23  H   UNL     1       0.467  12.504  -1.077  1.00  0.00     0.293 HD
ENDBRANCH   2  22
BRANCH   6  24
ATOM     24  O   UNL     1      -4.502  14.169  -1.127  1.00  0.00    -0.507 OA
ATOM     25  H   UNL     1      -4.310  13.240  -1.474  1.00  0.00     0.293 HD
ENDBRANCH   6  24
BRANCH   8  26
ATOM     26  O   UNL     1      -5.508  16.711   2.820  1.00  0.00    -0.508 OA
ATOM     27  H   UNL     1      -5.616  16.545   3.814  1.00  0.00     0.293 HD
ENDBRANCH   8  26
TORSDOF 6
ENDMDL
MODEL 9
REMARK VINA RESULT:    -5.994      3.879      7.498
REMARK INTER + INTRA:          -7.383
REMARK INTER:                  -7.081
REMARK INTRA:                  -0.303
REMARK UNBOUND:                -0.163
REMARK SMILES O=c1c(O)c(-c2ccc(O)c(O)c2)oc2cc(O)cc(O)c12
REMARK SMILES IDX 5 1 3 2 2 3 1 4 22 5 20 6 19 7 17 8 16 9 15 10 14 11 6 12
REMARK SMILES IDX 7 13 8 14 9 15 13 16 11 17 10 18 12 20 4 22 21 24 18 26
REMARK H PARENT 10 19 12 21 4 23 21 25 18 27
REMARK Flexibility Score: inf
ROOT
ATOM      1  C   UNL     1      -0.000  14.480   1.635  1.00  0.00     0.180 A 
ATOM      2  C   UNL     1       1.305  14.898   1.323  1.00  0.00     0.208 A 
ATOM      3  C   UNL     1       2.324  14.714   2.272  1.00  0.00     0.238 A 
ATOM      4  O   UNL     1       3.479  15.139   2.007  1.00  0.00    -0.285 OA
ATOM      5  C   UNL     1       2.029  14.101   3.513  1.00  0.00     0.111 A 
ATOM      6  C   UNL     1       2.992  13.827   4.531  1.00  0.00     0.134 A 
ATOM      7  C   UNL     1       2.564  13.336   5.770  1.00  0.00     0.093 A 
ATOM      8  C   UNL     1       1.219  13.045   6.006  1.00  0.00     0.123 A 
ATOM      9  C   UNL     1       0.280  13.252   4.998  1.00  0.00     0.094 A 
ATOM     10  C   UNL     1       0.670  13.776   3.763  1.00  0.00     0.146 A 
ATOM     11  O   UNL     1      -0.257  13.968   2.833  1.00  0.00    -0.452 OA
ENDROOT
BRANCH   1  12
ATOM     12  C   UNL     1      -1.121  14.617   0.679  1.00  0.00     0.025 A 
ATOM     13  C   UNL     1      -1.469  13.530  -0.139  1.00  0.00     0.016 A 
ATOM     14  C   UNL     1      -2.510  13.645  -1.064  1.00  0.00     0.051 A 
ATOM     15  C   UNL     1      -3.210  14.848  -1.196  1.00  0.00     0.157 A 
ATOM     16  C   UNL     1      -1.812  15.833   0.530  1.00  0.00     0.062 A 
ATOM     17  C   UNL     1      -2.857  15.951  -0.399  1.00  0.00     0.158 A 
BRANCH  15  18
ATOM     18  O   UNL     1      -4.246  14.932  -2.125  1.00  0.00    -0.504 OA
ATOM     19  H   UNL     1      -5.219  14.983  -1.843  1.00  0.00     0.293 HD
ENDBRANCH  15  18
BRANCH  17  20
ATOM     20  O   UNL     1      -3.541  17.158  -0.536  1.00  0.00    -0.504 OA
ATOM     21  H   UNL     1      -3.048  18.037  -0.652  1.00  0.00     0.293 HD
ENDBRANCH  17  20
ENDBRANCH   1  12
BRANCH   2  22
ATOM     22  O   UNL     1       1.571  15.522   0.101  1.00  0.00    -0.502 OA
ATOM     23  H   UNL     1       1.386  16.504  -0.061  1.00  0.00     0.293 HD
ENDBRANCH   2  22
BRANCH   6  24
ATOM     24  O   UNL     1       4.370  13.995   4.367  1.00  0.00    -0.507 OA
ATOM     25  H   UNL     1       5.026  13.243   4.212  1.00  0.00     0.293 HD
ENDBRANCH   6  24
BRANCH   8  26
ATOM     26  O   UNL     1       0.805  12.541   7.237  1.00  0.00    -0.508 OA
ATOM     27  H   UNL     1       0.857  13.098   8.082  1.00  0.00     0.293 HD
ENDBRANCH   8  26
TORSDOF 6
ENDMDL
