MODEL 1
REMARK VINA RESULT:    -2.287      0.000      0.000
REMARK INTER + INTRA:          -2.287
REMARK INTER:                  -2.287
REMARK INTRA:                   0.000
REMARK UNBOUND:                 0.000
REMARK SMILES CC(=O)[O-]
REMARK SMILES IDX 1 1 2 2 3 3 4 4
REMARK H PARENT
REMARK Flexibility Score: inf
ROOT
ATOM      1  C   UNL     1     -35.909  84.771 -17.458  1.00  0.00     0.063 C 
ATOM      2  C   UNL     1     -36.560  83.473 -17.799  1.00  0.00     0.038 C 
ATOM      3  O   UNL     1     -37.362  83.402 -18.766  1.00  0.00    -0.550 OA
ATOM      4  O   UNL     1     -36.241  82.326 -17.083  1.00  0.00    -0.550 OA
ENDROOT
TORSDOF 0
ENDMDL
MODEL 2
REMARK VINA RESULT:    -2.274      0.105      1.620
REMARK INTER + INTRA:          -2.274
REMARK INTER:                  -2.274
REMARK INTRA:                   0.000
REMARK UNBOUND:                 0.000
REMARK SMILES CC(=O)[O-]
REMARK SMILES IDX 1 1 2 2 3 3 4 4
REMARK H PARENT
REMARK Flexibility Score: inf
ROOT
ATOM      1  C   UNL     1     -35.922  84.729 -17.447  1.00  0.00     0.063 C 
ATOM      2  C   UNL     1     -36.519  83.410 -17.804  1.00  0.00     0.038 C 
ATOM      3  O   UNL     1     -36.296  82.400 -17.086  1.00  0.00    -0.550 OA
ATOM      4  O   UNL     1     -37.366  83.303 -18.900  1.00  0.00    -0.550 OA
ENDROOT
TORSDOF 0
ENDMDL
MODEL 3
REMARK VINA RESULT:    -2.188      1.362      2.074
REMARK INTER + INTRA:          -2.188
REMARK INTER:                  -2.188
REMARK INTRA:                   0.000
REMARK UNBOUND:                 0.000
REMARK SMILES CC(=O)[O-]
REMARK SMILES IDX 1 1 2 2 3 3 4 4
REMARK H PARENT
REMARK Flexibility Score: inf
ROOT
ATOM      1  C   UNL     1     -37.174  83.271 -19.089  1.00  0.00     0.063 C 
ATOM      2  C   UNL     1     -36.497  83.420 -17.770  1.00  0.00     0.038 C 
ATOM      3  O   UNL     1     -36.283  82.409 -17.051  1.00  0.00    -0.550 OA
ATOM      4  O   UNL     1     -36.050  84.668 -17.354  1.00  0.00    -0.550 OA
ENDROOT
TORSDOF 0
ENDMDL
MODEL 4
REMARK VINA RESULT:    -2.165      1.307      1.679
REMARK INTER + INTRA:          -2.165
REMARK INTER:                  -2.165
REMARK INTRA:                   0.000
REMARK UNBOUND:                 0.000
REMARK SMILES CC(=O)[O-]
REMARK SMILES IDX 1 1 2 2 3 3 4 4
REMARK H PARENT
REMARK Flexibility Score: inf
ROOT
ATOM      1  C   UNL     1     -37.184  83.291 -19.168  1.00  0.00     0.063 C 
ATOM      2  C   UNL     1     -36.541  83.489 -17.838  1.00  0.00     0.038 C 
ATOM      3  O   UNL     1     -36.270  84.650 -17.433  1.00  0.00    -0.550 OA
ATOM      4  O   UNL     1     -36.287  82.397 -17.017  1.00  0.00    -0.550 OA
ENDROOT
TORSDOF 0
ENDMDL
MODEL 5
REMARK VINA RESULT:    -2.130     16.998     17.494
REMARK INTER + INTRA:          -2.130
REMARK INTER:                  -2.130
REMARK INTRA:                   0.000
REMARK UNBOUND:                 0.000
REMARK SMILES CC(=O)[O-]
REMARK SMILES IDX 1 1 2 2 3 3 4 4
REMARK H PARENT
REMARK Flexibility Score: inf
ROOT
ATOM      1  C   UNL     1     -25.701  94.534 -27.777  1.00  0.00     0.063 C 
ATOM      2  C   UNL     1     -26.707  94.719 -26.691  1.00  0.00     0.038 C 
ATOM      3  O   UNL     1     -26.403  95.359 -25.650  1.00  0.00    -0.550 OA
ATOM      4  O   UNL     1     -27.999  94.234 -26.850  1.00  0.00    -0.550 OA
ENDROOT
TORSDOF 0
ENDMDL
MODEL 6
REMARK VINA RESULT:    -2.110     13.778     14.095
REMARK INTER + INTRA:          -2.110
REMARK INTER:                  -2.110
REMARK INTRA:                   0.000
REMARK UNBOUND:                 0.000
REMARK SMILES CC(=O)[O-]
REMARK SMILES IDX 1 1 2 2 3 3 4 4
REMARK H PARENT
REMARK Flexibility Score: inf
ROOT
ATOM      1  C   UNL     1     -21.678  83.278 -19.548  1.00  0.00     0.063 C 
ATOM      2  C   UNL     1     -22.828  83.206 -20.494  1.00  0.00     0.038 C 
ATOM      3  O   UNL     1     -23.799  82.443 -20.252  1.00  0.00    -0.550 OA
ATOM      4  O   UNL     1     -22.856  84.023 -21.618  1.00  0.00    -0.550 OA
ENDROOT
TORSDOF 0
ENDMDL
MODEL 7
REMARK VINA RESULT:    -2.046     18.996     19.490
REMARK INTER + INTRA:          -2.046
REMARK INTER:                  -2.046
REMARK INTRA:                   0.000
REMARK UNBOUND:                 0.000
REMARK SMILES CC(=O)[O-]
REMARK SMILES IDX 1 1 2 2 3 3 4 4
REMARK H PARENT
REMARK Flexibility Score: inf
ROOT
ATOM      1  C   UNL     1     -24.616  94.340 -28.656  1.00  0.00     0.063 C 
ATOM      2  C   UNL     1     -25.318  95.486 -28.012  1.00  0.00     0.038 C 
ATOM      3  O   UNL     1     -26.033  95.298 -26.993  1.00  0.00    -0.550 OA
ATOM      4  O   UNL     1     -25.142  96.775 -28.502  1.00  0.00    -0.550 OA
ENDROOT
TORSDOF 0
ENDMDL
MODEL 8
REMARK VINA RESULT:    -2.037     13.858     14.240
REMARK INTER + INTRA:          -2.037
REMARK INTER:                  -2.037
REMARK INTRA:                   0.000
REMARK UNBOUND:                 0.000
REMARK SMILES CC(=O)[O-]
REMARK SMILES IDX 1 1 2 2 3 3 4 4
REMARK H PARENT
REMARK Flexibility Score: inf
ROOT
ATOM      1  C   UNL     1     -22.417  84.273 -21.132  1.00  0.00     0.063 C 
ATOM      2  C   UNL     1     -22.548  83.204 -20.101  1.00  0.00     0.038 C 
ATOM      3  O   UNL     1     -21.629  83.020 -19.260  1.00  0.00    -0.550 OA
ATOM      4  O   UNL     1     -23.709  82.445 -20.030  1.00  0.00    -0.550 OA
ENDROOT
TORSDOF 0
ENDMDL
MODEL 9
REMARK VINA RESULT:    -2.001     20.114     20.578
REMARK INTER + INTRA:          -2.001
REMARK INTER:                  -2.001
REMARK INTRA:                   0.000
REMARK UNBOUND:                 0.000
REMARK SMILES CC(=O)[O-]
REMARK SMILES IDX 1 1 2 2 3 3 4 4
REMARK H PARENT
REMARK Flexibility Score: inf
ROOT
ATOM      1  C   UNL     1     -24.600  94.454 -28.819  1.00  0.00     0.063 C 
ATOM      2  C   UNL     1     -24.626  95.935 -28.989  1.00  0.00     0.038 C 
ATOM      3  O   UNL     1     -24.296  96.451 -30.088  1.00  0.00    -0.550 OA
ATOM      4  O   UNL     1     -25.067  96.746 -27.951  1.00  0.00    -0.550 OA
ENDROOT
TORSDOF 0
ENDMDL
