MODEL 1
REMARK VINA RESULT:    -4.339      0.000      0.000
REMARK INTER + INTRA:          -7.242
REMARK INTER:                  -6.622
REMARK INTRA:                  -0.620
REMARK UNBOUND:                -0.620
REMARK SMILES O=C([O-])CCCCCCCCC(=O)[O-]
REMARK SMILES IDX 7 1 6 2 5 3 4 4 2 5 1 6 3 7 8 8 9 9 10 10 11 11 12 12 13 13
REMARK SMILES IDX 14 14
REMARK H PARENT
REMARK Flexibility Score: inf
ROOT
ATOM      1  C   UNL     1      -0.177   4.974   5.479  1.00  0.00     0.000 C 
ENDROOT
BRANCH   1   2
ATOM      2  C   UNL     1      -0.781   3.933   4.523  1.00  0.00     0.000 C 
BRANCH   2   3
ATOM      3  C   UNL     1      -1.505   2.797   5.264  1.00  0.00     0.006 C 
BRANCH   3   4
ATOM      4  C   UNL     1      -2.446   3.354   6.336  1.00  0.00     0.053 C 
BRANCH   4   5
ATOM      5  C   UNL     1      -3.860   2.966   6.045  1.00  0.00     0.041 C 
ATOM      6  O   UNL     1      -4.114   1.870   5.480  1.00  0.00    -0.550 OA
ATOM      7  O   UNL     1      -4.904   3.793   6.444  1.00  0.00    -0.550 OA
ENDBRANCH   4   5
ENDBRANCH   3   4
ENDBRANCH   2   3
ENDBRANCH   1   2
BRANCH   1   8
ATOM      8  C   UNL     1       1.230   4.585   5.964  1.00  0.00     0.000 C 
BRANCH   8   9
ATOM      9  C   UNL     1       1.209   3.861   7.321  1.00  0.00     0.000 C 
BRANCH   9  10
ATOM     10  C   UNL     1       2.314   2.801   7.445  1.00  0.00     0.006 C 
BRANCH  10  11
ATOM     11  C   UNL     1       1.749   1.394   7.225  1.00  0.00     0.053 C 
BRANCH  11  12
ATOM     12  C   UNL     1       2.703   0.566   6.423  1.00  0.00     0.041 C 
ATOM     13  O   UNL     1       3.915   0.898   6.340  1.00  0.00    -0.550 OA
ATOM     14  O   UNL     1       2.266  -0.601   5.809  1.00  0.00    -0.550 OA
ENDBRANCH  11  12
ENDBRANCH  10  11
ENDBRANCH   9  10
ENDBRANCH   8   9
ENDBRANCH   1   8
TORSDOF 9
ENDMDL
MODEL 2
REMARK VINA RESULT:    -4.264      1.222      5.818
REMARK INTER + INTRA:          -7.128
REMARK INTER:                  -6.500
REMARK INTRA:                  -0.628
REMARK UNBOUND:                -0.620
REMARK SMILES O=C([O-])CCCCCCCCC(=O)[O-]
REMARK SMILES IDX 7 1 6 2 5 3 4 4 2 5 1 6 3 7 8 8 9 9 10 10 11 11 12 12 13 13
REMARK SMILES IDX 14 14
REMARK H PARENT
REMARK Flexibility Score: inf
ROOT
ATOM      1  C   UNL     1      -0.416   3.079   5.454  1.00  0.00     0.000 C 
ENDROOT
BRANCH   1   2
ATOM      2  C   UNL     1       0.231   3.197   6.843  1.00  0.00     0.000 C 
BRANCH   2   3
ATOM      3  C   UNL     1       1.520   2.370   6.970  1.00  0.00     0.006 C 
BRANCH   3   4
ATOM      4  C   UNL     1       1.248   0.888   6.699  1.00  0.00     0.053 C 
BRANCH   4   5
ATOM      5  C   UNL     1       2.493   0.202   6.237  1.00  0.00     0.041 C 
ATOM      6  O   UNL     1       3.602   0.796   6.292  1.00  0.00    -0.550 OA
ATOM      7  O   UNL     1       2.439  -1.113   5.791  1.00  0.00    -0.550 OA
ENDBRANCH   4   5
ENDBRANCH   3   4
ENDBRANCH   2   3
ENDBRANCH   1   2
BRANCH   1   8
ATOM      8  C   UNL     1      -1.141   4.367   5.027  1.00  0.00     0.000 C 
BRANCH   8   9
ATOM      9  C   UNL     1      -2.029   4.943   6.143  1.00  0.00     0.000 C 
BRANCH   9  10
ATOM     10  C   UNL     1      -3.526   4.708   5.890  1.00  0.00     0.006 C 
BRANCH  10  11
ATOM     11  C   UNL     1      -4.132   3.821   6.982  1.00  0.00     0.053 C 
BRANCH  11  12
ATOM     12  C   UNL     1      -3.723   2.394   6.785  1.00  0.00     0.041 C 
ATOM     13  O   UNL     1      -3.379   1.693   7.773  1.00  0.00    -0.550 OA
ATOM     14  O   UNL     1      -3.769   1.826   5.519  1.00  0.00    -0.550 OA
ENDBRANCH  11  12
ENDBRANCH  10  11
ENDBRANCH   9  10
ENDBRANCH   8   9
ENDBRANCH   1   8
TORSDOF 9
ENDMDL
MODEL 3
REMARK VINA RESULT:    -4.255      0.831      5.667
REMARK INTER + INTRA:          -7.114
REMARK INTER:                  -6.387
REMARK INTRA:                  -0.727
REMARK UNBOUND:                -0.620
REMARK SMILES O=C([O-])CCCCCCCCC(=O)[O-]
REMARK SMILES IDX 7 1 6 2 5 3 4 4 2 5 1 6 3 7 8 8 9 9 10 10 11 11 12 12 13 13
REMARK SMILES IDX 14 14
REMARK H PARENT
REMARK Flexibility Score: inf
ROOT
ATOM      1  C   UNL     1       1.775   4.564   6.970  1.00  0.00     0.000 C 
ENDROOT
BRANCH   1   2
ATOM      2  C   UNL     1       2.569   3.269   6.740  1.00  0.00     0.000 C 
BRANCH   2   3
ATOM      3  C   UNL     1       2.008   2.079   7.535  1.00  0.00     0.006 C 
BRANCH   3   4
ATOM      4  C   UNL     1       1.533   0.968   6.595  1.00  0.00     0.053 C 
BRANCH   4   5
ATOM      5  C   UNL     1       2.600  -0.065   6.423  1.00  0.00     0.041 C 
ATOM      6  O   UNL     1       2.390  -1.081   5.710  1.00  0.00    -0.550 OA
ATOM      7  O   UNL     1       3.846   0.118   7.010  1.00  0.00    -0.550 OA
ENDBRANCH   4   5
ENDBRANCH   3   4
ENDBRANCH   2   3
ENDBRANCH   1   2
BRANCH   1   8
ATOM      8  C   UNL     1       0.276   4.400   6.669  1.00  0.00     0.000 C 
BRANCH   8   9
ATOM      9  C   UNL     1      -0.088   4.808   5.232  1.00  0.00     0.000 C 
BRANCH   9  10
ATOM     10  C   UNL     1      -1.196   3.932   4.628  1.00  0.00     0.006 C 
BRANCH  10  11
ATOM     11  C   UNL     1      -1.513   2.745   5.544  1.00  0.00     0.053 C 
BRANCH  11  12
ATOM     12  C   UNL     1      -2.961   2.751   5.926  1.00  0.00     0.041 C 
ATOM     13  O   UNL     1      -3.725   1.835   5.524  1.00  0.00    -0.550 OA
ATOM     14  O   UNL     1      -3.454   3.739   6.768  1.00  0.00    -0.550 OA
ENDBRANCH  11  12
ENDBRANCH  10  11
ENDBRANCH   9  10
ENDBRANCH   8   9
ENDBRANCH   1   8
TORSDOF 9
ENDMDL
MODEL 4
REMARK VINA RESULT:    -4.199     12.989     14.024
REMARK INTER + INTRA:          -7.028
REMARK INTER:                  -6.035
REMARK INTRA:                  -0.993
REMARK UNBOUND:                -0.620
REMARK SMILES O=C([O-])CCCCCCCCC(=O)[O-]
REMARK SMILES IDX 7 1 6 2 5 3 4 4 2 5 1 6 3 7 8 8 9 9 10 10 11 11 12 12 13 13
REMARK SMILES IDX 14 14
REMARK H PARENT
REMARK Flexibility Score: inf
ROOT
ATOM      1  C   UNL     1      -5.682  -2.263  -6.182  1.00  0.00     0.000 C 
ENDROOT
BRANCH   1   2
ATOM      2  C   UNL     1      -5.585  -3.643  -6.852  1.00  0.00     0.000 C 
BRANCH   2   3
ATOM      3  C   UNL     1      -5.268  -4.767  -5.853  1.00  0.00     0.006 C 
BRANCH   3   4
ATOM      4  C   UNL     1      -4.788  -4.193  -4.517  1.00  0.00     0.053 C 
BRANCH   4   5
ATOM      5  C   UNL     1      -4.044  -5.230  -3.738  1.00  0.00     0.041 C 
ATOM      6  O   UNL     1      -2.789  -5.294  -3.805  1.00  0.00    -0.550 OA
ATOM      7  O   UNL     1      -4.733  -6.095  -2.897  1.00  0.00    -0.550 OA
ENDBRANCH   4   5
ENDBRANCH   3   4
ENDBRANCH   2   3
ENDBRANCH   1   2
BRANCH   1   8
ATOM      8  C   UNL     1      -5.691  -1.111  -7.200  1.00  0.00     0.000 C 
BRANCH   8   9
ATOM      9  C   UNL     1      -4.425  -0.241  -7.120  1.00  0.00     0.000 C 
BRANCH   9  10
ATOM     10  C   UNL     1      -3.554  -0.572  -5.899  1.00  0.00     0.006 C 
BRANCH  10  11
ATOM     11  C   UNL     1      -2.135  -0.957  -6.329  1.00  0.00     0.053 C 
BRANCH  11  12
ATOM     12  C   UNL     1      -1.796  -2.333  -5.846  1.00  0.00     0.041 C 
ATOM     13  O   UNL     1      -2.058  -3.337  -6.560  1.00  0.00    -0.550 OA
ATOM     14  O   UNL     1      -1.147  -2.503  -4.631  1.00  0.00    -0.550 OA
ENDBRANCH  11  12
ENDBRANCH  10  11
ENDBRANCH   9  10
ENDBRANCH   8   9
ENDBRANCH   1   8
TORSDOF 9
ENDMDL
MODEL 5
REMARK VINA RESULT:    -4.120      1.257      1.801
REMARK INTER + INTRA:          -6.907
REMARK INTER:                  -6.200
REMARK INTRA:                  -0.707
REMARK UNBOUND:                -0.620
REMARK SMILES O=C([O-])CCCCCCCCC(=O)[O-]
REMARK SMILES IDX 7 1 6 2 5 3 4 4 2 5 1 6 3 7 8 8 9 9 10 10 11 11 12 12 13 13
REMARK SMILES IDX 14 14
REMARK H PARENT
REMARK Flexibility Score: inf
ROOT
ATOM      1  C   UNL     1      -0.172   2.970   7.397  1.00  0.00     0.000 C 
ENDROOT
BRANCH   1   2
ATOM      2  C   UNL     1      -0.211   2.378   5.979  1.00  0.00     0.000 C 
BRANCH   2   3
ATOM      3  C   UNL     1      -1.310   3.001   5.105  1.00  0.00     0.006 C 
BRANCH   3   4
ATOM      4  C   UNL     1      -2.342   3.737   5.965  1.00  0.00     0.053 C 
BRANCH   4   5
ATOM      5  C   UNL     1      -3.658   3.030   5.925  1.00  0.00     0.041 C 
ATOM      6  O   UNL     1      -4.723   3.657   6.164  1.00  0.00    -0.550 OA
ATOM      7  O   UNL     1      -3.716   1.686   5.574  1.00  0.00    -0.550 OA
ENDBRANCH   4   5
ENDBRANCH   3   4
ENDBRANCH   2   3
ENDBRANCH   1   2
BRANCH   1   8
ATOM      8  C   UNL     1       1.188   3.604   7.736  1.00  0.00     0.000 C 
BRANCH   8   9
ATOM      9  C   UNL     1       1.894   4.185   6.499  1.00  0.00     0.000 C 
BRANCH   9  10
ATOM     10  C   UNL     1       3.360   3.741   6.390  1.00  0.00     0.006 C 
BRANCH  10  11
ATOM     11  C   UNL     1       3.689   2.678   7.444  1.00  0.00     0.053 C 
BRANCH  11  12
ATOM     12  C   UNL     1       4.156   1.416   6.788  1.00  0.00     0.041 C 
ATOM     13  O   UNL     1       5.368   1.083   6.848  1.00  0.00    -0.550 OA
ATOM     14  O   UNL     1       3.243   0.584   6.153  1.00  0.00    -0.550 OA
ENDBRANCH  11  12
ENDBRANCH  10  11
ENDBRANCH   9  10
ENDBRANCH   8   9
ENDBRANCH   1   8
TORSDOF 9
ENDMDL
MODEL 6
REMARK VINA RESULT:    -4.116      2.203      3.717
REMARK INTER + INTRA:          -6.901
REMARK INTER:                  -6.094
REMARK INTRA:                  -0.807
REMARK UNBOUND:                -0.620
REMARK SMILES O=C([O-])CCCCCCCCC(=O)[O-]
REMARK SMILES IDX 7 1 6 2 5 3 4 4 2 5 1 6 3 7 8 8 9 9 10 10 11 11 12 12 13 13
REMARK SMILES IDX 14 14
REMARK H PARENT
REMARK Flexibility Score: inf
ROOT
ATOM      1  C   UNL     1       1.546   0.653   8.271  1.00  0.00     0.000 C 
ENDROOT
BRANCH   1   2
ATOM      2  C   UNL     1       0.743   1.939   8.018  1.00  0.00     0.000 C 
BRANCH   2   3
ATOM      3  C   UNL     1       0.514   2.212   6.523  1.00  0.00     0.006 C 
BRANCH   3   4
ATOM      4  C   UNL     1      -0.471   3.368   6.323  1.00  0.00     0.053 C 
BRANCH   4   5
ATOM      5  C   UNL     1      -1.309   3.137   5.106  1.00  0.00     0.041 C 
ATOM      6  O   UNL     1      -1.021   3.707   4.021  1.00  0.00    -0.550 OA
ATOM      7  O   UNL     1      -2.380   2.253   5.156  1.00  0.00    -0.550 OA
ENDBRANCH   4   5
ENDBRANCH   3   4
ENDBRANCH   2   3
ENDBRANCH   1   2
BRANCH   1   8
ATOM      8  C   UNL     1       1.875  -0.103   6.973  1.00  0.00     0.000 C 
BRANCH   8   9
ATOM      9  C   UNL     1       3.386  -0.179   6.699  1.00  0.00     0.000 C 
BRANCH   9  10
ATOM     10  C   UNL     1       4.221   0.513   7.787  1.00  0.00     0.006 C 
BRANCH  10  11
ATOM     11  C   UNL     1       5.207   1.509   7.168  1.00  0.00     0.053 C 
BRANCH  11  12
ATOM     12  C   UNL     1       4.497   2.761   6.755  1.00  0.00     0.041 C 
ATOM     13  O   UNL     1       4.478   3.108   5.545  1.00  0.00    -0.550 OA
ATOM     14  O   UNL     1       3.815   3.518   7.699  1.00  0.00    -0.550 OA
ENDBRANCH  11  12
ENDBRANCH  10  11
ENDBRANCH   9  10
ENDBRANCH   8   9
ENDBRANCH   1   8
TORSDOF 9
ENDMDL
MODEL 7
REMARK VINA RESULT:    -4.114      1.824      2.876
REMARK INTER + INTRA:          -6.899
REMARK INTER:                  -6.194
REMARK INTRA:                  -0.704
REMARK UNBOUND:                -0.620
REMARK SMILES O=C([O-])CCCCCCCCC(=O)[O-]
REMARK SMILES IDX 7 1 6 2 5 3 4 4 2 5 1 6 3 7 8 8 9 9 10 10 11 11 12 12 13 13
REMARK SMILES IDX 14 14
REMARK H PARENT
REMARK Flexibility Score: inf
ROOT
ATOM      1  C   UNL     1       2.069   2.612   7.597  1.00  0.00     0.000 C 
ENDROOT
BRANCH   1   2
ATOM      2  C   UNL     1       0.825   2.039   6.899  1.00  0.00     0.000 C 
BRANCH   2   3
ATOM      3  C   UNL     1      -0.482   2.669   7.405  1.00  0.00     0.006 C 
BRANCH   3   4
ATOM      4  C   UNL     1      -0.991   3.734   6.429  1.00  0.00     0.053 C 
BRANCH   4   5
ATOM      5  C   UNL     1      -1.602   3.093   5.225  1.00  0.00     0.041 C 
ATOM      6  O   UNL     1      -1.142   3.330   4.078  1.00  0.00    -0.550 OA
ATOM      7  O   UNL     1      -2.651   2.193   5.373  1.00  0.00    -0.550 OA
ENDBRANCH   4   5
ENDBRANCH   3   4
ENDBRANCH   2   3
ENDBRANCH   1   2
BRANCH   1   8
ATOM      8  C   UNL     1       3.242   2.832   6.627  1.00  0.00     0.000 C 
BRANCH   8   9
ATOM      9  C   UNL     1       4.385   1.825   6.843  1.00  0.00     0.000 C 
BRANCH   9  10
ATOM     10  C   UNL     1       4.109   0.854   8.000  1.00  0.00     0.006 C 
BRANCH  10  11
ATOM     11  C   UNL     1       4.111  -0.597   7.507  1.00  0.00     0.053 C 
BRANCH  11  12
ATOM     12  C   UNL     1       2.742  -0.999   7.055  1.00  0.00     0.041 C 
ATOM     13  O   UNL     1       1.849  -1.267   7.902  1.00  0.00    -0.550 OA
ATOM     14  O   UNL     1       2.437  -1.030   5.700  1.00  0.00    -0.550 OA
ENDBRANCH  11  12
ENDBRANCH  10  11
ENDBRANCH   9  10
ENDBRANCH   8   9
ENDBRANCH   1   8
TORSDOF 9
ENDMDL
MODEL 8
REMARK VINA RESULT:    -4.106      1.545      5.421
REMARK INTER + INTRA:          -6.887
REMARK INTER:                  -6.096
REMARK INTRA:                  -0.791
REMARK UNBOUND:                -0.620
REMARK SMILES O=C([O-])CCCCCCCCC(=O)[O-]
REMARK SMILES IDX 7 1 6 2 5 3 4 4 2 5 1 6 3 7 8 8 9 9 10 10 11 11 12 12 13 13
REMARK SMILES IDX 14 14
REMARK H PARENT
REMARK Flexibility Score: inf
ROOT
ATOM      1  C   UNL     1       3.006   3.704   6.393  1.00  0.00     0.000 C 
ENDROOT
BRANCH   1   2
ATOM      2  C   UNL     1       3.434   3.246   7.796  1.00  0.00     0.000 C 
BRANCH   2   3
ATOM      3  C   UNL     1       3.786   1.752   7.852  1.00  0.00     0.006 C 
BRANCH   3   4
ATOM      4  C   UNL     1       3.551   1.083   6.494  1.00  0.00     0.053 C 
BRANCH   4   5
ATOM      5  C   UNL     1       2.549  -0.019   6.619  1.00  0.00     0.041 C 
ATOM      6  O   UNL     1       2.351  -0.808   5.658  1.00  0.00    -0.550 OA
ATOM      7  O   UNL     1       1.868  -0.208   7.816  1.00  0.00    -0.550 OA
ENDBRANCH   4   5
ENDBRANCH   3   4
ENDBRANCH   2   3
ENDBRANCH   1   2
BRANCH   1   8
ATOM      8  C   UNL     1       1.530   4.134   6.335  1.00  0.00     0.000 C 
BRANCH   8   9
ATOM      9  C   UNL     1       0.725   3.649   7.552  1.00  0.00     0.000 C 
BRANCH   9  10
ATOM     10  C   UNL     1      -0.258   2.521   7.202  1.00  0.00     0.006 C 
BRANCH  10  11
ATOM     11  C   UNL     1      -1.643   3.086   6.872  1.00  0.00     0.053 C 
BRANCH  11  12
ATOM     12  C   UNL     1      -2.071   2.661   5.502  1.00  0.00     0.041 C 
ATOM     13  O   UNL     1      -3.166   2.062   5.338  1.00  0.00    -0.550 OA
ATOM     14  O   UNL     1      -1.284   2.971   4.401  1.00  0.00    -0.550 OA
ENDBRANCH  11  12
ENDBRANCH  10  11
ENDBRANCH   9  10
ENDBRANCH   8   9
ENDBRANCH   1   8
TORSDOF 9
ENDMDL
MODEL 9
REMARK VINA RESULT:    -4.075      1.572      6.341
REMARK INTER + INTRA:          -6.838
REMARK INTER:                  -6.089
REMARK INTRA:                  -0.750
REMARK UNBOUND:                -0.620
REMARK SMILES O=C([O-])CCCCCCCCC(=O)[O-]
REMARK SMILES IDX 7 1 6 2 5 3 4 4 2 5 1 6 3 7 8 8 9 9 10 10 11 11 12 12 13 13
REMARK SMILES IDX 14 14
REMARK H PARENT
REMARK Flexibility Score: inf
ROOT
ATOM      1  C   UNL     1       1.234   1.172   7.914  1.00  0.00     0.000 C 
ENDROOT
BRANCH   1   2
ATOM      2  C   UNL     1       1.527   0.511   6.557  1.00  0.00     0.000 C 
BRANCH   2   3
ATOM      3  C   UNL     1       3.004   0.122   6.392  1.00  0.00     0.006 C 
BRANCH   3   4
ATOM      4  C   UNL     1       3.849   0.680   7.542  1.00  0.00     0.053 C 
BRANCH   4   5
ATOM      5  C   UNL     1       4.794   1.723   7.039  1.00  0.00     0.041 C 
ATOM      6  O   UNL     1       5.906   1.897   7.604  1.00  0.00    -0.550 OA
ATOM      7  O   UNL     1       4.470   2.472   5.914  1.00  0.00    -0.550 OA
ENDBRANCH   4   5
ENDBRANCH   3   4
ENDBRANCH   2   3
ENDBRANCH   1   2
BRANCH   1   8
ATOM      8  C   UNL     1       0.490   2.510   7.773  1.00  0.00     0.000 C 
BRANCH   8   9
ATOM      9  C   UNL     1       0.758   3.196   6.422  1.00  0.00     0.000 C 
BRANCH   9  10
ATOM     10  C   UNL     1      -0.509   3.808   5.806  1.00  0.00     0.006 C 
BRANCH  10  11
ATOM     11  C   UNL     1      -1.426   2.716   5.246  1.00  0.00     0.053 C 
BRANCH  11  12
ATOM     12  C   UNL     1      -2.767   2.765   5.911  1.00  0.00     0.041 C 
ATOM     13  O   UNL     1      -3.054   3.715   6.686  1.00  0.00    -0.550 OA
ATOM     14  O   UNL     1      -3.716   1.790   5.635  1.00  0.00    -0.550 OA
ENDBRANCH  11  12
ENDBRANCH  10  11
ENDBRANCH   9  10
ENDBRANCH   8   9
ENDBRANCH   1   8
TORSDOF 9
ENDMDL
