MODEL 1
REMARK VINA RESULT:    -4.408      0.000      0.000
REMARK INTER + INTRA:          -6.691
REMARK INTER:                  -6.211
REMARK INTRA:                  -0.480
REMARK UNBOUND:                -0.480
REMARK SMILES CCCCCCCCC(=O)[O-]
REMARK SMILES IDX 6 1 7 2 8 3 9 4 10 5 11 6 5 7 4 8 3 9 2 10 1 11
REMARK H PARENT
REMARK Flexibility Score: inf
ROOT
ATOM      1  C   UNL     1      -1.290  -1.327   7.621  1.00  0.00     0.000 C 
ENDROOT
BRANCH   1   2
ATOM      2  C   UNL     1       0.067  -1.555   8.305  1.00  0.00     0.006 C 
BRANCH   2   3
ATOM      3  C   UNL     1       0.001  -2.609   9.419  1.00  0.00     0.053 C 
BRANCH   3   4
ATOM      4  C   UNL     1       1.377  -3.066   9.786  1.00  0.00     0.041 C 
ATOM      5  O   UNL     1       2.254  -2.228  10.125  1.00  0.00    -0.550 OA
ATOM      6  O   UNL     1       1.678  -4.421   9.801  1.00  0.00    -0.550 OA
ENDBRANCH   3   4
ENDBRANCH   2   3
ENDBRANCH   1   2
BRANCH   1   7
ATOM      7  C   UNL     1      -2.006  -0.065   8.133  1.00  0.00     0.000 C 
BRANCH   7   8
ATOM      8  C   UNL     1      -1.648   1.189   7.317  1.00  0.00    -0.000 C 
BRANCH   8   9
ATOM      9  C   UNL     1      -1.990   1.039   5.824  1.00  0.00    -0.000 C 
BRANCH   9  10
ATOM     10  C   UNL     1      -0.751   1.153   4.922  1.00  0.00    -0.003 C 
ATOM     11  C   UNL     1       0.529   1.442   5.707  1.00  0.00     0.004 C 
ENDBRANCH   9  10
ENDBRANCH   8   9
ENDBRANCH   7   8
ENDBRANCH   1   7
TORSDOF 7
ENDMDL
MODEL 2
REMARK VINA RESULT:    -4.398      2.664      4.776
REMARK INTER + INTRA:          -6.677
REMARK INTER:                  -6.044
REMARK INTRA:                  -0.633
REMARK UNBOUND:                -0.480
REMARK SMILES CCCCCCCCC(=O)[O-]
REMARK SMILES IDX 6 1 7 2 8 3 9 4 10 5 11 6 5 7 4 8 3 9 2 10 1 11
REMARK H PARENT
REMARK Flexibility Score: inf
ROOT
ATOM      1  C   UNL     1      -1.319   1.171   5.210  1.00  0.00     0.000 C 
ENDROOT
BRANCH   1   2
ATOM      2  C   UNL     1       0.097   0.719   5.599  1.00  0.00     0.006 C 
BRANCH   2   3
ATOM      3  C   UNL     1       1.123   1.859   5.535  1.00  0.00     0.053 C 
BRANCH   3   4
ATOM      4  C   UNL     1       1.227   2.541   6.862  1.00  0.00     0.041 C 
ATOM      5  O   UNL     1       1.000   1.902   7.923  1.00  0.00    -0.550 OA
ATOM      6  O   UNL     1       1.621   3.871   6.931  1.00  0.00    -0.550 OA
ENDBRANCH   3   4
ENDBRANCH   2   3
ENDBRANCH   1   2
BRANCH   1   7
ATOM      7  C   UNL     1      -2.409   0.498   6.063  1.00  0.00     0.000 C 
BRANCH   7   8
ATOM      8  C   UNL     1      -2.117   0.587   7.571  1.00  0.00    -0.000 C 
BRANCH   8   9
ATOM      9  C   UNL     1      -2.282  -0.766   8.285  1.00  0.00    -0.000 C 
BRANCH   9  10
ATOM     10  C   UNL     1      -1.236  -1.799   7.835  1.00  0.00    -0.003 C 
ATOM     11  C   UNL     1       0.118  -1.607   8.515  1.00  0.00     0.004 C 
ENDBRANCH   9  10
ENDBRANCH   8   9
ENDBRANCH   7   8
ENDBRANCH   1   7
TORSDOF 7
ENDMDL
MODEL 3
REMARK VINA RESULT:    -4.297      3.370      5.227
REMARK INTER + INTRA:          -6.536
REMARK INTER:                  -5.843
REMARK INTRA:                  -0.693
REMARK UNBOUND:                -0.480
REMARK SMILES CCCCCCCCC(=O)[O-]
REMARK SMILES IDX 6 1 7 2 8 3 9 4 10 5 11 6 5 7 4 8 3 9 2 10 1 11
REMARK H PARENT
REMARK Flexibility Score: inf
ROOT
ATOM      1  C   UNL     1      -2.534   1.059   6.214  1.00  0.00     0.000 C 
ENDROOT
BRANCH   1   2
ATOM      2  C   UNL     1      -1.487   1.092   5.089  1.00  0.00     0.006 C 
BRANCH   2   3
ATOM      3  C   UNL     1      -0.197   1.815   5.499  1.00  0.00     0.053 C 
BRANCH   3   4
ATOM      4  C   UNL     1       0.778   1.824   4.365  1.00  0.00     0.041 C 
ATOM      5  O   UNL     1       1.753   1.027   4.361  1.00  0.00    -0.550 OA
ATOM      6  O   UNL     1       0.584   2.679   3.288  1.00  0.00    -0.550 OA
ENDBRANCH   3   4
ENDBRANCH   2   3
ENDBRANCH   1   2
BRANCH   1   7
ATOM      7  C   UNL     1      -2.045   1.756   7.496  1.00  0.00     0.000 C 
BRANCH   7   8
ATOM      8  C   UNL     1      -1.949   0.793   8.691  1.00  0.00    -0.000 C 
BRANCH   8   9
ATOM      9  C   UNL     1      -2.016  -0.684   8.266  1.00  0.00    -0.000 C 
BRANCH   9  10
ATOM     10  C   UNL     1      -0.708  -1.439   8.554  1.00  0.00    -0.003 C 
ATOM     11  C   UNL     1       0.367  -1.185   7.498  1.00  0.00     0.004 C 
ENDBRANCH   9  10
ENDBRANCH   8   9
ENDBRANCH   7   8
ENDBRANCH   1   7
TORSDOF 7
ENDMDL
MODEL 4
REMARK VINA RESULT:    -4.259      3.676      4.998
REMARK INTER + INTRA:          -6.482
REMARK INTER:                  -5.851
REMARK INTRA:                  -0.630
REMARK UNBOUND:                -0.480
REMARK SMILES CCCCCCCCC(=O)[O-]
REMARK SMILES IDX 6 1 7 2 8 3 9 4 10 5 11 6 5 7 4 8 3 9 2 10 1 11
REMARK H PARENT
REMARK Flexibility Score: inf
ROOT
ATOM      1  C   UNL     1       0.106  -1.193   7.020  1.00  0.00     0.000 C 
ENDROOT
BRANCH   1   2
ATOM      2  C   UNL     1       0.562   0.220   6.624  1.00  0.00     0.006 C 
BRANCH   2   3
ATOM      3  C   UNL     1       0.718   0.389   5.107  1.00  0.00     0.053 C 
BRANCH   3   4
ATOM      4  C   UNL     1      -0.025   1.600   4.639  1.00  0.00     0.041 C 
ATOM      5  O   UNL     1      -1.111   1.928   5.185  1.00  0.00    -0.550 OA
ATOM      6  O   UNL     1       0.505   2.395   3.631  1.00  0.00    -0.550 OA
ENDBRANCH   3   4
ENDBRANCH   2   3
ENDBRANCH   1   2
BRANCH   1   7
ATOM      7  C   UNL     1      -0.756  -1.200   8.295  1.00  0.00     0.000 C 
BRANCH   7   8
ATOM      8  C   UNL     1      -2.133  -0.550   8.080  1.00  0.00    -0.000 C 
BRANCH   8   9
ATOM      9  C   UNL     1      -2.442   0.538   9.124  1.00  0.00    -0.000 C 
BRANCH   9  10
ATOM     10  C   UNL     1      -2.130   1.952   8.610  1.00  0.00    -0.003 C 
ATOM     11  C   UNL     1      -0.811   2.502   9.152  1.00  0.00     0.004 C 
ENDBRANCH   9  10
ENDBRANCH   8   9
ENDBRANCH   7   8
ENDBRANCH   1   7
TORSDOF 7
ENDMDL
MODEL 5
REMARK VINA RESULT:    -4.190     14.794     15.845
REMARK INTER + INTRA:          -6.384
REMARK INTER:                  -6.007
REMARK INTRA:                  -0.377
REMARK UNBOUND:                -0.480
REMARK SMILES CCCCCCCCC(=O)[O-]
REMARK SMILES IDX 6 1 7 2 8 3 9 4 10 5 11 6 5 7 4 8 3 9 2 10 1 11
REMARK H PARENT
REMARK Flexibility Score: inf
ROOT
ATOM      1  C   UNL     1      -7.836  -6.650  -4.276  1.00  0.00     0.000 C 
ENDROOT
BRANCH   1   2
ATOM      2  C   UNL     1      -7.459  -8.097  -3.923  1.00  0.00     0.006 C 
BRANCH   2   3
ATOM      3  C   UNL     1      -6.426  -8.182  -2.790  1.00  0.00     0.053 C 
BRANCH   3   4
ATOM      4  C   UNL     1      -6.996  -8.919  -1.620  1.00  0.00     0.041 C 
ATOM      5  O   UNL     1      -6.231  -9.439  -0.766  1.00  0.00    -0.550 OA
ATOM      6  O   UNL     1      -8.371  -8.992  -1.447  1.00  0.00    -0.550 OA
ENDBRANCH   3   4
ENDBRANCH   2   3
ENDBRANCH   1   2
BRANCH   1   7
ATOM      7  C   UNL     1      -7.674  -6.346  -5.776  1.00  0.00     0.000 C 
BRANCH   7   8
ATOM      8  C   UNL     1      -6.668  -7.285  -6.463  1.00  0.00    -0.000 C 
BRANCH   8   9
ATOM      9  C   UNL     1      -5.753  -6.547  -7.455  1.00  0.00    -0.000 C 
BRANCH   9  10
ATOM     10  C   UNL     1      -6.291  -5.157  -7.829  1.00  0.00    -0.003 C 
ATOM     11  C   UNL     1      -6.720  -5.063  -9.294  1.00  0.00     0.004 C 
ENDBRANCH   9  10
ENDBRANCH   8   9
ENDBRANCH   7   8
ENDBRANCH   1   7
TORSDOF 7
ENDMDL
MODEL 6
REMARK VINA RESULT:    -4.145      3.497      5.245
REMARK INTER + INTRA:          -6.321
REMARK INTER:                  -5.563
REMARK INTRA:                  -0.758
REMARK UNBOUND:                -0.480
REMARK SMILES CCCCCCCCC(=O)[O-]
REMARK SMILES IDX 6 1 7 2 8 3 9 4 10 5 11 6 5 7 4 8 3 9 2 10 1 11
REMARK H PARENT
REMARK Flexibility Score: inf
ROOT
ATOM      1  C   UNL     1       0.301  -0.691   6.714  1.00  0.00     0.000 C 
ENDROOT
BRANCH   1   2
ATOM      2  C   UNL     1       0.431   0.760   7.202  1.00  0.00     0.006 C 
BRANCH   2   3
ATOM      3  C   UNL     1      -0.862   1.567   7.018  1.00  0.00     0.053 C 
BRANCH   3   4
ATOM      4  C   UNL     1      -1.307   1.519   5.591  1.00  0.00     0.041 C 
ATOM      5  O   UNL     1      -0.627   2.088   4.696  1.00  0.00    -0.550 OA
ATOM      6  O   UNL     1      -2.446   0.806   5.241  1.00  0.00    -0.550 OA
ENDBRANCH   3   4
ENDBRANCH   2   3
ENDBRANCH   1   2
BRANCH   1   7
ATOM      7  C   UNL     1      -0.672  -1.518   7.573  1.00  0.00     0.000 C 
BRANCH   7   8
ATOM      8  C   UNL     1      -0.131  -1.782   8.989  1.00  0.00    -0.000 C 
BRANCH   8   9
ATOM      9  C   UNL     1      -1.061  -1.236  10.087  1.00  0.00    -0.000 C 
BRANCH   9  10
ATOM     10  C   UNL     1      -2.411  -0.757   9.530  1.00  0.00    -0.003 C 
ATOM     11  C   UNL     1      -2.818   0.617  10.061  1.00  0.00     0.004 C 
ENDBRANCH   9  10
ENDBRANCH   8   9
ENDBRANCH   7   8
ENDBRANCH   1   7
TORSDOF 7
ENDMDL
MODEL 7
REMARK VINA RESULT:    -4.107      1.645      2.924
REMARK INTER + INTRA:          -6.267
REMARK INTER:                  -5.544
REMARK INTRA:                  -0.723
REMARK UNBOUND:                -0.480
REMARK SMILES CCCCCCCCC(=O)[O-]
REMARK SMILES IDX 6 1 7 2 8 3 9 4 10 5 11 6 5 7 4 8 3 9 2 10 1 11
REMARK H PARENT
REMARK Flexibility Score: inf
ROOT
ATOM      1  C   UNL     1      -2.302   1.344   6.732  1.00  0.00     0.000 C 
ENDROOT
BRANCH   1   2
ATOM      2  C   UNL     1      -2.014   0.416   7.922  1.00  0.00     0.006 C 
BRANCH   2   3
ATOM      3  C   UNL     1      -1.438  -0.940   7.492  1.00  0.00     0.053 C 
BRANCH   3   4
ATOM      4  C   UNL     1      -0.338  -1.356   8.416  1.00  0.00     0.041 C 
ATOM      5  O   UNL     1      -0.554  -2.212   9.314  1.00  0.00    -0.550 OA
ATOM      6  O   UNL     1       0.939  -0.834   8.257  1.00  0.00    -0.550 OA
ENDBRANCH   3   4
ENDBRANCH   2   3
ENDBRANCH   1   2
BRANCH   1   7
ATOM      7  C   UNL     1      -1.801   0.766   5.397  1.00  0.00     0.000 C 
BRANCH   7   8
ATOM      8  C   UNL     1      -0.613   1.555   4.820  1.00  0.00    -0.000 C 
BRANCH   8   9
ATOM      9  C   UNL     1       0.717   1.210   5.514  1.00  0.00    -0.000 C 
BRANCH   9  10
ATOM     10  C   UNL     1       1.369   2.434   6.177  1.00  0.00    -0.003 C 
ATOM     11  C   UNL     1       0.937   2.621   7.631  1.00  0.00     0.004 C 
ENDBRANCH   9  10
ENDBRANCH   8   9
ENDBRANCH   7   8
ENDBRANCH   1   7
TORSDOF 7
ENDMDL
MODEL 8
REMARK VINA RESULT:    -4.098      3.072      4.895
REMARK INTER + INTRA:          -6.254
REMARK INTER:                  -5.739
REMARK INTRA:                  -0.516
REMARK UNBOUND:                -0.480
REMARK SMILES CCCCCCCCC(=O)[O-]
REMARK SMILES IDX 6 1 7 2 8 3 9 4 10 5 11 6 5 7 4 8 3 9 2 10 1 11
REMARK H PARENT
REMARK Flexibility Score: inf
ROOT
ATOM      1  C   UNL     1      -1.938   1.062   6.269  1.00  0.00     0.000 C 
ENDROOT
BRANCH   1   2
ATOM      2  C   UNL     1      -0.883   1.488   5.236  1.00  0.00     0.006 C 
BRANCH   2   3
ATOM      3  C   UNL     1       0.551   1.197   5.698  1.00  0.00     0.053 C 
BRANCH   3   4
ATOM      4  C   UNL     1       0.934   2.113   6.817  1.00  0.00     0.041 C 
ATOM      5  O   UNL     1       0.934   1.696   8.005  1.00  0.00    -0.550 OA
ATOM      6  O   UNL     1       1.336   3.413   6.544  1.00  0.00    -0.550 OA
ENDBRANCH   3   4
ENDBRANCH   2   3
ENDBRANCH   1   2
BRANCH   1   7
ATOM      7  C   UNL     1      -1.713  -0.368   6.789  1.00  0.00     0.000 C 
BRANCH   7   8
ATOM      8  C   UNL     1      -2.481  -0.651   8.091  1.00  0.00    -0.000 C 
BRANCH   8   9
ATOM      9  C   UNL     1      -1.826   0.006   9.318  1.00  0.00    -0.000 C 
BRANCH   9  10
ATOM     10  C   UNL     1      -2.797   0.917  10.085  1.00  0.00    -0.003 C 
ATOM     11  C   UNL     1      -2.686   2.384   9.670  1.00  0.00     0.004 C 
ENDBRANCH   9  10
ENDBRANCH   8   9
ENDBRANCH   7   8
ENDBRANCH   1   7
TORSDOF 7
ENDMDL
MODEL 9
REMARK VINA RESULT:    -4.067      1.648      2.461
REMARK INTER + INTRA:          -6.211
REMARK INTER:                  -5.561
REMARK INTRA:                  -0.651
REMARK UNBOUND:                -0.480
REMARK SMILES CCCCCCCCC(=O)[O-]
REMARK SMILES IDX 6 1 7 2 8 3 9 4 10 5 11 6 5 7 4 8 3 9 2 10 1 11
REMARK H PARENT
REMARK Flexibility Score: inf
ROOT
ATOM      1  C   UNL     1      -2.168   0.489   8.835  1.00  0.00     0.000 C 
ENDROOT
BRANCH   1   2
ATOM      2  C   UNL     1      -2.226  -0.593   7.745  1.00  0.00     0.006 C 
BRANCH   2   3
ATOM      3  C   UNL     1      -1.387  -1.830   8.091  1.00  0.00     0.053 C 
BRANCH   3   4
ATOM      4  C   UNL     1       0.070  -1.535   7.923  1.00  0.00     0.041 C 
ATOM      5  O   UNL     1       0.540  -1.296   6.779  1.00  0.00    -0.550 OA
ATOM      6  O   UNL     1       0.901  -1.477   9.034  1.00  0.00    -0.550 OA
ENDBRANCH   3   4
ENDBRANCH   2   3
ENDBRANCH   1   2
BRANCH   1   7
ATOM      7  C   UNL     1      -1.945   1.898   8.258  1.00  0.00     0.000 C 
BRANCH   7   8
ATOM      8  C   UNL     1      -1.259   1.871   6.882  1.00  0.00    -0.000 C 
BRANCH   8   9
ATOM      9  C   UNL     1       0.249   2.162   6.968  1.00  0.00    -0.000 C 
BRANCH   9  10
ATOM     10  C   UNL     1       0.991   1.815   5.667  1.00  0.00    -0.003 C 
ATOM     11  C   UNL     1       0.043   1.454   4.523  1.00  0.00     0.004 C 
ENDBRANCH   9  10
ENDBRANCH   8   9
ENDBRANCH   7   8
ENDBRANCH   1   7
TORSDOF 7
ENDMDL
