MODEL 1
REMARK VINA RESULT:    -3.779      0.000      0.000
REMARK INTER + INTRA:          -5.913
REMARK INTER:                  -5.547
REMARK INTRA:                  -0.367
REMARK UNBOUND:                -0.367
REMARK SMILES O=C([O-])CCCCCCCC(=O)[O-]
REMARK SMILES IDX 7 1 6 2 5 3 4 4 2 5 1 6 3 7 8 8 9 9 10 10 11 11 12 12 13 13
REMARK H PARENT
REMARK Flexibility Score: inf
ROOT
ATOM      1  C   UNL     1     -46.316 -26.428   2.405  1.00  0.00     0.000 C 
ENDROOT
BRANCH   1   2
ATOM      2  C   UNL     1     -45.187 -26.176   1.394  1.00  0.00     0.000 C 
BRANCH   2   3
ATOM      3  C   UNL     1     -44.803 -27.439   0.609  1.00  0.00     0.006 C 
BRANCH   3   4
ATOM      4  C   UNL     1     -43.641 -27.199  -0.364  1.00  0.00     0.053 C 
BRANCH   4   5
ATOM      5  C   UNL     1     -42.665 -28.332  -0.300  1.00  0.00     0.041 C 
ATOM      6  O   UNL     1     -43.048 -29.512  -0.521  1.00  0.00    -0.550 OA
ATOM      7  O   UNL     1     -41.323 -28.081  -0.045  1.00  0.00    -0.550 OA
ENDBRANCH   4   5
ENDBRANCH   3   4
ENDBRANCH   2   3
ENDBRANCH   1   2
BRANCH   1   8
ATOM      8  C   UNL     1     -46.342 -27.902   2.840  1.00  0.00     0.000 C 
BRANCH   8   9
ATOM      9  C   UNL     1     -46.212 -28.072   4.362  1.00  0.00     0.006 C 
BRANCH   9  10
ATOM     10  C   UNL     1     -46.185 -26.730   5.106  1.00  0.00     0.053 C 
BRANCH  10  11
ATOM     11  C   UNL     1     -45.617 -26.906   6.479  1.00  0.00     0.041 C 
ATOM     12  O   UNL     1     -45.723 -25.985   7.331  1.00  0.00    -0.550 OA
ATOM     13  O   UNL     1     -45.016 -28.106   6.834  1.00  0.00    -0.550 OA
ENDBRANCH  10  11
ENDBRANCH   9  10
ENDBRANCH   8   9
ENDBRANCH   1   8
TORSDOF 8
ENDMDL
MODEL 2
REMARK VINA RESULT:    -3.733      1.079      1.508
REMARK INTER + INTRA:          -5.846
REMARK INTER:                  -5.435
REMARK INTRA:                  -0.411
REMARK UNBOUND:                -0.367
REMARK SMILES O=C([O-])CCCCCCCC(=O)[O-]
REMARK SMILES IDX 7 1 6 2 5 3 4 4 2 5 1 6 3 7 8 8 9 9 10 10 11 11 12 12 13 13
REMARK H PARENT
REMARK Flexibility Score: inf
ROOT
ATOM      1  C   UNL     1     -46.309 -26.407   2.506  1.00  0.00     0.000 C 
ENDROOT
BRANCH   1   2
ATOM      2  C   UNL     1     -45.389 -26.541   1.283  1.00  0.00     0.000 C 
BRANCH   2   3
ATOM      3  C   UNL     1     -45.192 -28.001   0.847  1.00  0.00     0.006 C 
BRANCH   3   4
ATOM      4  C   UNL     1     -44.728 -28.124  -0.610  1.00  0.00     0.053 C 
BRANCH   4   5
ATOM      5  C   UNL     1     -43.438 -27.391  -0.810  1.00  0.00     0.041 C 
ATOM      6  O   UNL     1     -42.414 -27.721  -0.156  1.00  0.00    -0.550 OA
ATOM      7  O   UNL     1     -43.355 -26.375  -1.753  1.00  0.00    -0.550 OA
ENDBRANCH   4   5
ENDBRANCH   3   4
ENDBRANCH   2   3
ENDBRANCH   1   2
BRANCH   1   8
ATOM      8  C   UNL     1     -46.619 -27.785   3.111  1.00  0.00     0.000 C 
BRANCH   8   9
ATOM      9  C   UNL     1     -46.189 -27.895   4.583  1.00  0.00     0.006 C 
BRANCH   9  10
ATOM     10  C   UNL     1     -46.252 -26.550   5.318  1.00  0.00     0.053 C 
BRANCH  10  11
ATOM     11  C   UNL     1     -45.721 -26.691   6.710  1.00  0.00     0.041 C 
ATOM     12  O   UNL     1     -45.019 -27.688   7.023  1.00  0.00    -0.550 OA
ATOM     13  O   UNL     1     -45.960 -25.695   7.649  1.00  0.00    -0.550 OA
ENDBRANCH  10  11
ENDBRANCH   9  10
ENDBRANCH   8   9
ENDBRANCH   1   8
TORSDOF 8
ENDMDL
MODEL 3
REMARK VINA RESULT:    -3.676      1.512      6.713
REMARK INTER + INTRA:          -5.761
REMARK INTER:                  -5.394
REMARK INTRA:                  -0.367
REMARK UNBOUND:                -0.367
REMARK SMILES O=C([O-])CCCCCCCC(=O)[O-]
REMARK SMILES IDX 7 1 6 2 5 3 4 4 2 5 1 6 3 7 8 8 9 9 10 10 11 11 12 12 13 13
REMARK H PARENT
REMARK Flexibility Score: inf
ROOT
ATOM      1  C   UNL     1     -46.312 -26.359   2.787  1.00  0.00     0.000 C 
ENDROOT
BRANCH   1   2
ATOM      2  C   UNL     1     -46.519 -27.723   3.463  1.00  0.00     0.000 C 
BRANCH   2   3
ATOM      3  C   UNL     1     -46.083 -27.725   4.937  1.00  0.00     0.006 C 
BRANCH   3   4
ATOM      4  C   UNL     1     -46.949 -26.807   5.810  1.00  0.00     0.053 C 
BRANCH   4   5
ATOM      5  C   UNL     1     -46.147 -26.268   6.953  1.00  0.00     0.041 C 
ATOM      6  O   UNL     1     -44.962 -26.655   7.134  1.00  0.00    -0.550 OA
ATOM      7  O   UNL     1     -46.692 -25.303   7.790  1.00  0.00    -0.550 OA
ENDBRANCH   4   5
ENDBRANCH   3   4
ENDBRANCH   2   3
ENDBRANCH   1   2
BRANCH   1   8
ATOM      8  C   UNL     1     -45.610 -26.522   1.429  1.00  0.00     0.000 C 
BRANCH   8   9
ATOM      9  C   UNL     1     -45.700 -27.957   0.884  1.00  0.00     0.006 C 
BRANCH   9  10
ATOM     10  C   UNL     1     -44.487 -28.340   0.027  1.00  0.00     0.053 C 
BRANCH  10  11
ATOM     11  C   UNL     1     -44.385 -27.441  -1.165  1.00  0.00     0.041 C 
ATOM     12  O   UNL     1     -43.370 -26.714  -1.325  1.00  0.00    -0.550 OA
ATOM     13  O   UNL     1     -45.389 -27.444  -2.125  1.00  0.00    -0.550 OA
ENDBRANCH  10  11
ENDBRANCH   9  10
ENDBRANCH   8   9
ENDBRANCH   1   8
TORSDOF 8
ENDMDL
MODEL 4
REMARK VINA RESULT:    -3.631      0.832      6.319
REMARK INTER + INTRA:          -5.696
REMARK INTER:                  -5.458
REMARK INTRA:                  -0.238
REMARK UNBOUND:                -0.367
REMARK SMILES O=C([O-])CCCCCCCC(=O)[O-]
REMARK SMILES IDX 7 1 6 2 5 3 4 4 2 5 1 6 3 7 8 8 9 9 10 10 11 11 12 12 13 13
REMARK H PARENT
REMARK Flexibility Score: inf
ROOT
ATOM      1  C   UNL     1     -45.495 -26.059   1.523  1.00  0.00     0.000 C 
ENDROOT
BRANCH   1   2
ATOM      2  C   UNL     1     -46.658 -26.321   2.492  1.00  0.00     0.000 C 
BRANCH   2   3
ATOM      3  C   UNL     1     -46.265 -27.248   3.653  1.00  0.00     0.006 C 
BRANCH   3   4
ATOM      4  C   UNL     1     -46.656 -26.677   5.023  1.00  0.00     0.053 C 
BRANCH   4   5
ATOM      5  C   UNL     1     -45.704 -27.150   6.076  1.00  0.00     0.041 C 
ATOM      6  O   UNL     1     -45.326 -28.352   6.095  1.00  0.00    -0.550 OA
ATOM      7  O   UNL     1     -45.195 -26.254   7.007  1.00  0.00    -0.550 OA
ENDBRANCH   4   5
ENDBRANCH   3   4
ENDBRANCH   2   3
ENDBRANCH   1   2
BRANCH   1   8
ATOM      8  C   UNL     1     -45.269 -27.267   0.600  1.00  0.00     0.000 C 
BRANCH   8   9
ATOM      9  C   UNL     1     -43.821 -27.362   0.093  1.00  0.00     0.006 C 
BRANCH   9  10
ATOM     10  C   UNL     1     -43.410 -28.799  -0.251  1.00  0.00     0.053 C 
BRANCH  10  11
ATOM     11  C   UNL     1     -41.919 -28.927  -0.264  1.00  0.00     0.041 C 
ATOM     12  O   UNL     1     -41.378 -30.056  -0.126  1.00  0.00    -0.550 OA
ATOM     13  O   UNL     1     -41.128 -27.806  -0.478  1.00  0.00    -0.550 OA
ENDBRANCH  10  11
ENDBRANCH   9  10
ENDBRANCH   8   9
ENDBRANCH   1   8
TORSDOF 8
ENDMDL
MODEL 5
REMARK VINA RESULT:    -3.284      5.250      9.398
REMARK INTER + INTRA:          -5.186
REMARK INTER:                  -4.851
REMARK INTRA:                  -0.335
REMARK UNBOUND:                -0.367
REMARK SMILES O=C([O-])CCCCCCCC(=O)[O-]
REMARK SMILES IDX 7 1 6 2 5 3 4 4 2 5 1 6 3 7 8 8 9 9 10 10 11 11 12 12 13 13
REMARK H PARENT
REMARK Flexibility Score: inf
ROOT
ATOM      1  C   UNL     1     -46.038 -28.801  -4.576  1.00  0.00     0.000 C 
ENDROOT
BRANCH   1   2
ATOM      2  C   UNL     1     -45.679 -29.219  -3.142  1.00  0.00     0.000 C 
BRANCH   2   3
ATOM      3  C   UNL     1     -45.280 -28.027  -2.259  1.00  0.00     0.006 C 
BRANCH   3   4
ATOM      4  C   UNL     1     -44.943 -28.443  -0.821  1.00  0.00     0.053 C 
BRANCH   4   5
ATOM      5  C   UNL     1     -43.959 -27.489  -0.220  1.00  0.00     0.041 C 
ATOM      6  O   UNL     1     -44.363 -26.468   0.399  1.00  0.00    -0.550 OA
ATOM      7  O   UNL     1     -42.598 -27.751  -0.300  1.00  0.00    -0.550 OA
ENDBRANCH   4   5
ENDBRANCH   3   4
ENDBRANCH   2   3
ENDBRANCH   1   2
BRANCH   1   8
ATOM      8  C   UNL     1     -45.445 -27.423  -4.908  1.00  0.00     0.000 C 
BRANCH   8   9
ATOM      9  C   UNL     1     -45.009 -27.304  -6.378  1.00  0.00     0.006 C 
BRANCH   9  10
ATOM     10  C   UNL     1     -44.405 -28.605  -6.921  1.00  0.00     0.053 C 
BRANCH  10  11
ATOM     11  C   UNL     1     -43.310 -28.305  -7.895  1.00  0.00     0.041 C 
ATOM     12  O   UNL     1     -43.586 -27.889  -9.051  1.00  0.00    -0.550 OA
ATOM     13  O   UNL     1     -41.982 -28.437  -7.510  1.00  0.00    -0.550 OA
ENDBRANCH  10  11
ENDBRANCH   9  10
ENDBRANCH   8   9
ENDBRANCH   1   8
TORSDOF 8
ENDMDL
MODEL 6
REMARK VINA RESULT:    -3.273      5.830      7.799
REMARK INTER + INTRA:          -5.170
REMARK INTER:                  -4.764
REMARK INTRA:                  -0.406
REMARK UNBOUND:                -0.367
REMARK SMILES O=C([O-])CCCCCCCC(=O)[O-]
REMARK SMILES IDX 7 1 6 2 5 3 4 4 2 5 1 6 3 7 8 8 9 9 10 10 11 11 12 12 13 13
REMARK H PARENT
REMARK Flexibility Score: inf
ROOT
ATOM      1  C   UNL     1     -45.689 -27.542  -4.993  1.00  0.00     0.000 C 
ENDROOT
BRANCH   1   2
ATOM      2  C   UNL     1     -46.431 -27.489  -6.337  1.00  0.00     0.000 C 
BRANCH   2   3
ATOM      3  C   UNL     1     -45.480 -27.553  -7.542  1.00  0.00     0.006 C 
BRANCH   3   4
ATOM      4  C   UNL     1     -44.002 -27.546  -7.128  1.00  0.00     0.053 C 
BRANCH   4   5
ATOM      5  C   UNL     1     -43.176 -28.283  -8.135  1.00  0.00     0.041 C 
ATOM      6  O   UNL     1     -43.634 -28.513  -9.286  1.00  0.00    -0.550 OA
ATOM      7  O   UNL     1     -41.881 -28.675  -7.820  1.00  0.00    -0.550 OA
ENDBRANCH   4   5
ENDBRANCH   3   4
ENDBRANCH   2   3
ENDBRANCH   1   2
BRANCH   1   8
ATOM      8  C   UNL     1     -46.464 -28.393  -3.974  1.00  0.00     0.000 C 
BRANCH   8   9
ATOM      9  C   UNL     1     -45.561 -29.384  -3.223  1.00  0.00     0.006 C 
BRANCH   9  10
ATOM     10  C   UNL     1     -45.680 -29.253  -1.699  1.00  0.00     0.053 C 
BRANCH  10  11
ATOM     11  C   UNL     1     -45.450 -27.836  -1.278  1.00  0.00     0.041 C 
ATOM     12  O   UNL     1     -46.330 -27.218  -0.623  1.00  0.00    -0.550 OA
ATOM     13  O   UNL     1     -44.241 -27.213  -1.564  1.00  0.00    -0.550 OA
ENDBRANCH  10  11
ENDBRANCH   9  10
ENDBRANCH   8   9
ENDBRANCH   1   8
TORSDOF 8
ENDMDL
MODEL 7
REMARK VINA RESULT:    -3.237      1.502      5.895
REMARK INTER + INTRA:          -5.117
REMARK INTER:                  -4.520
REMARK INTRA:                  -0.597
REMARK UNBOUND:                -0.367
REMARK SMILES O=C([O-])CCCCCCCC(=O)[O-]
REMARK SMILES IDX 7 1 6 2 5 3 4 4 2 5 1 6 3 7 8 8 9 9 10 10 11 11 12 12 13 13
REMARK H PARENT
REMARK Flexibility Score: inf
ROOT
ATOM      1  C   UNL     1     -45.884 -26.145   1.761  1.00  0.00     0.000 C 
ENDROOT
BRANCH   1   2
ATOM      2  C   UNL     1     -46.463 -26.433   3.154  1.00  0.00     0.000 C 
BRANCH   2   3
ATOM      3  C   UNL     1     -47.032 -27.855   3.277  1.00  0.00     0.006 C 
BRANCH   3   4
ATOM      4  C   UNL     1     -46.014 -28.851   3.848  1.00  0.00     0.053 C 
BRANCH   4   5
ATOM      5  C   UNL     1     -46.043 -28.827   5.344  1.00  0.00     0.041 C 
ATOM      6  O   UNL     1     -47.011 -28.296   5.950  1.00  0.00    -0.550 OA
ATOM      7  O   UNL     1     -45.026 -29.433   6.069  1.00  0.00    -0.550 OA
ENDBRANCH   4   5
ENDBRANCH   3   4
ENDBRANCH   2   3
ENDBRANCH   1   2
BRANCH   1   8
ATOM      8  C   UNL     1     -46.659 -26.911   0.677  1.00  0.00     0.000 C 
BRANCH   8   9
ATOM      9  C   UNL     1     -45.733 -27.645  -0.306  1.00  0.00     0.006 C 
BRANCH   9  10
ATOM     10  C   UNL     1     -44.380 -28.010   0.319  1.00  0.00     0.053 C 
BRANCH  10  11
ATOM     11  C   UNL     1     -43.258 -27.482  -0.519  1.00  0.00     0.041 C 
ATOM     12  O   UNL     1     -43.477 -26.594  -1.384  1.00  0.00    -0.550 OA
ATOM     13  O   UNL     1     -41.962 -27.935  -0.310  1.00  0.00    -0.550 OA
ENDBRANCH  10  11
ENDBRANCH   9  10
ENDBRANCH   8   9
ENDBRANCH   1   8
TORSDOF 8
ENDMDL
MODEL 8
REMARK VINA RESULT:    -3.055      2.530      3.519
REMARK INTER + INTRA:          -4.850
REMARK INTER:                  -4.393
REMARK INTRA:                  -0.457
REMARK UNBOUND:                -0.367
REMARK SMILES O=C([O-])CCCCCCCC(=O)[O-]
REMARK SMILES IDX 7 1 6 2 5 3 4 4 2 5 1 6 3 7 8 8 9 9 10 10 11 11 12 12 13 13
REMARK H PARENT
REMARK Flexibility Score: inf
ROOT
ATOM      1  C   UNL     1     -46.357 -28.873   4.662  1.00  0.00     0.000 C 
ENDROOT
BRANCH   1   2
ATOM      2  C   UNL     1     -45.986 -29.565   3.342  1.00  0.00     0.000 C 
BRANCH   2   3
ATOM      3  C   UNL     1     -46.089 -28.625   2.131  1.00  0.00     0.006 C 
BRANCH   3   4
ATOM      4  C   UNL     1     -46.405 -27.178   2.532  1.00  0.00     0.053 C 
BRANCH   4   5
ATOM      5  C   UNL     1     -45.913 -26.228   1.485  1.00  0.00     0.041 C 
ATOM      6  O   UNL     1     -44.931 -26.538   0.760  1.00  0.00    -0.550 OA
ATOM      7  O   UNL     1     -46.569 -25.022   1.277  1.00  0.00    -0.550 OA
ENDBRANCH   4   5
ENDBRANCH   3   4
ENDBRANCH   2   3
ENDBRANCH   1   2
BRANCH   1   8
ATOM      8  C   UNL     1     -45.277 -29.116   5.729  1.00  0.00     0.000 C 
BRANCH   8   9
ATOM      9  C   UNL     1     -45.232 -28.005   6.790  1.00  0.00     0.006 C 
BRANCH   9  10
ATOM     10  C   UNL     1     -46.631 -27.559   7.236  1.00  0.00     0.053 C 
BRANCH  10  11
ATOM     11  C   UNL     1     -46.759 -26.071   7.140  1.00  0.00     0.041 C 
ATOM     12  O   UNL     1     -47.125 -25.534   6.062  1.00  0.00    -0.550 OA
ATOM     13  O   UNL     1     -46.523 -25.280   8.258  1.00  0.00    -0.550 OA
ENDBRANCH  10  11
ENDBRANCH   9  10
ENDBRANCH   8   9
ENDBRANCH   1   8
TORSDOF 8
ENDMDL
