MODEL 1
REMARK VINA RESULT:    17.495      0.000      0.000
REMARK INTER + INTRA:          20.023
REMARK INTER:                  19.540
REMARK INTRA:                   0.483
REMARK UNBOUND:                 0.483
REMARK SMILES O=C([O-])c1ccccc1C(=O)[O-]
REMARK SMILES IDX 4 1 9 2 5 3 8 4 6 5 7 6 2 7 1 8 3 9 10 10 11 11 12 12
REMARK H PARENT
REMARK Flexibility Score: inf
ROOT
ATOM      1  C   UNL     1     -26.118   7.224 -13.699  1.00  0.00     0.006 A 
ATOM      2  C   UNL     1     -25.299   6.857 -12.594  1.00  0.00     0.006 A 
ATOM      3  C   UNL     1     -27.039   6.290 -14.209  1.00  0.00     0.010 A 
ATOM      4  C   UNL     1     -25.388   5.549 -12.082  1.00  0.00     0.010 A 
ATOM      5  C   UNL     1     -27.125   5.005 -13.671  1.00  0.00     0.001 A 
ATOM      6  C   UNL     1     -26.294   4.632 -12.618  1.00  0.00     0.001 A 
ENDROOT
BRANCH   1   7
ATOM      7  C   UNL     1     -25.998   8.527 -14.392  1.00  0.00     0.072 C 
ATOM      8  O   UNL     1     -25.118   8.710 -15.274  1.00  0.00    -0.545 OA
ATOM      9  O   UNL     1     -26.905   9.545 -14.123  1.00  0.00    -0.545 OA
ENDBRANCH   1   7
BRANCH   2  10
ATOM     10  C   UNL     1     -24.405   7.816 -11.908  1.00  0.00     0.072 C 
ATOM     11  O   UNL     1     -23.886   8.769 -12.549  1.00  0.00    -0.545 OA
ATOM     12  O   UNL     1     -24.072   7.645 -10.569  1.00  0.00    -0.545 OA
ENDBRANCH   2  10
TORSDOF 2
ENDMDL
MODEL 2
REMARK VINA RESULT:    17.675      0.086      3.049
REMARK INTER + INTRA:          20.225
REMARK INTER:                  19.791
REMARK INTRA:                   0.434
REMARK UNBOUND:                 0.483
REMARK SMILES O=C([O-])c1ccccc1C(=O)[O-]
REMARK SMILES IDX 4 1 9 2 5 3 8 4 6 5 7 6 2 7 1 8 3 9 10 10 11 11 12 12
REMARK H PARENT
REMARK Flexibility Score: inf
ROOT
ATOM      1  C   UNL     1     -25.274   6.838 -12.604  1.00  0.00     0.006 A 
ATOM      2  C   UNL     1     -26.085   7.234 -13.705  1.00  0.00     0.006 A 
ATOM      3  C   UNL     1     -25.383   5.524 -12.111  1.00  0.00     0.010 A 
ATOM      4  C   UNL     1     -27.019   6.322 -14.229  1.00  0.00     0.010 A 
ATOM      5  C   UNL     1     -26.301   4.630 -12.661  1.00  0.00     0.001 A 
ATOM      6  C   UNL     1     -27.125   5.031 -13.710  1.00  0.00     0.001 A 
ENDROOT
BRANCH   1   7
ATOM      7  C   UNL     1     -24.363   7.769 -11.898  1.00  0.00     0.072 C 
ATOM      8  O   UNL     1     -23.851   8.749 -12.500  1.00  0.00    -0.545 OA
ATOM      9  O   UNL     1     -24.115   7.606 -10.541  1.00  0.00    -0.545 OA
ENDBRANCH   1   7
BRANCH   2  10
ATOM     10  C   UNL     1     -25.938   8.547 -14.374  1.00  0.00     0.072 C 
ATOM     11  O   UNL     1     -26.739   9.484 -14.114  1.00  0.00    -0.545 OA
ATOM     12  O   UNL     1     -24.962   8.744 -15.344  1.00  0.00    -0.545 OA
ENDBRANCH   2  10
TORSDOF 2
ENDMDL
MODEL 3
REMARK VINA RESULT:    17.789     15.458     16.093
REMARK INTER + INTRA:          20.352
REMARK INTER:                  20.538
REMARK INTRA:                  -0.186
REMARK UNBOUND:                 0.483
REMARK SMILES O=C([O-])c1ccccc1C(=O)[O-]
REMARK SMILES IDX 4 1 9 2 5 3 8 4 6 5 7 6 2 7 1 8 3 9 10 10 11 11 12 12
REMARK H PARENT
REMARK Flexibility Score: inf
ROOT
ATOM      1  C   UNL     1     -12.603   0.401 -17.215  1.00  0.00     0.006 A 
ATOM      2  C   UNL     1     -12.044  -0.727 -17.879  1.00  0.00     0.006 A 
ATOM      3  C   UNL     1     -13.549   0.195 -16.194  1.00  0.00     0.010 A 
ATOM      4  C   UNL     1     -12.500  -2.015 -17.541  1.00  0.00     0.010 A 
ATOM      5  C   UNL     1     -13.970  -1.093 -15.860  1.00  0.00     0.001 A 
ATOM      6  C   UNL     1     -13.455  -2.194 -16.540  1.00  0.00     0.001 A 
ENDROOT
BRANCH   1   7
ATOM      7  C   UNL     1     -12.288   1.797 -17.596  1.00  0.00     0.072 C 
ATOM      8  O   UNL     1     -12.879   2.351 -18.560  1.00  0.00    -0.545 OA
ATOM      9  O   UNL     1     -11.381   2.536 -16.847  1.00  0.00    -0.545 OA
ENDBRANCH   1   7
BRANCH   2  10
ATOM     10  C   UNL     1     -10.946  -0.612 -18.865  1.00  0.00     0.072 C 
ATOM     11  O   UNL     1     -11.201  -0.347 -20.071  1.00  0.00    -0.545 OA
ATOM     12  O   UNL     1      -9.629  -0.857 -18.494  1.00  0.00    -0.545 OA
ENDBRANCH   2  10
TORSDOF 2
ENDMDL
MODEL 4
REMARK VINA RESULT:    17.831     15.420     16.086
REMARK INTER + INTRA:          20.398
REMARK INTER:                  20.609
REMARK INTRA:                  -0.211
REMARK UNBOUND:                 0.483
REMARK SMILES O=C([O-])c1ccccc1C(=O)[O-]
REMARK SMILES IDX 4 1 9 2 5 3 8 4 6 5 7 6 2 7 1 8 3 9 10 10 11 11 12 12
REMARK H PARENT
REMARK Flexibility Score: inf
ROOT
ATOM      1  C   UNL     1     -12.072  -0.700 -17.879  1.00  0.00     0.006 A 
ATOM      2  C   UNL     1     -12.604   0.431 -17.198  1.00  0.00     0.006 A 
ATOM      3  C   UNL     1     -12.545  -1.983 -17.547  1.00  0.00     0.010 A 
ATOM      4  C   UNL     1     -13.542   0.230 -16.169  1.00  0.00     0.010 A 
ATOM      5  C   UNL     1     -13.493  -2.157 -16.538  1.00  0.00     0.001 A 
ATOM      6  C   UNL     1     -13.981  -1.054 -15.843  1.00  0.00     0.001 A 
ENDROOT
BRANCH   1   7
ATOM      7  C   UNL     1     -10.983  -0.600 -18.878  1.00  0.00     0.072 C 
ATOM      8  O   UNL     1      -9.792  -0.861 -18.562  1.00  0.00    -0.545 OA
ATOM      9  O   UNL     1     -11.277  -0.282 -20.198  1.00  0.00    -0.545 OA
ENDBRANCH   1   7
BRANCH   2  10
ATOM     10  C   UNL     1     -12.267   1.822 -17.575  1.00  0.00     0.072 C 
ATOM     11  O   UNL     1     -11.426   2.476 -16.902  1.00  0.00    -0.545 OA
ATOM     12  O   UNL     1     -12.919   2.449 -18.631  1.00  0.00    -0.545 OA
ENDBRANCH   2  10
TORSDOF 2
ENDMDL
MODEL 5
REMARK VINA RESULT:    18.494     16.232     16.905
REMARK INTER + INTRA:          21.139
REMARK INTER:                  20.374
REMARK INTRA:                   0.765
REMARK UNBOUND:                 0.483
REMARK SMILES O=C([O-])c1ccccc1C(=O)[O-]
REMARK SMILES IDX 4 1 9 2 5 3 8 4 6 5 7 6 2 7 1 8 3 9 10 10 11 11 12 12
REMARK H PARENT
REMARK Flexibility Score: inf
ROOT
ATOM      1  C   UNL     1     -12.014  -0.121 -17.530  1.00  0.00     0.006 A 
ATOM      2  C   UNL     1     -10.780   0.493 -17.175  1.00  0.00     0.006 A 
ATOM      3  C   UNL     1     -13.139   0.690 -17.764  1.00  0.00     0.010 A 
ATOM      4  C   UNL     1     -10.734   1.889 -17.006  1.00  0.00     0.010 A 
ATOM      5  C   UNL     1     -13.065   2.075 -17.612  1.00  0.00     0.001 A 
ATOM      6  C   UNL     1     -11.869   2.672 -17.223  1.00  0.00     0.001 A 
ENDROOT
BRANCH   1   7
ATOM      7  C   UNL     1     -12.193  -1.590 -17.596  1.00  0.00     0.072 C 
ATOM      8  O   UNL     1     -11.413  -2.304 -18.279  1.00  0.00    -0.545 OA
ATOM      9  O   UNL     1     -13.190  -2.205 -16.848  1.00  0.00    -0.545 OA
ENDBRANCH   1   7
BRANCH   2  10
ATOM     10  C   UNL     1      -9.516  -0.268 -17.046  1.00  0.00     0.072 C 
ATOM     11  O   UNL     1      -8.796  -0.132 -16.021  1.00  0.00    -0.545 OA
ATOM     12  O   UNL     1      -9.073  -1.090 -18.076  1.00  0.00    -0.545 OA
ENDBRANCH   2  10
TORSDOF 2
ENDMDL
MODEL 6
REMARK VINA RESULT:    18.497     16.226     17.023
REMARK INTER + INTRA:          21.143
REMARK INTER:                  20.248
REMARK INTRA:                   0.895
REMARK UNBOUND:                 0.483
REMARK SMILES O=C([O-])c1ccccc1C(=O)[O-]
REMARK SMILES IDX 4 1 9 2 5 3 8 4 6 5 7 6 2 7 1 8 3 9 10 10 11 11 12 12
REMARK H PARENT
REMARK Flexibility Score: inf
ROOT
ATOM      1  C   UNL     1     -10.762   0.491 -17.158  1.00  0.00     0.006 A 
ATOM      2  C   UNL     1     -12.006  -0.104 -17.510  1.00  0.00     0.006 A 
ATOM      3  C   UNL     1     -10.696   1.886 -16.987  1.00  0.00     0.010 A 
ATOM      4  C   UNL     1     -13.120   0.724 -17.741  1.00  0.00     0.010 A 
ATOM      5  C   UNL     1     -11.818   2.686 -17.200  1.00  0.00     0.001 A 
ATOM      6  C   UNL     1     -13.025   2.108 -17.587  1.00  0.00     0.001 A 
ENDROOT
BRANCH   1   7
ATOM      7  C   UNL     1      -9.506  -0.283 -17.030  1.00  0.00     0.072 C 
ATOM      8  O   UNL     1      -9.192  -1.149 -17.888  1.00  0.00    -0.545 OA
ATOM      9  O   UNL     1      -8.624  -0.013 -15.990  1.00  0.00    -0.545 OA
ENDBRANCH   1   7
BRANCH   2  10
ATOM     10  C   UNL     1     -12.201  -1.570 -17.575  1.00  0.00     0.072 C 
ATOM     11  O   UNL     1     -11.492  -2.271 -18.346  1.00  0.00    -0.545 OA
ATOM     12  O   UNL     1     -13.207  -2.187 -16.840  1.00  0.00    -0.545 OA
ENDBRANCH   2  10
TORSDOF 2
ENDMDL
MODEL 7
REMARK VINA RESULT:    18.779      1.949      3.322
REMARK INTER + INTRA:          21.458
REMARK INTER:                  20.837
REMARK INTRA:                   0.621
REMARK UNBOUND:                 0.483
REMARK SMILES O=C([O-])c1ccccc1C(=O)[O-]
REMARK SMILES IDX 4 1 9 2 5 3 8 4 6 5 7 6 2 7 1 8 3 9 10 10 11 11 12 12
REMARK H PARENT
REMARK Flexibility Score: inf
ROOT
ATOM      1  C   UNL     1     -26.034   6.064 -13.111  1.00  0.00     0.006 A 
ATOM      2  C   UNL     1     -25.338   7.246 -12.732  1.00  0.00     0.006 A 
ATOM      3  C   UNL     1     -26.787   6.064 -14.300  1.00  0.00     0.010 A 
ATOM      4  C   UNL     1     -25.474   8.403 -13.522  1.00  0.00     0.010 A 
ATOM      5  C   UNL     1     -26.890   7.217 -15.080  1.00  0.00     0.001 A 
ATOM      6  C   UNL     1     -26.245   8.386 -14.686  1.00  0.00     0.001 A 
ENDROOT
BRANCH   1   7
ATOM      7  C   UNL     1     -26.063   4.843 -12.274  1.00  0.00     0.072 C 
ATOM      8  O   UNL     1     -27.057   4.583 -11.547  1.00  0.00    -0.545 OA
ATOM      9  O   UNL     1     -25.015   3.932 -12.333  1.00  0.00    -0.545 OA
ENDBRANCH   1   7
BRANCH   2  10
ATOM     10  C   UNL     1     -24.414   7.295 -11.577  1.00  0.00     0.072 C 
ATOM     11  O   UNL     1     -23.566   8.222 -11.481  1.00  0.00    -0.545 OA
ATOM     12  O   UNL     1     -24.422   6.288 -10.618  1.00  0.00    -0.545 OA
ENDBRANCH   2  10
TORSDOF 2
ENDMDL
MODEL 8
REMARK VINA RESULT:    18.932      2.017      3.731
REMARK INTER + INTRA:          21.628
REMARK INTER:                  20.906
REMARK INTRA:                   0.723
REMARK UNBOUND:                 0.483
REMARK SMILES O=C([O-])c1ccccc1C(=O)[O-]
REMARK SMILES IDX 4 1 9 2 5 3 8 4 6 5 7 6 2 7 1 8 3 9 10 10 11 11 12 12
REMARK H PARENT
REMARK Flexibility Score: inf
ROOT
ATOM      1  C   UNL     1     -25.289   7.217 -12.681  1.00  0.00     0.006 A 
ATOM      2  C   UNL     1     -26.014   6.085 -13.147  1.00  0.00     0.006 A 
ATOM      3  C   UNL     1     -25.367   8.424 -13.401  1.00  0.00     0.010 A 
ATOM      4  C   UNL     1     -26.738   6.184 -14.349  1.00  0.00     0.010 A 
ATOM      5  C   UNL     1     -26.109   8.506 -14.579  1.00  0.00     0.001 A 
ATOM      6  C   UNL     1     -26.784   7.386 -15.058  1.00  0.00     0.001 A 
ENDROOT
BRANCH   1   7
ATOM      7  C   UNL     1     -24.390   7.170 -11.504  1.00  0.00     0.072 C 
ATOM      8  O   UNL     1     -23.590   8.112 -11.266  1.00  0.00    -0.545 OA
ATOM      9  O   UNL     1     -24.471   6.111 -10.608  1.00  0.00    -0.545 OA
ENDBRANCH   1   7
BRANCH   2  10
ATOM     10  C   UNL     1     -26.100   4.821 -12.382  1.00  0.00     0.072 C 
ATOM     11  O   UNL     1     -27.101   4.588 -11.652  1.00  0.00    -0.545 OA
ATOM     12  O   UNL     1     -25.055   3.904 -12.403  1.00  0.00    -0.545 OA
ENDBRANCH   2  10
TORSDOF 2
ENDMDL
