MODEL 1
REMARK VINA RESULT:    -4.116      0.000      0.000
REMARK INTER + INTRA:          -6.070
REMARK INTER:                  -5.560
REMARK INTRA:                  -0.510
REMARK UNBOUND:                -0.510
REMARK SMILES CC(=O)CCC=C(C)CCC=C(C)C
REMARK SMILES IDX 7 1 6 2 8 3 9 4 10 5 11 6 13 7 12 8 14 9 5 10 4 11 2 12 3 13
REMARK SMILES IDX 1 14
REMARK H PARENT
REMARK Flexibility Score: inf
ROOT
ATOM      1  C   UNL     1     183.466 191.211 223.678  1.00  0.00    -0.077 C 
ATOM      2  C   UNL     1     184.636 191.429 223.034  1.00  0.00    -0.028 C 
ATOM      3  C   UNL     1     183.403 191.013 225.175  1.00  0.00     0.039 C 
ENDROOT
BRANCH   1   4
ATOM      4  C   UNL     1     182.183 191.176 222.875  1.00  0.00     0.034 C 
BRANCH   4   5
ATOM      5  C   UNL     1     181.415 189.874 223.129  1.00  0.00     0.032 C 
BRANCH   5   6
ATOM      6  C   UNL     1     179.933 190.058 222.900  1.00  0.00    -0.028 C 
ATOM      7  C   UNL     1     179.361 188.465 224.736  1.00  0.00     0.039 C 
ATOM      8  C   UNL     1     178.991 189.420 223.627  1.00  0.00    -0.080 C 
ATOM      9  C   UNL     1     177.540 189.676 223.314  1.00  0.00     0.039 C 
ENDBRANCH   5   6
ENDBRANCH   4   5
ENDBRANCH   1   4
BRANCH   2  10
ATOM     10  C   UNL     1     185.987 191.450 223.705  1.00  0.00     0.035 C 
BRANCH  10  11
ATOM     11  C   UNL     1     186.676 190.087 223.579  1.00  0.00     0.079 C 
BRANCH  11  12
ATOM     12  C   UNL     1     187.434 189.757 224.837  1.00  0.00     0.130 C 
ATOM     13  O   UNL     1     186.988 190.107 225.919  1.00  0.00    -0.300 OA
ATOM     14  C   UNL     1     188.735 189.009 224.792  1.00  0.00     0.087 C 
ENDBRANCH  11  12
ENDBRANCH  10  11
ENDBRANCH   2  10
TORSDOF 6
ENDMDL
MODEL 2
REMARK VINA RESULT:    -4.093      2.706      6.910
REMARK INTER + INTRA:          -6.038
REMARK INTER:                  -5.342
REMARK INTRA:                  -0.696
REMARK UNBOUND:                -0.510
REMARK SMILES CC(=O)CCC=C(C)CCC=C(C)C
REMARK SMILES IDX 7 1 6 2 8 3 9 4 10 5 11 6 13 7 12 8 14 9 5 10 4 11 2 12 3 13
REMARK SMILES IDX 1 14
REMARK H PARENT
REMARK Flexibility Score: inf
ROOT
ATOM      1  C   UNL     1     183.237 190.795 223.726  1.00  0.00    -0.077 C 
ATOM      2  C   UNL     1     182.339 189.967 223.143  1.00  0.00    -0.028 C 
ATOM      3  C   UNL     1     183.179 191.123 225.200  1.00  0.00     0.039 C 
ENDROOT
BRANCH   1   4
ATOM      4  C   UNL     1     184.335 191.401 222.879  1.00  0.00     0.034 C 
BRANCH   4   5
ATOM      5  C   UNL     1     185.590 191.665 223.719  1.00  0.00     0.032 C 
BRANCH   5   6
ATOM      6  C   UNL     1     186.605 190.560 223.551  1.00  0.00    -0.028 C 
ATOM      7  C   UNL     1     186.737 190.187 226.017  1.00  0.00     0.039 C 
ATOM      8  C   UNL     1     187.133 189.881 224.592  1.00  0.00    -0.080 C 
ATOM      9  C   UNL     1     188.140 188.796 224.312  1.00  0.00     0.039 C 
ENDBRANCH   5   6
ENDBRANCH   4   5
ENDBRANCH   1   4
BRANCH   2  10
ATOM     10  C   UNL     1     181.175 189.329 223.860  1.00  0.00     0.035 C 
BRANCH  10  11
ATOM     11  C   UNL     1     179.970 189.194 222.924  1.00  0.00     0.079 C 
BRANCH  11  12
ATOM     12  C   UNL     1     178.694 189.530 223.648  1.00  0.00     0.130 C 
ATOM     13  O   UNL     1     177.717 189.894 223.011  1.00  0.00    -0.300 OA
ATOM     14  C   UNL     1     178.596 189.437 225.143  1.00  0.00     0.087 C 
ENDBRANCH  11  12
ENDBRANCH  10  11
ENDBRANCH   2  10
TORSDOF 6
ENDMDL
MODEL 3
REMARK VINA RESULT:    -4.064      1.126      1.228
REMARK INTER + INTRA:          -6.000
REMARK INTER:                  -5.216
REMARK INTRA:                  -0.784
REMARK UNBOUND:                -0.510
REMARK SMILES CC(=O)CCC=C(C)CCC=C(C)C
REMARK SMILES IDX 7 1 6 2 8 3 9 4 10 5 11 6 13 7 12 8 14 9 5 10 4 11 2 12 3 13
REMARK SMILES IDX 1 14
REMARK H PARENT
REMARK Flexibility Score: inf
ROOT
ATOM      1  C   UNL     1     183.813 191.096 223.743  1.00  0.00    -0.077 C 
ATOM      2  C   UNL     1     184.948 191.090 223.006  1.00  0.00    -0.028 C 
ATOM      3  C   UNL     1     183.843 191.034 225.253  1.00  0.00     0.039 C 
ENDROOT
BRANCH   1   4
ATOM      4  C   UNL     1     182.478 191.177 223.036  1.00  0.00     0.034 C 
BRANCH   4   5
ATOM      5  C   UNL     1     181.858 189.784 222.875  1.00  0.00     0.032 C 
BRANCH   5   6
ATOM      6  C   UNL     1     180.390 189.793 223.230  1.00  0.00    -0.028 C 
ATOM      7  C   UNL     1     180.847 188.896 225.516  1.00  0.00     0.039 C 
ATOM      8  C   UNL     1     179.921 189.390 224.430  1.00  0.00    -0.080 C 
ATOM      9  C   UNL     1     178.436 189.440 224.680  1.00  0.00     0.039 C 
ENDBRANCH   5   6
ENDBRANCH   4   5
ENDBRANCH   1   4
BRANCH   2  10
ATOM     10  C   UNL     1     186.338 190.973 223.579  1.00  0.00     0.035 C 
BRANCH  10  11
ATOM     11  C   UNL     1     186.815 189.517 223.552  1.00  0.00     0.079 C 
BRANCH  11  12
ATOM     12  C   UNL     1     187.850 189.278 224.620  1.00  0.00     0.130 C 
ATOM     13  O   UNL     1     188.883 188.692 224.336  1.00  0.00    -0.300 OA
ATOM     14  C   UNL     1     187.635 189.738 226.032  1.00  0.00     0.087 C 
ENDBRANCH  11  12
ENDBRANCH  10  11
ENDBRANCH   2  10
TORSDOF 6
ENDMDL
MODEL 4
REMARK VINA RESULT:    -4.028     15.823     17.392
REMARK INTER + INTRA:          -5.951
REMARK INTER:                  -4.904
REMARK INTRA:                  -1.047
REMARK UNBOUND:                -0.510
REMARK SMILES CC(=O)CCC=C(C)CCC=C(C)C
REMARK SMILES IDX 7 1 6 2 8 3 9 4 10 5 11 6 13 7 12 8 14 9 5 10 4 11 2 12 3 13
REMARK SMILES IDX 1 14
REMARK H PARENT
REMARK Flexibility Score: inf
ROOT
ATOM      1  C   UNL     1     177.067 181.226 236.532  1.00  0.00    -0.077 C 
ATOM      2  C   UNL     1     177.935 181.669 237.470  1.00  0.00    -0.028 C 
ATOM      3  C   UNL     1     176.968 181.871 235.169  1.00  0.00     0.039 C 
ENDROOT
BRANCH   1   4
ATOM      4  C   UNL     1     176.179 180.043 236.853  1.00  0.00     0.034 C 
BRANCH   4   5
ATOM      5  C   UNL     1     177.017 178.826 237.263  1.00  0.00     0.032 C 
BRANCH   5   6
ATOM      6  C   UNL     1     177.772 178.259 236.085  1.00  0.00    -0.028 C 
ATOM      7  C   UNL     1     179.977 178.772 237.139  1.00  0.00     0.039 C 
ATOM      8  C   UNL     1     179.120 178.231 236.019  1.00  0.00    -0.080 C 
ATOM      9  C   UNL     1     179.774 177.643 234.796  1.00  0.00     0.039 C 
ENDBRANCH   5   6
ENDBRANCH   4   5
ENDBRANCH   1   4
BRANCH   2  10
ATOM     10  C   UNL     1     178.847 182.858 237.297  1.00  0.00     0.035 C 
BRANCH  10  11
ATOM     11  C   UNL     1     180.275 182.514 237.729  1.00  0.00     0.079 C 
BRANCH  11  12
ATOM     12  C   UNL     1     180.477 182.822 239.190  1.00  0.00     0.130 C 
ATOM     13  O   UNL     1     181.070 182.022 239.897  1.00  0.00    -0.300 OA
ATOM     14  C   UNL     1     179.957 184.091 239.799  1.00  0.00     0.087 C 
ENDBRANCH  11  12
ENDBRANCH  10  11
ENDBRANCH   2  10
TORSDOF 6
ENDMDL
MODEL 5
REMARK VINA RESULT:    -4.017      2.568      5.884
REMARK INTER + INTRA:          -5.936
REMARK INTER:                  -4.701
REMARK INTRA:                  -1.235
REMARK UNBOUND:                -0.510
REMARK SMILES CC(=O)CCC=C(C)CCC=C(C)C
REMARK SMILES IDX 7 1 6 2 8 3 9 4 10 5 11 6 13 7 12 8 14 9 5 10 4 11 2 12 3 13
REMARK SMILES IDX 1 14
REMARK H PARENT
REMARK Flexibility Score: inf
ROOT
ATOM      1  C   UNL     1     183.929 191.259 223.929  1.00  0.00    -0.077 C 
ATOM      2  C   UNL     1     183.162 190.896 222.875  1.00  0.00    -0.028 C 
ATOM      3  C   UNL     1     183.396 191.252 225.343  1.00  0.00     0.039 C 
ENDROOT
BRANCH   1   4
ATOM      4  C   UNL     1     185.365 191.672 223.684  1.00  0.00     0.034 C 
BRANCH   4   5
ATOM      5  C   UNL     1     186.115 190.596 222.891  1.00  0.00     0.032 C 
BRANCH   5   6
ATOM      6  C   UNL     1     186.826 189.633 223.811  1.00  0.00    -0.028 C 
ATOM      7  C   UNL     1     185.160 187.829 223.354  1.00  0.00     0.039 C 
ATOM      8  C   UNL     1     186.398 188.371 224.028  1.00  0.00    -0.080 C 
ATOM      9  C   UNL     1     187.182 187.492 224.968  1.00  0.00     0.039 C 
ENDBRANCH   5   6
ENDBRANCH   4   5
ENDBRANCH   1   4
BRANCH   2  10
ATOM     10  C   UNL     1     181.709 190.502 222.972  1.00  0.00     0.035 C 
BRANCH  10  11
ATOM     11  C   UNL     1     181.555 188.979 222.899  1.00  0.00     0.079 C 
BRANCH  11  12
ATOM     12  C   UNL     1     180.812 188.462 224.103  1.00  0.00     0.130 C 
ATOM     13  O   UNL     1     179.604 188.625 224.181  1.00  0.00    -0.300 OA
ATOM     14  C   UNL     1     181.527 187.755 225.217  1.00  0.00     0.087 C 
ENDBRANCH  11  12
ENDBRANCH  10  11
ENDBRANCH   2  10
TORSDOF 6
ENDMDL
MODEL 6
REMARK VINA RESULT:    -3.910      2.796      6.031
REMARK INTER + INTRA:          -5.791
REMARK INTER:                  -4.741
REMARK INTRA:                  -1.050
REMARK UNBOUND:                -0.510
REMARK SMILES CC(=O)CCC=C(C)CCC=C(C)C
REMARK SMILES IDX 7 1 6 2 8 3 9 4 10 5 11 6 13 7 12 8 14 9 5 10 4 11 2 12 3 13
REMARK SMILES IDX 1 14
REMARK H PARENT
REMARK Flexibility Score: inf
ROOT
ATOM      1  C   UNL     1     182.541 190.278 224.267  1.00  0.00    -0.077 C 
ATOM      2  C   UNL     1     181.735 189.851 223.267  1.00  0.00    -0.028 C 
ATOM      3  C   UNL     1     182.469 189.689 225.657  1.00  0.00     0.039 C 
ENDROOT
BRANCH   1   4
ATOM      4  C   UNL     1     183.551 191.369 223.980  1.00  0.00     0.034 C 
BRANCH   4   5
ATOM      5  C   UNL     1     184.523 190.937 222.876  1.00  0.00     0.032 C 
BRANCH   5   6
ATOM      6  C   UNL     1     185.882 190.602 223.443  1.00  0.00    -0.028 C 
ATOM      7  C   UNL     1     185.436 188.149 223.298  1.00  0.00     0.039 C 
ATOM      8  C   UNL     1     186.306 189.336 223.639  1.00  0.00    -0.080 C 
ATOM      9  C   UNL     1     187.681 189.113 224.211  1.00  0.00     0.039 C 
ENDBRANCH   5   6
ENDBRANCH   4   5
ENDBRANCH   1   4
BRANCH   2  10
ATOM     10  C   UNL     1     180.662 188.802 223.425  1.00  0.00     0.035 C 
BRANCH  10  11
ATOM     11  C   UNL     1     181.139 187.452 222.881  1.00  0.00     0.079 C 
BRANCH  11  12
ATOM     12  C   UNL     1     181.054 186.390 223.946  1.00  0.00     0.130 C 
ATOM     13  O   UNL     1     180.097 186.373 224.704  1.00  0.00    -0.300 OA
ATOM     14  C   UNL     1     182.128 185.354 224.102  1.00  0.00     0.087 C 
ENDBRANCH  11  12
ENDBRANCH  10  11
ENDBRANCH   2  10
TORSDOF 6
ENDMDL
MODEL 7
REMARK VINA RESULT:    -3.897      7.545      9.494
REMARK INTER + INTRA:          -5.774
REMARK INTER:                  -4.824
REMARK INTRA:                  -0.951
REMARK UNBOUND:                -0.510
REMARK SMILES CC(=O)CCC=C(C)CCC=C(C)C
REMARK SMILES IDX 7 1 6 2 8 3 9 4 10 5 11 6 13 7 12 8 14 9 5 10 4 11 2 12 3 13
REMARK SMILES IDX 1 14
REMARK H PARENT
REMARK Flexibility Score: inf
ROOT
ATOM      1  C   UNL     1     189.506 182.484 223.682  1.00  0.00    -0.077 C 
ATOM      2  C   UNL     1     189.974 183.601 223.078  1.00  0.00    -0.028 C 
ATOM      3  C   UNL     1     189.772 182.196 225.142  1.00  0.00     0.039 C 
ENDROOT
BRANCH   1   4
ATOM      4  C   UNL     1     188.683 181.503 222.875  1.00  0.00     0.034 C 
BRANCH   4   5
ATOM      5  C   UNL     1     187.400 181.122 223.622  1.00  0.00     0.032 C 
BRANCH   5   6
ATOM      6  C   UNL     1     186.363 182.216 223.522  1.00  0.00    -0.028 C 
ATOM      7  C   UNL     1     186.133 182.346 226.005  1.00  0.00     0.039 C 
ATOM      8  C   UNL     1     185.781 182.778 224.602  1.00  0.00    -0.080 C 
ATOM      9  C   UNL     1     184.757 183.863 224.390  1.00  0.00     0.039 C 
ENDBRANCH   5   6
ENDBRANCH   4   5
ENDBRANCH   1   4
BRANCH   2  10
ATOM     10  C   UNL     1     190.837 184.639 223.753  1.00  0.00     0.035 C 
BRANCH  10  11
ATOM     11  C   UNL     1     192.066 184.962 222.897  1.00  0.00     0.079 C 
BRANCH  11  12
ATOM     12  C   UNL     1     193.331 184.571 223.616  1.00  0.00     0.130 C 
ATOM     13  O   UNL     1     194.356 185.205 223.419  1.00  0.00    -0.300 OA
ATOM     14  C   UNL     1     193.362 183.409 224.566  1.00  0.00     0.087 C 
ENDBRANCH  11  12
ENDBRANCH  10  11
ENDBRANCH   2  10
TORSDOF 6
ENDMDL
MODEL 8
REMARK VINA RESULT:    -3.864      6.797      9.248
REMARK INTER + INTRA:          -5.729
REMARK INTER:                  -4.412
REMARK INTRA:                  -1.317
REMARK UNBOUND:                -0.510
REMARK SMILES CC(=O)CCC=C(C)CCC=C(C)C
REMARK SMILES IDX 7 1 6 2 8 3 9 4 10 5 11 6 13 7 12 8 14 9 5 10 4 11 2 12 3 13
REMARK SMILES IDX 1 14
REMARK H PARENT
REMARK Flexibility Score: inf
ROOT
ATOM      1  C   UNL     1     186.431 183.654 224.115  1.00  0.00    -0.077 C 
ATOM      2  C   UNL     1     187.096 184.733 223.642  1.00  0.00    -0.028 C 
ATOM      3  C   UNL     1     185.791 183.649 225.485  1.00  0.00     0.039 C 
ENDROOT
BRANCH   1   4
ATOM      4  C   UNL     1     186.315 182.422 223.244  1.00  0.00     0.034 C 
BRANCH   4   5
ATOM      5  C   UNL     1     187.268 181.322 223.724  1.00  0.00     0.032 C 
BRANCH   5   6
ATOM      6  C   UNL     1     188.608 181.417 223.033  1.00  0.00    -0.028 C 
ATOM      7  C   UNL     1     189.728 182.206 225.121  1.00  0.00     0.039 C 
ATOM      8  C   UNL     1     189.733 181.819 223.662  1.00  0.00    -0.080 C 
ATOM      9  C   UNL     1     191.018 181.878 222.878  1.00  0.00     0.039 C 
ENDBRANCH   5   6
ENDBRANCH   4   5
ENDBRANCH   1   4
BRANCH   2  10
ATOM     10  C   UNL     1     187.319 186.007 224.419  1.00  0.00     0.035 C 
BRANCH  10  11
ATOM     11  C   UNL     1     188.674 185.978 225.131  1.00  0.00     0.079 C 
BRANCH  11  12
ATOM     12  C   UNL     1     189.757 186.522 224.237  1.00  0.00     0.130 C 
ATOM     13  O   UNL     1     189.803 187.720 224.007  1.00  0.00    -0.300 OA
ATOM     14  C   UNL     1     190.780 185.619 223.612  1.00  0.00     0.087 C 
ENDBRANCH  11  12
ENDBRANCH  10  11
ENDBRANCH   2  10
TORSDOF 6
ENDMDL
MODEL 9
REMARK VINA RESULT:    -2.399      8.554     12.099
REMARK INTER + INTRA:          -3.750
REMARK INTER:                  -3.227
REMARK INTRA:                  -0.523
REMARK UNBOUND:                -0.510
REMARK SMILES CC(=O)CCC=C(C)CCC=C(C)C
REMARK SMILES IDX 7 1 6 2 8 3 9 4 10 5 11 6 13 7 12 8 14 9 5 10 4 11 2 12 3 13
REMARK SMILES IDX 1 14
REMARK H PARENT
REMARK Flexibility Score: inf
ROOT
ATOM      1  C   UNL     1     189.834 182.239 224.558  1.00  0.00    -0.077 C 
ATOM      2  C   UNL     1     189.122 182.017 223.429  1.00  0.00    -0.028 C 
ATOM      3  C   UNL     1     189.376 181.726 225.904  1.00  0.00     0.039 C 
ENDROOT
BRANCH   1   4
ATOM      4  C   UNL     1     191.131 183.014 224.467  1.00  0.00     0.034 C 
BRANCH   4   5
ATOM      5  C   UNL     1     191.680 182.995 223.036  1.00  0.00     0.032 C 
BRANCH   5   6
ATOM      6  C   UNL     1     193.164 182.714 223.022  1.00  0.00    -0.028 C 
ATOM      7  C   UNL     1     193.712 185.146 222.875  1.00  0.00     0.039 C 
ATOM      8  C   UNL     1     194.096 183.687 222.949  1.00  0.00    -0.080 C 
ATOM      9  C   UNL     1     195.551 183.297 222.941  1.00  0.00     0.039 C 
ENDBRANCH   5   6
ENDBRANCH   4   5
ENDBRANCH   1   4
BRANCH   2  10
ATOM     10  C   UNL     1     187.798 181.296 223.383  1.00  0.00     0.035 C 
BRANCH  10  11
ATOM     11  C   UNL     1     186.686 182.233 222.903  1.00  0.00     0.079 C 
BRANCH  11  12
ATOM     12  C   UNL     1     185.969 182.852 224.074  1.00  0.00     0.130 C 
ATOM     13  O   UNL     1     185.275 183.842 223.901  1.00  0.00    -0.300 OA
ATOM     14  C   UNL     1     186.094 182.281 225.456  1.00  0.00     0.087 C 
ENDBRANCH  11  12
ENDBRANCH  10  11
ENDBRANCH   2  10
TORSDOF 6
ENDMDL
