MODEL 1
REMARK VINA RESULT:    -9.065      0.000      0.000
REMARK INTER + INTRA:         -13.343
REMARK INTER:                 -12.509
REMARK INTRA:                  -0.833
REMARK UNBOUND:                -0.833
REMARK SMILES O=C([O-])[C@H]1O[C@H](Oc2cc3oc(-c4ccccc4)cc(=O)c3c(O)c2O)[C@H](O)[C@@H](O)[C@@H]1O
REMARK SMILES IDX 7 1 6 2 4 3 31 4 5 5 29 6 27 7 2 8 1 9 3 10 32 11 30 13
REMARK SMILES IDX 28 15 8 17 25 18 9 19 23 20 10 21 22 22 11 23 20 24 12 25
REMARK SMILES IDX 19 26 21 27 26 28 24 30 13 32 14 33 18 34 15 35 17 36 16 37
REMARK H PARENT 32 12 30 14 28 16 26 29 24 31
REMARK Flexibility Score: inf
ROOT
ATOM      1  O   UNL     1       6.807 -33.800  44.472  1.00  0.00    -0.458 OA
ENDROOT
BRANCH   1   2
ATOM      2  C   UNL     1       7.909 -33.331  45.264  1.00  0.00     0.339 C 
ATOM      3  C   UNL     1       9.227 -32.970  43.349  1.00  0.00     0.199 C 
ATOM      4  C   UNL     1       9.240 -31.438  43.523  1.00  0.00     0.180 C 
ATOM      5  O   UNL     1       9.131 -33.627  44.605  1.00  0.00    -0.328 OA
ATOM      6  C   UNL     1       7.976 -30.991  44.272  1.00  0.00     0.181 C 
ATOM      7  C   UNL     1       7.825 -31.815  45.568  1.00  0.00     0.214 C 
BRANCH   3   8
ATOM      8  C   UNL     1      10.488 -33.420  42.672  1.00  0.00     0.073 C 
ATOM      9  O   UNL     1      11.366 -34.055  43.316  1.00  0.00    -0.547 OA
ATOM     10  O   UNL     1      10.713 -33.103  41.338  1.00  0.00    -0.547 OA
ENDBRANCH   3   8
BRANCH   4  11
ATOM     11  O   UNL     1       9.286 -30.822  42.260  1.00  0.00    -0.387 OA
ATOM     12  H   UNL     1       8.363 -30.846  41.895  1.00  0.00     0.211 HD
ENDBRANCH   4  11
BRANCH   6  13
ATOM     13  O   UNL     1       8.079 -29.624  44.584  1.00  0.00    -0.387 OA
ATOM     14  H   UNL     1       7.612 -29.491  45.450  1.00  0.00     0.211 HD
ENDBRANCH   6  13
BRANCH   7  15
ATOM     15  O   UNL     1       6.649 -31.489  46.268  1.00  0.00    -0.384 OA
ATOM     16  H   UNL     1       5.928 -32.102  45.970  1.00  0.00     0.211 HD
ENDBRANCH   7  15
ENDBRANCH   1   2
BRANCH   1  17
ATOM     17  C   UNL     1       6.299 -35.109  44.343  1.00  0.00     0.172 A 
ATOM     18  C   UNL     1       6.995 -36.284  44.712  1.00  0.00     0.201 A 
ATOM     19  C   UNL     1       5.021 -35.220  43.800  1.00  0.00     0.098 A 
ATOM     20  C   UNL     1       6.382 -37.548  44.569  1.00  0.00     0.176 A 
ATOM     21  C   UNL     1       4.419 -36.460  43.606  1.00  0.00     0.146 A 
ATOM     22  C   UNL     1       5.095 -37.651  43.964  1.00  0.00     0.111 A 
ATOM     23  O   UNL     1       3.204 -36.499  43.071  1.00  0.00    -0.456 OA
ATOM     24  C   UNL     1       4.444 -38.871  43.657  1.00  0.00     0.197 A 
ATOM     25  C   UNL     1       2.552 -37.628  42.812  1.00  0.00     0.138 A 
ATOM     26  C   UNL     1       3.164 -38.854  43.102  1.00  0.00     0.100 A 
ATOM     27  O   UNL     1       4.996 -39.987  43.842  1.00  0.00    -0.289 OA
BRANCH  18  28
ATOM     28  O   UNL     1       8.290 -36.207  45.224  1.00  0.00    -0.502 OA
ATOM     29  H   UNL     1       8.694 -35.348  45.576  1.00  0.00     0.293 HD
ENDBRANCH  18  28
BRANCH  20  30
ATOM     30  O   UNL     1       7.079 -38.656  45.064  1.00  0.00    -0.504 OA
ATOM     31  H   UNL     1       6.785 -39.615  44.954  1.00  0.00     0.293 HD
ENDBRANCH  20  30
BRANCH  25  32
ATOM     32  C   UNL     1       1.191 -37.548  42.224  1.00  0.00     0.017 A 
ATOM     33  C   UNL     1       1.030 -37.046  40.919  1.00  0.00     0.012 A 
ATOM     34  C   UNL     1       0.052 -37.991  42.926  1.00  0.00     0.012 A 
ATOM     35  C   UNL     1      -0.240 -36.968  40.339  1.00  0.00     0.001 A 
ATOM     36  C   UNL     1      -1.216 -37.910  42.341  1.00  0.00     0.001 A 
ATOM     37  C   UNL     1      -1.362 -37.397  41.051  1.00  0.00     0.000 A 
ENDBRANCH  25  32
ENDBRANCH   1  17
TORSDOF 9
ENDMDL
MODEL 2
REMARK VINA RESULT:    -7.822      2.309      3.270
REMARK INTER + INTRA:         -11.627
REMARK INTER:                 -10.808
REMARK INTRA:                  -0.819
REMARK UNBOUND:                -0.833
REMARK SMILES O=C([O-])[C@H]1O[C@H](Oc2cc3oc(-c4ccccc4)cc(=O)c3c(O)c2O)[C@H](O)[C@@H](O)[C@@H]1O
REMARK SMILES IDX 7 1 6 2 4 3 31 4 5 5 29 6 27 7 2 8 1 9 3 10 32 11 30 13
REMARK SMILES IDX 28 15 8 17 25 18 9 19 23 20 10 21 22 22 11 23 20 24 12 25
REMARK SMILES IDX 19 26 21 27 26 28 24 30 13 32 14 33 18 34 15 35 17 36 16 37
REMARK H PARENT 32 12 30 14 28 16 26 29 24 31
REMARK Flexibility Score: inf
ROOT
ATOM      1  O   UNL     1       7.492 -33.781  42.960  1.00  0.00    -0.458 OA
ENDROOT
BRANCH   1   2
ATOM      2  C   UNL     1       8.781 -33.688  43.585  1.00  0.00     0.339 C 
ATOM      3  C   UNL     1       8.493 -31.391  44.007  1.00  0.00     0.199 C 
ATOM      4  C   UNL     1       8.440 -31.577  45.538  1.00  0.00     0.180 C 
ATOM      5  O   UNL     1       9.309 -32.382  43.400  1.00  0.00    -0.328 OA
ATOM      6  C   UNL     1       7.922 -32.983  45.872  1.00  0.00     0.181 C 
ATOM      7  C   UNL     1       8.742 -34.034  45.094  1.00  0.00     0.214 C 
BRANCH   3   8
ATOM      8  C   UNL     1       9.056 -30.042  43.673  1.00  0.00     0.073 C 
ATOM      9  O   UNL     1      10.286 -29.903  43.443  1.00  0.00    -0.547 OA
ATOM     10  O   UNL     1       8.226 -28.927  43.655  1.00  0.00    -0.547 OA
ENDBRANCH   3   8
BRANCH   4  11
ATOM     11  O   UNL     1       7.586 -30.611  46.098  1.00  0.00    -0.387 OA
ATOM     12  H   UNL     1       7.322 -29.999  45.362  1.00  0.00     0.211 HD
ENDBRANCH   4  11
BRANCH   6  13
ATOM     13  O   UNL     1       8.045 -33.208  47.254  1.00  0.00    -0.387 OA
ATOM     14  H   UNL     1       7.971 -34.188  47.394  1.00  0.00     0.211 HD
ENDBRANCH   6  13
BRANCH   7  15
ATOM     15  O   UNL     1       8.272 -35.342  45.316  1.00  0.00    -0.384 OA
ATOM     16  H   UNL     1       8.877 -35.783  45.967  1.00  0.00     0.211 HD
ENDBRANCH   7  15
ENDBRANCH   1   2
BRANCH   1  17
ATOM     17  C   UNL     1       6.974 -34.805  42.142  1.00  0.00     0.172 A 
ATOM     18  C   UNL     1       7.721 -35.527  41.181  1.00  0.00     0.201 A 
ATOM     19  C   UNL     1       5.622 -35.098  42.309  1.00  0.00     0.098 A 
ATOM     20  C   UNL     1       7.111 -36.557  40.433  1.00  0.00     0.176 A 
ATOM     21  C   UNL     1       4.991 -36.078  41.546  1.00  0.00     0.146 A 
ATOM     22  C   UNL     1       5.715 -36.811  40.577  1.00  0.00     0.111 A 
ATOM     23  O   UNL     1       3.696 -36.299  41.744  1.00  0.00    -0.456 OA
ATOM     24  C   UNL     1       4.978 -37.729  39.790  1.00  0.00     0.197 A 
ATOM     25  C   UNL     1       2.989 -37.185  41.049  1.00  0.00     0.138 A 
ATOM     26  C   UNL     1       3.621 -37.929  40.044  1.00  0.00     0.100 A 
ATOM     27  O   UNL     1       5.501 -38.361  38.835  1.00  0.00    -0.289 OA
BRANCH  18  28
ATOM     28  O   UNL     1       9.067 -35.232  40.966  1.00  0.00    -0.502 OA
ATOM     29  H   UNL     1       9.398 -34.305  40.728  1.00  0.00     0.293 HD
ENDBRANCH  18  28
BRANCH  20  30
ATOM     30  O   UNL     1       7.936 -37.308  39.588  1.00  0.00    -0.504 OA
ATOM     31  H   UNL     1       8.843 -37.012  39.261  1.00  0.00     0.293 HD
ENDBRANCH  20  30
BRANCH  25  32
ATOM     32  C   UNL     1       1.549 -37.357  41.368  1.00  0.00     0.017 A 
ATOM     33  C   UNL     1       1.168 -37.726  42.672  1.00  0.00     0.012 A 
ATOM     34  C   UNL     1       0.544 -37.131  40.406  1.00  0.00     0.012 A 
ATOM     35  C   UNL     1      -0.182 -37.886  42.999  1.00  0.00     0.001 A 
ATOM     36  C   UNL     1      -0.805 -37.293  40.739  1.00  0.00     0.001 A 
ATOM     37  C   UNL     1      -1.167 -37.672  42.033  1.00  0.00     0.000 A 
ENDBRANCH  25  32
ENDBRANCH   1  17
TORSDOF 9
ENDMDL
MODEL 3
REMARK VINA RESULT:    -7.597      1.140      2.612
REMARK INTER + INTRA:         -11.317
REMARK INTER:                 -10.250
REMARK INTRA:                  -1.067
REMARK UNBOUND:                -0.833
REMARK SMILES O=C([O-])[C@H]1O[C@H](Oc2cc3oc(-c4ccccc4)cc(=O)c3c(O)c2O)[C@H](O)[C@@H](O)[C@@H]1O
REMARK SMILES IDX 7 1 6 2 4 3 31 4 5 5 29 6 27 7 2 8 1 9 3 10 32 11 30 13
REMARK SMILES IDX 28 15 8 17 25 18 9 19 23 20 10 21 22 22 11 23 20 24 12 25
REMARK SMILES IDX 19 26 21 27 26 28 24 30 13 32 14 33 18 34 15 35 17 36 16 37
REMARK H PARENT 32 12 30 14 28 16 26 29 24 31
REMARK Flexibility Score: inf
ROOT
ATOM      1  O   UNL     1       7.256 -33.827  43.863  1.00  0.00    -0.458 OA
ENDROOT
BRANCH   1   2
ATOM      2  C   UNL     1       6.922 -32.724  43.007  1.00  0.00     0.339 C 
ATOM      3  C   UNL     1       8.425 -31.302  44.128  1.00  0.00     0.199 C 
ATOM      4  C   UNL     1       9.366 -31.172  42.913  1.00  0.00     0.180 C 
ATOM      5  O   UNL     1       7.081 -31.503  43.715  1.00  0.00    -0.328 OA
ATOM      6  C   UNL     1       9.252 -32.426  42.033  1.00  0.00     0.181 C 
ATOM      7  C   UNL     1       7.768 -32.697  41.710  1.00  0.00     0.214 C 
BRANCH   3   8
ATOM      8  C   UNL     1       8.486 -30.055  44.959  1.00  0.00     0.073 C 
ATOM      9  O   UNL     1       8.195 -30.091  46.185  1.00  0.00    -0.547 OA
ATOM     10  O   UNL     1       8.824 -28.843  44.372  1.00  0.00    -0.547 OA
ENDBRANCH   3   8
BRANCH   4  11
ATOM     11  O   UNL     1      10.691 -31.025  43.360  1.00  0.00    -0.387 OA
ATOM     12  H   UNL     1      10.736 -30.161  43.847  1.00  0.00     0.211 HD
ENDBRANCH   4  11
BRANCH   6  13
ATOM     13  O   UNL     1       9.972 -32.226  40.843  1.00  0.00    -0.387 OA
ATOM     14  H   UNL     1      10.210 -33.125  40.496  1.00  0.00     0.211 HD
ENDBRANCH   6  13
BRANCH   7  15
ATOM     15  O   UNL     1       7.597 -33.871  40.952  1.00  0.00    -0.384 OA
ATOM     16  H   UNL     1       8.416 -34.012  40.409  1.00  0.00     0.211 HD
ENDBRANCH   7  15
ENDBRANCH   1   2
BRANCH   1  17
ATOM     17  C   UNL     1       6.653 -35.098  43.949  1.00  0.00     0.172 A 
ATOM     18  C   UNL     1       7.258 -36.241  44.523  1.00  0.00     0.201 A 
ATOM     19  C   UNL     1       5.372 -35.206  43.412  1.00  0.00     0.098 A 
ATOM     20  C   UNL     1       6.553 -37.463  44.585  1.00  0.00     0.176 A 
ATOM     21  C   UNL     1       4.680 -36.415  43.420  1.00  0.00     0.146 A 
ATOM     22  C   UNL     1       5.264 -37.573  43.985  1.00  0.00     0.111 A 
ATOM     23  O   UNL     1       3.467 -36.455  42.880  1.00  0.00    -0.456 OA
ATOM     24  C   UNL     1       4.525 -38.777  43.878  1.00  0.00     0.197 A 
ATOM     25  C   UNL     1       2.734 -37.561  42.804  1.00  0.00     0.138 A 
ATOM     26  C   UNL     1       3.252 -38.762  43.307  1.00  0.00     0.100 A 
ATOM     27  O   UNL     1       4.992 -39.883  44.257  1.00  0.00    -0.289 OA
BRANCH  18  28
ATOM     28  O   UNL     1       8.553 -36.173  45.036  1.00  0.00    -0.502 OA
ATOM     29  H   UNL     1       8.965 -36.909  45.595  1.00  0.00     0.293 HD
ENDBRANCH  18  28
BRANCH  20  30
ATOM     30  O   UNL     1       7.163 -38.519  45.271  1.00  0.00    -0.504 OA
ATOM     31  H   UNL     1       6.986 -39.496  45.097  1.00  0.00     0.293 HD
ENDBRANCH  20  30
BRANCH  25  32
ATOM     32  C   UNL     1       1.385 -37.484  42.189  1.00  0.00     0.017 A 
ATOM     33  C   UNL     1       0.259 -37.863  42.943  1.00  0.00     0.012 A 
ATOM     34  C   UNL     1       1.195 -37.010  40.875  1.00  0.00     0.012 A 
ATOM     35  C   UNL     1      -1.023 -37.792  42.389  1.00  0.00     0.001 A 
ATOM     36  C   UNL     1      -0.091 -36.940  40.327  1.00  0.00     0.001 A 
ATOM     37  C   UNL     1      -1.197 -37.333  41.082  1.00  0.00     0.000 A 
ENDBRANCH  25  32
ENDBRANCH   1  17
TORSDOF 9
ENDMDL
MODEL 4
REMARK VINA RESULT:    -7.563      2.192      3.519
REMARK INTER + INTRA:         -11.270
REMARK INTER:                 -10.189
REMARK INTRA:                  -1.080
REMARK UNBOUND:                -0.833
REMARK SMILES O=C([O-])[C@H]1O[C@H](Oc2cc3oc(-c4ccccc4)cc(=O)c3c(O)c2O)[C@H](O)[C@@H](O)[C@@H]1O
REMARK SMILES IDX 7 1 6 2 4 3 31 4 5 5 29 6 27 7 2 8 1 9 3 10 32 11 30 13
REMARK SMILES IDX 28 15 8 17 25 18 9 19 23 20 10 21 22 22 11 23 20 24 12 25
REMARK SMILES IDX 19 26 21 27 26 28 24 30 13 32 14 33 18 34 15 35 17 36 16 37
REMARK H PARENT 32 12 30 14 28 16 26 29 24 31
REMARK Flexibility Score: inf
ROOT
ATOM      1  O   UNL     1       6.121 -33.867  43.263  1.00  0.00    -0.458 OA
ENDROOT
BRANCH   1   2
ATOM      2  C   UNL     1       7.528 -34.141  43.338  1.00  0.00     0.339 C 
ATOM      3  C   UNL     1       8.042 -31.850  43.492  1.00  0.00     0.199 C 
ATOM      4  C   UNL     1       8.562 -31.961  44.939  1.00  0.00     0.180 C 
ATOM      5  O   UNL     1       8.257 -33.059  42.777  1.00  0.00    -0.328 OA
ATOM      6  C   UNL     1       7.875 -33.138  45.648  1.00  0.00     0.181 C 
ATOM      7  C   UNL     1       8.009 -34.410  44.785  1.00  0.00     0.214 C 
BRANCH   3   8
ATOM      8  C   UNL     1       8.753 -30.741  42.774  1.00  0.00     0.073 C 
ATOM      9  O   UNL     1       8.280 -30.266  41.708  1.00  0.00    -0.547 OA
ATOM     10  O   UNL     1       9.961 -30.259  43.263  1.00  0.00    -0.547 OA
ENDBRANCH   3   8
BRANCH   4  11
ATOM     11  O   UNL     1       8.288 -30.766  45.629  1.00  0.00    -0.387 OA
ATOM     12  H   UNL     1       7.667 -30.242  45.059  1.00  0.00     0.211 HD
ENDBRANCH   4  11
BRANCH   6  13
ATOM     13  O   UNL     1       8.479 -33.343  46.900  1.00  0.00    -0.387 OA
ATOM     14  H   UNL     1       8.673 -34.314  46.970  1.00  0.00     0.211 HD
ENDBRANCH   6  13
BRANCH   7  15
ATOM     15  O   UNL     1       7.346 -35.510  45.359  1.00  0.00    -0.384 OA
ATOM     16  H   UNL     1       6.378 -35.298  45.409  1.00  0.00     0.211 HD
ENDBRANCH   7  15
ENDBRANCH   1   2
BRANCH   1  17
ATOM     17  C   UNL     1       5.040 -34.771  43.243  1.00  0.00     0.172 A 
ATOM     18  C   UNL     1       4.327 -35.203  44.386  1.00  0.00     0.201 A 
ATOM     19  C   UNL     1       4.677 -35.265  41.991  1.00  0.00     0.098 A 
ATOM     20  C   UNL     1       3.237 -36.091  44.251  1.00  0.00     0.176 A 
ATOM     21  C   UNL     1       3.637 -36.178  41.844  1.00  0.00     0.146 A 
ATOM     22  C   UNL     1       2.911 -36.629  42.972  1.00  0.00     0.111 A 
ATOM     23  O   UNL     1       3.349 -36.621  40.625  1.00  0.00    -0.456 OA
ATOM     24  C   UNL     1       1.924 -37.619  42.742  1.00  0.00     0.197 A 
ATOM     25  C   UNL     1       2.400 -37.518  40.375  1.00  0.00     0.138 A 
ATOM     26  C   UNL     1       1.657 -38.043  41.440  1.00  0.00     0.100 A 
ATOM     27  O   UNL     1       1.289 -38.160  43.684  1.00  0.00    -0.289 OA
BRANCH  18  28
ATOM     28  O   UNL     1       4.690 -34.755  45.656  1.00  0.00    -0.502 OA
ATOM     29  H   UNL     1       5.613 -34.400  45.873  1.00  0.00     0.293 HD
ENDBRANCH  18  28
BRANCH  20  30
ATOM     30  O   UNL     1       2.504 -36.383  45.407  1.00  0.00    -0.504 OA
ATOM     31  H   UNL     1       1.940 -35.717  45.913  1.00  0.00     0.293 HD
ENDBRANCH  20  30
BRANCH  25  32
ATOM     32  C   UNL     1       2.159 -37.929  38.968  1.00  0.00     0.017 A 
ATOM     33  C   UNL     1       0.884 -37.744  38.403  1.00  0.00     0.012 A 
ATOM     34  C   UNL     1       3.183 -38.475  38.169  1.00  0.00     0.012 A 
ATOM     35  C   UNL     1       0.633 -38.116  37.079  1.00  0.00     0.001 A 
ATOM     36  C   UNL     1       2.926 -38.845  36.844  1.00  0.00     0.001 A 
ATOM     37  C   UNL     1       1.653 -38.668  36.301  1.00  0.00     0.000 A 
ENDBRANCH  25  32
ENDBRANCH   1  17
TORSDOF 9
ENDMDL
MODEL 5
REMARK VINA RESULT:    -7.461      3.048      4.277
REMARK INTER + INTRA:         -11.130
REMARK INTER:                  -9.726
REMARK INTRA:                  -1.404
REMARK UNBOUND:                -0.833
REMARK SMILES O=C([O-])[C@H]1O[C@H](Oc2cc3oc(-c4ccccc4)cc(=O)c3c(O)c2O)[C@H](O)[C@@H](O)[C@@H]1O
REMARK SMILES IDX 7 1 6 2 4 3 31 4 5 5 29 6 27 7 2 8 1 9 3 10 32 11 30 13
REMARK SMILES IDX 28 15 8 17 25 18 9 19 23 20 10 21 22 22 11 23 20 24 12 25
REMARK SMILES IDX 19 26 21 27 26 28 24 30 13 32 14 33 18 34 15 35 17 36 16 37
REMARK H PARENT 32 12 30 14 28 16 26 29 24 31
REMARK Flexibility Score: inf
ROOT
ATOM      1  O   UNL     1       7.821 -34.457  40.637  1.00  0.00    -0.458 OA
ENDROOT
BRANCH   1   2
ATOM      2  C   UNL     1       8.782 -35.199  39.870  1.00  0.00     0.339 C 
ATOM      3  C   UNL     1       8.449 -33.827  37.988  1.00  0.00     0.199 C 
ATOM      4  C   UNL     1       9.869 -33.226  38.049  1.00  0.00     0.180 C 
ATOM      5  O   UNL     1       8.433 -35.154  38.494  1.00  0.00    -0.328 OA
ATOM      6  C   UNL     1      10.383 -33.259  39.496  1.00  0.00     0.181 C 
ATOM      7  C   UNL     1      10.229 -34.685  40.066  1.00  0.00     0.214 C 
BRANCH   3   8
ATOM      8  C   UNL     1       7.964 -33.854  36.568  1.00  0.00     0.073 C 
ATOM      9  O   UNL     1       8.782 -33.772  35.614  1.00  0.00    -0.547 OA
ATOM     10  O   UNL     1       6.603 -33.929  36.300  1.00  0.00    -0.547 OA
ENDBRANCH   3   8
BRANCH   4  11
ATOM     11  O   UNL     1       9.836 -31.899  37.587  1.00  0.00    -0.387 OA
ATOM     12  H   UNL     1      10.488 -31.838  36.840  1.00  0.00     0.211 HD
ENDBRANCH   4  11
BRANCH   6  13
ATOM     13  O   UNL     1      11.736 -32.879  39.517  1.00  0.00    -0.387 OA
ATOM     14  H   UNL     1      12.094 -33.139  40.405  1.00  0.00     0.211 HD
ENDBRANCH   6  13
BRANCH   7  15
ATOM     15  O   UNL     1      10.632 -34.762  41.412  1.00  0.00    -0.384 OA
ATOM     16  H   UNL     1       9.853 -34.533  41.983  1.00  0.00     0.211 HD
ENDBRANCH   7  15
ENDBRANCH   1   2
BRANCH   1  17
ATOM     17  C   UNL     1       6.994 -34.898  41.690  1.00  0.00     0.172 A 
ATOM     18  C   UNL     1       7.374 -34.938  43.052  1.00  0.00     0.201 A 
ATOM     19  C   UNL     1       5.719 -35.327  41.328  1.00  0.00     0.098 A 
ATOM     20  C   UNL     1       6.455 -35.371  44.034  1.00  0.00     0.176 A 
ATOM     21  C   UNL     1       4.817 -35.802  42.276  1.00  0.00     0.146 A 
ATOM     22  C   UNL     1       5.173 -35.856  43.644  1.00  0.00     0.111 A 
ATOM     23  O   UNL     1       3.621 -36.210  41.865  1.00  0.00    -0.456 OA
ATOM     24  C   UNL     1       4.226 -36.429  44.528  1.00  0.00     0.197 A 
ATOM     25  C   UNL     1       2.697 -36.712  42.679  1.00  0.00     0.138 A 
ATOM     26  C   UNL     1       2.982 -36.834  44.045  1.00  0.00     0.100 A 
ATOM     27  O   UNL     1       4.478 -36.616  45.747  1.00  0.00    -0.289 OA
BRANCH  18  28
ATOM     28  O   UNL     1       8.656 -34.549  43.440  1.00  0.00    -0.502 OA
ATOM     29  H   UNL     1       9.488 -35.076  43.204  1.00  0.00     0.293 HD
ENDBRANCH  18  28
BRANCH  20  30
ATOM     30  O   UNL     1       6.856 -35.273  45.371  1.00  0.00    -0.504 OA
ATOM     31  H   UNL     1       7.808 -35.139  45.676  1.00  0.00     0.293 HD
ENDBRANCH  20  30
BRANCH  25  32
ATOM     32  C   UNL     1       1.389 -37.123  42.107  1.00  0.00     0.017 A 
ATOM     33  C   UNL     1       1.158 -36.967  40.728  1.00  0.00     0.012 A 
ATOM     34  C   UNL     1       0.379 -37.697  42.904  1.00  0.00     0.012 A 
ATOM     35  C   UNL     1      -0.062 -37.353  40.164  1.00  0.00     0.001 A 
ATOM     36  C   UNL     1      -0.839 -38.083  42.334  1.00  0.00     0.001 A 
ATOM     37  C   UNL     1      -1.060 -37.908  40.967  1.00  0.00     0.000 A 
ENDBRANCH  25  32
ENDBRANCH   1  17
TORSDOF 9
ENDMDL
MODEL 6
REMARK VINA RESULT:    -7.413      3.329      9.137
REMARK INTER + INTRA:         -11.064
REMARK INTER:                  -9.725
REMARK INTRA:                  -1.339
REMARK UNBOUND:                -0.833
REMARK SMILES O=C([O-])[C@H]1O[C@H](Oc2cc3oc(-c4ccccc4)cc(=O)c3c(O)c2O)[C@H](O)[C@@H](O)[C@@H]1O
REMARK SMILES IDX 7 1 6 2 4 3 31 4 5 5 29 6 27 7 2 8 1 9 3 10 32 11 30 13
REMARK SMILES IDX 28 15 8 17 25 18 9 19 23 20 10 21 22 22 11 23 20 24 12 25
REMARK SMILES IDX 19 26 21 27 26 28 24 30 13 32 14 33 18 34 15 35 17 36 16 37
REMARK H PARENT 32 12 30 14 28 16 26 29 24 31
REMARK Flexibility Score: inf
ROOT
ATOM      1  O   UNL     1       7.099 -33.876  43.606  1.00  0.00    -0.458 OA
ENDROOT
BRANCH   1   2
ATOM      2  C   UNL     1       5.834 -34.287  43.065  1.00  0.00     0.339 C 
ATOM      3  C   UNL     1       6.621 -36.472  42.690  1.00  0.00     0.199 C 
ATOM      4  C   UNL     1       5.686 -37.098  43.746  1.00  0.00     0.180 C 
ATOM      5  O   UNL     1       6.035 -35.317  42.108  1.00  0.00    -0.328 OA
ATOM      6  C   UNL     1       5.354 -36.059  44.826  1.00  0.00     0.181 C 
ATOM      7  C   UNL     1       4.844 -34.764  44.157  1.00  0.00     0.214 C 
BRANCH   3   8
ATOM      8  C   UNL     1       6.901 -37.464  41.600  1.00  0.00     0.073 C 
ATOM      9  O   UNL     1       7.738 -37.198  40.696  1.00  0.00    -0.547 OA
ATOM     10  O   UNL     1       6.208 -38.667  41.559  1.00  0.00    -0.547 OA
ENDBRANCH   3   8
BRANCH   4  11
ATOM     11  O   UNL     1       6.319 -38.208  44.333  1.00  0.00    -0.387 OA
ATOM     12  H   UNL     1       7.153 -38.369  43.819  1.00  0.00     0.211 HD
ENDBRANCH   4  11
BRANCH   6  13
ATOM     13  O   UNL     1       4.366 -36.576  45.681  1.00  0.00    -0.387 OA
ATOM     14  H   UNL     1       3.518 -36.592  45.166  1.00  0.00     0.211 HD
ENDBRANCH   6  13
BRANCH   7  15
ATOM     15  O   UNL     1       4.579 -33.752  45.098  1.00  0.00    -0.384 OA
ATOM     16  H   UNL     1       3.595 -33.677  45.204  1.00  0.00     0.211 HD
ENDBRANCH   7  15
ENDBRANCH   1   2
BRANCH   1  17
ATOM     17  C   UNL     1       7.573 -32.573  43.861  1.00  0.00     0.172 A 
ATOM     18  C   UNL     1       7.582 -31.951  45.132  1.00  0.00     0.201 A 
ATOM     19  C   UNL     1       8.053 -31.869  42.758  1.00  0.00     0.098 A 
ATOM     20  C   UNL     1       8.110 -30.650  45.283  1.00  0.00     0.176 A 
ATOM     21  C   UNL     1       8.532 -30.567  42.880  1.00  0.00     0.146 A 
ATOM     22  C   UNL     1       8.549 -29.922  44.139  1.00  0.00     0.111 A 
ATOM     23  O   UNL     1       8.964 -29.946  41.787  1.00  0.00    -0.456 OA
ATOM     24  C   UNL     1       8.975 -28.571  44.158  1.00  0.00     0.197 A 
ATOM     25  C   UNL     1       9.409 -28.693  41.784  1.00  0.00     0.138 A 
ATOM     26  C   UNL     1       9.425 -27.969  42.983  1.00  0.00     0.100 A 
ATOM     27  O   UNL     1       8.936 -27.874  45.205  1.00  0.00    -0.289 OA
BRANCH  18  28
ATOM     28  O   UNL     1       7.075 -32.617  46.247  1.00  0.00    -0.502 OA
ATOM     29  H   UNL     1       7.588 -33.337  46.741  1.00  0.00     0.293 HD
ENDBRANCH  18  28
BRANCH  20  30
ATOM     30  O   UNL     1       8.196 -30.144  46.584  1.00  0.00    -0.504 OA
ATOM     31  H   UNL     1       7.840 -30.608  47.406  1.00  0.00     0.293 HD
ENDBRANCH  20  30
BRANCH  25  32
ATOM     32  C   UNL     1       9.878 -28.105  40.504  1.00  0.00     0.017 A 
ATOM     33  C   UNL     1       9.564 -26.767  40.201  1.00  0.00     0.012 A 
ATOM     34  C   UNL     1      10.659 -28.842  39.591  1.00  0.00     0.012 A 
ATOM     35  C   UNL     1      10.000 -26.188  39.006  1.00  0.00     0.001 A 
ATOM     36  C   UNL     1      11.093 -28.257  38.397  1.00  0.00     0.001 A 
ATOM     37  C   UNL     1      10.762 -26.933  38.103  1.00  0.00     0.000 A 
ENDBRANCH  25  32
ENDBRANCH   1  17
TORSDOF 9
ENDMDL
MODEL 7
REMARK VINA RESULT:    -7.375      2.036      3.106
REMARK INTER + INTRA:         -11.011
REMARK INTER:                  -9.670
REMARK INTRA:                  -1.341
REMARK UNBOUND:                -0.833
REMARK SMILES O=C([O-])[C@H]1O[C@H](Oc2cc3oc(-c4ccccc4)cc(=O)c3c(O)c2O)[C@H](O)[C@@H](O)[C@@H]1O
REMARK SMILES IDX 7 1 6 2 4 3 31 4 5 5 29 6 27 7 2 8 1 9 3 10 32 11 30 13
REMARK SMILES IDX 28 15 8 17 25 18 9 19 23 20 10 21 22 22 11 23 20 24 12 25
REMARK SMILES IDX 19 26 21 27 26 28 24 30 13 32 14 33 18 34 15 35 17 36 16 37
REMARK H PARENT 32 12 30 14 28 16 26 29 24 31
REMARK Flexibility Score: inf
ROOT
ATOM      1  O   UNL     1       7.205 -32.952  42.621  1.00  0.00    -0.458 OA
ENDROOT
BRANCH   1   2
ATOM      2  C   UNL     1       8.141 -32.625  41.584  1.00  0.00     0.339 C 
ATOM      3  C   UNL     1       7.050 -30.588  41.140  1.00  0.00     0.199 C 
ATOM      4  C   UNL     1       8.231 -29.730  41.638  1.00  0.00     0.180 C 
ATOM      5  O   UNL     1       7.504 -31.821  40.601  1.00  0.00    -0.328 OA
ATOM      6  C   UNL     1       9.036 -30.514  42.685  1.00  0.00     0.181 C 
ATOM      7  C   UNL     1       9.402 -31.903  42.121  1.00  0.00     0.214 C 
BRANCH   3   8
ATOM      8  C   UNL     1       6.296 -29.852  40.072  1.00  0.00     0.073 C 
ATOM      9  O   UNL     1       6.872 -28.977  39.372  1.00  0.00    -0.547 OA
ATOM     10  O   UNL     1       4.943 -30.103  39.877  1.00  0.00    -0.547 OA
ENDBRANCH   3   8
BRANCH   4  11
ATOM     11  O   UNL     1       7.740 -28.542  42.208  1.00  0.00    -0.387 OA
ATOM     12  H   UNL     1       7.030 -28.204  41.602  1.00  0.00     0.211 HD
ENDBRANCH   4  11
BRANCH   6  13
ATOM     13  O   UNL     1      10.205 -29.803  43.002  1.00  0.00    -0.387 OA
ATOM     14  H   UNL     1       9.934 -28.863  43.171  1.00  0.00     0.211 HD
ENDBRANCH   6  13
BRANCH   7  15
ATOM     15  O   UNL     1      10.091 -32.691  43.062  1.00  0.00    -0.384 OA
ATOM     16  H   UNL     1       9.450 -33.337  43.456  1.00  0.00     0.211 HD
ENDBRANCH   7  15
ENDBRANCH   1   2
BRANCH   1  17
ATOM     17  C   UNL     1       6.730 -34.218  43.021  1.00  0.00     0.172 A 
ATOM     18  C   UNL     1       7.472 -35.158  43.774  1.00  0.00     0.201 A 
ATOM     19  C   UNL     1       5.434 -34.540  42.621  1.00  0.00     0.098 A 
ATOM     20  C   UNL     1       6.889 -36.389  44.148  1.00  0.00     0.176 A 
ATOM     21  C   UNL     1       4.861 -35.768  42.939  1.00  0.00     0.146 A 
ATOM     22  C   UNL     1       5.583 -36.727  43.688  1.00  0.00     0.111 A 
ATOM     23  O   UNL     1       3.626 -36.020  42.516  1.00  0.00    -0.456 OA
ATOM     24  C   UNL     1       4.955 -37.979  43.897  1.00  0.00     0.197 A 
ATOM     25  C   UNL     1       2.997 -37.170  42.734  1.00  0.00     0.138 A 
ATOM     26  C   UNL     1       3.654 -38.188  43.437  1.00  0.00     0.100 A 
ATOM     27  O   UNL     1       5.545 -38.936  44.463  1.00  0.00    -0.289 OA
BRANCH  18  28
ATOM     28  O   UNL     1       8.783 -34.878  44.157  1.00  0.00    -0.502 OA
ATOM     29  H   UNL     1       9.587 -35.347  43.758  1.00  0.00     0.293 HD
ENDBRANCH  18  28
BRANCH  20  30
ATOM     30  O   UNL     1       7.636 -37.218  44.992  1.00  0.00    -0.504 OA
ATOM     31  H   UNL     1       8.574 -37.535  44.802  1.00  0.00     0.293 HD
ENDBRANCH  20  30
BRANCH  25  32
ATOM     32  C   UNL     1       1.612 -37.334  42.224  1.00  0.00     0.017 A 
ATOM     33  C   UNL     1       0.620 -37.861  43.074  1.00  0.00     0.012 A 
ATOM     34  C   UNL     1       1.251 -36.948  40.918  1.00  0.00     0.012 A 
ATOM     35  C   UNL     1      -0.693 -38.018  42.620  1.00  0.00     0.001 A 
ATOM     36  C   UNL     1      -0.065 -37.107  40.470  1.00  0.00     0.001 A 
ATOM     37  C   UNL     1      -1.034 -37.644  41.319  1.00  0.00     0.000 A 
ENDBRANCH  25  32
ENDBRANCH   1  17
TORSDOF 9
ENDMDL
MODEL 8
REMARK VINA RESULT:    -7.356      2.438      3.940
REMARK INTER + INTRA:         -10.984
REMARK INTER:                  -9.630
REMARK INTRA:                  -1.355
REMARK UNBOUND:                -0.833
REMARK SMILES O=C([O-])[C@H]1O[C@H](Oc2cc3oc(-c4ccccc4)cc(=O)c3c(O)c2O)[C@H](O)[C@@H](O)[C@@H]1O
REMARK SMILES IDX 7 1 6 2 4 3 31 4 5 5 29 6 27 7 2 8 1 9 3 10 32 11 30 13
REMARK SMILES IDX 28 15 8 17 25 18 9 19 23 20 10 21 22 22 11 23 20 24 12 25
REMARK SMILES IDX 19 26 21 27 26 28 24 30 13 32 14 33 18 34 15 35 17 36 16 37
REMARK H PARENT 32 12 30 14 28 16 26 29 24 31
REMARK Flexibility Score: inf
ROOT
ATOM      1  O   UNL     1       7.796 -34.812  40.614  1.00  0.00    -0.458 OA
ENDROOT
BRANCH   1   2
ATOM      2  C   UNL     1       8.415 -33.545  40.347  1.00  0.00     0.339 C 
ATOM      3  C   UNL     1      10.564 -34.438  40.694  1.00  0.00     0.199 C 
ATOM      4  C   UNL     1      10.983 -34.266  39.219  1.00  0.00     0.180 C 
ATOM      5  O   UNL     1       9.628 -33.442  41.079  1.00  0.00    -0.328 OA
ATOM      6  C   UNL     1       9.741 -34.314  38.318  1.00  0.00     0.181 C 
ATOM      7  C   UNL     1       8.686 -33.316  38.840  1.00  0.00     0.214 C 
BRANCH   3   8
ATOM      8  C   UNL     1      11.766 -34.331  41.585  1.00  0.00     0.073 C 
ATOM      9  O   UNL     1      12.927 -34.439  41.106  1.00  0.00    -0.547 OA
ATOM     10  O   UNL     1      11.604 -34.152  42.953  1.00  0.00    -0.547 OA
ENDBRANCH   3   8
BRANCH   4  11
ATOM     11  O   UNL     1      11.870 -35.297  38.861  1.00  0.00    -0.387 OA
ATOM     12  H   UNL     1      12.546 -34.896  38.254  1.00  0.00     0.211 HD
ENDBRANCH   4  11
BRANCH   6  13
ATOM     13  O   UNL     1      10.106 -33.980  37.003  1.00  0.00    -0.387 OA
ATOM     14  H   UNL     1      10.417 -33.038  37.021  1.00  0.00     0.211 HD
ENDBRANCH   6  13
BRANCH   7  15
ATOM     15  O   UNL     1       7.499 -33.359  38.085  1.00  0.00    -0.384 OA
ATOM     16  H   UNL     1       7.739 -33.306  37.124  1.00  0.00     0.211 HD
ENDBRANCH   7  15
ENDBRANCH   1   2
BRANCH   1  17
ATOM     17  C   UNL     1       6.919 -35.170  41.658  1.00  0.00     0.172 A 
ATOM     18  C   UNL     1       7.256 -35.166  43.032  1.00  0.00     0.201 A 
ATOM     19  C   UNL     1       5.638 -35.560  41.275  1.00  0.00     0.098 A 
ATOM     20  C   UNL     1       6.291 -35.514  44.002  1.00  0.00     0.176 A 
ATOM     21  C   UNL     1       4.687 -35.953  42.214  1.00  0.00     0.146 A 
ATOM     22  C   UNL     1       5.001 -35.961  43.594  1.00  0.00     0.111 A 
ATOM     23  O   UNL     1       3.487 -36.327  41.783  1.00  0.00    -0.456 OA
ATOM     24  C   UNL     1       4.003 -36.453  44.471  1.00  0.00     0.197 A 
ATOM     25  C   UNL     1       2.519 -36.752  42.588  1.00  0.00     0.138 A 
ATOM     26  C   UNL     1       2.757 -36.826  43.967  1.00  0.00     0.100 A 
ATOM     27  O   UNL     1       4.211 -36.596  45.705  1.00  0.00    -0.289 OA
BRANCH  18  28
ATOM     28  O   UNL     1       8.542 -34.815  43.443  1.00  0.00    -0.502 OA
ATOM     29  H   UNL     1       8.762 -33.922  43.865  1.00  0.00     0.293 HD
ENDBRANCH  18  28
BRANCH  20  30
ATOM     30  O   UNL     1       6.656 -35.374  45.345  1.00  0.00    -0.504 OA
ATOM     31  H   UNL     1       6.814 -34.492  45.809  1.00  0.00     0.293 HD
ENDBRANCH  20  30
BRANCH  25  32
ATOM     32  C   UNL     1       1.212 -37.133  41.994  1.00  0.00     0.017 A 
ATOM     33  C   UNL     1       0.211 -37.680  42.819  1.00  0.00     0.012 A 
ATOM     34  C   UNL     1       0.931 -36.932  40.628  1.00  0.00     0.012 A 
ATOM     35  C   UNL     1      -1.030 -38.039  42.286  1.00  0.00     0.001 A 
ATOM     36  C   UNL     1      -0.313 -37.293  40.100  1.00  0.00     0.001 A 
ATOM     37  C   UNL     1      -1.291 -37.848  40.927  1.00  0.00     0.000 A 
ENDBRANCH  25  32
ENDBRANCH   1  17
TORSDOF 9
ENDMDL
MODEL 9
REMARK VINA RESULT:    -7.309      4.296      8.341
REMARK INTER + INTRA:         -10.920
REMARK INTER:                  -9.699
REMARK INTRA:                  -1.222
REMARK UNBOUND:                -0.833
REMARK SMILES O=C([O-])[C@H]1O[C@H](Oc2cc3oc(-c4ccccc4)cc(=O)c3c(O)c2O)[C@H](O)[C@@H](O)[C@@H]1O
REMARK SMILES IDX 7 1 6 2 4 3 31 4 5 5 29 6 27 7 2 8 1 9 3 10 32 11 30 13
REMARK SMILES IDX 28 15 8 17 25 18 9 19 23 20 10 21 22 22 11 23 20 24 12 25
REMARK SMILES IDX 19 26 21 27 26 28 24 30 13 32 14 33 18 34 15 35 17 36 16 37
REMARK H PARENT 32 12 30 14 28 16 26 29 24 31
REMARK Flexibility Score: inf
ROOT
ATOM      1  O   UNL     1       9.640 -29.267  40.080  1.00  0.00    -0.458 OA
ENDROOT
BRANCH   1   2
ATOM      2  C   UNL     1       8.807 -28.903  38.969  1.00  0.00     0.339 C 
ATOM      3  C   UNL     1       9.715 -26.733  38.903  1.00  0.00     0.199 C 
ATOM      4  C   UNL     1      10.397 -26.950  37.537  1.00  0.00     0.180 C 
ATOM      5  O   UNL     1       8.531 -27.510  39.014  1.00  0.00    -0.328 OA
ATOM      6  C   UNL     1      10.709 -28.442  37.346  1.00  0.00     0.181 C 
ATOM      7  C   UNL     1       9.435 -29.274  37.603  1.00  0.00     0.214 C 
BRANCH   3   8
ATOM      8  C   UNL     1       9.351 -25.287  39.071  1.00  0.00     0.073 C 
ATOM      9  O   UNL     1       9.331 -24.764  40.217  1.00  0.00    -0.547 OA
ATOM     10  O   UNL     1       8.996 -24.526  37.965  1.00  0.00    -0.547 OA
ENDBRANCH   3   8
BRANCH   4  11
ATOM     11  O   UNL     1      11.588 -26.205  37.484  1.00  0.00    -0.387 OA
ATOM     12  H   UNL     1      12.252 -26.758  36.995  1.00  0.00     0.211 HD
ENDBRANCH   4  11
BRANCH   6  13
ATOM     13  O   UNL     1      11.165 -28.657  36.034  1.00  0.00    -0.387 OA
ATOM     14  H   UNL     1      11.801 -29.418  36.071  1.00  0.00     0.211 HD
ENDBRANCH   6  13
BRANCH   7  15
ATOM     15  O   UNL     1       9.676 -30.656  37.499  1.00  0.00    -0.384 OA
ATOM     16  H   UNL     1       9.268 -30.980  36.655  1.00  0.00     0.211 HD
ENDBRANCH   7  15
ENDBRANCH   1   2
BRANCH   1  17
ATOM     17  C   UNL     1       9.285 -29.454  41.431  1.00  0.00     0.172 A 
ATOM     18  C   UNL     1       9.472 -28.496  42.455  1.00  0.00     0.201 A 
ATOM     19  C   UNL     1       8.722 -30.688  41.751  1.00  0.00     0.098 A 
ATOM     20  C   UNL     1       9.052 -28.774  43.775  1.00  0.00     0.176 A 
ATOM     21  C   UNL     1       8.347 -30.998  43.056  1.00  0.00     0.146 A 
ATOM     22  C   UNL     1       8.525 -30.058  44.098  1.00  0.00     0.111 A 
ATOM     23  O   UNL     1       7.827 -32.197  43.298  1.00  0.00    -0.456 OA
ATOM     24  C   UNL     1       8.193 -30.487  45.407  1.00  0.00     0.197 A 
ATOM     25  C   UNL     1       7.467 -32.609  44.509  1.00  0.00     0.138 A 
ATOM     26  C   UNL     1       7.644 -31.754  45.604  1.00  0.00     0.100 A 
ATOM     27  O   UNL     1       8.405 -29.767  46.418  1.00  0.00    -0.289 OA
BRANCH  18  28
ATOM     28  O   UNL     1      10.066 -27.267  42.172  1.00  0.00    -0.502 OA
ATOM     29  H   UNL     1       9.632 -26.565  41.585  1.00  0.00     0.293 HD
ENDBRANCH  18  28
BRANCH  20  30
ATOM     30  O   UNL     1       9.157 -27.739  44.710  1.00  0.00    -0.504 OA
ATOM     31  H   UNL     1       9.970 -27.154  44.830  1.00  0.00     0.293 HD
ENDBRANCH  20  30
BRANCH  25  32
ATOM     32  C   UNL     1       6.885 -33.967  44.658  1.00  0.00     0.017 A 
ATOM     33  C   UNL     1       7.726 -35.092  44.577  1.00  0.00     0.012 A 
ATOM     34  C   UNL     1       5.512 -34.162  44.908  1.00  0.00     0.012 A 
ATOM     35  C   UNL     1       7.204 -36.381  44.721  1.00  0.00     0.001 A 
ATOM     36  C   UNL     1       4.995 -35.455  45.052  1.00  0.00     0.001 A 
ATOM     37  C   UNL     1       5.840 -36.562  44.956  1.00  0.00     0.000 A 
ENDBRANCH  25  32
ENDBRANCH   1  17
TORSDOF 9
ENDMDL
