MODEL 1
REMARK VINA RESULT:     1.135      0.000      0.000
REMARK INTER + INTRA:           2.116
REMARK INTER:                   1.335
REMARK INTRA:                   0.782
REMARK UNBOUND:                 0.782
REMARK SMILES COc1cc2ccc(=O)oc2c(OC)c1OC
REMARK SMILES IDX 3 1 15 2 12 3 11 4 5 5 4 6 6 7 7 8 8 9 9 10 10 11 2 12 1 13
REMARK SMILES IDX 16 14 17 15 13 16 14 17
REMARK H PARENT
REMARK Flexibility Score: inf
ROOT
ATOM      1  C   UNL     1     159.150 144.948 170.504  1.00  0.00     0.165 A 
ATOM      2  C   UNL     1     160.395 145.305 169.960  1.00  0.00     0.207 A 
ATOM      3  C   UNL     1     161.507 145.544 170.816  1.00  0.00     0.208 A 
ATOM      4  C   UNL     1     161.336 145.414 172.219  1.00  0.00     0.184 A 
ATOM      5  C   UNL     1     160.075 145.053 172.745  1.00  0.00     0.025 A 
ATOM      6  C   UNL     1     158.996 144.824 171.893  1.00  0.00     0.062 A 
ATOM      7  C   UNL     1     159.931 144.932 174.132  1.00  0.00     0.020 A 
ATOM      8  C   UNL     1     161.025 145.167 174.960  1.00  0.00     0.094 A 
ATOM      9  C   UNL     1     162.243 145.521 174.377  1.00  0.00     0.336 A 
ATOM     10  O   UNL     1     163.248 145.739 175.103  1.00  0.00    -0.246 OA
ATOM     11  O   UNL     1     162.350 145.628 173.056  1.00  0.00    -0.419 OA
ENDROOT
BRANCH   1  12
ATOM     12  O   UNL     1     158.082 144.723 169.619  1.00  0.00    -0.493 OA
ATOM     13  C   UNL     1     156.717 145.011 169.905  1.00  0.00     0.278 C 
ENDBRANCH   1  12
BRANCH   2  14
ATOM     14  O   UNL     1     160.452 145.406 168.557  1.00  0.00    -0.490 OA
ATOM     15  C   UNL     1     159.403 145.808 167.682  1.00  0.00     0.278 C 
ENDBRANCH   2  14
BRANCH   3  16
ATOM     16  O   UNL     1     162.739 145.900 170.237  1.00  0.00    -0.490 OA
ATOM     17  C   UNL     1     163.577 145.080 169.429  1.00  0.00     0.278 C 
ENDBRANCH   3  16
TORSDOF 3
ENDMDL
MODEL 2
REMARK VINA RESULT:     2.097      1.056      4.817
REMARK INTER + INTRA:           3.246
REMARK INTER:                   2.163
REMARK INTRA:                   1.084
REMARK UNBOUND:                 0.782
REMARK SMILES COc1cc2ccc(=O)oc2c(OC)c1OC
REMARK SMILES IDX 3 1 15 2 12 3 11 4 5 5 4 6 6 7 7 8 8 9 9 10 10 11 2 12 1 13
REMARK SMILES IDX 16 14 17 15 13 16 14 17
REMARK H PARENT
REMARK Flexibility Score: inf
ROOT
ATOM      1  C   UNL     1     160.269 145.132 173.017  1.00  0.00     0.165 A 
ATOM      2  C   UNL     1     161.498 145.407 172.396  1.00  0.00     0.207 A 
ATOM      3  C   UNL     1     161.570 145.541 170.981  1.00  0.00     0.208 A 
ATOM      4  C   UNL     1     160.385 145.394 170.215  1.00  0.00     0.184 A 
ATOM      5  C   UNL     1     159.158 145.119 170.860  1.00  0.00     0.025 A 
ATOM      6  C   UNL     1     159.105 144.989 172.247  1.00  0.00     0.062 A 
ATOM      7  C   UNL     1     158.003 144.978 170.082  1.00  0.00     0.020 A 
ATOM      8  C   UNL     1     158.084 145.112 168.699  1.00  0.00     0.094 A 
ATOM      9  C   UNL     1     159.326 145.384 168.124  1.00  0.00     0.336 A 
ATOM     10  O   UNL     1     159.427 145.510 166.876  1.00  0.00    -0.246 OA
ATOM     11  O   UNL     1     160.407 145.513 168.888  1.00  0.00    -0.419 OA
ENDROOT
BRANCH   1  12
ATOM     12  O   UNL     1     160.248 145.007 174.417  1.00  0.00    -0.493 OA
ATOM     13  C   UNL     1     159.750 143.875 175.123  1.00  0.00     0.278 C 
ENDBRANCH   1  12
BRANCH   2  14
ATOM     14  O   UNL     1     162.611 145.532 173.251  1.00  0.00    -0.490 OA
ATOM     15  C   UNL     1     162.591 145.747 174.659  1.00  0.00     0.278 C 
ENDBRANCH   2  14
BRANCH   3  16
ATOM     16  O   UNL     1     162.818 145.817 170.392  1.00  0.00    -0.490 OA
ATOM     17  C   UNL     1     163.546 144.987 169.493  1.00  0.00     0.278 C 
ENDBRANCH   3  16
TORSDOF 3
ENDMDL
MODEL 3
REMARK VINA RESULT:     2.760      2.094      5.322
REMARK INTER + INTRA:           4.026
REMARK INTER:                   4.057
REMARK INTRA:                  -0.031
REMARK UNBOUND:                 0.782
REMARK SMILES COc1cc2ccc(=O)oc2c(OC)c1OC
REMARK SMILES IDX 3 1 15 2 12 3 11 4 5 5 4 6 6 7 7 8 8 9 9 10 10 11 2 12 1 13
REMARK SMILES IDX 16 14 17 15 13 16 14 17
REMARK H PARENT
REMARK Flexibility Score: inf
ROOT
ATOM      1  C   UNL     1     159.792 147.030 170.666  1.00  0.00     0.165 A 
ATOM      2  C   UNL     1     160.970 146.277 170.805  1.00  0.00     0.207 A 
ATOM      3  C   UNL     1     161.429 145.462 169.732  1.00  0.00     0.208 A 
ATOM      4  C   UNL     1     160.681 145.425 168.527  1.00  0.00     0.184 A 
ATOM      5  C   UNL     1     159.499 146.191 168.408  1.00  0.00     0.025 A 
ATOM      6  C   UNL     1     159.063 146.983 169.469  1.00  0.00     0.062 A 
ATOM      7  C   UNL     1     158.778 146.137 167.210  1.00  0.00     0.020 A 
ATOM      8  C   UNL     1     159.236 145.338 166.167  1.00  0.00     0.094 A 
ATOM      9  C   UNL     1     160.410 144.606 166.349  1.00  0.00     0.336 A 
ATOM     10  O   UNL     1     160.846 143.875 165.421  1.00  0.00    -0.246 OA
ATOM     11  O   UNL     1     161.075 144.676 167.498  1.00  0.00    -0.419 OA
ENDROOT
BRANCH   1  12
ATOM     12  O   UNL     1     159.380 147.819 171.753  1.00  0.00    -0.493 OA
ATOM     13  C   UNL     1     158.971 149.180 171.658  1.00  0.00     0.278 C 
ENDBRANCH   1  12
BRANCH   2  14
ATOM     14  O   UNL     1     161.634 146.388 172.043  1.00  0.00    -0.490 OA
ATOM     15  C   UNL     1     161.281 145.749 173.266  1.00  0.00     0.278 C 
ENDBRANCH   2  14
BRANCH   3  16
ATOM     16  O   UNL     1     162.613 144.722 169.907  1.00  0.00    -0.490 OA
ATOM     17  C   UNL     1     163.863 144.935 169.259  1.00  0.00     0.278 C 
ENDBRANCH   3  16
TORSDOF 3
ENDMDL
MODEL 4
REMARK VINA RESULT:     3.109     14.444     17.044
REMARK INTER + INTRA:           4.436
REMARK INTER:                   2.782
REMARK INTRA:                   1.655
REMARK UNBOUND:                 0.782
REMARK SMILES COc1cc2ccc(=O)oc2c(OC)c1OC
REMARK SMILES IDX 3 1 15 2 12 3 11 4 5 5 4 6 6 7 7 8 8 9 9 10 10 11 2 12 1 13
REMARK SMILES IDX 16 14 17 15 13 16 14 17
REMARK H PARENT
REMARK Flexibility Score: inf
ROOT
ATOM      1  C   UNL     1     148.560 145.064 159.151  1.00  0.00     0.165 A 
ATOM      2  C   UNL     1     149.101 144.607 160.364  1.00  0.00     0.207 A 
ATOM      3  C   UNL     1     148.440 144.888 161.593  1.00  0.00     0.208 A 
ATOM      4  C   UNL     1     147.233 145.634 161.570  1.00  0.00     0.184 A 
ATOM      5  C   UNL     1     146.706 146.084 160.339  1.00  0.00     0.025 A 
ATOM      6  C   UNL     1     147.365 145.800 159.144  1.00  0.00     0.062 A 
ATOM      7  C   UNL     1     145.514 146.817 160.342  1.00  0.00     0.020 A 
ATOM      8  C   UNL     1     144.876 147.086 161.550  1.00  0.00     0.094 A 
ATOM      9  C   UNL     1     145.449 146.614 162.730  1.00  0.00     0.336 A 
ATOM     10  O   UNL     1     144.892 146.843 163.836  1.00  0.00    -0.246 OA
ATOM     11  O   UNL     1     146.582 145.919 162.697  1.00  0.00    -0.419 OA
ENDROOT
BRANCH   1  12
ATOM     12  O   UNL     1     149.249 144.761 157.964  1.00  0.00    -0.493 OA
ATOM     13  C   UNL     1     150.649 144.513 157.880  1.00  0.00     0.278 C 
ENDBRANCH   1  12
BRANCH   2  14
ATOM     14  O   UNL     1     150.303 143.877 160.271  1.00  0.00    -0.490 OA
ATOM     15  C   UNL     1     151.419 143.946 161.152  1.00  0.00     0.278 C 
ENDBRANCH   2  14
BRANCH   3  16
ATOM     16  O   UNL     1     149.011 144.414 162.789  1.00  0.00    -0.490 OA
ATOM     17  C   UNL     1     148.323 143.886 163.918  1.00  0.00     0.278 C 
ENDBRANCH   3  16
TORSDOF 3
ENDMDL
MODEL 5
REMARK VINA RESULT:     3.278     19.911     22.728
REMARK INTER + INTRA:           4.634
REMARK INTER:                   3.143
REMARK INTRA:                   1.492
REMARK UNBOUND:                 0.782
REMARK SMILES COc1cc2ccc(=O)oc2c(OC)c1OC
REMARK SMILES IDX 3 1 15 2 12 3 11 4 5 5 4 6 6 7 7 8 8 9 9 10 10 11 2 12 1 13
REMARK SMILES IDX 16 14 17 15 13 16 14 17
REMARK H PARENT
REMARK Flexibility Score: inf
ROOT
ATOM      1  C   UNL     1     148.047 158.241 161.649  1.00  0.00     0.165 A 
ATOM      2  C   UNL     1     146.859 158.526 162.342  1.00  0.00     0.207 A 
ATOM      3  C   UNL     1     146.267 159.818 162.246  1.00  0.00     0.208 A 
ATOM      4  C   UNL     1     146.895 160.804 161.442  1.00  0.00     0.184 A 
ATOM      5  C   UNL     1     148.089 160.496 160.752  1.00  0.00     0.025 A 
ATOM      6  C   UNL     1     148.656 159.227 160.858  1.00  0.00     0.062 A 
ATOM      7  C   UNL     1     148.689 161.486 159.966  1.00  0.00     0.020 A 
ATOM      8  C   UNL     1     148.102 162.745 159.879  1.00  0.00     0.094 A 
ATOM      9  C   UNL     1     146.923 162.985 160.585  1.00  0.00     0.336 A 
ATOM     10  O   UNL     1     146.372 164.114 160.523  1.00  0.00    -0.246 OA
ATOM     11  O   UNL     1     146.375 162.025 161.324  1.00  0.00    -0.419 OA
ENDROOT
BRANCH   1  12
ATOM     12  O   UNL     1     148.593 156.952 161.775  1.00  0.00    -0.493 OA
ATOM     13  C   UNL     1     148.286 156.041 162.826  1.00  0.00     0.278 C 
ENDBRANCH   1  12
BRANCH   2  14
ATOM     14  O   UNL     1     146.322 157.475 163.110  1.00  0.00    -0.490 OA
ATOM     15  C   UNL     1     145.256 156.604 162.747  1.00  0.00     0.278 C 
ENDBRANCH   2  14
BRANCH   3  16
ATOM     16  O   UNL     1     145.077 160.068 162.954  1.00  0.00    -0.490 OA
ATOM     17  C   UNL     1     144.878 159.970 164.361  1.00  0.00     0.278 C 
ENDBRANCH   3  16
TORSDOF 3
ENDMDL
MODEL 6
REMARK VINA RESULT:     3.388     20.599     23.387
REMARK INTER + INTRA:           4.764
REMARK INTER:                   4.117
REMARK INTRA:                   0.647
REMARK UNBOUND:                 0.782
REMARK SMILES COc1cc2ccc(=O)oc2c(OC)c1OC
REMARK SMILES IDX 3 1 15 2 12 3 11 4 5 5 4 6 6 7 7 8 8 9 9 10 10 11 2 12 1 13
REMARK SMILES IDX 16 14 17 15 13 16 14 17
REMARK H PARENT
REMARK Flexibility Score: inf
ROOT
ATOM      1  C   UNL     1     149.458 159.950 160.840  1.00  0.00     0.165 A 
ATOM      2  C   UNL     1     148.237 159.357 161.202  1.00  0.00     0.207 A 
ATOM      3  C   UNL     1     147.033 160.114 161.153  1.00  0.00     0.208 A 
ATOM      4  C   UNL     1     147.088 161.468 160.734  1.00  0.00     0.184 A 
ATOM      5  C   UNL     1     148.326 162.045 160.374  1.00  0.00     0.025 A 
ATOM      6  C   UNL     1     149.497 161.290 160.428  1.00  0.00     0.062 A 
ATOM      7  C   UNL     1     148.355 163.383 159.964  1.00  0.00     0.020 A 
ATOM      8  C   UNL     1     147.171 164.113 159.919  1.00  0.00     0.094 A 
ATOM      9  C   UNL     1     145.981 163.485 160.289  1.00  0.00     0.336 A 
ATOM     10  O   UNL     1     144.897 164.124 160.258  1.00  0.00    -0.246 OA
ATOM     11  O   UNL     1     145.984 162.212 160.674  1.00  0.00    -0.419 OA
ENDROOT
BRANCH   1  12
ATOM     12  O   UNL     1     150.620 159.162 160.904  1.00  0.00    -0.493 OA
ATOM     13  C   UNL     1     151.386 158.752 159.775  1.00  0.00     0.278 C 
ENDBRANCH   1  12
BRANCH   2  14
ATOM     14  O   UNL     1     148.298 158.007 161.603  1.00  0.00    -0.490 OA
ATOM     15  C   UNL     1     147.421 157.340 162.504  1.00  0.00     0.278 C 
ENDBRANCH   2  14
BRANCH   3  16
ATOM     16  O   UNL     1     145.828 159.488 161.523  1.00  0.00    -0.490 OA
ATOM     17  C   UNL     1     145.211 159.501 162.807  1.00  0.00     0.278 C 
ENDBRANCH   3  16
TORSDOF 3
ENDMDL
MODEL 7
REMARK VINA RESULT:     3.389      2.988      5.005
REMARK INTER + INTRA:           4.765
REMARK INTER:                   4.988
REMARK INTRA:                  -0.223
REMARK UNBOUND:                 0.782
REMARK SMILES COc1cc2ccc(=O)oc2c(OC)c1OC
REMARK SMILES IDX 3 1 15 2 12 3 11 4 5 5 4 6 6 7 7 8 8 9 9 10 10 11 2 12 1 13
REMARK SMILES IDX 16 14 17 15 13 16 14 17
REMARK H PARENT
REMARK Flexibility Score: inf
ROOT
ATOM      1  C   UNL     1     160.659 146.197 172.257  1.00  0.00     0.165 A 
ATOM      2  C   UNL     1     160.681 145.701 170.943  1.00  0.00     0.207 A 
ATOM      3  C   UNL     1     160.310 146.541 169.855  1.00  0.00     0.208 A 
ATOM      4  C   UNL     1     159.924 147.880 170.121  1.00  0.00     0.184 A 
ATOM      5  C   UNL     1     159.911 148.360 171.450  1.00  0.00     0.025 A 
ATOM      6  C   UNL     1     160.275 147.524 172.504  1.00  0.00     0.062 A 
ATOM      7  C   UNL     1     159.526 149.685 171.686  1.00  0.00     0.020 A 
ATOM      8  C   UNL     1     159.167 150.497 170.615  1.00  0.00     0.094 A 
ATOM      9  C   UNL     1     159.201 149.963 169.327  1.00  0.00     0.336 A 
ATOM     10  O   UNL     1     158.881 150.677 168.341  1.00  0.00    -0.246 OA
ATOM     11  O   UNL     1     159.571 148.700 169.132  1.00  0.00    -0.419 OA
ENDROOT
BRANCH   1  12
ATOM     12  O   UNL     1     161.033 145.330 173.298  1.00  0.00    -0.493 OA
ATOM     13  C   UNL     1     161.345 145.742 174.625  1.00  0.00     0.278 C 
ENDBRANCH   1  12
BRANCH   2  14
ATOM     14  O   UNL     1     161.079 144.358 170.794  1.00  0.00    -0.490 OA
ATOM     15  C   UNL     1     162.399 143.875 170.563  1.00  0.00     0.278 C 
ENDBRANCH   2  14
BRANCH   3  16
ATOM     16  O   UNL     1     160.343 146.010 168.552  1.00  0.00    -0.490 OA
ATOM     17  C   UNL     1     159.255 145.444 167.828  1.00  0.00     0.278 C 
ENDBRANCH   3  16
TORSDOF 3
ENDMDL
MODEL 8
REMARK VINA RESULT:     3.693     17.839     19.461
REMARK INTER + INTRA:           5.122
REMARK INTER:                   4.649
REMARK INTRA:                   0.473
REMARK UNBOUND:                 0.782
REMARK SMILES COc1cc2ccc(=O)oc2c(OC)c1OC
REMARK SMILES IDX 3 1 15 2 12 3 11 4 5 5 4 6 6 7 7 8 8 9 9 10 10 11 2 12 1 13
REMARK SMILES IDX 16 14 17 15 13 16 14 17
REMARK H PARENT
REMARK Flexibility Score: inf
ROOT
ATOM      1  C   UNL     1     159.089 163.707 165.369  1.00  0.00     0.165 A 
ATOM      2  C   UNL     1     159.977 162.870 166.066  1.00  0.00     0.207 A 
ATOM      3  C   UNL     1     161.186 162.440 165.449  1.00  0.00     0.208 A 
ATOM      4  C   UNL     1     161.477 162.871 164.129  1.00  0.00     0.184 A 
ATOM      5  C   UNL     1     160.570 163.713 163.447  1.00  0.00     0.025 A 
ATOM      6  C   UNL     1     159.390 164.124 164.064  1.00  0.00     0.062 A 
ATOM      7  C   UNL     1     160.879 164.125 162.145  1.00  0.00     0.020 A 
ATOM      8  C   UNL     1     162.064 163.699 161.552  1.00  0.00     0.094 A 
ATOM      9  C   UNL     1     162.916 162.868 162.280  1.00  0.00     0.336 A 
ATOM     10  O   UNL     1     163.994 162.469 161.767  1.00  0.00    -0.246 OA
ATOM     11  O   UNL     1     162.597 162.493 163.515  1.00  0.00    -0.419 OA
ENDROOT
BRANCH   1  12
ATOM     12  O   UNL     1     157.909 164.104 166.020  1.00  0.00    -0.493 OA
ATOM     13  C   UNL     1     156.616 164.113 165.420  1.00  0.00     0.278 C 
ENDBRANCH   1  12
BRANCH   2  14
ATOM     14  O   UNL     1     159.590 162.503 167.369  1.00  0.00    -0.490 OA
ATOM     15  C   UNL     1     160.313 162.730 168.575  1.00  0.00     0.278 C 
ENDBRANCH   2  14
BRANCH   3  16
ATOM     16  O   UNL     1     162.052 161.602 166.176  1.00  0.00    -0.490 OA
ATOM     17  C   UNL     1     161.715 160.391 166.845  1.00  0.00     0.278 C 
ENDBRANCH   3  16
TORSDOF 3
ENDMDL
