MODEL 1
REMARK VINA RESULT:    -4.303      0.000      0.000
REMARK INTER + INTRA:          -9.767
REMARK INTER:                  -7.825
REMARK INTRA:                  -1.942
REMARK UNBOUND:                -1.942
REMARK SMILES CCCCCCCCCCCCCC[C@H](C)C(=O)[O-]
REMARK SMILES IDX 9 1 10 2 11 3 12 4 13 5 14 6 15 7 16 8 17 9 18 10 19 11 8 12
REMARK SMILES IDX 7 13 6 14 5 15 4 16 3 17 2 18 1 19
REMARK H PARENT
REMARK Flexibility Score: inf
ROOT
ATOM      1  C   UNL     1     162.648 162.874 182.541  1.00  0.00     0.000 C 
ENDROOT
BRANCH   1   2
ATOM      2  C   UNL     1     161.671 162.392 183.627  1.00  0.00     0.000 C 
BRANCH   2   3
ATOM      3  C   UNL     1     160.260 162.126 183.076  1.00  0.00     0.000 C 
BRANCH   3   4
ATOM      4  C   UNL     1     160.109 160.709 182.499  1.00  0.00     0.000 C 
BRANCH   4   5
ATOM      5  C   UNL     1     159.935 160.703 180.969  1.00  0.00     0.001 C 
BRANCH   5   6
ATOM      6  C   UNL     1     161.220 160.255 180.235  1.00  0.00     0.009 C 
BRANCH   6   7
ATOM      7  C   UNL     1     161.949 161.382 179.461  1.00  0.00     0.032 C 
ATOM      8  C   UNL     1     161.020 162.072 178.450  1.00  0.00     0.014 C 
BRANCH   7   9
ATOM      9  C   UNL     1     163.225 160.904 178.804  1.00  0.00     0.044 C 
ATOM     10  O   UNL     1     164.074 160.249 179.467  1.00  0.00    -0.550 OA
ATOM     11  O   UNL     1     163.441 161.102 177.445  1.00  0.00    -0.550 OA
ENDBRANCH   7   9
ENDBRANCH   6   7
ENDBRANCH   5   6
ENDBRANCH   4   5
ENDBRANCH   3   4
ENDBRANCH   2   3
ENDBRANCH   1   2
BRANCH   1  12
ATOM     12  C   UNL     1     163.959 162.074 182.527  1.00  0.00     0.000 C 
BRANCH  12  13
ATOM     13  C   UNL     1     163.720 160.621 182.959  1.00  0.00    -0.000 C 
BRANCH  13  14
ATOM     14  C   UNL     1     165.048 159.905 183.244  1.00  0.00    -0.000 C 
BRANCH  14  15
ATOM     15  C   UNL     1     166.233 160.538 182.500  1.00  0.00    -0.000 C 
BRANCH  15  16
ATOM     16  C   UNL     1     167.499 160.627 183.369  1.00  0.00    -0.000 C 
BRANCH  16  17
ATOM     17  C   UNL     1     167.286 161.451 184.652  1.00  0.00    -0.000 C 
BRANCH  17  18
ATOM     18  C   UNL     1     166.761 162.880 184.419  1.00  0.00    -0.003 C 
ATOM     19  C   UNL     1     167.847 163.946 184.559  1.00  0.00     0.004 C 
ENDBRANCH  17  18
ENDBRANCH  16  17
ENDBRANCH  15  16
ENDBRANCH  14  15
ENDBRANCH  13  14
ENDBRANCH  12  13
ENDBRANCH   1  12
TORSDOF 14
ENDMDL
MODEL 2
REMARK VINA RESULT:    -4.253      2.452      3.842
REMARK INTER + INTRA:          -9.675
REMARK INTER:                  -6.906
REMARK INTRA:                  -2.770
REMARK UNBOUND:                -1.942
REMARK SMILES CCCCCCCCCCCCCC[C@H](C)C(=O)[O-]
REMARK SMILES IDX 9 1 10 2 11 3 12 4 13 5 14 6 15 7 16 8 17 9 18 10 19 11 8 12
REMARK SMILES IDX 7 13 6 14 5 15 4 16 3 17 2 18 1 19
REMARK H PARENT
REMARK Flexibility Score: inf
ROOT
ATOM      1  C   UNL     1     161.099 161.365 179.767  1.00  0.00     0.000 C 
ENDROOT
BRANCH   1   2
ATOM      2  C   UNL     1     160.065 161.349 180.906  1.00  0.00     0.000 C 
BRANCH   2   3
ATOM      3  C   UNL     1     160.510 160.482 182.095  1.00  0.00     0.000 C 
BRANCH   3   4
ATOM      4  C   UNL     1     160.459 161.242 183.432  1.00  0.00     0.000 C 
BRANCH   4   5
ATOM      5  C   UNL     1     160.559 162.767 183.255  1.00  0.00     0.001 C 
BRANCH   5   6
ATOM      6  C   UNL     1     162.025 163.262 183.260  1.00  0.00     0.009 C 
BRANCH   6   7
ATOM      7  C   UNL     1     162.428 164.098 182.020  1.00  0.00     0.032 C 
ATOM      8  C   UNL     1     163.760 164.832 182.236  1.00  0.00     0.014 C 
BRANCH   7   9
ATOM      9  C   UNL     1     161.337 165.050 181.580  1.00  0.00     0.044 C 
ATOM     10  O   UNL     1     160.707 164.842 180.508  1.00  0.00    -0.550 OA
ATOM     11  O   UNL     1     160.954 166.113 182.390  1.00  0.00    -0.550 OA
ENDBRANCH   7   9
ENDBRANCH   6   7
ENDBRANCH   5   6
ENDBRANCH   4   5
ENDBRANCH   3   4
ENDBRANCH   2   3
ENDBRANCH   1   2
BRANCH   1  12
ATOM     12  C   UNL     1     162.379 160.591 180.118  1.00  0.00     0.000 C 
BRANCH  12  13
ATOM     13  C   UNL     1     163.627 161.376 179.695  1.00  0.00    -0.000 C 
BRANCH  13  14
ATOM     14  C   UNL     1     164.660 161.423 180.831  1.00  0.00    -0.000 C 
BRANCH  14  15
ATOM     15  C   UNL     1     164.313 160.472 181.985  1.00  0.00    -0.000 C 
BRANCH  15  16
ATOM     16  C   UNL     1     164.756 161.015 183.354  1.00  0.00    -0.000 C 
BRANCH  16  17
ATOM     17  C   UNL     1     165.987 161.935 183.262  1.00  0.00    -0.000 C 
BRANCH  17  18
ATOM     18  C   UNL     1     167.230 161.425 184.014  1.00  0.00    -0.003 C 
ATOM     19  C   UNL     1     168.094 160.487 183.172  1.00  0.00     0.004 C 
ENDBRANCH  17  18
ENDBRANCH  16  17
ENDBRANCH  15  16
ENDBRANCH  14  15
ENDBRANCH  13  14
ENDBRANCH  12  13
ENDBRANCH   1  12
TORSDOF 14
ENDMDL
MODEL 3
REMARK VINA RESULT:    -4.247      1.416      1.847
REMARK INTER + INTRA:          -9.665
REMARK INTER:                  -7.630
REMARK INTRA:                  -2.035
REMARK UNBOUND:                -1.942
REMARK SMILES CCCCCCCCCCCCCC[C@H](C)C(=O)[O-]
REMARK SMILES IDX 9 1 10 2 11 3 12 4 13 5 14 6 15 7 16 8 17 9 18 10 19 11 8 12
REMARK SMILES IDX 7 13 6 14 5 15 4 16 3 17 2 18 1 19
REMARK H PARENT
REMARK Flexibility Score: inf
ROOT
ATOM      1  C   UNL     1     162.372 163.230 183.078  1.00  0.00     0.000 C 
ENDROOT
BRANCH   1   2
ATOM      2  C   UNL     1     161.261 162.299 183.593  1.00  0.00     0.000 C 
BRANCH   2   3
ATOM      3  C   UNL     1     160.188 162.016 182.528  1.00  0.00     0.000 C 
BRANCH   3   4
ATOM      4  C   UNL     1     160.324 160.615 181.910  1.00  0.00     0.000 C 
BRANCH   4   5
ATOM      5  C   UNL     1     160.298 160.636 180.371  1.00  0.00     0.001 C 
BRANCH   5   6
ATOM      6  C   UNL     1     161.001 161.886 179.791  1.00  0.00     0.009 C 
BRANCH   6   7
ATOM      7  C   UNL     1     161.887 161.611 178.551  1.00  0.00     0.032 C 
ATOM      8  C   UNL     1     163.290 162.217 178.706  1.00  0.00     0.014 C 
BRANCH   7   9
ATOM      9  C   UNL     1     161.233 162.053 177.260  1.00  0.00     0.044 C 
ATOM     10  O   UNL     1     161.930 162.543 176.330  1.00  0.00    -0.550 OA
ATOM     11  O   UNL     1     159.875 161.846 177.045  1.00  0.00    -0.550 OA
ENDBRANCH   7   9
ENDBRANCH   6   7
ENDBRANCH   5   6
ENDBRANCH   4   5
ENDBRANCH   3   4
ENDBRANCH   2   3
ENDBRANCH   1   2
BRANCH   1  12
ATOM     12  C   UNL     1     163.778 162.646 183.284  1.00  0.00     0.000 C 
BRANCH  12  13
ATOM     13  C   UNL     1     164.281 161.963 182.006  1.00  0.00    -0.000 C 
BRANCH  13  14
ATOM     14  C   UNL     1     164.242 160.434 182.145  1.00  0.00    -0.000 C 
BRANCH  14  15
ATOM     15  C   UNL     1     165.122 159.923 183.295  1.00  0.00    -0.000 C 
BRANCH  15  16
ATOM     16  C   UNL     1     166.613 160.237 183.084  1.00  0.00    -0.000 C 
BRANCH  16  17
ATOM     17  C   UNL     1     167.341 160.586 184.395  1.00  0.00    -0.000 C 
BRANCH  17  18
ATOM     18  C   UNL     1     167.330 162.083 184.758  1.00  0.00    -0.003 C 
ATOM     19  C   UNL     1     167.720 162.983 183.587  1.00  0.00     0.004 C 
ENDBRANCH  17  18
ENDBRANCH  16  17
ENDBRANCH  15  16
ENDBRANCH  14  15
ENDBRANCH  13  14
ENDBRANCH  12  13
ENDBRANCH   1  12
TORSDOF 14
ENDMDL
MODEL 4
REMARK VINA RESULT:    -4.224      2.180      6.301
REMARK INTER + INTRA:          -9.623
REMARK INTER:                  -7.424
REMARK INTRA:                  -2.199
REMARK UNBOUND:                -1.942
REMARK SMILES CCCCCCCCCCCCCC[C@H](C)C(=O)[O-]
REMARK SMILES IDX 9 1 10 2 11 3 12 4 13 5 14 6 15 7 16 8 17 9 18 10 19 11 8 12
REMARK SMILES IDX 7 13 6 14 5 15 4 16 3 17 2 18 1 19
REMARK H PARENT
REMARK Flexibility Score: inf
ROOT
ATOM      1  C   UNL     1     163.635 162.148 182.882  1.00  0.00     0.000 C 
ENDROOT
BRANCH   1   2
ATOM      2  C   UNL     1     163.442 160.647 183.155  1.00  0.00     0.000 C 
BRANCH   2   3
ATOM      3  C   UNL     1     164.772 159.875 183.172  1.00  0.00     0.000 C 
BRANCH   3   4
ATOM      4  C   UNL     1     165.856 160.545 182.310  1.00  0.00     0.000 C 
BRANCH   4   5
ATOM      5  C   UNL     1     167.224 160.607 183.013  1.00  0.00     0.001 C 
BRANCH   5   6
ATOM      6  C   UNL     1     167.996 161.905 182.679  1.00  0.00     0.009 C 
BRANCH   6   7
ATOM      7  C   UNL     1     167.810 163.049 183.706  1.00  0.00     0.032 C 
ATOM      8  C   UNL     1     167.277 162.529 185.050  1.00  0.00     0.014 C 
BRANCH   7   9
ATOM      9  C   UNL     1     166.956 164.177 183.172  1.00  0.00     0.044 C 
ATOM     10  O   UNL     1     166.768 165.214 183.864  1.00  0.00    -0.550 OA
ATOM     11  O   UNL     1     166.440 164.127 181.881  1.00  0.00    -0.550 OA
ENDBRANCH   7   9
ENDBRANCH   6   7
ENDBRANCH   5   6
ENDBRANCH   4   5
ENDBRANCH   3   4
ENDBRANCH   2   3
ENDBRANCH   1   2
BRANCH   1  12
ATOM     12  C   UNL     1     162.365 162.968 183.155  1.00  0.00     0.000 C 
BRANCH  12  13
ATOM     13  C   UNL     1     161.227 162.068 183.653  1.00  0.00    -0.000 C 
BRANCH  13  14
ATOM     14  C   UNL     1     160.142 161.905 182.579  1.00  0.00    -0.000 C 
BRANCH  14  15
ATOM     15  C   UNL     1     159.969 160.446 182.130  1.00  0.00    -0.000 C 
BRANCH  15  16
ATOM     16  C   UNL     1     159.991 160.291 180.600  1.00  0.00    -0.000 C 
BRANCH  16  17
ATOM     17  C   UNL     1     161.064 161.166 179.926  1.00  0.00    -0.000 C 
BRANCH  17  18
ATOM     18  C   UNL     1     162.407 160.457 179.673  1.00  0.00    -0.003 C 
ATOM     19  C   UNL     1     163.545 161.428 179.360  1.00  0.00     0.004 C 
ENDBRANCH  17  18
ENDBRANCH  16  17
ENDBRANCH  15  16
ENDBRANCH  14  15
ENDBRANCH  13  14
ENDBRANCH  12  13
ENDBRANCH   1  12
TORSDOF 14
ENDMDL
MODEL 5
REMARK VINA RESULT:    -4.197      1.321      2.207
REMARK INTER + INTRA:          -9.574
REMARK INTER:                  -7.602
REMARK INTRA:                  -1.972
REMARK UNBOUND:                -1.942
REMARK SMILES CCCCCCCCCCCCCC[C@H](C)C(=O)[O-]
REMARK SMILES IDX 9 1 10 2 11 3 12 4 13 5 14 6 15 7 16 8 17 9 18 10 19 11 8 12
REMARK SMILES IDX 7 13 6 14 5 15 4 16 3 17 2 18 1 19
REMARK H PARENT
REMARK Flexibility Score: inf
ROOT
ATOM      1  C   UNL     1     163.767 162.128 182.883  1.00  0.00     0.000 C 
ENDROOT
BRANCH   1   2
ATOM      2  C   UNL     1     162.463 162.863 183.238  1.00  0.00     0.000 C 
BRANCH   2   3
ATOM      3  C   UNL     1     161.280 161.901 183.440  1.00  0.00     0.000 C 
BRANCH   3   4
ATOM      4  C   UNL     1     160.294 161.923 182.260  1.00  0.00     0.000 C 
BRANCH   4   5
ATOM      5  C   UNL     1     159.913 160.512 181.775  1.00  0.00     0.001 C 
BRANCH   5   6
ATOM      6  C   UNL     1     160.455 160.214 180.357  1.00  0.00     0.009 C 
BRANCH   6   7
ATOM      7  C   UNL     1     161.054 161.440 179.624  1.00  0.00     0.032 C 
ATOM      8  C   UNL     1     160.352 161.701 178.283  1.00  0.00     0.014 C 
BRANCH   7   9
ATOM      9  C   UNL     1     162.553 161.340 179.453  1.00  0.00     0.044 C 
ATOM     10  O   UNL     1     163.261 162.383 179.431  1.00  0.00    -0.550 OA
ATOM     11  O   UNL     1     163.181 160.100 179.406  1.00  0.00    -0.550 OA
ENDBRANCH   7   9
ENDBRANCH   6   7
ENDBRANCH   5   6
ENDBRANCH   4   5
ENDBRANCH   3   4
ENDBRANCH   2   3
ENDBRANCH   1   2
BRANCH   1  12
ATOM     12  C   UNL     1     163.616 160.600 182.920  1.00  0.00     0.000 C 
BRANCH  12  13
ATOM     13  C   UNL     1     164.948 159.926 183.271  1.00  0.00    -0.000 C 
BRANCH  13  14
ATOM     14  C   UNL     1     166.020 160.969 183.619  1.00  0.00    -0.000 C 
BRANCH  14  15
ATOM     15  C   UNL     1     167.331 160.331 184.101  1.00  0.00    -0.000 C 
BRANCH  15  16
ATOM     16  C   UNL     1     168.411 160.298 183.007  1.00  0.00    -0.000 C 
BRANCH  16  17
ATOM     17  C   UNL     1     168.126 161.280 181.856  1.00  0.00    -0.000 C 
BRANCH  17  18
ATOM     18  C   UNL     1     167.776 160.614 180.513  1.00  0.00    -0.003 C 
ATOM     19  C   UNL     1     166.602 161.285 179.801  1.00  0.00     0.004 C 
ENDBRANCH  17  18
ENDBRANCH  16  17
ENDBRANCH  15  16
ENDBRANCH  14  15
ENDBRANCH  13  14
ENDBRANCH  12  13
ENDBRANCH   1  12
TORSDOF 14
ENDMDL
MODEL 6
REMARK VINA RESULT:    -4.189      2.145      6.000
REMARK INTER + INTRA:          -9.559
REMARK INTER:                  -7.335
REMARK INTRA:                  -2.224
REMARK UNBOUND:                -1.942
REMARK SMILES CCCCCCCCCCCCCC[C@H](C)C(=O)[O-]
REMARK SMILES IDX 9 1 10 2 11 3 12 4 13 5 14 6 15 7 16 8 17 9 18 10 19 11 8 12
REMARK SMILES IDX 7 13 6 14 5 15 4 16 3 17 2 18 1 19
REMARK H PARENT
REMARK Flexibility Score: inf
ROOT
ATOM      1  C   UNL     1     162.399 163.850 182.446  1.00  0.00     0.000 C 
ENDROOT
BRANCH   1   2
ATOM      2  C   UNL     1     163.330 162.977 183.304  1.00  0.00     0.000 C 
BRANCH   2   3
ATOM      3  C   UNL     1     164.207 162.040 182.456  1.00  0.00     0.000 C 
BRANCH   3   4
ATOM      4  C   UNL     1     164.066 160.565 182.869  1.00  0.00     0.000 C 
BRANCH   4   5
ATOM      5  C   UNL     1     165.424 159.875 183.090  1.00  0.00     0.001 C 
BRANCH   5   6
ATOM      6  C   UNL     1     166.559 160.541 182.277  1.00  0.00     0.009 C 
BRANCH   6   7
ATOM      7  C   UNL     1     167.753 161.042 183.126  1.00  0.00     0.032 C 
ATOM      8  C   UNL     1     167.357 161.260 184.594  1.00  0.00     0.014 C 
BRANCH   7   9
ATOM      9  C   UNL     1     168.406 162.275 182.540  1.00  0.00     0.044 C 
ATOM     10  O   UNL     1     169.176 162.981 183.245  1.00  0.00    -0.550 OA
ATOM     11  O   UNL     1     168.238 162.598 181.198  1.00  0.00    -0.550 OA
ENDBRANCH   7   9
ENDBRANCH   6   7
ENDBRANCH   5   6
ENDBRANCH   4   5
ENDBRANCH   3   4
ENDBRANCH   2   3
ENDBRANCH   1   2
BRANCH   1  12
ATOM     12  C   UNL     1     160.932 163.400 182.516  1.00  0.00     0.000 C 
BRANCH  12  13
ATOM     13  C   UNL     1     160.754 162.270 183.538  1.00  0.00    -0.000 C 
BRANCH  13  14
ATOM     14  C   UNL     1     160.246 160.989 182.862  1.00  0.00    -0.000 C 
BRANCH  14  15
ATOM     15  C   UNL     1     160.157 161.122 181.335  1.00  0.00    -0.000 C 
BRANCH  15  16
ATOM     16  C   UNL     1     161.189 160.248 180.603  1.00  0.00    -0.000 C 
BRANCH  16  17
ATOM     17  C   UNL     1     161.944 161.013 179.501  1.00  0.00    -0.000 C 
BRANCH  17  18
ATOM     18  C   UNL     1     161.255 162.307 179.028  1.00  0.00    -0.003 C 
ATOM     19  C   UNL     1     162.109 163.117 178.053  1.00  0.00     0.004 C 
ENDBRANCH  17  18
ENDBRANCH  16  17
ENDBRANCH  15  16
ENDBRANCH  14  15
ENDBRANCH  13  14
ENDBRANCH  12  13
ENDBRANCH   1  12
TORSDOF 14
ENDMDL
MODEL 7
REMARK VINA RESULT:    -4.141      1.886      6.107
REMARK INTER + INTRA:          -9.472
REMARK INTER:                  -7.600
REMARK INTRA:                  -1.872
REMARK UNBOUND:                -1.942
REMARK SMILES CCCCCCCCCCCCCC[C@H](C)C(=O)[O-]
REMARK SMILES IDX 9 1 10 2 11 3 12 4 13 5 14 6 15 7 16 8 17 9 18 10 19 11 8 12
REMARK SMILES IDX 7 13 6 14 5 15 4 16 3 17 2 18 1 19
REMARK H PARENT
REMARK Flexibility Score: inf
ROOT
ATOM      1  C   UNL     1     162.935 163.128 182.883  1.00  0.00     0.000 C 
ENDROOT
BRANCH   1   2
ATOM      2  C   UNL     1     164.129 162.216 182.555  1.00  0.00     0.000 C 
BRANCH   2   3
ATOM      3  C   UNL     1     163.858 160.742 182.902  1.00  0.00     0.000 C 
BRANCH   3   4
ATOM      4  C   UNL     1     165.148 159.958 183.195  1.00  0.00     0.000 C 
BRANCH   4   5
ATOM      5  C   UNL     1     166.236 160.824 183.856  1.00  0.00     0.001 C 
BRANCH   5   6
ATOM      6  C   UNL     1     167.656 160.253 183.632  1.00  0.00     0.009 C 
BRANCH   6   7
ATOM      7  C   UNL     1     168.485 160.990 182.552  1.00  0.00     0.032 C 
ATOM      8  C   UNL     1     167.947 162.404 182.286  1.00  0.00     0.014 C 
BRANCH   7   9
ATOM      9  C   UNL     1     168.610 160.195 181.271  1.00  0.00     0.044 C 
ATOM     10  O   UNL     1     167.579 159.880 180.616  1.00  0.00    -0.550 OA
ATOM     11  O   UNL     1     169.860 159.875 180.752  1.00  0.00    -0.550 OA
ENDBRANCH   7   9
ENDBRANCH   6   7
ENDBRANCH   5   6
ENDBRANCH   4   5
ENDBRANCH   3   4
ENDBRANCH   2   3
ENDBRANCH   1   2
BRANCH   1  12
ATOM     12  C   UNL     1     161.830 162.401 183.664  1.00  0.00     0.000 C 
BRANCH  12  13
ATOM     13  C   UNL     1     160.541 162.312 182.836  1.00  0.00    -0.000 C 
BRANCH  13  14
ATOM     14  C   UNL     1     160.002 160.874 182.808  1.00  0.00    -0.000 C 
BRANCH  14  15
ATOM     15  C   UNL     1     160.005 160.270 181.396  1.00  0.00    -0.000 C 
BRANCH  15  16
ATOM     16  C   UNL     1     160.575 161.233 180.340  1.00  0.00    -0.000 C 
BRANCH  16  17
ATOM     17  C   UNL     1     161.863 160.704 179.684  1.00  0.00    -0.000 C 
BRANCH  17  18
ATOM     18  C   UNL     1     162.439 161.607 178.578  1.00  0.00    -0.003 C 
ATOM     19  C   UNL     1     161.376 162.466 177.894  1.00  0.00     0.004 C 
ENDBRANCH  17  18
ENDBRANCH  16  17
ENDBRANCH  15  16
ENDBRANCH  14  15
ENDBRANCH  13  14
ENDBRANCH  12  13
ENDBRANCH   1  12
TORSDOF 14
ENDMDL
MODEL 8
REMARK VINA RESULT:    -4.089      2.925      4.713
REMARK INTER + INTRA:          -9.379
REMARK INTER:                  -6.922
REMARK INTRA:                  -2.457
REMARK UNBOUND:                -1.942
REMARK SMILES CCCCCCCCCCCCCC[C@H](C)C(=O)[O-]
REMARK SMILES IDX 9 1 10 2 11 3 12 4 13 5 14 6 15 7 16 8 17 9 18 10 19 11 8 12
REMARK SMILES IDX 7 13 6 14 5 15 4 16 3 17 2 18 1 19
REMARK H PARENT
REMARK Flexibility Score: inf
ROOT
ATOM      1  C   UNL     1     160.656 160.269 180.429  1.00  0.00     0.000 C 
ENDROOT
BRANCH   1   2
ATOM      2  C   UNL     1     161.992 160.621 179.753  1.00  0.00     0.000 C 
BRANCH   2   3
ATOM      3  C   UNL     1     161.932 161.950 178.983  1.00  0.00     0.000 C 
BRANCH   3   4
ATOM      4  C   UNL     1     163.242 162.750 179.082  1.00  0.00     0.000 C 
BRANCH   4   5
ATOM      5  C   UNL     1     163.252 163.734 180.265  1.00  0.00     0.001 C 
BRANCH   5   6
ATOM      6  C   UNL     1     161.908 164.483 180.416  1.00  0.00     0.009 C 
BRANCH   6   7
ATOM      7  C   UNL     1     161.723 165.214 181.769  1.00  0.00     0.032 C 
ATOM      8  C   UNL     1     160.254 165.586 182.020  1.00  0.00     0.014 C 
BRANCH   7   9
ATOM      9  C   UNL     1     162.630 166.417 181.908  1.00  0.00     0.044 C 
ATOM     10  O   UNL     1     163.658 166.357 182.636  1.00  0.00    -0.550 OA
ATOM     11  O   UNL     1     162.395 167.573 181.171  1.00  0.00    -0.550 OA
ENDBRANCH   7   9
ENDBRANCH   6   7
ENDBRANCH   5   6
ENDBRANCH   4   5
ENDBRANCH   3   4
ENDBRANCH   2   3
ENDBRANCH   1   2
BRANCH   1  12
ATOM     12  C   UNL     1     160.157 161.378 181.368  1.00  0.00     0.000 C 
BRANCH  12  13
ATOM     13  C   UNL     1     160.302 160.960 182.836  1.00  0.00    -0.000 C 
BRANCH  13  14
ATOM     14  C   UNL     1     161.078 162.016 183.637  1.00  0.00    -0.000 C 
BRANCH  14  15
ATOM     15  C   UNL     1     162.559 162.089 183.239  1.00  0.00    -0.000 C 
BRANCH  15  16
ATOM     16  C   UNL     1     163.219 160.702 183.158  1.00  0.00    -0.000 C 
BRANCH  16  17
ATOM     17  C   UNL     1     164.562 160.724 182.404  1.00  0.00    -0.000 C 
BRANCH  17  18
ATOM     18  C   UNL     1     165.676 161.529 183.098  1.00  0.00    -0.003 C 
ATOM     19  C   UNL     1     166.713 160.644 183.787  1.00  0.00     0.004 C 
ENDBRANCH  17  18
ENDBRANCH  16  17
ENDBRANCH  15  16
ENDBRANCH  14  15
ENDBRANCH  13  14
ENDBRANCH  12  13
ENDBRANCH   1  12
TORSDOF 14
ENDMDL
MODEL 9
REMARK VINA RESULT:    -4.067      2.321      5.750
REMARK INTER + INTRA:          -9.337
REMARK INTER:                  -6.698
REMARK INTRA:                  -2.639
REMARK UNBOUND:                -1.942
REMARK SMILES CCCCCCCCCCCCCC[C@H](C)C(=O)[O-]
REMARK SMILES IDX 9 1 10 2 11 3 12 4 13 5 14 6 15 7 16 8 17 9 18 10 19 11 8 12
REMARK SMILES IDX 7 13 6 14 5 15 4 16 3 17 2 18 1 19
REMARK H PARENT
REMARK Flexibility Score: inf
ROOT
ATOM      1  C   UNL     1     163.248 160.691 179.193  1.00  0.00     0.000 C 
ENDROOT
BRANCH   1   2
ATOM      2  C   UNL     1     163.871 162.085 179.007  1.00  0.00     0.000 C 
BRANCH   2   3
ATOM      3  C   UNL     1     165.404 162.037 178.901  1.00  0.00     0.000 C 
BRANCH   3   4
ATOM      4  C   UNL     1     166.101 162.482 180.197  1.00  0.00     0.000 C 
BRANCH   4   5
ATOM      5  C   UNL     1     165.108 162.933 181.283  1.00  0.00     0.001 C 
BRANCH   5   6
ATOM      6  C   UNL     1     165.359 162.227 182.637  1.00  0.00     0.009 C 
BRANCH   6   7
ATOM      7  C   UNL     1     165.611 160.703 182.533  1.00  0.00     0.032 C 
ATOM      8  C   UNL     1     164.505 159.893 183.227  1.00  0.00     0.014 C 
BRANCH   7   9
ATOM      9  C   UNL     1     166.983 160.306 183.031  1.00  0.00     0.044 C 
ATOM     10  O   UNL     1     167.920 160.098 182.214  1.00  0.00    -0.550 OA
ATOM     11  O   UNL     1     167.255 160.249 184.394  1.00  0.00    -0.550 OA
ENDBRANCH   7   9
ENDBRANCH   6   7
ENDBRANCH   5   6
ENDBRANCH   4   5
ENDBRANCH   3   4
ENDBRANCH   2   3
ENDBRANCH   1   2
BRANCH   1  12
ATOM     12  C   UNL     1     162.345 160.605 180.432  1.00  0.00     0.000 C 
BRANCH  12  13
ATOM     13  C   UNL     1     160.864 160.633 180.035  1.00  0.00    -0.000 C 
BRANCH  13  14
ATOM     14  C   UNL     1     159.962 160.747 181.273  1.00  0.00    -0.000 C 
BRANCH  14  15
ATOM     15  C   UNL     1     160.752 160.672 182.588  1.00  0.00    -0.000 C 
BRANCH  15  16
ATOM     16  C   UNL     1     160.619 161.950 183.433  1.00  0.00    -0.000 C 
BRANCH  16  17
ATOM     17  C   UNL     1     161.785 162.932 183.217  1.00  0.00    -0.000 C 
BRANCH  17  18
ATOM     18  C   UNL     1     161.394 164.255 182.531  1.00  0.00    -0.003 C 
ATOM     19  C   UNL     1     161.484 164.187 181.007  1.00  0.00     0.004 C 
ENDBRANCH  17  18
ENDBRANCH  16  17
ENDBRANCH  15  16
ENDBRANCH  14  15
ENDBRANCH  13  14
ENDBRANCH  12  13
ENDBRANCH   1  12
TORSDOF 14
ENDMDL
