MODEL 1
REMARK VINA RESULT:    -5.369      0.000      0.000
REMARK INTER + INTRA:          -5.369
REMARK INTER:                  -5.369
REMARK INTRA:                   0.000
REMARK UNBOUND:                 0.000
REMARK SMILES CC1=CC(=O)[C@@H]2C[C@H]1C2(C)C
REMARK SMILES IDX 1 1 2 2 3 3 4 4 5 5 6 6 7 7 8 8 9 9 10 10 11 11
REMARK H PARENT
REMARK Flexibility Score: inf
ROOT
ATOM      1  C   UNL     1      12.000 -28.901  23.133  1.00  0.00     0.040 C 
ATOM      2  C   UNL     1      12.841 -30.051  22.676  1.00  0.00    -0.066 C 
ATOM      3  C   UNL     1      12.600 -30.680  21.492  1.00  0.00     0.047 C 
ATOM      4  C   UNL     1      13.531 -31.797  21.133  1.00  0.00     0.159 C 
ATOM      5  O   UNL     1      13.436 -32.429  20.048  1.00  0.00    -0.295 OA
ATOM      6  C   UNL     1      14.607 -32.113  22.173  1.00  0.00     0.067 C 
ATOM      7  C   UNL     1      13.842 -32.127  23.514  1.00  0.00     0.021 C 
ATOM      8  C   UNL     1      14.010 -30.591  23.527  1.00  0.00     0.022 C 
ATOM      9  C   UNL     1      15.265 -30.778  22.625  1.00  0.00    -0.019 C 
ATOM     10  C   UNL     1      15.562 -29.697  21.546  1.00  0.00     0.012 C 
ATOM     11  C   UNL     1      16.556 -31.007  23.451  1.00  0.00     0.012 C 
ENDROOT
TORSDOF 0
ENDMDL
MODEL 2
REMARK VINA RESULT:    -5.163      1.660      3.504
REMARK INTER + INTRA:          -5.163
REMARK INTER:                  -5.163
REMARK INTRA:                   0.000
REMARK UNBOUND:                 0.000
REMARK SMILES CC1=CC(=O)[C@@H]2C[C@H]1C2(C)C
REMARK SMILES IDX 1 1 2 2 3 3 4 4 5 5 6 6 7 7 8 8 9 9 10 10 11 11
REMARK H PARENT
REMARK Flexibility Score: inf
ROOT
ATOM      1  C   UNL     1      14.949 -33.231  23.816  1.00  0.00     0.040 C 
ATOM      2  C   UNL     1      14.590 -31.899  23.239  1.00  0.00    -0.066 C 
ATOM      3  C   UNL     1      15.543 -31.054  22.757  1.00  0.00     0.047 C 
ATOM      4  C   UNL     1      15.053 -29.763  22.176  1.00  0.00     0.159 C 
ATOM      5  O   UNL     1      15.833 -28.918  21.664  1.00  0.00    -0.295 OA
ATOM      6  C   UNL     1      13.541 -29.546  22.246  1.00  0.00     0.067 C 
ATOM      7  C   UNL     1      13.168 -29.952  23.689  1.00  0.00     0.021 C 
ATOM      8  C   UNL     1      13.127 -31.408  23.176  1.00  0.00     0.022 C 
ATOM      9  C   UNL     1      12.832 -30.840  21.757  1.00  0.00    -0.019 C 
ATOM     10  C   UNL     1      13.424 -31.588  20.528  1.00  0.00     0.012 C 
ATOM     11  C   UNL     1      11.317 -30.626  21.510  1.00  0.00     0.012 C 
ENDROOT
TORSDOF 0
ENDMDL
MODEL 3
REMARK VINA RESULT:    -5.136      1.683      2.976
REMARK INTER + INTRA:          -5.136
REMARK INTER:                  -5.136
REMARK INTRA:                   0.000
REMARK UNBOUND:                 0.000
REMARK SMILES CC1=CC(=O)[C@@H]2C[C@H]1C2(C)C
REMARK SMILES IDX 1 1 2 2 3 3 4 4 5 5 6 6 7 7 8 8 9 9 10 10 11 11
REMARK H PARENT
REMARK Flexibility Score: inf
ROOT
ATOM      1  C   UNL     1      13.142 -32.131  19.789  1.00  0.00     0.040 C 
ATOM      2  C   UNL     1      13.450 -31.229  20.941  1.00  0.00    -0.066 C 
ATOM      3  C   UNL     1      12.462 -30.582  21.620  1.00  0.00     0.047 C 
ATOM      4  C   UNL     1      12.896 -29.731  22.774  1.00  0.00     0.159 C 
ATOM      5  O   UNL     1      12.075 -29.116  23.502  1.00  0.00    -0.295 OA
ATOM      6  C   UNL     1      14.407 -29.665  23.006  1.00  0.00     0.067 C 
ATOM      7  C   UNL     1      14.996 -29.441  21.597  1.00  0.00     0.021 C 
ATOM      8  C   UNL     1      14.899 -30.971  21.407  1.00  0.00     0.022 C 
ATOM      9  C   UNL     1      14.978 -31.111  22.956  1.00  0.00    -0.019 C 
ATOM     10  C   UNL     1      14.166 -32.251  23.633  1.00  0.00     0.012 C 
ATOM     11  C   UNL     1      16.439 -31.186  23.467  1.00  0.00     0.012 C 
ENDROOT
TORSDOF 0
ENDMDL
MODEL 4
REMARK VINA RESULT:    -5.096      0.884      3.187
REMARK INTER + INTRA:          -5.096
REMARK INTER:                  -5.096
REMARK INTRA:                   0.000
REMARK UNBOUND:                 0.000
REMARK SMILES CC1=CC(=O)[C@@H]2C[C@H]1C2(C)C
REMARK SMILES IDX 1 1 2 2 3 3 4 4 5 5 6 6 7 7 8 8 9 9 10 10 11 11
REMARK H PARENT
REMARK Flexibility Score: inf
ROOT
ATOM      1  C   UNL     1      17.421 -31.403  23.328  1.00  0.00     0.040 C 
ATOM      2  C   UNL     1      16.114 -31.289  22.609  1.00  0.00    -0.066 C 
ATOM      3  C   UNL     1      15.703 -32.244  21.729  1.00  0.00     0.047 C 
ATOM      4  C   UNL     1      14.361 -32.030  21.098  1.00  0.00     0.159 C 
ATOM      5  O   UNL     1      13.854 -32.861  20.299  1.00  0.00    -0.295 OA
ATOM      6  C   UNL     1      13.649 -30.736  21.495  1.00  0.00     0.067 C 
ATOM      7  C   UNL     1      14.748 -29.655  21.393  1.00  0.00     0.021 C 
ATOM      8  C   UNL     1      15.176 -30.080  22.815  1.00  0.00     0.022 C 
ATOM      9  C   UNL     1      13.721 -30.586  23.041  1.00  0.00    -0.019 C 
ATOM     10  C   UNL     1      13.511 -31.853  23.917  1.00  0.00     0.012 C 
ATOM     11  C   UNL     1      12.784 -29.470  23.569  1.00  0.00     0.012 C 
ENDROOT
TORSDOF 0
ENDMDL
MODEL 5
REMARK VINA RESULT:    -5.055      3.733      5.062
REMARK INTER + INTRA:          -5.055
REMARK INTER:                  -5.055
REMARK INTRA:                   0.000
REMARK UNBOUND:                 0.000
REMARK SMILES CC1=CC(=O)[C@@H]2C[C@H]1C2(C)C
REMARK SMILES IDX 1 1 2 2 3 3 4 4 5 5 6 6 7 7 8 8 9 9 10 10 11 11
REMARK H PARENT
REMARK Flexibility Score: inf
ROOT
ATOM      1  C   UNL     1      16.931 -35.105  23.367  1.00  0.00     0.040 C 
ATOM      2  C   UNL     1      16.483 -34.734  21.989  1.00  0.00    -0.066 C 
ATOM      3  C   UNL     1      15.314 -34.068  21.777  1.00  0.00     0.047 C 
ATOM      4  C   UNL     1      14.993 -33.728  20.354  1.00  0.00     0.159 C 
ATOM      5  O   UNL     1      13.962 -33.080  20.035  1.00  0.00    -0.295 OA
ATOM      6  C   UNL     1      16.005 -34.219  19.319  1.00  0.00     0.067 C 
ATOM      7  C   UNL     1      16.291 -35.679  19.733  1.00  0.00     0.021 C 
ATOM      8  C   UNL     1      17.312 -35.102  20.738  1.00  0.00     0.022 C 
ATOM      9  C   UNL     1      17.434 -33.857  19.813  1.00  0.00    -0.019 C 
ATOM     10  C   UNL     1      17.657 -32.467  20.476  1.00  0.00     0.012 C 
ATOM     11  C   UNL     1      18.505 -34.045  18.709  1.00  0.00     0.012 C 
ENDROOT
TORSDOF 0
ENDMDL
MODEL 6
REMARK VINA RESULT:    -5.024      7.897      9.754
REMARK INTER + INTRA:          -5.024
REMARK INTER:                  -5.024
REMARK INTRA:                   0.000
REMARK UNBOUND:                 0.000
REMARK SMILES CC1=CC(=O)[C@@H]2C[C@H]1C2(C)C
REMARK SMILES IDX 1 1 2 2 3 3 4 4 5 5 6 6 7 7 8 8 9 9 10 10 11 11
REMARK H PARENT
REMARK Flexibility Score: inf
ROOT
ATOM      1  C   UNL     1      23.177 -24.670  19.047  1.00  0.00     0.040 C 
ATOM      2  C   UNL     1      22.618 -25.321  20.272  1.00  0.00    -0.066 C 
ATOM      3  C   UNL     1      22.153 -24.583  21.317  1.00  0.00     0.047 C 
ATOM      4  C   UNL     1      21.589 -25.352  22.473  1.00  0.00     0.159 C 
ATOM      5  O   UNL     1      21.093 -24.783  23.481  1.00  0.00    -0.295 OA
ATOM      6  C   UNL     1      21.655 -26.874  22.342  1.00  0.00     0.067 C 
ATOM      7  C   UNL     1      23.090 -27.147  21.840  1.00  0.00     0.021 C 
ATOM      8  C   UNL     1      22.555 -26.857  20.420  1.00  0.00     0.022 C 
ATOM      9  C   UNL     1      21.143 -27.271  20.928  1.00  0.00    -0.019 C 
ATOM     10  C   UNL     1      19.906 -26.524  20.353  1.00  0.00     0.012 C 
ATOM     11  C   UNL     1      20.893 -28.795  20.798  1.00  0.00     0.012 C 
ENDROOT
TORSDOF 0
ENDMDL
MODEL 7
REMARK VINA RESULT:    -4.883      8.372      9.676
REMARK INTER + INTRA:          -4.883
REMARK INTER:                  -4.883
REMARK INTRA:                   0.000
REMARK UNBOUND:                 0.000
REMARK SMILES CC1=CC(=O)[C@@H]2C[C@H]1C2(C)C
REMARK SMILES IDX 1 1 2 2 3 3 4 4 5 5 6 6 7 7 8 8 9 9 10 10 11 11
REMARK H PARENT
REMARK Flexibility Score: inf
ROOT
ATOM      1  C   UNL     1      20.710 -24.263  23.656  1.00  0.00     0.040 C 
ATOM      2  C   UNL     1      21.139 -24.759  22.312  1.00  0.00    -0.066 C 
ATOM      3  C   UNL     1      22.124 -24.136  21.607  1.00  0.00     0.047 C 
ATOM      4  C   UNL     1      22.484 -24.749  20.288  1.00  0.00     0.159 C 
ATOM      5  O   UNL     1      23.403 -24.289  19.562  1.00  0.00    -0.295 OA
ATOM      6  C   UNL     1      21.658 -25.972  19.887  1.00  0.00     0.067 C 
ATOM      7  C   UNL     1      20.201 -25.561  20.193  1.00  0.00     0.021 C 
ATOM      8  C   UNL     1      20.478 -25.989  21.651  1.00  0.00     0.022 C 
ATOM      9  C   UNL     1      21.583 -26.938  21.103  1.00  0.00    -0.019 C 
ATOM     10  C   UNL     1      22.864 -27.149  21.961  1.00  0.00     0.012 C 
ATOM     11  C   UNL     1      21.024 -28.331  20.716  1.00  0.00     0.012 C 
ENDROOT
TORSDOF 0
ENDMDL
MODEL 8
REMARK VINA RESULT:    -4.820      2.323      2.895
REMARK INTER + INTRA:          -4.820
REMARK INTER:                  -4.820
REMARK INTRA:                   0.000
REMARK UNBOUND:                 0.000
REMARK SMILES CC1=CC(=O)[C@@H]2C[C@H]1C2(C)C
REMARK SMILES IDX 1 1 2 2 3 3 4 4 5 5 6 6 7 7 8 8 9 9 10 10 11 11
REMARK H PARENT
REMARK Flexibility Score: inf
ROOT
ATOM      1  C   UNL     1      13.140 -31.614  20.446  1.00  0.00     0.040 C 
ATOM      2  C   UNL     1      14.205 -32.475  21.046  1.00  0.00    -0.066 C 
ATOM      3  C   UNL     1      14.665 -33.585  20.405  1.00  0.00     0.047 C 
ATOM      4  C   UNL     1      15.755 -34.347  21.096  1.00  0.00     0.159 C 
ATOM      5  O   UNL     1      16.290 -35.366  20.587  1.00  0.00    -0.295 OA
ATOM      6  C   UNL     1      16.174 -33.797  22.461  1.00  0.00     0.067 C 
ATOM      7  C   UNL     1      14.837 -33.510  23.178  1.00  0.00     0.021 C 
ATOM      8  C   UNL     1      14.822 -32.161  22.427  1.00  0.00     0.022 C 
ATOM      9  C   UNL     1      16.373 -32.260  22.335  1.00  0.00    -0.019 C 
ATOM     10  C   UNL     1      17.071 -31.707  21.060  1.00  0.00     0.012 C 
ATOM     11  C   UNL     1      17.077 -31.653  23.575  1.00  0.00     0.012 C 
ENDROOT
TORSDOF 0
ENDMDL
MODEL 9
REMARK VINA RESULT:    -4.694      2.038      3.624
REMARK INTER + INTRA:          -4.694
REMARK INTER:                  -4.694
REMARK INTRA:                   0.000
REMARK UNBOUND:                 0.000
REMARK SMILES CC1=CC(=O)[C@@H]2C[C@H]1C2(C)C
REMARK SMILES IDX 1 1 2 2 3 3 4 4 5 5 6 6 7 7 8 8 9 9 10 10 11 11
REMARK H PARENT
REMARK Flexibility Score: inf
ROOT
ATOM      1  C   UNL     1      15.184 -34.379  20.850  1.00  0.00     0.040 C 
ATOM      2  C   UNL     1      15.543 -33.031  21.391  1.00  0.00    -0.066 C 
ATOM      3  C   UNL     1      16.492 -32.258  20.795  1.00  0.00     0.047 C 
ATOM      4  C   UNL     1      16.739 -30.916  21.414  1.00  0.00     0.159 C 
ATOM      5  O   UNL     1      17.563 -30.095  20.932  1.00  0.00    -0.295 OA
ATOM      6  C   UNL     1      15.920 -30.613  22.669  1.00  0.00     0.067 C 
ATOM      7  C   UNL     1      16.031 -31.902  23.513  1.00  0.00     0.021 C 
ATOM      8  C   UNL     1      14.871 -32.459  22.658  1.00  0.00     0.022 C 
ATOM      9  C   UNL     1      14.436 -30.988  22.393  1.00  0.00    -0.019 C 
ATOM     10  C   UNL     1      13.831 -30.639  21.003  1.00  0.00     0.012 C 
ATOM     11  C   UNL     1      13.479 -30.450  23.487  1.00  0.00     0.012 C 
ENDROOT
TORSDOF 0
ENDMDL
