MODEL 1
REMARK VINA RESULT:    -3.236      0.000      0.000
REMARK INTER + INTRA:          -5.345
REMARK INTER:                  -4.938
REMARK INTRA:                  -0.407
REMARK UNBOUND:                -0.407
REMARK SMILES CC1=CCC[C@@H](C)C(=O)C[C@H](C(C)C)C(=O)C1
REMARK SMILES IDX 8 1 9 2 6 3 7 4 5 5 4 6 3 7 2 8 1 9 10 11 11 12 15 13 16 14
REMARK SMILES IDX 17 15 12 17 13 18 14 19
REMARK H PARENT
REMARK Flexibility Score: 70.00
ROOT
ATOM      1  C   UNL     1      18.764  52.753  34.745  1.00  0.00     0.136 C 
ATOM      2  O   UNL     1      19.343  52.908  35.809  1.00  0.00    -0.299 OA
ENDROOT
BRANCH   1   3
ATOM      3  C   UNL     1      19.308  53.464  33.516  1.00  0.00     0.053 C 
ATOM      4  C   UNL     1      20.776  53.095  33.269  1.00  0.00     0.016 C 
BRANCH   3   5
ATOM      5  C   UNL     1      19.126  54.993  33.610  1.00  0.00     0.015 C 
BRANCH   5   6
ATOM      6  C   UNL     1      17.900  55.458  32.805  1.00  0.00     0.028 C 
BRANCH   6   7
ATOM      7  C   UNL     1      17.719  54.737  31.493  1.00  0.00    -0.028 C 
ATOM      8  C   UNL     1      16.755  53.828  31.198  1.00  0.00    -0.070 CG0
ATOM      9  C   UNL     1      16.869  53.113  29.873  1.00  0.00     0.039 C 
ATOM     10  G   UNL     1      15.517  53.562  32.051  1.00  0.00     0.000 G0
ENDBRANCH   6   7
ENDBRANCH   5   6
ENDBRANCH   3   5
ENDBRANCH   1   3
BRANCH   1  11
ATOM     11  C   UNL     1      17.500  51.914  34.700  1.00  0.00     0.087 C 
BRANCH  11  12
ATOM     12  C   UNL     1      16.172  52.681  34.424  1.00  0.00     0.066 C 
BRANCH  12  13
ATOM     13  C   UNL     1      15.594  52.422  33.038  1.00  0.00     0.140 C 
ATOM     14  O   UNL     1      15.106  51.336  32.763  1.00  0.00    -0.299 OA
BRANCH  13  15
ATOM     15  C   UNL     1      15.492  53.563  32.055  1.00  0.00     0.106 CG0
ATOM     16  G   UNL     1      16.732  53.821  31.202  1.00  0.00     0.000 G0
ENDBRANCH  13  15
ENDBRANCH  12  13
BRANCH  12  17
ATOM     17  C   UNL     1      15.095  52.620  35.559  1.00  0.00    -0.006 C 
ATOM     18  C   UNL     1      15.613  52.079  36.900  1.00  0.00     0.008 C 
ATOM     19  C   UNL     1      14.418  53.984  35.779  1.00  0.00     0.008 C 
ENDBRANCH  12  17
ENDBRANCH  11  12
ENDBRANCH   1  11
TORSDOF 1
ENDMDL
MODEL 2
REMARK VINA RESULT:    -3.206     12.738     14.154
REMARK INTER + INTRA:          -5.301
REMARK INTER:                  -4.810
REMARK INTRA:                  -0.490
REMARK UNBOUND:                -0.407
REMARK SMILES CC1=CCC[C@@H](C)C(=O)C[C@H](C(C)C)C(=O)C1
REMARK SMILES IDX 8 1 9 2 6 3 7 4 5 5 4 6 3 7 2 8 1 9 10 11 11 12 15 13 16 14
REMARK SMILES IDX 17 15 12 17 13 18 14 19
REMARK H PARENT
REMARK Flexibility Score: 70.00
ROOT
ATOM      1  C   UNL     1      16.375  60.874  21.057  1.00  0.00     0.136 C 
ATOM      2  O   UNL     1      16.312  60.160  20.069  1.00  0.00    -0.299 OA
ENDROOT
BRANCH   1   3
ATOM      3  C   UNL     1      17.550  60.693  22.005  1.00  0.00     0.053 C 
ATOM      4  C   UNL     1      17.365  59.450  22.884  1.00  0.00     0.016 C 
BRANCH   3   5
ATOM      5  C   UNL     1      17.795  61.950  22.863  1.00  0.00     0.015 C 
BRANCH   5   6
ATOM      6  C   UNL     1      17.481  61.683  24.345  1.00  0.00     0.028 C 
BRANCH   6   7
ATOM      7  C   UNL     1      16.659  62.764  25.001  1.00  0.00    -0.028 C 
ATOM      8  C   UNL     1      15.304  62.859  25.001  1.00  0.00    -0.070 CG0
ATOM      9  C   UNL     1      14.706  64.118  25.583  1.00  0.00     0.039 C 
ATOM     10  G   UNL     1      14.352  61.749  24.564  1.00  0.00     0.000 G0
ENDBRANCH   6   7
ENDBRANCH   5   6
ENDBRANCH   3   5
ENDBRANCH   1   3
BRANCH   1  11
ATOM     11  C   UNL     1      15.258  61.864  21.334  1.00  0.00     0.087 C 
BRANCH  11  12
ATOM     12  C   UNL     1      13.972  61.286  21.997  1.00  0.00     0.066 C 
BRANCH  12  13
ATOM     13  C   UNL     1      13.572  62.001  23.281  1.00  0.00     0.140 C 
ATOM     14  O   UNL     1      12.563  62.689  23.320  1.00  0.00    -0.299 OA
BRANCH  13  15
ATOM     15  C   UNL     1      14.348  61.734  24.548  1.00  0.00     0.106 CG0
ATOM     16  G   UNL     1      15.298  62.843  24.995  1.00  0.00     0.000 G0
ENDBRANCH  13  15
ENDBRANCH  12  13
BRANCH  12  17
ATOM     17  C   UNL     1      12.762  61.026  21.037  1.00  0.00    -0.006 C 
ATOM     18  C   UNL     1      12.942  61.588  19.619  1.00  0.00     0.008 C 
ATOM     19  C   UNL     1      12.404  59.532  20.960  1.00  0.00     0.008 C 
ENDBRANCH  12  17
ENDBRANCH  11  12
ENDBRANCH   1  11
TORSDOF 1
ENDMDL
MODEL 3
REMARK VINA RESULT:    -3.078     11.276     13.792
REMARK INTER + INTRA:          -5.105
REMARK INTER:                  -4.721
REMARK INTRA:                  -0.384
REMARK UNBOUND:                -0.407
REMARK SMILES CC1=CCC[C@@H](C)C(=O)C[C@H](C(C)C)C(=O)C1
REMARK SMILES IDX 8 1 9 2 6 3 7 4 5 5 4 6 3 7 2 8 1 9 10 11 11 12 15 13 16 14
REMARK SMILES IDX 17 15 12 17 13 18 14 19
REMARK H PARENT
REMARK Flexibility Score: 70.00
ROOT
ATOM      1  C   UNL     1      16.593  60.955  20.904  1.00  0.00     0.136 C 
ATOM      2  O   UNL     1      16.884  60.761  19.735  1.00  0.00    -0.299 OA
ENDROOT
BRANCH   1   3
ATOM      3  C   UNL     1      17.391  60.231  21.977  1.00  0.00     0.053 C 
ATOM      4  C   UNL     1      18.871  60.632  21.929  1.00  0.00     0.016 C 
BRANCH   3   5
ATOM      5  C   UNL     1      17.225  58.701  21.882  1.00  0.00     0.015 C 
BRANCH   5   6
ATOM      6  C   UNL     1      16.101  58.204  22.808  1.00  0.00     0.028 C 
BRANCH   6   7
ATOM      7  C   UNL     1      16.162  58.773  24.203  1.00  0.00    -0.028 C 
ATOM      8  C   UNL     1      15.290  59.657  24.753  1.00  0.00    -0.070 CG0
ATOM      9  C   UNL     1      15.644  60.213  26.111  1.00  0.00     0.039 C 
ATOM     10  G   UNL     1      13.939  60.037  24.152  1.00  0.00     0.000 G0
ENDBRANCH   6   7
ENDBRANCH   5   6
ENDBRANCH   3   5
ENDBRANCH   1   3
BRANCH   1  11
ATOM     11  C   UNL     1      15.418  61.855  21.240  1.00  0.00     0.087 C 
BRANCH  11  12
ATOM     12  C   UNL     1      14.132  61.146  21.762  1.00  0.00     0.066 C 
BRANCH  12  13
ATOM     13  C   UNL     1      13.928  61.280  23.265  1.00  0.00     0.140 C 
ATOM     14  O   UNL     1      13.634  62.359  23.758  1.00  0.00    -0.299 OA
BRANCH  13  15
ATOM     15  C   UNL     1      13.943  60.040  24.126  1.00  0.00     0.106 CG0
ATOM     16  G   UNL     1      15.287  59.681  24.756  1.00  0.00     0.000 G0
ENDBRANCH  13  15
ENDBRANCH  12  13
BRANCH  12  17
ATOM     17  C   UNL     1      12.825  61.404  20.939  1.00  0.00    -0.006 C 
ATOM     18  C   UNL     1      13.019  62.279  19.692  1.00  0.00     0.008 C 
ATOM     19  C   UNL     1      12.128  60.089  20.545  1.00  0.00     0.008 C 
ENDBRANCH  12  17
ENDBRANCH  11  12
ENDBRANCH   1  11
TORSDOF 1
ENDMDL
MODEL 4
REMARK VINA RESULT:    -2.887      2.494      4.114
REMARK INTER + INTRA:          -4.814
REMARK INTER:                  -4.487
REMARK INTRA:                  -0.326
REMARK UNBOUND:                -0.407
REMARK SMILES CC1=CCC[C@@H](C)C(=O)C[C@H](C(C)C)C(=O)C1
REMARK SMILES IDX 8 1 9 2 6 3 7 4 5 5 4 6 3 7 2 8 1 9 10 11 11 12 15 13 16 14
REMARK SMILES IDX 17 15 12 17 13 18 14 19
REMARK H PARENT
REMARK Flexibility Score: 70.00
ROOT
ATOM      1  C   UNL     1      16.000  53.022  33.474  1.00  0.00     0.136 C 
ATOM      2  O   UNL     1      16.488  52.895  32.362  1.00  0.00    -0.299 OA
ENDROOT
BRANCH   1   3
ATOM      3  C   UNL     1      16.420  52.047  34.562  1.00  0.00     0.053 C 
ATOM      4  C   UNL     1      15.701  52.349  35.883  1.00  0.00     0.016 C 
BRANCH   3   5
ATOM      5  C   UNL     1      17.950  52.024  34.754  1.00  0.00     0.015 C 
BRANCH   5   6
ATOM      6  C   UNL     1      18.472  53.392  35.228  1.00  0.00     0.028 C 
BRANCH   6   7
ATOM      7  C   UNL     1      19.338  54.100  34.217  1.00  0.00    -0.028 C 
ATOM      8  C   UNL     1      19.067  55.286  33.613  1.00  0.00    -0.070 CG0
ATOM      9  C   UNL     1      20.002  55.723  32.511  1.00  0.00     0.039 C 
ATOM     10  G   UNL     1      17.965  56.252  34.043  1.00  0.00     0.000 G0
ENDBRANCH   6   7
ENDBRANCH   5   6
ENDBRANCH   3   5
ENDBRANCH   1   3
BRANCH   1  11
ATOM     11  C   UNL     1      14.958  54.100  33.713  1.00  0.00     0.087 C 
BRANCH  11  12
ATOM     12  C   UNL     1      15.486  55.460  34.260  1.00  0.00     0.066 C 
BRANCH  12  13
ATOM     13  C   UNL     1      16.603  56.065  33.419  1.00  0.00     0.140 C 
ATOM     14  O   UNL     1      16.374  56.487  32.295  1.00  0.00    -0.299 OA
BRANCH  13  15
ATOM     15  C   UNL     1      17.963  56.276  34.038  1.00  0.00     0.106 CG0
ATOM     16  G   UNL     1      19.050  55.292  33.613  1.00  0.00     0.000 G0
ENDBRANCH  13  15
ENDBRANCH  12  13
BRANCH  12  17
ATOM     17  C   UNL     1      14.395  56.504  34.673  1.00  0.00    -0.006 C 
ATOM     18  C   UNL     1      14.942  57.895  35.021  1.00  0.00     0.008 C 
ATOM     19  C   UNL     1      13.294  56.633  33.604  1.00  0.00     0.008 C 
ENDBRANCH  12  17
ENDBRANCH  11  12
ENDBRANCH   1  11
TORSDOF 1
ENDMDL
MODEL 5
REMARK VINA RESULT:    -2.875     11.509     13.579
REMARK INTER + INTRA:          -4.795
REMARK INTER:                  -4.506
REMARK INTRA:                  -0.289
REMARK UNBOUND:                -0.407
REMARK SMILES CC1=CCC[C@@H](C)C(=O)C[C@H](C(C)C)C(=O)C1
REMARK SMILES IDX 8 1 9 2 6 3 7 4 5 5 4 6 3 7 2 8 1 9 10 11 11 12 15 13 16 14
REMARK SMILES IDX 17 15 12 17 13 18 14 19
REMARK H PARENT
REMARK Flexibility Score: 70.00
ROOT
ATOM      1  C   UNL     1      13.234  61.124  21.805  1.00  0.00     0.136 C 
ATOM      2  O   UNL     1      12.281  60.363  21.842  1.00  0.00    -0.299 OA
ENDROOT
BRANCH   1   3
ATOM      3  C   UNL     1      13.817  61.486  20.449  1.00  0.00     0.053 C 
ATOM      4  C   UNL     1      12.730  61.503  19.366  1.00  0.00     0.016 C 
BRANCH   3   5
ATOM      5  C   UNL     1      14.979  60.552  20.055  1.00  0.00     0.015 C 
BRANCH   5   6
ATOM      6  C   UNL     1      16.333  61.126  20.509  1.00  0.00     0.028 C 
BRANCH   6   7
ATOM      7  C   UNL     1      17.160  60.166  21.328  1.00  0.00    -0.028 C 
ATOM      8  C   UNL     1      17.392  60.239  22.665  1.00  0.00    -0.070 CG0
ATOM      9  C   UNL     1      18.386  59.260  23.241  1.00  0.00     0.039 C 
ATOM     10  G   UNL     1      16.643  61.154  23.631  1.00  0.00     0.000 G0
ENDBRANCH   6   7
ENDBRANCH   5   6
ENDBRANCH   3   5
ENDBRANCH   1   3
BRANCH   1  11
ATOM     11  C   UNL     1      13.835  61.630  23.104  1.00  0.00     0.087 C 
BRANCH  11  12
ATOM     12  C   UNL     1      14.156  60.551  24.182  1.00  0.00     0.066 C 
BRANCH  12  13
ATOM     13  C   UNL     1      15.630  60.483  24.558  1.00  0.00     0.140 C 
ATOM     14  O   UNL     1      15.999  59.799  25.502  1.00  0.00    -0.299 OA
BRANCH  13  15
ATOM     15  C   UNL     1      16.652  61.146  23.667  1.00  0.00     0.106 CG0
ATOM     16  G   UNL     1      17.374  60.228  22.683  1.00  0.00     0.000 G0
ENDBRANCH  13  15
ENDBRANCH  12  13
BRANCH  12  17
ATOM     17  C   UNL     1      13.203  60.517  25.424  1.00  0.00    -0.006 C 
ATOM     18  C   UNL     1      12.582  61.874  25.788  1.00  0.00     0.008 C 
ATOM     19  C   UNL     1      12.090  59.465  25.264  1.00  0.00     0.008 C 
ENDBRANCH  12  17
ENDBRANCH  11  12
ENDBRANCH   1  11
TORSDOF 1
ENDMDL
MODEL 6
REMARK VINA RESULT:    -2.856      2.142      3.577
REMARK INTER + INTRA:          -4.765
REMARK INTER:                  -4.361
REMARK INTRA:                  -0.404
REMARK UNBOUND:                -0.407
REMARK SMILES CC1=CCC[C@@H](C)C(=O)C[C@H](C(C)C)C(=O)C1
REMARK SMILES IDX 8 1 9 2 6 3 7 4 5 5 4 6 3 7 2 8 1 9 10 11 11 12 15 13 16 14
REMARK SMILES IDX 17 15 12 17 13 18 14 19
REMARK H PARENT
REMARK Flexibility Score: 70.00
ROOT
ATOM      1  C   UNL     1      17.181  55.690  33.743  1.00  0.00     0.136 C 
ATOM      2  O   UNL     1      18.036  56.310  34.356  1.00  0.00    -0.299 OA
ENDROOT
BRANCH   1   3
ATOM      3  C   UNL     1      16.870  56.108  32.315  1.00  0.00     0.053 C 
ATOM      4  C   UNL     1      15.796  55.205  31.696  1.00  0.00     0.016 C 
BRANCH   3   5
ATOM      5  C   UNL     1      18.139  56.144  31.439  1.00  0.00     0.015 C 
BRANCH   5   6
ATOM      6  C   UNL     1      18.643  54.724  31.129  1.00  0.00     0.028 C 
BRANCH   6   7
ATOM      7  C   UNL     1      20.004  54.420  31.705  1.00  0.00    -0.028 C 
ATOM      8  C   UNL     1      20.278  53.548  32.709  1.00  0.00    -0.070 CG0
ATOM      9  C   UNL     1      21.695  53.528  33.231  1.00  0.00     0.039 C 
ATOM     10  G   UNL     1      19.296  52.519  33.264  1.00  0.00     0.000 G0
ENDBRANCH   6   7
ENDBRANCH   5   6
ENDBRANCH   3   5
ENDBRANCH   1   3
BRANCH   1  11
ATOM     11  C   UNL     1      16.426  54.574  34.442  1.00  0.00     0.087 C 
BRANCH  11  12
ATOM     12  C   UNL     1      16.919  53.123  34.157  1.00  0.00     0.066 C 
BRANCH  12  13
ATOM     13  C   UNL     1      18.411  52.927  34.399  1.00  0.00     0.140 C 
ATOM     14  O   UNL     1      18.870  52.996  35.530  1.00  0.00    -0.299 OA
BRANCH  13  15
ATOM     15  C   UNL     1      19.295  52.498  33.254  1.00  0.00     0.106 CG0
ATOM     16  G   UNL     1      20.260  53.556  32.724  1.00  0.00     0.000 G0
ENDBRANCH  13  15
ENDBRANCH  12  13
BRANCH  12  17
ATOM     17  C   UNL     1      16.044  51.971  34.755  1.00  0.00    -0.006 C 
ATOM     18  C   UNL     1      15.651  52.167  36.226  1.00  0.00     0.008 C 
ATOM     19  C   UNL     1      14.781  51.716  33.912  1.00  0.00     0.008 C 
ENDBRANCH  12  17
ENDBRANCH  11  12
ENDBRANCH   1  11
TORSDOF 1
ENDMDL
MODEL 7
REMARK VINA RESULT:    -2.756      2.083      3.877
REMARK INTER + INTRA:          -4.613
REMARK INTER:                  -4.200
REMARK INTRA:                  -0.413
REMARK UNBOUND:                -0.407
REMARK SMILES CC1=CCC[C@@H](C)C(=O)C[C@H](C(C)C)C(=O)C1
REMARK SMILES IDX 8 1 9 2 6 3 7 4 5 5 4 6 3 7 2 8 1 9 10 11 11 12 15 13 16 14
REMARK SMILES IDX 17 15 12 17 13 18 14 19
REMARK H PARENT
REMARK Flexibility Score: 70.00
ROOT
ATOM      1  C   UNL     1      17.473  56.091  33.759  1.00  0.00     0.136 C 
ATOM      2  O   UNL     1      18.343  56.424  34.548  1.00  0.00    -0.299 OA
ENDROOT
BRANCH   1   3
ATOM      3  C   UNL     1      16.248  56.981  33.618  1.00  0.00     0.053 C 
ATOM      4  C   UNL     1      16.633  58.377  33.113  1.00  0.00     0.016 C 
BRANCH   3   5
ATOM      5  C   UNL     1      15.445  57.065  34.932  1.00  0.00     0.015 C 
BRANCH   5   6
ATOM      6  C   UNL     1      14.542  55.833  35.113  1.00  0.00     0.028 C 
BRANCH   6   7
ATOM      7  C   UNL     1      13.849  55.391  33.848  1.00  0.00    -0.028 C 
ATOM      8  C   UNL     1      14.007  54.199  33.217  1.00  0.00    -0.070 CG0
ATOM      9  C   UNL     1      13.335  54.041  31.874  1.00  0.00     0.039 C 
ATOM     10  G   UNL     1      14.713  52.983  33.813  1.00  0.00     0.000 G0
ENDBRANCH   6   7
ENDBRANCH   5   6
ENDBRANCH   3   5
ENDBRANCH   1   3
BRANCH   1  11
ATOM     11  C   UNL     1      17.616  54.786  32.998  1.00  0.00     0.087 C 
BRANCH  11  12
ATOM     12  C   UNL     1      17.306  53.484  33.798  1.00  0.00     0.066 C 
BRANCH  12  13
ATOM     13  C   UNL     1      16.115  52.704  33.257  1.00  0.00     0.140 C 
ATOM     14  O   UNL     1      16.283  51.779  32.476  1.00  0.00    -0.299 OA
BRANCH  13  15
ATOM     15  C   UNL     1      14.738  52.982  33.808  1.00  0.00     0.106 CG0
ATOM     16  G   UNL     1      14.020  54.199  33.228  1.00  0.00     0.000 G0
ENDBRANCH  13  15
ENDBRANCH  12  13
BRANCH  12  17
ATOM     17  C   UNL     1      18.537  52.575  34.131  1.00  0.00    -0.006 C 
ATOM     18  C   UNL     1      19.658  52.611  33.084  1.00  0.00     0.008 C 
ATOM     19  C   UNL     1      19.118  52.885  35.523  1.00  0.00     0.008 C 
ENDBRANCH  12  17
ENDBRANCH  11  12
ENDBRANCH   1  11
TORSDOF 1
ENDMDL
MODEL 8
REMARK VINA RESULT:    -2.718      2.436      4.436
REMARK INTER + INTRA:          -4.555
REMARK INTER:                  -4.432
REMARK INTRA:                  -0.123
REMARK UNBOUND:                -0.407
REMARK SMILES CC1=CCC[C@@H](C)C(=O)C[C@H](C(C)C)C(=O)C1
REMARK SMILES IDX 8 1 9 2 6 3 7 4 5 5 4 6 3 7 2 8 1 9 10 11 11 12 15 13 16 14
REMARK SMILES IDX 17 15 12 17 13 18 14 19
REMARK H PARENT
REMARK Flexibility Score: 70.00
ROOT
ATOM      1  C   UNL     1      19.584  54.831  32.876  1.00  0.00     0.136 C 
ATOM      2  O   UNL     1      19.709  54.764  31.664  1.00  0.00    -0.299 OA
ENDROOT
BRANCH   1   3
ATOM      3  C   UNL     1      20.184  53.722  33.726  1.00  0.00     0.053 C 
ATOM      4  C   UNL     1      20.584  52.519  32.862  1.00  0.00     0.016 C 
BRANCH   3   5
ATOM      5  C   UNL     1      19.239  53.298  34.868  1.00  0.00     0.015 C 
BRANCH   5   6
ATOM      6  C   UNL     1      18.102  52.401  34.346  1.00  0.00     0.028 C 
BRANCH   6   7
ATOM      7  C   UNL     1      16.836  52.481  35.162  1.00  0.00    -0.028 C 
ATOM      8  C   UNL     1      15.836  53.387  35.012  1.00  0.00    -0.070 CG0
ATOM      9  C   UNL     1      14.740  53.377  36.051  1.00  0.00     0.039 C 
ATOM     10  G   UNL     1      15.683  54.329  33.819  1.00  0.00     0.000 G0
ENDBRANCH   6   7
ENDBRANCH   5   6
ENDBRANCH   3   5
ENDBRANCH   1   3
BRANCH   1  11
ATOM     11  C   UNL     1      18.792  55.975  33.482  1.00  0.00     0.087 C 
BRANCH  11  12
ATOM     12  C   UNL     1      17.334  56.156  32.960  1.00  0.00     0.066 C 
BRANCH  12  13
ATOM     13  C   UNL     1      16.270  55.706  33.953  1.00  0.00     0.140 C 
ATOM     14  O   UNL     1      15.814  56.489  34.773  1.00  0.00    -0.299 OA
BRANCH  13  15
ATOM     15  C   UNL     1      15.672  54.326  33.820  1.00  0.00     0.106 CG0
ATOM     16  G   UNL     1      15.834  53.409  35.030  1.00  0.00     0.000 G0
ENDBRANCH  13  15
ENDBRANCH  12  13
BRANCH  12  17
ATOM     17  C   UNL     1      17.010  57.537  32.297  1.00  0.00    -0.006 C 
ATOM     18  C   UNL     1      17.297  58.755  33.186  1.00  0.00     0.008 C 
ATOM     19  C   UNL     1      17.726  57.704  30.944  1.00  0.00     0.008 C 
ENDBRANCH  12  17
ENDBRANCH  11  12
ENDBRANCH   1  11
TORSDOF 1
ENDMDL
MODEL 9
REMARK VINA RESULT:    -2.680     11.226     13.320
REMARK INTER + INTRA:          -4.497
REMARK INTER:                  -4.065
REMARK INTRA:                  -0.432
REMARK UNBOUND:                -0.407
REMARK SMILES CC1=CCC[C@@H](C)C(=O)C[C@H](C(C)C)C(=O)C1
REMARK SMILES IDX 8 1 9 2 6 3 7 4 5 5 4 6 3 7 2 8 1 9 10 11 11 12 15 13 16 14
REMARK SMILES IDX 17 15 12 17 13 18 14 19
REMARK H PARENT
REMARK Flexibility Score: 70.00
ROOT
ATOM      1  C   UNL     1      13.391  59.904  23.301  1.00  0.00     0.136 C 
ATOM      2  O   UNL     1      12.204  59.626  23.233  1.00  0.00    -0.299 OA
ENDROOT
BRANCH   1   3
ATOM      3  C   UNL     1      13.828  61.304  22.898  1.00  0.00     0.053 C 
ATOM      4  C   UNL     1      13.059  62.372  23.686  1.00  0.00     0.016 C 
BRANCH   3   5
ATOM      5  C   UNL     1      13.697  61.531  21.379  1.00  0.00     0.015 C 
BRANCH   5   6
ATOM      6  C   UNL     1      14.941  61.020  20.630  1.00  0.00     0.028 C 
BRANCH   6   7
ATOM      7  C   UNL     1      16.247  61.407  21.278  1.00  0.00    -0.028 C 
ATOM      8  C   UNL     1      17.188  60.558  21.765  1.00  0.00    -0.070 CG0
ATOM      9  C   UNL     1      18.342  61.174  22.519  1.00  0.00     0.039 C 
ATOM     10  G   UNL     1      17.220  59.052  21.511  1.00  0.00     0.000 G0
ENDBRANCH   6   7
ENDBRANCH   5   6
ENDBRANCH   3   5
ENDBRANCH   1   3
BRANCH   1  11
ATOM     11  C   UNL     1      14.384  58.837  23.723  1.00  0.00     0.087 C 
BRANCH  11  12
ATOM     12  C   UNL     1      15.073  58.042  22.573  1.00  0.00     0.066 C 
BRANCH  12  13
ATOM     13  C   UNL     1      16.590  58.179  22.560  1.00  0.00     0.140 C 
ATOM     14  O   UNL     1      17.281  57.501  23.305  1.00  0.00    -0.299 OA
BRANCH  13  15
ATOM     15  C   UNL     1      17.244  59.050  21.515  1.00  0.00     0.106 CG0
ATOM     16  G   UNL     1      17.191  60.555  21.771  1.00  0.00     0.000 G0
ENDBRANCH  13  15
ENDBRANCH  12  13
BRANCH  12  17
ATOM     17  C   UNL     1      14.588  56.567  22.373  1.00  0.00    -0.006 C 
ATOM     18  C   UNL     1      14.056  55.892  23.646  1.00  0.00     0.008 C 
ATOM     19  C   UNL     1      13.539  56.457  21.252  1.00  0.00     0.008 C 
ENDBRANCH  12  17
ENDBRANCH  11  12
ENDBRANCH   1  11
TORSDOF 1
ENDMDL
