MODEL 1
REMARK VINA RESULT:    -3.373      0.000      0.000
REMARK INTER + INTRA:          -3.779
REMARK INTER:                  -3.768
REMARK INTRA:                  -0.011
REMARK UNBOUND:                -0.011
REMARK SMILES CCCC(=O)[O-]
REMARK SMILES IDX 3 1 4 2 5 3 6 4 2 5 1 6
REMARK H PARENT
REMARK Flexibility Score: inf
ROOT
ATOM      1  C   UNL     1      -5.788  -3.271  28.190  1.00  0.00     0.052 C 
ENDROOT
BRANCH   1   2
ATOM      2  C   UNL     1      -4.972  -2.100  28.645  1.00  0.00     0.041 C 
ATOM      3  O   UNL     1      -5.538  -1.050  29.050  1.00  0.00    -0.550 OA
ATOM      4  O   UNL     1      -3.585  -2.181  28.653  1.00  0.00    -0.550 OA
ENDBRANCH   1   2
BRANCH   1   5
ATOM      5  C   UNL     1      -5.361  -4.567  28.888  1.00  0.00     0.003 C 
ATOM      6  C   UNL     1      -5.660  -5.807  28.047  1.00  0.00     0.004 C 
ENDBRANCH   1   5
TORSDOF 2
ENDMDL
MODEL 2
REMARK VINA RESULT:    -3.354      0.982      1.742
REMARK INTER + INTRA:          -3.757
REMARK INTER:                  -3.741
REMARK INTRA:                  -0.016
REMARK UNBOUND:                -0.011
REMARK SMILES CCCC(=O)[O-]
REMARK SMILES IDX 3 1 4 2 5 3 6 4 2 5 1 6
REMARK H PARENT
REMARK Flexibility Score: inf
ROOT
ATOM      1  C   UNL     1      -5.369  -2.516  29.273  1.00  0.00     0.052 C 
ENDROOT
BRANCH   1   2
ATOM      2  C   UNL     1      -5.052  -1.170  28.696  1.00  0.00     0.041 C 
ATOM      3  O   UNL     1      -4.270  -1.069  27.714  1.00  0.00    -0.550 OA
ATOM      4  O   UNL     1      -5.648  -0.031  29.222  1.00  0.00    -0.550 OA
ENDBRANCH   1   2
BRANCH   1   5
ATOM      5  C   UNL     1      -5.783  -3.516  28.187  1.00  0.00     0.003 C 
ATOM      6  C   UNL     1      -5.361  -4.946  28.522  1.00  0.00     0.004 C 
ENDBRANCH   1   5
TORSDOF 2
ENDMDL
MODEL 3
REMARK VINA RESULT:    -3.327      0.845      1.296
REMARK INTER + INTRA:          -3.728
REMARK INTER:                  -3.716
REMARK INTRA:                  -0.011
REMARK UNBOUND:                -0.011
REMARK SMILES CCCC(=O)[O-]
REMARK SMILES IDX 3 1 4 2 5 3 6 4 2 5 1 6
REMARK H PARENT
REMARK Flexibility Score: inf
ROOT
ATOM      1  C   UNL     1      -5.747  -3.588  28.254  1.00  0.00     0.052 C 
ENDROOT
BRANCH   1   2
ATOM      2  C   UNL     1      -5.185  -2.479  29.090  1.00  0.00     0.041 C 
ATOM      3  O   UNL     1      -4.517  -2.741  30.125  1.00  0.00    -0.550 OA
ATOM      4  O   UNL     1      -5.371  -1.157  28.707  1.00  0.00    -0.550 OA
ENDBRANCH   1   2
BRANCH   1   5
ATOM      5  C   UNL     1      -5.407  -4.965  28.835  1.00  0.00     0.003 C 
ATOM      6  C   UNL     1      -5.751  -6.103  27.875  1.00  0.00     0.004 C 
ENDBRANCH   1   5
TORSDOF 2
ENDMDL
MODEL 4
REMARK VINA RESULT:    -3.222      1.999      3.318
REMARK INTER + INTRA:          -3.609
REMARK INTER:                  -3.595
REMARK INTRA:                  -0.015
REMARK UNBOUND:                -0.011
REMARK SMILES CCCC(=O)[O-]
REMARK SMILES IDX 3 1 4 2 5 3 6 4 2 5 1 6
REMARK H PARENT
REMARK Flexibility Score: inf
ROOT
ATOM      1  C   UNL     1      -5.714  -3.180  28.706  1.00  0.00     0.052 C 
ENDROOT
BRANCH   1   2
ATOM      2  C   UNL     1      -4.903  -4.425  28.506  1.00  0.00     0.041 C 
ATOM      3  O   UNL     1      -5.447  -5.473  28.069  1.00  0.00    -0.550 OA
ATOM      4  O   UNL     1      -3.540  -4.416  28.772  1.00  0.00    -0.550 OA
ENDBRANCH   1   2
BRANCH   1   5
ATOM      5  C   UNL     1      -4.970  -1.934  28.212  1.00  0.00     0.003 C 
ATOM      6  C   UNL     1      -5.316  -0.689  29.028  1.00  0.00     0.004 C 
ENDBRANCH   1   5
TORSDOF 2
ENDMDL
MODEL 5
REMARK VINA RESULT:    -3.162      1.310      1.641
REMARK INTER + INTRA:          -3.543
REMARK INTER:                  -3.505
REMARK INTRA:                  -0.039
REMARK UNBOUND:                -0.011
REMARK SMILES CCCC(=O)[O-]
REMARK SMILES IDX 3 1 4 2 5 3 6 4 2 5 1 6
REMARK H PARENT
REMARK Flexibility Score: inf
ROOT
ATOM      1  C   UNL     1      -5.174  -3.563  29.099  1.00  0.00     0.052 C 
ENDROOT
BRANCH   1   2
ATOM      2  C   UNL     1      -3.712  -3.254  28.999  1.00  0.00     0.041 C 
ATOM      3  O   UNL     1      -3.328  -2.099  28.675  1.00  0.00    -0.550 OA
ATOM      4  O   UNL     1      -2.772  -4.232  29.297  1.00  0.00    -0.550 OA
ENDBRANCH   1   2
BRANCH   1   5
ATOM      5  C   UNL     1      -5.425  -5.063  29.291  1.00  0.00     0.003 C 
ATOM      6  C   UNL     1      -5.694  -5.782  27.970  1.00  0.00     0.004 C 
ENDBRANCH   1   5
TORSDOF 2
ENDMDL
MODEL 6
REMARK VINA RESULT:    -3.073      2.173      3.545
REMARK INTER + INTRA:          -3.444
REMARK INTER:                  -3.424
REMARK INTRA:                  -0.020
REMARK UNBOUND:                -0.011
REMARK SMILES CCCC(=O)[O-]
REMARK SMILES IDX 3 1 4 2 5 3 6 4 2 5 1 6
REMARK H PARENT
REMARK Flexibility Score: inf
ROOT
ATOM      1  C   UNL     1      -4.743  -2.312  29.452  1.00  0.00     0.052 C 
ENDROOT
BRANCH   1   2
ATOM      2  C   UNL     1      -5.572  -3.517  29.130  1.00  0.00     0.041 C 
ATOM      3  O   UNL     1      -5.828  -4.369  30.022  1.00  0.00    -0.550 OA
ATOM      4  O   UNL     1      -6.092  -3.682  27.852  1.00  0.00    -0.550 OA
ENDBRANCH   1   2
BRANCH   1   5
ATOM      5  C   UNL     1      -4.986  -1.173  28.456  1.00  0.00     0.003 C 
ATOM      6  C   UNL     1      -5.486   0.100  29.138  1.00  0.00     0.004 C 
ENDBRANCH   1   5
TORSDOF 2
ENDMDL
MODEL 7
REMARK VINA RESULT:    -2.976      1.697      2.295
REMARK INTER + INTRA:          -3.336
REMARK INTER:                  -3.314
REMARK INTRA:                  -0.021
REMARK UNBOUND:                -0.011
REMARK SMILES CCCC(=O)[O-]
REMARK SMILES IDX 3 1 4 2 5 3 6 4 2 5 1 6
REMARK H PARENT
REMARK Flexibility Score: inf
ROOT
ATOM      1  C   UNL     1      -4.556  -1.256  28.011  1.00  0.00     0.052 C 
ENDROOT
BRANCH   1   2
ATOM      2  C   UNL     1      -3.234  -0.851  28.588  1.00  0.00     0.041 C 
ATOM      3  O   UNL     1      -3.130   0.218  29.246  1.00  0.00    -0.550 OA
ATOM      4  O   UNL     1      -2.125  -1.671  28.427  1.00  0.00    -0.550 OA
ENDBRANCH   1   2
BRANCH   1   5
ATOM      5  C   UNL     1      -5.363  -2.117  28.991  1.00  0.00     0.003 C 
ATOM      6  C   UNL     1      -5.704  -3.491  28.415  1.00  0.00     0.004 C 
ENDBRANCH   1   5
TORSDOF 2
ENDMDL
MODEL 8
REMARK VINA RESULT:    -2.966      2.183      3.554
REMARK INTER + INTRA:          -3.324
REMARK INTER:                  -3.317
REMARK INTRA:                  -0.007
REMARK UNBOUND:                -0.011
REMARK SMILES CCCC(=O)[O-]
REMARK SMILES IDX 3 1 4 2 5 3 6 4 2 5 1 6
REMARK H PARENT
REMARK Flexibility Score: inf
ROOT
ATOM      1  C   UNL     1      -4.458  -1.188  28.017  1.00  0.00     0.052 C 
ENDROOT
BRANCH   1   2
ATOM      2  C   UNL     1      -5.071  -2.411  28.629  1.00  0.00     0.041 C 
ATOM      3  O   UNL     1      -5.787  -3.178  27.932  1.00  0.00    -0.550 OA
ATOM      4  O   UNL     1      -4.821  -2.721  29.960  1.00  0.00    -0.550 OA
ENDBRANCH   1   2
BRANCH   1   5
ATOM      5  C   UNL     1      -3.013  -0.982  28.485  1.00  0.00     0.003 C 
ATOM      6  C   UNL     1      -2.108  -0.460  27.370  1.00  0.00     0.004 C 
ENDBRANCH   1   5
TORSDOF 2
ENDMDL
MODEL 9
REMARK VINA RESULT:    -2.779      2.855      3.802
REMARK INTER + INTRA:          -3.115
REMARK INTER:                  -3.109
REMARK INTRA:                  -0.006
REMARK UNBOUND:                -0.011
REMARK SMILES CCCC(=O)[O-]
REMARK SMILES IDX 3 1 4 2 5 3 6 4 2 5 1 6
REMARK H PARENT
REMARK Flexibility Score: inf
ROOT
ATOM      1  C   UNL     1      -2.951  -1.189  28.505  1.00  0.00     0.052 C 
ENDROOT
BRANCH   1   2
ATOM      2  C   UNL     1      -2.039  -0.222  27.815  1.00  0.00     0.041 C 
ATOM      3  O   UNL     1      -1.555  -0.501  26.686  1.00  0.00    -0.550 OA
ATOM      4  O   UNL     1      -1.753   1.004  28.402  1.00  0.00    -0.550 OA
ENDBRANCH   1   2
BRANCH   1   5
ATOM      5  C   UNL     1      -4.381  -1.113  27.958  1.00  0.00     0.003 C 
ATOM      6  C   UNL     1      -5.219  -2.329  28.348  1.00  0.00     0.004 C 
ENDBRANCH   1   5
TORSDOF 2
ENDMDL
