MODEL 1
REMARK VINA RESULT:    -5.707      0.000      0.000
REMARK INTER + INTRA:          -6.041
REMARK INTER:                  -6.041
REMARK INTRA:                   0.000
REMARK UNBOUND:                 0.000
REMARK SMILES O=c1ccc2cc(O)c(O)cc2o1
REMARK SMILES IDX 4 1 3 2 2 3 1 4 13 5 12 6 11 7 9 8 7 9 6 10 5 11 8 12 10 14
REMARK H PARENT 8 13 10 15
REMARK Flexibility Score: inf
ROOT
ATOM      1  C   UNL     1      19.341  -1.389 -18.788  1.00  0.00     0.019 A 
ATOM      2  C   UNL     1      19.121  -0.938 -17.487  1.00  0.00     0.094 A 
ATOM      3  C   UNL     1      19.692   0.275 -17.086  1.00  0.00     0.336 A 
ATOM      4  O   UNL     1      19.505   0.701 -15.916  1.00  0.00    -0.246 OA
ATOM      5  O   UNL     1      20.431   0.984 -17.934  1.00  0.00    -0.423 OA
ATOM      6  C   UNL     1      20.665   0.590 -19.183  1.00  0.00     0.142 A 
ATOM      7  C   UNL     1      21.450   1.375 -20.030  1.00  0.00     0.098 A 
ATOM      8  C   UNL     1      21.705   0.973 -21.347  1.00  0.00     0.161 A 
ATOM      9  C   UNL     1      21.160  -0.245 -21.824  1.00  0.00     0.158 A 
ATOM     10  C   UNL     1      20.373  -1.032 -20.973  1.00  0.00     0.062 A 
ATOM     11  C   UNL     1      20.123  -0.623 -19.658  1.00  0.00     0.022 A 
ENDROOT
BRANCH   9  12
ATOM     12  O   UNL     1      21.373  -0.708 -23.125  1.00  0.00    -0.504 OA
ATOM     13  H   UNL     1      20.881  -1.489 -23.535  1.00  0.00     0.293 HD
ENDBRANCH   9  12
BRANCH   8  14
ATOM     14  O   UNL     1      22.498   1.806 -22.140  1.00  0.00    -0.504 OA
ATOM     15  H   UNL     1      23.426   1.565 -22.460  1.00  0.00     0.293 HD
ENDBRANCH   8  14
TORSDOF 2
ENDMDL
MODEL 2
REMARK VINA RESULT:    -5.406      1.030      4.501
REMARK INTER + INTRA:          -5.722
REMARK INTER:                  -5.722
REMARK INTRA:                   0.000
REMARK UNBOUND:                 0.000
REMARK SMILES O=c1ccc2cc(O)c(O)cc2o1
REMARK SMILES IDX 4 1 3 2 2 3 1 4 13 5 12 6 11 7 9 8 7 9 6 10 5 11 8 12 10 14
REMARK H PARENT 8 13 10 15
REMARK Flexibility Score: inf
ROOT
ATOM      1  C   UNL     1      20.256  -1.051 -21.385  1.00  0.00     0.019 A 
ATOM      2  C   UNL     1      21.051  -0.420 -22.341  1.00  0.00     0.094 A 
ATOM      3  C   UNL     1      21.834   0.674 -21.956  1.00  0.00     0.336 A 
ATOM      4  O   UNL     1      22.559   1.257 -22.804  1.00  0.00    -0.246 OA
ATOM      5  O   UNL     1      21.818   1.102 -20.697  1.00  0.00    -0.423 OA
ATOM      6  C   UNL     1      21.074   0.529 -19.754  1.00  0.00     0.142 A 
ATOM      7  C   UNL     1      21.097   1.022 -18.448  1.00  0.00     0.098 A 
ATOM      8  C   UNL     1      20.320   0.429 -17.445  1.00  0.00     0.161 A 
ATOM      9  C   UNL     1      19.500  -0.684 -17.762  1.00  0.00     0.158 A 
ATOM     10  C   UNL     1      19.479  -1.177 -19.073  1.00  0.00     0.062 A 
ATOM     11  C   UNL     1      20.259  -0.579 -20.069  1.00  0.00     0.022 A 
ENDROOT
BRANCH   9  12
ATOM     12  O   UNL     1      18.700  -1.324 -16.813  1.00  0.00    -0.504 OA
ATOM     13  H   UNL     1      18.287  -2.237 -16.945  1.00  0.00     0.293 HD
ENDBRANCH   9  12
BRANCH   8  14
ATOM     14  O   UNL     1      20.389   0.972 -16.161  1.00  0.00    -0.504 OA
ATOM     15  H   UNL     1      19.688   0.829 -15.448  1.00  0.00     0.293 HD
ENDBRANCH   8  14
TORSDOF 2
ENDMDL
MODEL 3
REMARK VINA RESULT:    -5.323     16.739     18.266
REMARK INTER + INTRA:          -5.634
REMARK INTER:                  -5.634
REMARK INTRA:                   0.000
REMARK UNBOUND:                 0.000
REMARK SMILES O=c1ccc2cc(O)c(O)cc2o1
REMARK SMILES IDX 4 1 3 2 2 3 1 4 13 5 12 6 11 7 9 8 7 9 6 10 5 11 8 12 10 14
REMARK H PARENT 8 13 10 15
REMARK Flexibility Score: inf
ROOT
ATOM      1  C   UNL     1      10.161  -7.418  -9.986  1.00  0.00     0.019 A 
ATOM      2  C   UNL     1       9.376  -8.129 -10.893  1.00  0.00     0.094 A 
ATOM      3  C   UNL     1       8.011  -8.284 -10.629  1.00  0.00     0.336 A 
ATOM      4  O   UNL     1       7.284  -8.921 -11.436  1.00  0.00    -0.246 OA
ATOM      5  O   UNL     1       7.473  -7.761  -9.531  1.00  0.00    -0.423 OA
ATOM      6  C   UNL     1       8.187  -7.076  -8.640  1.00  0.00     0.142 A 
ATOM      7  C   UNL     1       7.570  -6.550  -7.504  1.00  0.00     0.098 A 
ATOM      8  C   UNL     1       8.307  -5.827  -6.558  1.00  0.00     0.161 A 
ATOM      9  C   UNL     1       9.697  -5.630  -6.758  1.00  0.00     0.158 A 
ATOM     10  C   UNL     1      10.315  -6.159  -7.898  1.00  0.00     0.062 A 
ATOM     11  C   UNL     1       9.570  -6.879  -8.839  1.00  0.00     0.022 A 
ENDROOT
BRANCH   9  12
ATOM     12  O   UNL     1      10.494  -4.920  -5.856  1.00  0.00    -0.504 OA
ATOM     13  H   UNL     1      11.366  -5.265  -5.480  1.00  0.00     0.293 HD
ENDBRANCH   9  12
BRANCH   8  14
ATOM     14  O   UNL     1       7.627  -5.329  -5.445  1.00  0.00    -0.504 OA
ATOM     15  H   UNL     1       6.699  -5.620  -5.173  1.00  0.00     0.293 HD
ENDBRANCH   8  14
TORSDOF 2
ENDMDL
MODEL 4
REMARK VINA RESULT:    -5.304      1.097      2.269
REMARK INTER + INTRA:          -5.614
REMARK INTER:                  -5.614
REMARK INTRA:                   0.000
REMARK UNBOUND:                 0.000
REMARK SMILES O=c1ccc2cc(O)c(O)cc2o1
REMARK SMILES IDX 4 1 3 2 2 3 1 4 13 5 12 6 11 7 9 8 7 9 6 10 5 11 8 12 10 14
REMARK H PARENT 8 13 10 15
REMARK Flexibility Score: inf
ROOT
ATOM      1  C   UNL     1      20.627   0.998 -17.646  1.00  0.00     0.019 A 
ATOM      2  C   UNL     1      19.815   0.282 -16.767  1.00  0.00     0.094 A 
ATOM      3  C   UNL     1      19.147  -0.855 -17.237  1.00  0.00     0.336 A 
ATOM      4  O   UNL     1      18.410  -1.516 -16.459  1.00  0.00    -0.246 OA
ATOM      5  O   UNL     1      19.287  -1.243 -18.501  1.00  0.00    -0.423 OA
ATOM      6  C   UNL     1      20.051  -0.588 -19.372  1.00  0.00     0.142 A 
ATOM      7  C   UNL     1      20.160  -1.042 -20.688  1.00  0.00     0.098 A 
ATOM      8  C   UNL     1      20.960  -0.363 -21.615  1.00  0.00     0.161 A 
ATOM      9  C   UNL     1      21.667   0.797 -21.211  1.00  0.00     0.158 A 
ATOM     10  C   UNL     1      21.557   1.251 -19.891  1.00  0.00     0.062 A 
ATOM     11  C   UNL     1      20.755   0.567 -18.970  1.00  0.00     0.022 A 
ENDROOT
BRANCH   9  12
ATOM     12  O   UNL     1      22.483   1.524 -22.082  1.00  0.00    -0.504 OA
ATOM     13  H   UNL     1      22.755   2.485 -21.932  1.00  0.00     0.293 HD
ENDBRANCH   9  12
BRANCH   8  14
ATOM     14  O   UNL     1      21.024  -0.871 -22.914  1.00  0.00    -0.504 OA
ATOM     15  H   UNL     1      21.016  -1.857 -23.137  1.00  0.00     0.293 HD
ENDBRANCH   8  14
TORSDOF 2
ENDMDL
MODEL 5
REMARK VINA RESULT:    -5.184     16.224     17.852
REMARK INTER + INTRA:          -5.487
REMARK INTER:                  -5.487
REMARK INTRA:                   0.000
REMARK UNBOUND:                 0.000
REMARK SMILES O=c1ccc2cc(O)c(O)cc2o1
REMARK SMILES IDX 4 1 3 2 2 3 1 4 13 5 12 6 11 7 9 8 7 9 6 10 5 11 8 12 10 14
REMARK H PARENT 8 13 10 15
REMARK Flexibility Score: inf
ROOT
ATOM      1  C   UNL     1       7.739  -8.086  -9.878  1.00  0.00     0.019 A 
ATOM      2  C   UNL     1       8.476  -8.652 -10.917  1.00  0.00     0.094 A 
ATOM      3  C   UNL     1       9.855  -8.424 -10.971  1.00  0.00     0.336 A 
ATOM      4  O   UNL     1      10.539  -8.927 -11.901  1.00  0.00    -0.246 OA
ATOM      5  O   UNL     1      10.451  -7.678 -10.044  1.00  0.00    -0.423 OA
ATOM      6  C   UNL     1       9.784  -7.120  -9.037  1.00  0.00     0.142 A 
ATOM      7  C   UNL     1      10.463  -6.346  -8.093  1.00  0.00     0.098 A 
ATOM      8  C   UNL     1       9.775  -5.753  -7.027  1.00  0.00     0.161 A 
ATOM      9  C   UNL     1       8.375  -5.940  -6.907  1.00  0.00     0.158 A 
ATOM     10  C   UNL     1       7.697  -6.716  -7.855  1.00  0.00     0.062 A 
ATOM     11  C   UNL     1       8.391  -7.306  -8.917  1.00  0.00     0.022 A 
ENDROOT
BRANCH   9  12
ATOM     12  O   UNL     1       7.626  -5.378  -5.871  1.00  0.00    -0.504 OA
ATOM     13  H   UNL     1       7.081  -4.531  -5.962  1.00  0.00     0.293 HD
ENDBRANCH   9  12
BRANCH   8  14
ATOM     14  O   UNL     1      10.515  -4.991  -6.119  1.00  0.00    -0.504 OA
ATOM     15  H   UNL     1      10.461  -3.985  -6.050  1.00  0.00     0.293 HD
ENDBRANCH   8  14
TORSDOF 2
ENDMDL
MODEL 6
REMARK VINA RESULT:    -5.032     16.033     17.465
REMARK INTER + INTRA:          -5.326
REMARK INTER:                  -5.326
REMARK INTRA:                   0.000
REMARK UNBOUND:                 0.000
REMARK SMILES O=c1ccc2cc(O)c(O)cc2o1
REMARK SMILES IDX 4 1 3 2 2 3 1 4 13 5 12 6 11 7 9 8 7 9 6 10 5 11 8 12 10 14
REMARK H PARENT 8 13 10 15
REMARK Flexibility Score: inf
ROOT
ATOM      1  C   UNL     1       8.214  -8.053  -8.309  1.00  0.00     0.019 A 
ATOM      2  C   UNL     1       8.111  -7.660  -6.976  1.00  0.00     0.094 A 
ATOM      3  C   UNL     1       7.908  -6.307  -6.682  1.00  0.00     0.336 A 
ATOM      4  O   UNL     1       7.812  -5.932  -5.484  1.00  0.00    -0.246 OA
ATOM      5  O   UNL     1       7.816  -5.413  -7.662  1.00  0.00    -0.423 OA
ATOM      6  C   UNL     1       7.910  -5.745  -8.947  1.00  0.00     0.142 A 
ATOM      7  C   UNL     1       7.806  -4.763  -9.934  1.00  0.00     0.098 A 
ATOM      8  C   UNL     1       7.901  -5.098 -11.290  1.00  0.00     0.161 A 
ATOM      9  C   UNL     1       8.106  -6.450 -11.664  1.00  0.00     0.158 A 
ATOM     10  C   UNL     1       8.210  -7.434 -10.672  1.00  0.00     0.062 A 
ATOM     11  C   UNL     1       8.113  -7.091  -9.319  1.00  0.00     0.022 A 
ENDROOT
BRANCH   9  12
ATOM     12  O   UNL     1       8.212  -6.855 -12.996  1.00  0.00    -0.504 OA
ATOM     13  H   UNL     1       7.880  -6.311 -13.781  1.00  0.00     0.293 HD
ENDBRANCH   9  12
BRANCH   8  14
ATOM     14  O   UNL     1       7.789  -4.066 -12.224  1.00  0.00    -0.504 OA
ATOM     15  H   UNL     1       6.914  -3.760 -12.626  1.00  0.00     0.293 HD
ENDBRANCH   8  14
TORSDOF 2
ENDMDL
MODEL 7
REMARK VINA RESULT:    -5.022     16.964     19.417
REMARK INTER + INTRA:          -5.316
REMARK INTER:                  -5.316
REMARK INTRA:                   0.000
REMARK UNBOUND:                 0.000
REMARK SMILES O=c1ccc2cc(O)c(O)cc2o1
REMARK SMILES IDX 4 1 3 2 2 3 1 4 13 5 12 6 11 7 9 8 7 9 6 10 5 11 8 12 10 14
REMARK H PARENT 8 13 10 15
REMARK Flexibility Score: inf
ROOT
ATOM      1  C   UNL     1       7.927  -8.735  -8.660  1.00  0.00     0.019 A 
ATOM      2  C   UNL     1       8.091  -8.259  -9.960  1.00  0.00     0.094 A 
ATOM      3  C   UNL     1       8.251  -6.884 -10.163  1.00  0.00     0.336 A 
ATOM      4  O   UNL     1       8.401  -6.435 -11.330  1.00  0.00    -0.246 OA
ATOM      5  O   UNL     1       8.246  -6.047  -9.130  1.00  0.00    -0.423 OA
ATOM      6  C   UNL     1       8.091  -6.459  -7.874  1.00  0.00     0.142 A 
ATOM      7  C   UNL     1       8.094  -5.534  -6.828  1.00  0.00     0.098 A 
ATOM      8  C   UNL     1       7.933  -5.953  -5.502  1.00  0.00     0.161 A 
ATOM      9  C   UNL     1       7.766  -7.332  -5.219  1.00  0.00     0.158 A 
ATOM     10  C   UNL     1       7.764  -8.258  -6.270  1.00  0.00     0.062 A 
ATOM     11  C   UNL     1       7.925  -7.831  -7.593  1.00  0.00     0.022 A 
ENDROOT
BRANCH   9  12
ATOM     12  O   UNL     1       7.600  -7.820  -3.921  1.00  0.00    -0.504 OA
ATOM     13  H   UNL     1       7.214  -7.280  -3.159  1.00  0.00     0.293 HD
ENDBRANCH   9  12
BRANCH   8  14
ATOM     14  O   UNL     1       7.945  -4.975  -4.505  1.00  0.00    -0.504 OA
ATOM     15  H   UNL     1       7.971  -3.982  -4.688  1.00  0.00     0.293 HD
ENDBRANCH   8  14
TORSDOF 2
ENDMDL
MODEL 8
REMARK VINA RESULT:    -4.953     16.011     17.621
REMARK INTER + INTRA:          -5.242
REMARK INTER:                  -5.242
REMARK INTRA:                   0.000
REMARK UNBOUND:                 0.000
REMARK SMILES O=c1ccc2cc(O)c(O)cc2o1
REMARK SMILES IDX 4 1 3 2 2 3 1 4 13 5 12 6 11 7 9 8 7 9 6 10 5 11 8 12 10 14
REMARK H PARENT 8 13 10 15
REMARK Flexibility Score: inf
ROOT
ATOM      1  C   UNL     1       7.841  -5.505  -7.638  1.00  0.00     0.019 A 
ATOM      2  C   UNL     1       7.929  -6.539  -6.707  1.00  0.00     0.094 A 
ATOM      3  C   UNL     1       8.088  -7.851  -7.165  1.00  0.00     0.336 A 
ATOM      4  O   UNL     1       8.170  -8.799  -6.340  1.00  0.00    -0.246 OA
ATOM      5  O   UNL     1       8.154  -8.105  -8.469  1.00  0.00    -0.423 OA
ATOM      6  C   UNL     1       8.074  -7.148  -9.390  1.00  0.00     0.142 A 
ATOM      7  C   UNL     1       8.149  -7.474 -10.746  1.00  0.00     0.098 A 
ATOM      8  C   UNL     1       8.067  -6.478 -11.727  1.00  0.00     0.161 A 
ATOM      9  C   UNL     1       7.905  -5.124 -11.338  1.00  0.00     0.158 A 
ATOM     10  C   UNL     1       7.830  -4.800  -9.977  1.00  0.00     0.062 A 
ATOM     11  C   UNL     1       7.914  -5.801  -9.003  1.00  0.00     0.022 A 
ENDROOT
BRANCH   9  12
ATOM     12  O   UNL     1       7.816  -4.080 -12.261  1.00  0.00    -0.504 OA
ATOM     13  H   UNL     1       8.310  -3.203 -12.172  1.00  0.00     0.293 HD
ENDBRANCH   9  12
BRANCH   8  14
ATOM     14  O   UNL     1       8.149  -6.873 -13.064  1.00  0.00    -0.504 OA
ATOM     15  H   UNL     1       8.854  -7.500 -13.426  1.00  0.00     0.293 HD
ENDBRANCH   8  14
TORSDOF 2
ENDMDL
MODEL 9
REMARK VINA RESULT:    -4.920     17.263     19.786
REMARK INTER + INTRA:          -5.207
REMARK INTER:                  -5.207
REMARK INTRA:                   0.000
REMARK UNBOUND:                 0.000
REMARK SMILES O=c1ccc2cc(O)c(O)cc2o1
REMARK SMILES IDX 4 1 3 2 2 3 1 4 13 5 12 6 11 7 9 8 7 9 6 10 5 11 8 12 10 14
REMARK H PARENT 8 13 10 15
REMARK Flexibility Score: inf
ROOT
ATOM      1  C   UNL     1       8.620  -5.771  -8.664  1.00  0.00     0.019 A 
ATOM      2  C   UNL     1       8.584  -6.509  -9.847  1.00  0.00     0.094 A 
ATOM      3  C   UNL     1       8.205  -7.855  -9.794  1.00  0.00     0.336 A 
ATOM      4  O   UNL     1       8.166  -8.538 -10.851  1.00  0.00    -0.246 OA
ATOM      5  O   UNL     1       7.885  -8.418  -8.633  1.00  0.00    -0.423 OA
ATOM      6  C   UNL     1       7.906  -7.750  -7.482  1.00  0.00     0.142 A 
ATOM      7  C   UNL     1       7.560  -8.394  -6.292  1.00  0.00     0.098 A 
ATOM      8  C   UNL     1       7.577  -7.704  -5.074  1.00  0.00     0.161 A 
ATOM      9  C   UNL     1       7.951  -6.337  -5.049  1.00  0.00     0.158 A 
ATOM     10  C   UNL     1       8.298  -5.693  -6.244  1.00  0.00     0.062 A 
ATOM     11  C   UNL     1       8.278  -6.390  -7.458  1.00  0.00     0.022 A 
ENDROOT
BRANCH   9  12
ATOM     12  O   UNL     1       7.991  -5.588  -3.871  1.00  0.00    -0.504 OA
ATOM     13  H   UNL     1       7.482  -4.726  -3.732  1.00  0.00     0.293 HD
ENDBRANCH   9  12
BRANCH   8  14
ATOM     14  O   UNL     1       7.220  -8.409  -3.922  1.00  0.00    -0.504 OA
ATOM     15  H   UNL     1       7.847  -9.018  -3.416  1.00  0.00     0.293 HD
ENDBRANCH   8  14
TORSDOF 2
ENDMDL
