MODEL 1
REMARK VINA RESULT:    -6.503      0.000      0.000
REMARK INTER + INTRA:          -7.108
REMARK INTER:                  -6.883
REMARK INTRA:                  -0.225
REMARK UNBOUND:                -0.225
REMARK SMILES O=c1cc(-c2ccccc2)oc2ccccc12
REMARK SMILES IDX 4 1 3 2 2 3 1 4 17 5 16 6 15 7 14 8 13 9 12 10 11 11 5 12
REMARK SMILES IDX 8 13 7 14 9 15 6 16 10 17
REMARK H PARENT
REMARK Flexibility Score: inf
ROOT
ATOM      1  C   UNL     1     -11.093   7.065  23.083  1.00  0.00     0.138 A 
ATOM      2  C   UNL     1     -11.740   7.251  24.322  1.00  0.00     0.100 A 
ATOM      3  C   UNL     1     -11.492   8.409  25.061  1.00  0.00     0.193 A 
ATOM      4  O   UNL     1     -12.071   8.575  26.169  1.00  0.00    -0.289 OA
ATOM      5  C   UNL     1     -10.602   9.371  24.561  1.00  0.00     0.065 A 
ATOM      6  C   UNL     1     -10.309  10.558  25.255  1.00  0.00     0.016 A 
ATOM      7  C   UNL     1      -9.413  11.484  24.710  1.00  0.00     0.001 A 
ATOM      8  C   UNL     1      -8.808  11.233  23.476  1.00  0.00     0.004 A 
ATOM      9  C   UNL     1      -9.093  10.056  22.779  1.00  0.00     0.048 A 
ATOM     10  C   UNL     1      -9.987   9.123  23.315  1.00  0.00     0.138 A 
ATOM     11  O   UNL     1     -10.254   8.006  22.646  1.00  0.00    -0.456 OA
ENDROOT
BRANCH   1  12
ATOM     12  C   UNL     1     -11.301   5.855  22.228  1.00  0.00     0.017 A 
ATOM     13  C   UNL     1     -11.607   3.538  20.645  1.00  0.00     0.000 A 
ATOM     14  C   UNL     1     -12.601   4.516  20.652  1.00  0.00     0.001 A 
ATOM     15  C   UNL     1     -10.461   3.706  21.421  1.00  0.00     0.001 A 
ATOM     16  C   UNL     1     -12.455   5.665  21.434  1.00  0.00     0.012 A 
ATOM     17  C   UNL     1     -10.307   4.853  22.207  1.00  0.00     0.012 A 
ENDBRANCH   1  12
TORSDOF 1
ENDMDL
MODEL 2
REMARK VINA RESULT:    -6.384     12.490     14.804
REMARK INTER + INTRA:          -6.983
REMARK INTER:                  -6.717
REMARK INTRA:                  -0.266
REMARK UNBOUND:                -0.225
REMARK SMILES O=c1cc(-c2ccccc2)oc2ccccc12
REMARK SMILES IDX 4 1 3 2 2 3 1 4 17 5 16 6 15 7 14 8 13 9 12 10 11 11 5 12
REMARK SMILES IDX 8 13 7 14 9 15 6 16 10 17
REMARK H PARENT
REMARK Flexibility Score: inf
ROOT
ATOM      1  C   UNL     1      -2.349   6.839  11.938  1.00  0.00     0.138 A 
ATOM      2  C   UNL     1      -2.426   5.808  10.978  1.00  0.00     0.100 A 
ATOM      3  C   UNL     1      -2.773   4.518  11.381  1.00  0.00     0.193 A 
ATOM      4  O   UNL     1      -2.842   3.596  10.524  1.00  0.00    -0.289 OA
ATOM      5  C   UNL     1      -3.039   4.264  12.735  1.00  0.00     0.065 A 
ATOM      6  C   UNL     1      -3.394   2.988  13.207  1.00  0.00     0.016 A 
ATOM      7  C   UNL     1      -3.649   2.791  14.568  1.00  0.00     0.001 A 
ATOM      8  C   UNL     1      -3.553   3.860  15.463  1.00  0.00     0.004 A 
ATOM      9  C   UNL     1      -3.201   5.132  15.003  1.00  0.00     0.048 A 
ATOM     10  C   UNL     1      -2.944   5.340  13.643  1.00  0.00     0.138 A 
ATOM     11  O   UNL     1      -2.610   6.553  13.214  1.00  0.00    -0.456 OA
ENDROOT
BRANCH   1  12
ATOM     12  C   UNL     1      -1.985   8.248  11.592  1.00  0.00     0.017 A 
ATOM     13  C   UNL     1      -1.312  10.932  11.031  1.00  0.00     0.000 A 
ATOM     14  C   UNL     1      -1.310   9.983  10.009  1.00  0.00     0.001 A 
ATOM     15  C   UNL     1      -1.646  10.553  12.331  1.00  0.00     0.001 A 
ATOM     16  C   UNL     1      -1.643   8.653  10.280  1.00  0.00     0.012 A 
ATOM     17  C   UNL     1      -1.980   9.224  12.611  1.00  0.00     0.012 A 
ENDBRANCH   1  12
TORSDOF 1
ENDMDL
MODEL 3
REMARK VINA RESULT:    -6.232     12.696     14.222
REMARK INTER + INTRA:          -6.822
REMARK INTER:                  -6.593
REMARK INTRA:                  -0.229
REMARK UNBOUND:                -0.225
REMARK SMILES O=c1cc(-c2ccccc2)oc2ccccc12
REMARK SMILES IDX 4 1 3 2 2 3 1 4 17 5 16 6 15 7 14 8 13 9 12 10 11 11 5 12
REMARK SMILES IDX 8 13 7 14 9 15 6 16 10 17
REMARK H PARENT
REMARK Flexibility Score: inf
ROOT
ATOM      1  C   UNL     1      -2.461   4.143  11.865  1.00  0.00     0.138 A 
ATOM      2  C   UNL     1      -3.164   3.410  12.843  1.00  0.00     0.100 A 
ATOM      3  C   UNL     1      -3.473   4.012  14.064  1.00  0.00     0.193 A 
ATOM      4  O   UNL     1      -4.101   3.356  14.939  1.00  0.00    -0.289 OA
ATOM      5  C   UNL     1      -3.080   5.337  14.301  1.00  0.00     0.065 A 
ATOM      6  C   UNL     1      -3.360   6.002  15.508  1.00  0.00     0.016 A 
ATOM      7  C   UNL     1      -2.944   7.325  15.692  1.00  0.00     0.001 A 
ATOM      8  C   UNL     1      -2.251   7.990  14.677  1.00  0.00     0.004 A 
ATOM      9  C   UNL     1      -1.968   7.338  13.473  1.00  0.00     0.048 A 
ATOM     10  C   UNL     1      -2.379   6.015  13.280  1.00  0.00     0.138 A 
ATOM     11  O   UNL     1      -2.107   5.401  12.133  1.00  0.00    -0.456 OA
ENDROOT
BRANCH   1  12
ATOM     12  C   UNL     1      -2.090   3.575  10.532  1.00  0.00     0.017 A 
ATOM     13  C   UNL     1      -1.296   2.509   8.041  1.00  0.00     0.000 A 
ATOM     14  C   UNL     1      -2.648   2.718   8.313  1.00  0.00     0.001 A 
ATOM     15  C   UNL     1      -0.337   2.827   9.002  1.00  0.00     0.001 A 
ATOM     16  C   UNL     1      -3.048   3.246   9.544  1.00  0.00     0.012 A 
ATOM     17  C   UNL     1      -0.728   3.356  10.236  1.00  0.00     0.012 A 
ENDBRANCH   1  12
TORSDOF 1
ENDMDL
MODEL 4
REMARK VINA RESULT:    -6.218     14.503     15.825
REMARK INTER + INTRA:          -6.807
REMARK INTER:                  -6.554
REMARK INTRA:                  -0.253
REMARK UNBOUND:                -0.225
REMARK SMILES O=c1cc(-c2ccccc2)oc2ccccc12
REMARK SMILES IDX 4 1 3 2 2 3 1 4 17 5 16 6 15 7 14 8 13 9 12 10 11 11 5 12
REMARK SMILES IDX 8 13 7 14 9 15 6 16 10 17
REMARK H PARENT
REMARK Flexibility Score: inf
ROOT
ATOM      1  C   UNL     1      -1.772   6.038  10.165  1.00  0.00     0.138 A 
ATOM      2  C   UNL     1      -2.165   5.826  11.503  1.00  0.00     0.100 A 
ATOM      3  C   UNL     1      -2.313   6.920  12.358  1.00  0.00     0.193 A 
ATOM      4  O   UNL     1      -2.663   6.731  13.555  1.00  0.00    -0.289 OA
ATOM      5  C   UNL     1      -2.069   8.214  11.874  1.00  0.00     0.065 A 
ATOM      6  C   UNL     1      -2.200   9.357  12.683  1.00  0.00     0.016 A 
ATOM      7  C   UNL     1      -1.943  10.625  12.149  1.00  0.00     0.001 A 
ATOM      8  C   UNL     1      -1.558  10.759  10.812  1.00  0.00     0.004 A 
ATOM      9  C   UNL     1      -1.425   9.628  10.002  1.00  0.00     0.048 A 
ATOM     10  C   UNL     1      -1.679   8.356  10.526  1.00  0.00     0.138 A 
ATOM     11  O   UNL     1      -1.550   7.286   9.748  1.00  0.00    -0.456 OA
ENDROOT
BRANCH   1  12
ATOM     12  C   UNL     1      -1.590   4.924   9.184  1.00  0.00     0.017 A 
ATOM     13  C   UNL     1      -1.316   2.773   7.376  1.00  0.00     0.000 A 
ATOM     14  C   UNL     1      -0.484   3.888   7.267  1.00  0.00     0.001 A 
ATOM     15  C   UNL     1      -2.284   2.724   8.379  1.00  0.00     0.001 A 
ATOM     16  C   UNL     1      -0.615   4.956   8.160  1.00  0.00     0.012 A 
ATOM     17  C   UNL     1      -2.421   3.788   9.275  1.00  0.00     0.012 A 
ENDBRANCH   1  12
TORSDOF 1
ENDMDL
MODEL 5
REMARK VINA RESULT:    -6.108     15.083     17.385
REMARK INTER + INTRA:          -6.690
REMARK INTER:                  -6.470
REMARK INTRA:                  -0.220
REMARK UNBOUND:                -0.225
REMARK SMILES O=c1cc(-c2ccccc2)oc2ccccc12
REMARK SMILES IDX 4 1 3 2 2 3 1 4 17 5 16 6 15 7 14 8 13 9 12 10 11 11 5 12
REMARK SMILES IDX 8 13 7 14 9 15 6 16 10 17
REMARK H PARENT
REMARK Flexibility Score: inf
ROOT
ATOM      1  C   UNL     1      -1.891   6.905   9.849  1.00  0.00     0.138 A 
ATOM      2  C   UNL     1      -3.033   6.475   9.141  1.00  0.00     0.100 A 
ATOM      3  C   UNL     1      -3.019   5.236   8.499  1.00  0.00     0.193 A 
ATOM      4  O   UNL     1      -4.039   4.852   7.866  1.00  0.00    -0.289 OA
ATOM      5  C   UNL     1      -1.869   4.435   8.567  1.00  0.00     0.065 A 
ATOM      6  C   UNL     1      -1.789   3.177   7.943  1.00  0.00     0.016 A 
ATOM      7  C   UNL     1      -0.617   2.420   8.042  1.00  0.00     0.001 A 
ATOM      8  C   UNL     1       0.476   2.909   8.761  1.00  0.00     0.004 A 
ATOM      9  C   UNL     1       0.406   4.158   9.384  1.00  0.00     0.048 A 
ATOM     10  C   UNL     1      -0.761   4.924   9.291  1.00  0.00     0.138 A 
ATOM     11  O   UNL     1      -0.819   6.111   9.887  1.00  0.00    -0.456 OA
ENDROOT
BRANCH   1  12
ATOM     12  C   UNL     1      -1.821   8.217  10.564  1.00  0.00     0.017 A 
ATOM     13  C   UNL     1      -1.724  10.650  11.992  1.00  0.00     0.000 A 
ATOM     14  C   UNL     1      -1.340  10.610  10.652  1.00  0.00     0.001 A 
ATOM     15  C   UNL     1      -2.156   9.485  12.626  1.00  0.00     0.001 A 
ATOM     16  C   UNL     1      -1.386   9.409   9.940  1.00  0.00     0.012 A 
ATOM     17  C   UNL     1      -2.205   8.279  11.920  1.00  0.00     0.012 A 
ENDBRANCH   1  12
TORSDOF 1
ENDMDL
MODEL 6
REMARK VINA RESULT:    -6.106     15.206     16.251
REMARK INTER + INTRA:          -6.688
REMARK INTER:                  -6.467
REMARK INTRA:                  -0.220
REMARK UNBOUND:                -0.225
REMARK SMILES O=c1cc(-c2ccccc2)oc2ccccc12
REMARK SMILES IDX 4 1 3 2 2 3 1 4 17 5 16 6 15 7 14 8 13 9 12 10 11 11 5 12
REMARK SMILES IDX 8 13 7 14 9 15 6 16 10 17
REMARK H PARENT
REMARK Flexibility Score: inf
ROOT
ATOM      1  C   UNL     1      -1.399   8.256  10.306  1.00  0.00     0.138 A 
ATOM      2  C   UNL     1      -2.096   9.392  10.768  1.00  0.00     0.100 A 
ATOM      3  C   UNL     1      -1.381  10.489  11.252  1.00  0.00     0.193 A 
ATOM      4  O   UNL     1      -2.004  11.504  11.665  1.00  0.00    -0.289 OA
ATOM      5  C   UNL     1       0.021  10.445  11.273  1.00  0.00     0.065 A 
ATOM      6  C   UNL     1       0.801  11.515  11.747  1.00  0.00     0.016 A 
ATOM      7  C   UNL     1       2.196  11.419  11.745  1.00  0.00     0.001 A 
ATOM      8  C   UNL     1       2.820  10.261  11.272  1.00  0.00     0.004 A 
ATOM      9  C   UNL     1       2.053   9.193  10.799  1.00  0.00     0.048 A 
ATOM     10  C   UNL     1       0.657   9.278  10.797  1.00  0.00     0.138 A 
ATOM     11  O   UNL     1      -0.065   8.258  10.345  1.00  0.00    -0.456 OA
ENDROOT
BRANCH   1  12
ATOM     12  C   UNL     1      -2.086   7.039   9.773  1.00  0.00     0.017 A 
ATOM     13  C   UNL     1      -3.375   4.702   8.853  1.00  0.00     0.000 A 
ATOM     14  C   UNL     1      -3.150   5.766   7.980  1.00  0.00     0.001 A 
ATOM     15  C   UNL     1      -2.963   4.795  10.182  1.00  0.00     0.001 A 
ATOM     16  C   UNL     1      -2.512   6.925   8.429  1.00  0.00     0.012 A 
ATOM     17  C   UNL     1      -2.324   5.952  10.640  1.00  0.00     0.012 A 
ENDBRANCH   1  12
TORSDOF 1
ENDMDL
MODEL 7
REMARK VINA RESULT:    -6.101     12.615     14.546
REMARK INTER + INTRA:          -6.682
REMARK INTER:                  -6.439
REMARK INTRA:                  -0.244
REMARK UNBOUND:                -0.225
REMARK SMILES O=c1cc(-c2ccccc2)oc2ccccc12
REMARK SMILES IDX 4 1 3 2 2 3 1 4 17 5 16 6 15 7 14 8 13 9 12 10 11 11 5 12
REMARK SMILES IDX 8 13 7 14 9 15 6 16 10 17
REMARK H PARENT
REMARK Flexibility Score: inf
ROOT
ATOM      1  C   UNL     1      -2.855   4.812  12.666  1.00  0.00     0.138 A 
ATOM      2  C   UNL     1      -2.328   6.101  12.888  1.00  0.00     0.100 A 
ATOM      3  C   UNL     1      -2.108   6.950  11.802  1.00  0.00     0.193 A 
ATOM      4  O   UNL     1      -1.636   8.103  12.000  1.00  0.00    -0.289 OA
ATOM      5  C   UNL     1      -2.414   6.510  10.506  1.00  0.00     0.065 A 
ATOM      6  C   UNL     1      -2.217   7.315   9.370  1.00  0.00     0.016 A 
ATOM      7  C   UNL     1      -2.539   6.826   8.100  1.00  0.00     0.001 A 
ATOM      8  C   UNL     1      -3.059   5.536   7.956  1.00  0.00     0.004 A 
ATOM      9  C   UNL     1      -3.258   4.729   9.079  1.00  0.00     0.048 A 
ATOM     10  C   UNL     1      -2.939   5.209  10.353  1.00  0.00     0.138 A 
ATOM     11  O   UNL     1      -3.132   4.434  11.416  1.00  0.00    -0.456 OA
ENDROOT
BRANCH   1  12
ATOM     12  C   UNL     1      -3.121   3.839  13.771  1.00  0.00     0.017 A 
ATOM     13  C   UNL     1      -3.580   1.935  15.803  1.00  0.00     0.000 A 
ATOM     14  C   UNL     1      -4.023   3.247  15.962  1.00  0.00     0.001 A 
ATOM     15  C   UNL     1      -2.909   1.564  14.638  1.00  0.00     0.001 A 
ATOM     16  C   UNL     1      -3.800   4.195  14.959  1.00  0.00     0.012 A 
ATOM     17  C   UNL     1      -2.680   2.506  13.630  1.00  0.00     0.012 A 
ENDBRANCH   1  12
TORSDOF 1
ENDMDL
MODEL 8
REMARK VINA RESULT:    -6.040     14.190     16.351
REMARK INTER + INTRA:          -6.618
REMARK INTER:                  -6.393
REMARK INTRA:                  -0.225
REMARK UNBOUND:                -0.225
REMARK SMILES O=c1cc(-c2ccccc2)oc2ccccc12
REMARK SMILES IDX 4 1 3 2 2 3 1 4 17 5 16 6 15 7 14 8 13 9 12 10 11 11 5 12
REMARK SMILES IDX 8 13 7 14 9 15 6 16 10 17
REMARK H PARENT
REMARK Flexibility Score: inf
ROOT
ATOM      1  C   UNL     1      -1.767   7.410  11.114  1.00  0.00     0.138 A 
ATOM      2  C   UNL     1      -2.081   6.595  12.222  1.00  0.00     0.100 A 
ATOM      3  C   UNL     1      -2.526   5.289  12.010  1.00  0.00     0.193 A 
ATOM      4  O   UNL     1      -2.807   4.560  13.000  1.00  0.00    -0.289 OA
ATOM      5  C   UNL     1      -2.655   4.806  10.699  1.00  0.00     0.065 A 
ATOM      6  C   UNL     1      -3.097   3.501  10.417  1.00  0.00     0.016 A 
ATOM      7  C   UNL     1      -3.208   3.071   9.091  1.00  0.00     0.001 A 
ATOM      8  C   UNL     1      -2.878   3.935   8.043  1.00  0.00     0.004 A 
ATOM      9  C   UNL     1      -2.438   5.233   8.314  1.00  0.00     0.048 A 
ATOM     10  C   UNL     1      -2.324   5.674   9.636  1.00  0.00     0.138 A 
ATOM     11  O   UNL     1      -1.905   6.910   9.885  1.00  0.00    -0.456 OA
ENDROOT
BRANCH   1  12
ATOM     12  C   UNL     1      -1.285   8.820  11.251  1.00  0.00     0.017 A 
ATOM     13  C   UNL     1      -0.285  11.449  11.492  1.00  0.00     0.000 A 
ATOM     14  C   UNL     1      -1.643  11.197  11.687  1.00  0.00     0.001 A 
ATOM     15  C   UNL     1       0.578  10.400  11.176  1.00  0.00     0.001 A 
ATOM     16  C   UNL     1      -2.144   9.897  11.570  1.00  0.00     0.012 A 
ATOM     17  C   UNL     1       0.085   9.097  11.057  1.00  0.00     0.012 A 
ENDBRANCH   1  12
TORSDOF 1
ENDMDL
MODEL 9
REMARK VINA RESULT:    -5.979     12.676     14.275
REMARK INTER + INTRA:          -6.554
REMARK INTER:                  -6.289
REMARK INTRA:                  -0.265
REMARK UNBOUND:                -0.225
REMARK SMILES O=c1cc(-c2ccccc2)oc2ccccc12
REMARK SMILES IDX 4 1 3 2 2 3 1 4 17 5 16 6 15 7 14 8 13 9 12 10 11 11 5 12
REMARK SMILES IDX 8 13 7 14 9 15 6 16 10 17
REMARK H PARENT
REMARK Flexibility Score: inf
ROOT
ATOM      1  C   UNL     1      -2.566   6.017  12.265  1.00  0.00     0.138 A 
ATOM      2  C   UNL     1      -2.386   5.843  10.876  1.00  0.00     0.100 A 
ATOM      3  C   UNL     1      -2.064   6.944  10.081  1.00  0.00     0.193 A 
ATOM      4  O   UNL     1      -1.903   6.788   8.840  1.00  0.00    -0.289 OA
ATOM      5  C   UNL     1      -1.925   8.208  10.673  1.00  0.00     0.065 A 
ATOM      6  C   UNL     1      -1.601   9.357   9.929  1.00  0.00     0.016 A 
ATOM      7  C   UNL     1      -1.475  10.593  10.571  1.00  0.00     0.001 A 
ATOM      8  C   UNL     1      -1.668  10.691  11.952  1.00  0.00     0.004 A 
ATOM      9  C   UNL     1      -1.989   9.554  12.699  1.00  0.00     0.048 A 
ATOM     10  C   UNL     1      -2.119   8.313  12.067  1.00  0.00     0.138 A 
ATOM     11  O   UNL     1      -2.424   7.237  12.785  1.00  0.00    -0.456 OA
ENDROOT
BRANCH   1  12
ATOM     12  C   UNL     1      -2.913   4.893  13.188  1.00  0.00     0.017 A 
ATOM     13  C   UNL     1      -3.553   2.831  15.006  1.00  0.00     0.000 A 
ATOM     14  C   UNL     1      -3.545   2.576  13.635  1.00  0.00     0.001 A 
ATOM     15  C   UNL     1      -3.245   4.106  15.478  1.00  0.00     0.001 A 
ATOM     16  C   UNL     1      -3.228   3.592  12.730  1.00  0.00     0.012 A 
ATOM     17  C   UNL     1      -2.928   5.129  14.579  1.00  0.00     0.012 A 
ENDBRANCH   1  12
TORSDOF 1
ENDMDL
