MODEL 1
REMARK VINA RESULT:    -1.815      0.000      0.000
REMARK INTER + INTRA:          -3.909
REMARK INTER:                  -2.875
REMARK INTRA:                  -1.034
REMARK UNBOUND:                -1.034
REMARK SMILES CCCCCCCCCCCC(=O)[O-]
REMARK SMILES IDX 7 1 8 2 9 3 10 4 11 5 12 6 13 7 14 8 6 9 5 10 4 11 3 12 2 13
REMARK SMILES IDX 1 14
REMARK H PARENT
REMARK Flexibility Score: inf
ROOT
ATOM      1  C   UNL     1     174.332 178.457 196.403  1.00  0.00     0.000 C 
ENDROOT
BRANCH   1   2
ATOM      2  C   UNL     1     173.178 179.472 196.471  1.00  0.00     0.000 C 
BRANCH   2   3
ATOM      3  C   UNL     1     173.374 180.517 197.582  1.00  0.00     0.000 C 
BRANCH   3   4
ATOM      4  C   UNL     1     173.381 179.891 198.987  1.00  0.00     0.006 C 
BRANCH   4   5
ATOM      5  C   UNL     1     172.029 179.265 199.348  1.00  0.00     0.053 C 
BRANCH   5   6
ATOM      6  C   UNL     1     172.165 177.819 199.716  1.00  0.00     0.041 C 
ATOM      7  O   UNL     1     173.288 177.252 199.654  1.00  0.00    -0.550 OA
ATOM      8  O   UNL     1     171.047 177.090 200.100  1.00  0.00    -0.550 OA
ENDBRANCH   5   6
ENDBRANCH   4   5
ENDBRANCH   3   4
ENDBRANCH   2   3
ENDBRANCH   1   2
BRANCH   1   9
ATOM      9  C   UNL     1     173.840 177.019 196.176  1.00  0.00     0.000 C 
BRANCH   9  10
ATOM     10  C   UNL     1     172.560 176.963 195.321  1.00  0.00    -0.000 C 
BRANCH  10  11
ATOM     11  C   UNL     1     172.858 176.899 193.816  1.00  0.00    -0.000 C 
BRANCH  11  12
ATOM     12  C   UNL     1     171.619 177.189 192.955  1.00  0.00    -0.000 C 
BRANCH  12  13
ATOM     13  C   UNL     1     171.765 178.524 192.216  1.00  0.00    -0.003 C 
ATOM     14  C   UNL     1     173.043 179.248 192.631  1.00  0.00     0.004 C 
ENDBRANCH  12  13
ENDBRANCH  11  12
ENDBRANCH  10  11
ENDBRANCH   9  10
ENDBRANCH   1   9
TORSDOF 10
ENDMDL
MODEL 2
REMARK VINA RESULT:    -1.670      3.035      6.050
REMARK INTER + INTRA:          -3.680
REMARK INTER:                  -2.759
REMARK INTRA:                  -0.921
REMARK UNBOUND:                -1.034
REMARK SMILES CCCCCCCCCCCC(=O)[O-]
REMARK SMILES IDX 7 1 8 2 9 3 10 4 11 5 12 6 13 7 14 8 6 9 5 10 4 11 3 12 2 13
REMARK SMILES IDX 1 14
REMARK H PARENT
REMARK Flexibility Score: inf
ROOT
ATOM      1  C   UNL     1     173.123 178.254 196.532  1.00  0.00     0.000 C 
ENDROOT
BRANCH   1   2
ATOM      2  C   UNL     1     172.830 176.875 195.915  1.00  0.00     0.000 C 
BRANCH   2   3
ATOM      3  C   UNL     1     172.338 176.969 194.462  1.00  0.00     0.000 C 
BRANCH   3   4
ATOM      4  C   UNL     1     173.438 177.440 193.495  1.00  0.00     0.006 C 
BRANCH   4   5
ATOM      5  C   UNL     1     172.873 178.271 192.336  1.00  0.00     0.053 C 
BRANCH   5   6
ATOM      6  C   UNL     1     172.510 179.658 192.772  1.00  0.00     0.041 C 
ATOM      7  O   UNL     1     173.245 180.281 193.583  1.00  0.00    -0.550 OA
ATOM      8  O   UNL     1     171.347 180.253 192.301  1.00  0.00    -0.550 OA
ENDBRANCH   5   6
ENDBRANCH   4   5
ENDBRANCH   3   4
ENDBRANCH   2   3
ENDBRANCH   1   2
BRANCH   1   9
ATOM      9  C   UNL     1     174.188 178.190 197.638  1.00  0.00     0.000 C 
BRANCH   9  10
ATOM     10  C   UNL     1     173.912 177.071 198.659  1.00  0.00    -0.000 C 
BRANCH  10  11
ATOM     11  C   UNL     1     173.295 177.601 199.962  1.00  0.00    -0.000 C 
BRANCH  11  12
ATOM     12  C   UNL     1     171.762 177.507 199.973  1.00  0.00    -0.000 C 
BRANCH  12  13
ATOM     13  C   UNL     1     171.135 178.812 200.475  1.00  0.00    -0.003 C 
ATOM     14  C   UNL     1     171.570 179.999 199.620  1.00  0.00     0.004 C 
ENDBRANCH  12  13
ENDBRANCH  11  12
ENDBRANCH  10  11
ENDBRANCH   9  10
ENDBRANCH   1   9
TORSDOF 10
ENDMDL
MODEL 3
REMARK VINA RESULT:    -1.644      2.993      5.721
REMARK INTER + INTRA:          -3.639
REMARK INTER:                  -1.986
REMARK INTRA:                  -1.653
REMARK UNBOUND:                -1.034
REMARK SMILES CCCCCCCCCCCC(=O)[O-]
REMARK SMILES IDX 7 1 8 2 9 3 10 4 11 5 12 6 13 7 14 8 6 9 5 10 4 11 3 12 2 13
REMARK SMILES IDX 1 14
REMARK H PARENT
REMARK Flexibility Score: inf
ROOT
ATOM      1  C   UNL     1     175.791 179.793 198.636  1.00  0.00     0.000 C 
ENDROOT
BRANCH   1   2
ATOM      2  C   UNL     1     175.479 179.149 197.274  1.00  0.00     0.000 C 
BRANCH   2   3
ATOM      3  C   UNL     1     174.466 177.997 197.382  1.00  0.00     0.000 C 
BRANCH   3   4
ATOM      4  C   UNL     1     173.163 178.283 196.616  1.00  0.00     0.006 C 
BRANCH   4   5
ATOM      5  C   UNL     1     173.233 179.594 195.824  1.00  0.00     0.053 C 
BRANCH   5   6
ATOM      6  C   UNL     1     173.170 179.355 194.346  1.00  0.00     0.041 C 
ATOM      7  O   UNL     1     173.871 178.451 193.819  1.00  0.00    -0.550 OA
ATOM      8  O   UNL     1     172.357 180.149 193.547  1.00  0.00    -0.550 OA
ENDBRANCH   5   6
ENDBRANCH   4   5
ENDBRANCH   3   4
ENDBRANCH   2   3
ENDBRANCH   1   2
BRANCH   1   9
ATOM      9  C   UNL     1     174.978 181.073 198.883  1.00  0.00     0.000 C 
BRANCH   9  10
ATOM     10  C   UNL     1     173.841 180.862 199.900  1.00  0.00    -0.000 C 
BRANCH  10  11
ATOM     11  C   UNL     1     172.450 181.045 199.276  1.00  0.00    -0.000 C 
BRANCH  11  12
ATOM     12  C   UNL     1     171.491 179.895 199.619  1.00  0.00    -0.000 C 
BRANCH  12  13
ATOM     13  C   UNL     1     172.165 178.878 200.548  1.00  0.00    -0.003 C 
ATOM     14  C   UNL     1     171.912 177.448 200.078  1.00  0.00     0.004 C 
ENDBRANCH  12  13
ENDBRANCH  11  12
ENDBRANCH  10  11
ENDBRANCH   9  10
ENDBRANCH   1   9
TORSDOF 10
ENDMDL
MODEL 4
REMARK VINA RESULT:    -1.626      3.307      6.313
REMARK INTER + INTRA:          -3.611
REMARK INTER:                  -2.685
REMARK INTRA:                  -0.926
REMARK UNBOUND:                -1.034
REMARK SMILES CCCCCCCCCCCC(=O)[O-]
REMARK SMILES IDX 7 1 8 2 9 3 10 4 11 5 12 6 13 7 14 8 6 9 5 10 4 11 3 12 2 13
REMARK SMILES IDX 1 14
REMARK H PARENT
REMARK Flexibility Score: inf
ROOT
ATOM      1  C   UNL     1     173.675 179.119 195.575  1.00  0.00     0.000 C 
ENDROOT
BRANCH   1   2
ATOM      2  C   UNL     1     173.120 177.834 196.212  1.00  0.00     0.000 C 
BRANCH   2   3
ATOM      3  C   UNL     1     172.510 176.875 195.177  1.00  0.00     0.000 C 
BRANCH   3   4
ATOM      4  C   UNL     1     172.867 177.262 193.731  1.00  0.00     0.006 C 
BRANCH   4   5
ATOM      5  C   UNL     1     171.623 177.404 192.846  1.00  0.00     0.053 C 
BRANCH   5   6
ATOM      6  C   UNL     1     171.725 178.586 191.930  1.00  0.00     0.041 C 
ATOM      7  O   UNL     1     171.749 178.421 190.682  1.00  0.00    -0.550 OA
ATOM      8  O   UNL     1     171.819 179.868 192.457  1.00  0.00    -0.550 OA
ENDBRANCH   5   6
ENDBRANCH   4   5
ENDBRANCH   3   4
ENDBRANCH   2   3
ENDBRANCH   1   2
BRANCH   1   9
ATOM      9  C   UNL     1     173.122 180.391 196.237  1.00  0.00     0.000 C 
BRANCH   9  10
ATOM     10  C   UNL     1     173.772 180.675 197.603  1.00  0.00    -0.000 C 
BRANCH  10  11
ATOM     11  C   UNL     1     172.753 181.130 198.658  1.00  0.00    -0.000 C 
BRANCH  11  12
ATOM     12  C   UNL     1     171.998 179.955 199.297  1.00  0.00    -0.000 C 
BRANCH  12  13
ATOM     13  C   UNL     1     172.938 179.099 200.154  1.00  0.00    -0.003 C 
ATOM     14  C   UNL     1     172.792 177.617 199.822  1.00  0.00     0.004 C 
ENDBRANCH  12  13
ENDBRANCH  11  12
ENDBRANCH  10  11
ENDBRANCH   9  10
ENDBRANCH   1   9
TORSDOF 10
ENDMDL
MODEL 5
REMARK VINA RESULT:    -1.624      1.489      2.996
REMARK INTER + INTRA:          -3.608
REMARK INTER:                  -2.405
REMARK INTRA:                  -1.202
REMARK UNBOUND:                -1.034
REMARK SMILES CCCCCCCCCCCC(=O)[O-]
REMARK SMILES IDX 7 1 8 2 9 3 10 4 11 5 12 6 13 7 14 8 6 9 5 10 4 11 3 12 2 13
REMARK SMILES IDX 1 14
REMARK H PARENT
REMARK Flexibility Score: inf
ROOT
ATOM      1  C   UNL     1     172.226 176.883 193.537  1.00  0.00     0.000 C 
ENDROOT
BRANCH   1   2
ATOM      2  C   UNL     1     172.766 176.875 194.977  1.00  0.00     0.000 C 
BRANCH   2   3
ATOM      3  C   UNL     1     173.707 178.057 195.263  1.00  0.00     0.000 C 
BRANCH   3   4
ATOM      4  C   UNL     1     173.081 179.096 196.209  1.00  0.00     0.006 C 
BRANCH   4   5
ATOM      5  C   UNL     1     173.788 179.141 197.569  1.00  0.00     0.053 C 
BRANCH   5   6
ATOM      6  C   UNL     1     172.862 178.775 198.689  1.00  0.00     0.041 C 
ATOM      7  O   UNL     1     172.499 177.580 198.847  1.00  0.00    -0.550 OA
ATOM      8  O   UNL     1     172.381 179.760 199.542  1.00  0.00    -0.550 OA
ENDBRANCH   5   6
ENDBRANCH   4   5
ENDBRANCH   3   4
ENDBRANCH   2   3
ENDBRANCH   1   2
BRANCH   1   9
ATOM      9  C   UNL     1     173.334 177.096 192.493  1.00  0.00     0.000 C 
BRANCH   9  10
ATOM     10  C   UNL     1     172.993 178.215 191.492  1.00  0.00    -0.000 C 
BRANCH  10  11
ATOM     11  C   UNL     1     171.571 178.764 191.683  1.00  0.00    -0.000 C 
BRANCH  11  12
ATOM     12  C   UNL     1     171.537 180.297 191.778  1.00  0.00    -0.000 C 
BRANCH  12  13
ATOM     13  C   UNL     1     171.977 180.770 193.168  1.00  0.00    -0.003 C 
ATOM     14  C   UNL     1     173.352 181.431 193.118  1.00  0.00     0.004 C 
ENDBRANCH  12  13
ENDBRANCH  11  12
ENDBRANCH  10  11
ENDBRANCH   9  10
ENDBRANCH   1   9
TORSDOF 10
ENDMDL
MODEL 6
REMARK VINA RESULT:    -1.607      3.580      5.731
REMARK INTER + INTRA:          -3.580
REMARK INTER:                  -2.111
REMARK INTRA:                  -1.469
REMARK UNBOUND:                -1.034
REMARK SMILES CCCCCCCCCCCC(=O)[O-]
REMARK SMILES IDX 7 1 8 2 9 3 10 4 11 5 12 6 13 7 14 8 6 9 5 10 4 11 3 12 2 13
REMARK SMILES IDX 1 14
REMARK H PARENT
REMARK Flexibility Score: inf
ROOT
ATOM      1  C   UNL     1     172.985 176.926 192.602  1.00  0.00     0.000 C 
ENDROOT
BRANCH   1   2
ATOM      2  C   UNL     1     172.643 177.987 191.543  1.00  0.00     0.000 C 
BRANCH   2   3
ATOM      3  C   UNL     1     171.414 178.830 191.924  1.00  0.00     0.000 C 
BRANCH   3   4
ATOM      4  C   UNL     1     171.571 180.310 191.538  1.00  0.00     0.006 C 
BRANCH   4   5
ATOM      5  C   UNL     1     172.714 180.989 192.302  1.00  0.00     0.053 C 
BRANCH   5   6
ATOM      6  C   UNL     1     172.209 182.050 193.232  1.00  0.00     0.041 C 
ATOM      7  O   UNL     1     171.878 181.754 194.411  1.00  0.00    -0.550 OA
ATOM      8  O   UNL     1     172.080 183.360 192.789  1.00  0.00    -0.550 OA
ENDBRANCH   5   6
ENDBRANCH   4   5
ENDBRANCH   3   4
ENDBRANCH   2   3
ENDBRANCH   1   2
BRANCH   1   9
ATOM      9  C   UNL     1     171.954 176.875 193.740  1.00  0.00     0.000 C 
BRANCH   9  10
ATOM     10  C   UNL     1     172.584 177.146 195.119  1.00  0.00    -0.000 C 
BRANCH  10  11
ATOM     11  C   UNL     1     173.100 178.586 195.260  1.00  0.00    -0.000 C 
BRANCH  11  12
ATOM     12  C   UNL     1     174.615 178.651 195.503  1.00  0.00    -0.000 C 
BRANCH  12  13
ATOM     13  C   UNL     1     175.262 179.747 194.649  1.00  0.00    -0.003 C 
ATOM     14  C   UNL     1     175.847 179.172 193.362  1.00  0.00     0.004 C 
ENDBRANCH  12  13
ENDBRANCH  11  12
ENDBRANCH  10  11
ENDBRANCH   9  10
ENDBRANCH   1   9
TORSDOF 10
ENDMDL
MODEL 7
REMARK VINA RESULT:    -1.592      3.484      5.328
REMARK INTER + INTRA:          -3.556
REMARK INTER:                  -1.991
REMARK INTRA:                  -1.565
REMARK UNBOUND:                -1.034
REMARK SMILES CCCCCCCCCCCC(=O)[O-]
REMARK SMILES IDX 7 1 8 2 9 3 10 4 11 5 12 6 13 7 14 8 6 9 5 10 4 11 3 12 2 13
REMARK SMILES IDX 1 14
REMARK H PARENT
REMARK Flexibility Score: inf
ROOT
ATOM      1  C   UNL     1     174.352 177.263 195.656  1.00  0.00     0.000 C 
ENDROOT
BRANCH   1   2
ATOM      2  C   UNL     1     174.256 178.332 194.555  1.00  0.00     0.000 C 
BRANCH   2   3
ATOM      3  C   UNL     1     175.114 179.572 194.857  1.00  0.00     0.000 C 
BRANCH   3   4
ATOM      4  C   UNL     1     174.309 180.699 195.524  1.00  0.00     0.006 C 
BRANCH   4   5
ATOM      5  C   UNL     1     172.814 180.618 195.190  1.00  0.00     0.053 C 
BRANCH   5   6
ATOM      6  C   UNL     1     172.403 181.683 194.219  1.00  0.00     0.041 C 
ATOM      7  O   UNL     1     171.268 181.640 193.674  1.00  0.00    -0.550 OA
ATOM      8  O   UNL     1     173.283 182.708 193.897  1.00  0.00    -0.550 OA
ENDBRANCH   5   6
ENDBRANCH   4   5
ENDBRANCH   3   4
ENDBRANCH   2   3
ENDBRANCH   1   2
BRANCH   1   9
ATOM      9  C   UNL     1     172.986 176.935 196.280  1.00  0.00     0.000 C 
BRANCH   9  10
ATOM     10  C   UNL     1     172.911 177.318 197.769  1.00  0.00    -0.000 C 
BRANCH  10  11
ATOM     11  C   UNL     1     174.218 177.936 198.286  1.00  0.00    -0.000 C 
BRANCH  11  12
ATOM     12  C   UNL     1     174.000 179.292 198.974  1.00  0.00    -0.000 C 
BRANCH  12  13
ATOM     13  C   UNL     1     172.543 179.749 198.837  1.00  0.00    -0.003 C 
ATOM     14  C   UNL     1     172.436 181.271 198.862  1.00  0.00     0.004 C 
ENDBRANCH  12  13
ENDBRANCH  11  12
ENDBRANCH  10  11
ENDBRANCH   9  10
ENDBRANCH   1   9
TORSDOF 10
ENDMDL
MODEL 8
REMARK VINA RESULT:    -1.590      2.802      5.446
REMARK INTER + INTRA:          -3.554
REMARK INTER:                  -2.124
REMARK INTRA:                  -1.430
REMARK UNBOUND:                -1.034
REMARK SMILES CCCCCCCCCCCC(=O)[O-]
REMARK SMILES IDX 7 1 8 2 9 3 10 4 11 5 12 6 13 7 14 8 6 9 5 10 4 11 3 12 2 13
REMARK SMILES IDX 1 14
REMARK H PARENT
REMARK Flexibility Score: inf
ROOT
ATOM      1  C   UNL     1     175.679 177.708 198.512  1.00  0.00     0.000 C 
ENDROOT
BRANCH   1   2
ATOM      2  C   UNL     1     175.588 177.984 197.002  1.00  0.00     0.000 C 
BRANCH   2   3
ATOM      3  C   UNL     1     174.872 179.307 196.684  1.00  0.00     0.000 C 
BRANCH   3   4
ATOM      4  C   UNL     1     173.383 179.107 196.352  1.00  0.00     0.006 C 
BRANCH   4   5
ATOM      5  C   UNL     1     173.111 177.737 195.719  1.00  0.00     0.053 C 
BRANCH   5   6
ATOM      6  C   UNL     1     173.210 177.785 194.225  1.00  0.00     0.041 C 
ATOM      7  O   UNL     1     172.410 178.493 193.558  1.00  0.00    -0.550 OA
ATOM      8  O   UNL     1     174.171 177.028 193.567  1.00  0.00    -0.550 OA
ENDBRANCH   5   6
ENDBRANCH   4   5
ENDBRANCH   3   4
ENDBRANCH   2   3
ENDBRANCH   1   2
BRANCH   1   9
ATOM      9  C   UNL     1     174.497 176.875 199.031  1.00  0.00     0.000 C 
BRANCH   9  10
ATOM     10  C   UNL     1     174.329 176.977 200.559  1.00  0.00    -0.000 C 
BRANCH  10  11
ATOM     11  C   UNL     1     173.080 177.773 200.963  1.00  0.00    -0.000 C 
BRANCH  11  12
ATOM     12  C   UNL     1     172.139 178.040 199.778  1.00  0.00    -0.000 C 
BRANCH  12  13
ATOM     13  C   UNL     1     171.764 179.524 199.699  1.00  0.00    -0.003 C 
ATOM     14  C   UNL     1     173.002 180.412 199.790  1.00  0.00     0.004 C 
ENDBRANCH  12  13
ENDBRANCH  11  12
ENDBRANCH  10  11
ENDBRANCH   9  10
ENDBRANCH   1   9
TORSDOF 10
ENDMDL
MODEL 9
REMARK VINA RESULT:    -1.571      2.172      4.644
REMARK INTER + INTRA:          -3.524
REMARK INTER:                  -2.058
REMARK INTRA:                  -1.465
REMARK UNBOUND:                -1.034
REMARK SMILES CCCCCCCCCCCC(=O)[O-]
REMARK SMILES IDX 7 1 8 2 9 3 10 4 11 5 12 6 13 7 14 8 6 9 5 10 4 11 3 12 2 13
REMARK SMILES IDX 1 14
REMARK H PARENT
REMARK Flexibility Score: inf
ROOT
ATOM      1  C   UNL     1     174.396 177.848 195.496  1.00  0.00     0.000 C 
ENDROOT
BRANCH   1   2
ATOM      2  C   UNL     1     173.130 178.160 196.313  1.00  0.00     0.000 C 
BRANCH   2   3
ATOM      3  C   UNL     1     173.175 179.552 196.965  1.00  0.00     0.000 C 
BRANCH   3   4
ATOM      4  C   UNL     1     172.765 179.523 198.448  1.00  0.00     0.006 C 
BRANCH   4   5
ATOM      5  C   UNL     1     172.602 178.092 198.974  1.00  0.00     0.053 C 
BRANCH   5   6
ATOM      6  C   UNL     1     171.522 178.000 200.009  1.00  0.00     0.041 C 
ATOM      7  O   UNL     1     171.111 176.875 200.399  1.00  0.00    -0.550 OA
ATOM      8  O   UNL     1     170.950 179.157 200.522  1.00  0.00    -0.550 OA
ENDBRANCH   5   6
ENDBRANCH   4   5
ENDBRANCH   3   4
ENDBRANCH   2   3
ENDBRANCH   1   2
BRANCH   1   9
ATOM      9  C   UNL     1     175.681 178.305 196.203  1.00  0.00     0.000 C 
BRANCH   9  10
ATOM     10  C   UNL     1     176.298 177.198 197.078  1.00  0.00    -0.000 C 
BRANCH  10  11
ATOM     11  C   UNL     1     176.315 177.565 198.569  1.00  0.00    -0.000 C 
BRANCH  11  12
ATOM     12  C   UNL     1     176.345 179.083 198.804  1.00  0.00    -0.000 C 
BRANCH  12  13
ATOM     13  C   UNL     1     176.411 179.406 200.301  1.00  0.00    -0.003 C 
ATOM     14  C   UNL     1     175.641 178.375 201.122  1.00  0.00     0.004 C 
ENDBRANCH  12  13
ENDBRANCH  11  12
ENDBRANCH  10  11
ENDBRANCH   9  10
ENDBRANCH   1   9
TORSDOF 10
ENDMDL
