MODEL 1
REMARK VINA RESULT:    -4.722      0.000      0.000
REMARK INTER + INTRA:          -6.193
REMARK INTER:                  -5.826
REMARK INTRA:                  -0.367
REMARK UNBOUND:                -0.367
REMARK SMILES Oc1cc(O)c2cc(O)c(-c3cc(O)c(O)c(O)c3)[o+]c2c1
REMARK SMILES IDX 10 1 20 2 21 3 22 4 2 5 3 6 4 7 6 8 7 9 8 10 11 11 12 12
REMARK SMILES IDX 13 13 19 14 15 15 17 16 14 17 16 19 18 21 9 23 1 25 5 27
REMARK H PARENT 14 18 16 20 18 22 9 24 1 26 5 28
REMARK Flexibility Score: inf
ROOT
ATOM      1  C   UNL     1      33.698  17.869  31.614  1.00  0.00     0.402 A 
ATOM      2  O   UNL     1      33.971  17.679  30.326  1.00  0.00    -0.202 OA
ATOM      3  C   UNL     1      34.527  16.569  29.854  1.00  0.00     0.368 A 
ATOM      4  C   UNL     1      34.772  16.462  28.482  1.00  0.00     0.162 A 
ATOM      5  C   UNL     1      35.352  15.306  27.958  1.00  0.00     0.128 A 
ATOM      6  C   UNL     1      35.689  14.247  28.809  1.00  0.00     0.093 A 
ATOM      7  C   UNL     1      35.452  14.330  30.187  1.00  0.00     0.136 A 
ATOM      8  C   UNL     1      34.866  15.505  30.725  1.00  0.00     0.125 A 
ATOM      9  C   UNL     1      34.605  15.681  32.092  1.00  0.00     0.078 A 
ATOM     10  C   UNL     1      34.028  16.870  32.549  1.00  0.00     0.223 A 
ENDROOT
BRANCH   1  11
ATOM     11  C   UNL     1      33.069  19.147  32.016  1.00  0.00     0.091 A 
ATOM     12  C   UNL     1      33.838  20.224  32.492  1.00  0.00     0.068 A 
ATOM     13  C   UNL     1      33.222  21.419  32.891  1.00  0.00     0.162 A 
ATOM     14  C   UNL     1      31.672  19.271  31.979  1.00  0.00     0.068 A 
ATOM     15  C   UNL     1      31.823  21.540  32.827  1.00  0.00     0.200 A 
ATOM     16  C   UNL     1      31.051  20.464  32.374  1.00  0.00     0.162 A 
BRANCH  13  17
ATOM     17  O   UNL     1      33.994  22.482  33.355  1.00  0.00    -0.504 OA
ATOM     18  H   UNL     1      34.993  22.526  33.190  1.00  0.00     0.293 HD
ENDBRANCH  13  17
BRANCH  15  19
ATOM     19  O   UNL     1      31.187  22.721  33.214  1.00  0.00    -0.502 OA
ATOM     20  H   UNL     1      31.562  23.322  33.938  1.00  0.00     0.293 HD
ENDBRANCH  15  19
BRANCH  16  21
ATOM     21  O   UNL     1      29.663  20.586  32.320  1.00  0.00    -0.504 OA
ATOM     22  H   UNL     1      29.056  19.989  32.870  1.00  0.00     0.293 HD
ENDBRANCH  16  21
ENDBRANCH   1  11
BRANCH  10  23
ATOM     23  O   UNL     1      33.815  17.066  33.914  1.00  0.00    -0.500 OA
ATOM     24  H   UNL     1      32.889  17.234  34.290  1.00  0.00     0.294 HD
ENDBRANCH  10  23
BRANCH   5  25
ATOM     25  O   UNL     1      35.589  15.218  26.588  1.00  0.00    -0.507 OA
ATOM     26  H   UNL     1      36.524  15.301  26.205  1.00  0.00     0.293 HD
ENDBRANCH   5  25
BRANCH   7  27
ATOM     27  O   UNL     1      35.814  13.229  30.969  1.00  0.00    -0.507 OA
ATOM     28  H   UNL     1      36.148  13.290  31.920  1.00  0.00     0.293 HD
ENDBRANCH   7  27
TORSDOF 7
ENDMDL
MODEL 2
REMARK VINA RESULT:    -4.587      1.302      7.189
REMARK INTER + INTRA:          -6.026
REMARK INTER:                  -5.657
REMARK INTRA:                  -0.370
REMARK UNBOUND:                -0.367
REMARK SMILES Oc1cc(O)c2cc(O)c(-c3cc(O)c(O)c(O)c3)[o+]c2c1
REMARK SMILES IDX 10 1 20 2 21 3 22 4 2 5 3 6 4 7 6 8 7 9 8 10 11 11 12 12
REMARK SMILES IDX 13 13 19 14 15 15 17 16 14 17 16 19 18 21 9 23 1 25 5 27
REMARK H PARENT 14 18 16 20 18 22 9 24 1 26 5 28
REMARK Flexibility Score: inf
ROOT
ATOM      1  C   UNL     1      33.854  18.326  31.772  1.00  0.00     0.402 A 
ATOM      2  O   UNL     1      32.542  18.535  31.836  1.00  0.00    -0.202 OA
ATOM      3  C   UNL     1      32.005  19.687  32.222  1.00  0.00     0.368 A 
ATOM      4  C   UNL     1      30.613  19.812  32.253  1.00  0.00     0.162 A 
ATOM      5  C   UNL     1      30.021  21.010  32.652  1.00  0.00     0.128 A 
ATOM      6  C   UNL     1      30.825  22.095  33.022  1.00  0.00     0.093 A 
ATOM      7  C   UNL     1      32.221  21.996  32.999  1.00  0.00     0.136 A 
ATOM      8  C   UNL     1      32.827  20.778  32.597  1.00  0.00     0.125 A 
ATOM      9  C   UNL     1      34.216  20.583  32.556  1.00  0.00     0.078 A 
ATOM     10  C   UNL     1      34.741  19.351  32.153  1.00  0.00     0.223 A 
ENDROOT
BRANCH   1  11
ATOM     11  C   UNL     1      34.332  17.001  31.317  1.00  0.00     0.091 A 
ATOM     12  C   UNL     1      34.453  16.696  29.950  1.00  0.00     0.068 A 
ATOM     13  C   UNL     1      34.884  15.427  29.537  1.00  0.00     0.162 A 
ATOM     14  C   UNL     1      34.614  16.006  32.265  1.00  0.00     0.068 A 
ATOM     15  C   UNL     1      35.187  14.445  30.496  1.00  0.00     0.200 A 
ATOM     16  C   UNL     1      35.048  14.736  31.859  1.00  0.00     0.162 A 
BRANCH  13  17
ATOM     17  O   UNL     1      35.007  15.138  28.179  1.00  0.00    -0.504 OA
ATOM     18  H   UNL     1      35.900  14.895  27.766  1.00  0.00     0.293 HD
ENDBRANCH  13  17
BRANCH  15  19
ATOM     19  O   UNL     1      35.622  13.177  30.111  1.00  0.00    -0.502 OA
ATOM     20  H   UNL     1      36.591  12.987  29.883  1.00  0.00     0.293 HD
ENDBRANCH  15  19
BRANCH  16  21
ATOM     21  O   UNL     1      35.341  13.757  32.806  1.00  0.00    -0.504 OA
ATOM     22  H   UNL     1      34.656  13.061  33.080  1.00  0.00     0.293 HD
ENDBRANCH  16  21
ENDBRANCH   1  11
BRANCH  10  23
ATOM     23  O   UNL     1      36.120  19.141  32.160  1.00  0.00    -0.500 OA
ATOM     24  H   UNL     1      36.566  18.507  31.507  1.00  0.00     0.294 HD
ENDBRANCH  10  23
BRANCH   5  25
ATOM     25  O   UNL     1      28.632  21.115  32.677  1.00  0.00    -0.507 OA
ATOM     26  H   UNL     1      28.113  21.463  31.879  1.00  0.00     0.293 HD
ENDBRANCH   5  25
BRANCH   7  27
ATOM     27  O   UNL     1      32.953  23.125  33.380  1.00  0.00    -0.507 OA
ATOM     28  H   UNL     1      33.134  23.916  32.780  1.00  0.00     0.293 HD
ENDBRANCH   7  27
TORSDOF 7
ENDMDL
MODEL 3
REMARK VINA RESULT:    -4.259      2.147      7.332
REMARK INTER + INTRA:          -5.622
REMARK INTER:                  -5.537
REMARK INTRA:                  -0.085
REMARK UNBOUND:                -0.367
REMARK SMILES Oc1cc(O)c2cc(O)c(-c3cc(O)c(O)c(O)c3)[o+]c2c1
REMARK SMILES IDX 10 1 20 2 21 3 22 4 2 5 3 6 4 7 6 8 7 9 8 10 11 11 12 12
REMARK SMILES IDX 13 13 19 14 15 15 17 16 14 17 16 19 18 21 9 23 1 25 5 27
REMARK H PARENT 14 18 16 20 18 22 9 24 1 26 5 28
REMARK Flexibility Score: inf
ROOT
ATOM      1  C   UNL     1      32.728  19.053  30.959  1.00  0.00     0.402 A 
ATOM      2  O   UNL     1      31.714  19.288  31.788  1.00  0.00    -0.202 OA
ATOM      3  C   UNL     1      30.849  20.282  31.620  1.00  0.00     0.368 A 
ATOM      4  C   UNL     1      29.814  20.445  32.544  1.00  0.00     0.162 A 
ATOM      5  C   UNL     1      28.889  21.479  32.391  1.00  0.00     0.128 A 
ATOM      6  C   UNL     1      28.996  22.355  31.305  1.00  0.00     0.093 A 
ATOM      7  C   UNL     1      30.023  22.211  30.364  1.00  0.00     0.136 A 
ATOM      8  C   UNL     1      30.968  21.164  30.518  1.00  0.00     0.125 A 
ATOM      9  C   UNL     1      32.037  20.952  29.634  1.00  0.00     0.078 A 
ATOM     10  C   UNL     1      32.932  19.901  29.853  1.00  0.00     0.223 A 
ENDROOT
BRANCH   1  11
ATOM     11  C   UNL     1      33.620  17.908  31.249  1.00  0.00     0.091 A 
ATOM     12  C   UNL     1      33.955  16.971  30.256  1.00  0.00     0.068 A 
ATOM     13  C   UNL     1      34.783  15.880  30.556  1.00  0.00     0.162 A 
ATOM     14  C   UNL     1      34.096  17.718  32.555  1.00  0.00     0.068 A 
ATOM     15  C   UNL     1      35.273  15.711  31.861  1.00  0.00     0.200 A 
ATOM     16  C   UNL     1      34.926  16.630  32.860  1.00  0.00     0.162 A 
BRANCH  13  17
ATOM     17  O   UNL     1      35.114  14.960  29.562  1.00  0.00    -0.504 OA
ATOM     18  H   UNL     1      34.415  14.366  29.133  1.00  0.00     0.293 HD
ENDBRANCH  13  17
BRANCH  15  19
ATOM     19  O   UNL     1      36.103  14.636  32.184  1.00  0.00    -0.502 OA
ATOM     20  H   UNL     1      36.661  14.159  31.485  1.00  0.00     0.293 HD
ENDBRANCH  15  19
BRANCH  16  21
ATOM     21  O   UNL     1      35.408  16.455  34.156  1.00  0.00    -0.504 OA
ATOM     22  H   UNL     1      34.901  16.802  34.962  1.00  0.00     0.293 HD
ENDBRANCH  16  21
ENDBRANCH   1  11
BRANCH  10  23
ATOM     23  O   UNL     1      34.023  19.720  29.003  1.00  0.00    -0.500 OA
ATOM     24  H   UNL     1      34.008  20.040  28.041  1.00  0.00     0.294 HD
ENDBRANCH  10  23
BRANCH   5  25
ATOM     25  O   UNL     1      27.864  21.626  33.324  1.00  0.00    -0.507 OA
ATOM     26  H   UNL     1      26.912  21.827  33.038  1.00  0.00     0.293 HD
ENDBRANCH   5  25
BRANCH   7  27
ATOM     27  O   UNL     1      30.059  23.125  29.307  1.00  0.00    -0.507 OA
ATOM     28  H   UNL     1      30.316  24.097  29.402  1.00  0.00     0.293 HD
ENDBRANCH   7  27
TORSDOF 7
ENDMDL
MODEL 4
REMARK VINA RESULT:    -4.109      3.462      7.014
REMARK INTER + INTRA:          -5.436
REMARK INTER:                  -5.199
REMARK INTRA:                  -0.237
REMARK UNBOUND:                -0.367
REMARK SMILES Oc1cc(O)c2cc(O)c(-c3cc(O)c(O)c(O)c3)[o+]c2c1
REMARK SMILES IDX 10 1 20 2 21 3 22 4 2 5 3 6 4 7 6 8 7 9 8 10 11 11 12 12
REMARK SMILES IDX 13 13 19 14 15 15 17 16 14 17 16 19 18 21 9 23 1 25 5 27
REMARK H PARENT 14 18 16 20 18 22 9 24 1 26 5 28
REMARK Flexibility Score: inf
ROOT
ATOM      1  C   UNL     1      31.440  19.402  30.206  1.00  0.00     0.402 A 
ATOM      2  O   UNL     1      30.497  18.870  29.432  1.00  0.00    -0.202 OA
ATOM      3  C   UNL     1      29.490  19.572  28.924  1.00  0.00     0.368 A 
ATOM      4  C   UNL     1      28.549  18.924  28.118  1.00  0.00     0.162 A 
ATOM      5  C   UNL     1      27.482  19.636  27.568  1.00  0.00     0.128 A 
ATOM      6  C   UNL     1      27.354  21.006  27.822  1.00  0.00     0.093 A 
ATOM      7  C   UNL     1      28.284  21.679  28.625  1.00  0.00     0.136 A 
ATOM      8  C   UNL     1      29.368  20.958  29.189  1.00  0.00     0.125 A 
ATOM      9  C   UNL     1      30.339  21.544  30.015  1.00  0.00     0.078 A 
ATOM     10  C   UNL     1      31.377  20.768  30.539  1.00  0.00     0.223 A 
ENDROOT
BRANCH   1  11
ATOM     11  C   UNL     1      32.517  18.518  30.705  1.00  0.00     0.091 A 
ATOM     12  C   UNL     1      32.642  18.217  32.072  1.00  0.00     0.068 A 
ATOM     13  C   UNL     1      33.683  17.397  32.530  1.00  0.00     0.162 A 
ATOM     14  C   UNL     1      33.470  18.015  29.806  1.00  0.00     0.068 A 
ATOM     15  C   UNL     1      34.619  16.879  31.618  1.00  0.00     0.200 A 
ATOM     16  C   UNL     1      34.511  17.192  30.257  1.00  0.00     0.162 A 
BRANCH  13  17
ATOM     17  O   UNL     1      33.794  17.099  33.887  1.00  0.00    -0.504 OA
ATOM     18  H   UNL     1      34.660  17.242  34.394  1.00  0.00     0.293 HD
ENDBRANCH  13  17
BRANCH  15  19
ATOM     19  O   UNL     1      35.661  16.056  32.047  1.00  0.00    -0.502 OA
ATOM     20  H   UNL     1      36.450  16.417  32.570  1.00  0.00     0.293 HD
ENDBRANCH  15  19
BRANCH  16  21
ATOM     21  O   UNL     1      35.446  16.683  29.357  1.00  0.00    -0.504 OA
ATOM     22  H   UNL     1      35.708  15.704  29.359  1.00  0.00     0.293 HD
ENDBRANCH  16  21
ENDBRANCH   1  11
BRANCH  10  23
ATOM     23  O   UNL     1      32.313  21.340  31.400  1.00  0.00    -0.500 OA
ATOM     24  H   UNL     1      33.029  20.784  31.855  1.00  0.00     0.294 HD
ENDBRANCH  10  23
BRANCH   5  25
ATOM     25  O   UNL     1      26.554  18.972  26.768  1.00  0.00    -0.507 OA
ATOM     26  H   UNL     1      26.145  19.415  25.954  1.00  0.00     0.293 HD
ENDBRANCH   5  25
BRANCH   7  27
ATOM     27  O   UNL     1      28.088  23.048  28.828  1.00  0.00    -0.507 OA
ATOM     28  H   UNL     1      28.675  23.771  28.441  1.00  0.00     0.293 HD
ENDBRANCH   7  27
TORSDOF 7
ENDMDL
MODEL 5
REMARK VINA RESULT:    -4.102      3.497      6.907
REMARK INTER + INTRA:          -5.428
REMARK INTER:                  -5.150
REMARK INTRA:                  -0.278
REMARK UNBOUND:                -0.367
REMARK SMILES Oc1cc(O)c2cc(O)c(-c3cc(O)c(O)c(O)c3)[o+]c2c1
REMARK SMILES IDX 10 1 20 2 21 3 22 4 2 5 3 6 4 7 6 8 7 9 8 10 11 11 12 12
REMARK SMILES IDX 13 13 19 14 15 15 17 16 14 17 16 19 18 21 9 23 1 25 5 27
REMARK H PARENT 14 18 16 20 18 22 9 24 1 26 5 28
REMARK Flexibility Score: inf
ROOT
ATOM      1  C   UNL     1      31.484  19.347  30.160  1.00  0.00     0.402 A 
ATOM      2  O   UNL     1      30.573  18.744  29.401  1.00  0.00    -0.202 OA
ATOM      3  C   UNL     1      29.529  19.375  28.874  1.00  0.00     0.368 A 
ATOM      4  C   UNL     1      28.627  18.655  28.085  1.00  0.00     0.162 A 
ATOM      5  C   UNL     1      27.523  19.291  27.517  1.00  0.00     0.128 A 
ATOM      6  C   UNL     1      27.318  20.658  27.736  1.00  0.00     0.093 A 
ATOM      7  C   UNL     1      28.208  21.402  28.521  1.00  0.00     0.136 A 
ATOM      8  C   UNL     1      29.330  20.758  29.103  1.00  0.00     0.125 A 
ATOM      9  C   UNL     1      30.265  21.419  29.915  1.00  0.00     0.078 A 
ATOM     10  C   UNL     1      31.344  20.716  30.458  1.00  0.00     0.223 A 
ENDROOT
BRANCH   1  11
ATOM     11  C   UNL     1      32.608  18.538  30.682  1.00  0.00     0.091 A 
ATOM     12  C   UNL     1      33.616  18.052  29.833  1.00  0.00     0.068 A 
ATOM     13  C   UNL     1      34.661  17.267  30.342  1.00  0.00     0.162 A 
ATOM     14  C   UNL     1      32.640  18.199  32.044  1.00  0.00     0.068 A 
ATOM     15  C   UNL     1      34.696  16.952  31.711  1.00  0.00     0.200 A 
ATOM     16  C   UNL     1      33.683  17.417  32.559  1.00  0.00     0.162 A 
BRANCH  13  17
ATOM     17  O   UNL     1      35.660  16.795  29.492  1.00  0.00    -0.504 OA
ATOM     18  H   UNL     1      36.465  17.361  29.252  1.00  0.00     0.293 HD
ENDBRANCH  13  17
BRANCH  15  19
ATOM     19  O   UNL     1      35.728  16.177  32.243  1.00  0.00    -0.502 OA
ATOM     20  H   UNL     1      36.645  16.134  31.814  1.00  0.00     0.293 HD
ENDBRANCH  15  19
BRANCH  16  21
ATOM     21  O   UNL     1      33.717  17.095  33.915  1.00  0.00    -0.504 OA
ATOM     22  H   UNL     1      33.355  17.727  34.620  1.00  0.00     0.293 HD
ENDBRANCH  16  21
ENDBRANCH   1  11
BRANCH  10  23
ATOM     23  O   UNL     1      32.245  21.361  31.305  1.00  0.00    -0.500 OA
ATOM     24  H   UNL     1      32.413  22.359  31.244  1.00  0.00     0.294 HD
ENDBRANCH  10  23
BRANCH   5  25
ATOM     25  O   UNL     1      26.635  18.556  26.734  1.00  0.00    -0.507 OA
ATOM     26  H   UNL     1      25.718  18.915  26.494  1.00  0.00     0.293 HD
ENDBRANCH   5  25
BRANCH   7  27
ATOM     27  O   UNL     1      27.934  22.763  28.689  1.00  0.00    -0.507 OA
ATOM     28  H   UNL     1      27.438  23.331  28.019  1.00  0.00     0.293 HD
ENDBRANCH   7  27
TORSDOF 7
ENDMDL
MODEL 6
REMARK VINA RESULT:    -4.057      1.076      3.140
REMARK INTER + INTRA:          -5.372
REMARK INTER:                  -5.006
REMARK INTRA:                  -0.366
REMARK UNBOUND:                -0.367
REMARK SMILES Oc1cc(O)c2cc(O)c(-c3cc(O)c(O)c(O)c3)[o+]c2c1
REMARK SMILES IDX 10 1 20 2 21 3 22 4 2 5 3 6 4 7 6 8 7 9 8 10 11 11 12 12
REMARK SMILES IDX 13 13 19 14 15 15 17 16 14 17 16 19 18 21 9 23 1 25 5 27
REMARK H PARENT 14 18 16 20 18 22 9 24 1 26 5 28
REMARK Flexibility Score: inf
ROOT
ATOM      1  C   UNL     1      33.439  18.302  31.095  1.00  0.00     0.402 A 
ATOM      2  O   UNL     1      33.904  17.314  31.855  1.00  0.00    -0.202 OA
ATOM      3  C   UNL     1      34.546  16.258  31.366  1.00  0.00     0.368 A 
ATOM      4  C   UNL     1      35.000  15.272  32.246  1.00  0.00     0.162 A 
ATOM      5  C   UNL     1      35.680  14.154  31.762  1.00  0.00     0.128 A 
ATOM      6  C   UNL     1      35.910  14.019  30.388  1.00  0.00     0.093 A 
ATOM      7  C   UNL     1      35.466  14.994  29.485  1.00  0.00     0.136 A 
ATOM      8  C   UNL     1      34.771  16.131  29.974  1.00  0.00     0.125 A 
ATOM      9  C   UNL     1      34.278  17.150  29.144  1.00  0.00     0.078 A 
ATOM     10  C   UNL     1      33.599  18.239  29.698  1.00  0.00     0.223 A 
ENDROOT
BRANCH   1  11
ATOM     11  C   UNL     1      32.748  19.430  31.759  1.00  0.00     0.091 A 
ATOM     12  C   UNL     1      31.346  19.472  31.860  1.00  0.00     0.068 A 
ATOM     13  C   UNL     1      30.708  20.561  32.471  1.00  0.00     0.162 A 
ATOM     14  C   UNL     1      33.500  20.510  32.246  1.00  0.00     0.068 A 
ATOM     15  C   UNL     1      31.472  21.627  32.977  1.00  0.00     0.200 A 
ATOM     16  C   UNL     1      32.867  21.600  32.860  1.00  0.00     0.162 A 
BRANCH  13  17
ATOM     17  O   UNL     1      29.318  20.589  32.573  1.00  0.00    -0.504 OA
ATOM     18  H   UNL     1      28.741  19.853  32.183  1.00  0.00     0.293 HD
ENDBRANCH  13  17
BRANCH  15  19
ATOM     19  O   UNL     1      30.860  22.719  33.593  1.00  0.00    -0.502 OA
ATOM     20  H   UNL     1      31.142  23.673  33.400  1.00  0.00     0.293 HD
ENDBRANCH  15  19
BRANCH  16  21
ATOM     21  O   UNL     1      33.620  22.663  33.355  1.00  0.00    -0.504 OA
ATOM     22  H   UNL     1      33.267  23.614  33.348  1.00  0.00     0.293 HD
ENDBRANCH  16  21
ENDBRANCH   1  11
BRANCH  10  23
ATOM     23  O   UNL     1      33.065  19.226  28.870  1.00  0.00    -0.500 OA
ATOM     24  H   UNL     1      32.080  19.465  28.892  1.00  0.00     0.294 HD
ENDBRANCH  10  23
BRANCH   5  25
ATOM     25  O   UNL     1      36.125  13.181  32.655  1.00  0.00    -0.507 OA
ATOM     26  H   UNL     1      35.520  12.428  32.963  1.00  0.00     0.293 HD
ENDBRANCH   5  25
BRANCH   7  27
ATOM     27  O   UNL     1      35.737  14.787  28.130  1.00  0.00    -0.507 OA
ATOM     28  H   UNL     1      36.209  13.975  27.760  1.00  0.00     0.293 HD
ENDBRANCH   7  27
TORSDOF 7
ENDMDL
MODEL 7
REMARK VINA RESULT:    -4.034      2.248      3.619
REMARK INTER + INTRA:          -5.344
REMARK INTER:                  -5.497
REMARK INTRA:                   0.153
REMARK UNBOUND:                -0.367
REMARK SMILES Oc1cc(O)c2cc(O)c(-c3cc(O)c(O)c(O)c3)[o+]c2c1
REMARK SMILES IDX 10 1 20 2 21 3 22 4 2 5 3 6 4 7 6 8 7 9 8 10 11 11 12 12
REMARK SMILES IDX 13 13 19 14 15 15 17 16 14 17 16 19 18 21 9 23 1 25 5 27
REMARK H PARENT 14 18 16 20 18 22 9 24 1 26 5 28
REMARK Flexibility Score: inf
ROOT
ATOM      1  C   UNL     1      32.199  18.911  30.889  1.00  0.00     0.402 A 
ATOM      2  O   UNL     1      32.797  18.260  31.883  1.00  0.00    -0.202 OA
ATOM      3  C   UNL     1      33.781  17.387  31.696  1.00  0.00     0.368 A 
ATOM      4  C   UNL     1      34.350  16.756  32.805  1.00  0.00     0.162 A 
ATOM      5  C   UNL     1      35.386  15.836  32.639  1.00  0.00     0.128 A 
ATOM      6  C   UNL     1      35.862  15.547  31.355  1.00  0.00     0.093 A 
ATOM      7  C   UNL     1      35.310  16.167  30.227  1.00  0.00     0.136 A 
ATOM      8  C   UNL     1      34.253  17.100  30.392  1.00  0.00     0.125 A 
ATOM      9  C   UNL     1      33.631  17.758  29.320  1.00  0.00     0.078 A 
ATOM     10  C   UNL     1      32.591  18.662  29.560  1.00  0.00     0.223 A 
ENDROOT
BRANCH   1  11
ATOM     11  C   UNL     1      31.120  19.866  31.226  1.00  0.00     0.091 A 
ATOM     12  C   UNL     1      30.881  21.007  30.441  1.00  0.00     0.068 A 
ATOM     13  C   UNL     1      29.869  21.913  30.789  1.00  0.00     0.162 A 
ATOM     14  C   UNL     1      30.355  19.662  32.384  1.00  0.00     0.068 A 
ATOM     15  C   UNL     1      29.093  21.688  31.939  1.00  0.00     0.200 A 
ATOM     16  C   UNL     1      29.340  20.563  32.736  1.00  0.00     0.162 A 
BRANCH  13  17
ATOM     17  O   UNL     1      29.636  23.039  30.000  1.00  0.00    -0.504 OA
ATOM     18  H   UNL     1      30.181  23.226  29.167  1.00  0.00     0.293 HD
ENDBRANCH  13  17
BRANCH  15  19
ATOM     19  O   UNL     1      28.077  22.572  32.304  1.00  0.00    -0.502 OA
ATOM     20  H   UNL     1      28.258  23.551  32.494  1.00  0.00     0.293 HD
ENDBRANCH  15  19
BRANCH  16  21
ATOM     21  O   UNL     1      28.574  20.348  33.880  1.00  0.00    -0.504 OA
ATOM     22  H   UNL     1      27.670  19.890  33.836  1.00  0.00     0.293 HD
ENDBRANCH  16  21
ENDBRANCH   1  11
BRANCH  10  23
ATOM     23  O   UNL     1      31.939  19.279  28.492  1.00  0.00    -0.500 OA
ATOM     24  H   UNL     1      32.093  20.255  28.266  1.00  0.00     0.294 HD
ENDBRANCH  10  23
BRANCH   5  25
ATOM     25  O   UNL     1      35.940  15.217  33.758  1.00  0.00    -0.507 OA
ATOM     26  H   UNL     1      36.830  14.735  33.710  1.00  0.00     0.293 HD
ENDBRANCH   5  25
BRANCH   7  27
ATOM     27  O   UNL     1      35.842  15.826  28.980  1.00  0.00    -0.507 OA
ATOM     28  H   UNL     1      35.299  15.469  28.207  1.00  0.00     0.293 HD
ENDBRANCH   7  27
TORSDOF 7
ENDMDL
MODEL 8
REMARK VINA RESULT:    -3.973      3.497      4.939
REMARK INTER + INTRA:          -5.269
REMARK INTER:                  -4.927
REMARK INTRA:                  -0.342
REMARK UNBOUND:                -0.367
REMARK SMILES Oc1cc(O)c2cc(O)c(-c3cc(O)c(O)c(O)c3)[o+]c2c1
REMARK SMILES IDX 10 1 20 2 21 3 22 4 2 5 3 6 4 7 6 8 7 9 8 10 11 11 12 12
REMARK SMILES IDX 13 13 19 14 15 15 17 16 14 17 16 19 18 21 9 23 1 25 5 27
REMARK H PARENT 14 18 16 20 18 22 9 24 1 26 5 28
REMARK Flexibility Score: inf
ROOT
ATOM      1  C   UNL     1      30.653  19.216  30.134  1.00  0.00     0.402 A 
ATOM      2  O   UNL     1      31.762  18.802  29.527  1.00  0.00    -0.202 OA
ATOM      3  C   UNL     1      32.784  18.248  30.171  1.00  0.00     0.368 A 
ATOM      4  C   UNL     1      33.906  17.842  29.444  1.00  0.00     0.162 A 
ATOM      5  C   UNL     1      34.992  17.255  30.094  1.00  0.00     0.128 A 
ATOM      6  C   UNL     1      34.958  17.070  31.481  1.00  0.00     0.093 A 
ATOM      7  C   UNL     1      33.845  17.467  32.232  1.00  0.00     0.136 A 
ATOM      8  C   UNL     1      32.739  18.068  31.575  1.00  0.00     0.125 A 
ATOM      9  C   UNL     1      31.589  18.509  32.247  1.00  0.00     0.078 A 
ATOM     10  C   UNL     1      30.540  19.096  31.532  1.00  0.00     0.223 A 
ENDROOT
BRANCH   1  11
ATOM     11  C   UNL     1      29.580  19.809  29.305  1.00  0.00     0.091 A 
ATOM     12  C   UNL     1      29.392  21.200  29.238  1.00  0.00     0.068 A 
ATOM     13  C   UNL     1      28.355  21.743  28.466  1.00  0.00     0.162 A 
ATOM     14  C   UNL     1      28.693  18.967  28.617  1.00  0.00     0.068 A 
ATOM     15  C   UNL     1      27.486  20.892  27.762  1.00  0.00     0.200 A 
ATOM     16  C   UNL     1      27.656  19.504  27.842  1.00  0.00     0.162 A 
BRANCH  13  17
ATOM     17  O   UNL     1      28.181  23.125  28.401  1.00  0.00    -0.504 OA
ATOM     18  H   UNL     1      28.781  23.710  27.831  1.00  0.00     0.293 HD
ENDBRANCH  13  17
BRANCH  15  19
ATOM     19  O   UNL     1      26.450  21.408  26.983  1.00  0.00    -0.502 OA
ATOM     20  H   UNL     1      25.538  20.967  26.941  1.00  0.00     0.293 HD
ENDBRANCH  15  19
BRANCH  16  21
ATOM     21  O   UNL     1      26.787  18.662  27.149  1.00  0.00    -0.504 OA
ATOM     22  H   UNL     1      26.133  18.058  27.634  1.00  0.00     0.293 HD
ENDBRANCH  16  21
ENDBRANCH   1  11
BRANCH  10  23
ATOM     23  O   UNL     1      29.419  19.580  32.205  1.00  0.00    -0.500 OA
ATOM     24  H   UNL     1      28.693  20.101  31.726  1.00  0.00     0.294 HD
ENDBRANCH  10  23
BRANCH   5  25
ATOM     25  O   UNL     1      36.103  16.857  29.351  1.00  0.00    -0.507 OA
ATOM     26  H   UNL     1      36.524  15.944  29.478  1.00  0.00     0.293 HD
ENDBRANCH   5  25
BRANCH   7  27
ATOM     27  O   UNL     1      33.887  17.245  33.611  1.00  0.00    -0.507 OA
ATOM     28  H   UNL     1      33.923  17.977  34.305  1.00  0.00     0.293 HD
ENDBRANCH   7  27
TORSDOF 7
ENDMDL
MODEL 9
REMARK VINA RESULT:    -3.878      3.554      5.164
REMARK INTER + INTRA:          -5.151
REMARK INTER:                  -4.847
REMARK INTRA:                  -0.304
REMARK UNBOUND:                -0.367
REMARK SMILES Oc1cc(O)c2cc(O)c(-c3cc(O)c(O)c(O)c3)[o+]c2c1
REMARK SMILES IDX 10 1 20 2 21 3 22 4 2 5 3 6 4 7 6 8 7 9 8 10 11 11 12 12
REMARK SMILES IDX 13 13 19 14 15 15 17 16 14 17 16 19 18 21 9 23 1 25 5 27
REMARK H PARENT 14 18 16 20 18 22 9 24 1 26 5 28
REMARK Flexibility Score: inf
ROOT
ATOM      1  C   UNL     1      30.621  19.230  30.036  1.00  0.00     0.402 A 
ATOM      2  O   UNL     1      31.690  18.790  29.377  1.00  0.00    -0.202 OA
ATOM      3  C   UNL     1      32.749  18.259  29.977  1.00  0.00     0.368 A 
ATOM      4  C   UNL     1      33.824  17.821  29.197  1.00  0.00     0.162 A 
ATOM      5  C   UNL     1      34.948  17.257  29.800  1.00  0.00     0.128 A 
ATOM      6  C   UNL     1      35.001  17.126  31.192  1.00  0.00     0.093 A 
ATOM      7  C   UNL     1      33.938  17.556  31.996  1.00  0.00     0.136 A 
ATOM      8  C   UNL     1      32.793  18.133  31.387  1.00  0.00     0.125 A 
ATOM      9  C   UNL     1      31.688  18.604  32.112  1.00  0.00     0.078 A 
ATOM     10  C   UNL     1      30.597  19.166  31.442  1.00  0.00     0.223 A 
ENDROOT
BRANCH   1  11
ATOM     11  C   UNL     1      29.499  19.794  29.254  1.00  0.00     0.091 A 
ATOM     12  C   UNL     1      28.652  18.972  28.490  1.00  0.00     0.068 A 
ATOM     13  C   UNL     1      27.608  19.527  27.737  1.00  0.00     0.162 A 
ATOM     14  C   UNL     1      29.308  21.184  29.224  1.00  0.00     0.068 A 
ATOM     15  C   UNL     1      27.411  20.918  27.732  1.00  0.00     0.200 A 
ATOM     16  C   UNL     1      28.264  21.745  28.474  1.00  0.00     0.162 A 
BRANCH  13  17
ATOM     17  O   UNL     1      26.770  18.702  26.989  1.00  0.00    -0.504 OA
ATOM     18  H   UNL     1      25.763  18.724  27.100  1.00  0.00     0.293 HD
ENDBRANCH  13  17
BRANCH  15  19
ATOM     19  O   UNL     1      26.376  21.495  26.994  1.00  0.00    -0.502 OA
ATOM     20  H   UNL     1      26.527  21.887  26.073  1.00  0.00     0.293 HD
ENDBRANCH  15  19
BRANCH  16  21
ATOM     21  O   UNL     1      28.071  23.125  28.461  1.00  0.00    -0.504 OA
ATOM     22  H   UNL     1      27.706  23.618  29.268  1.00  0.00     0.293 HD
ENDBRANCH  16  21
ENDBRANCH   1  11
BRANCH  10  23
ATOM     23  O   UNL     1      29.520  19.679  32.165  1.00  0.00    -0.500 OA
ATOM     24  H   UNL     1      29.071  19.148  32.903  1.00  0.00     0.294 HD
ENDBRANCH  10  23
BRANCH   5  25
ATOM     25  O   UNL     1      36.010  16.827  29.006  1.00  0.00    -0.507 OA
ATOM     26  H   UNL     1      36.034  15.891  28.616  1.00  0.00     0.293 HD
ENDBRANCH   5  25
BRANCH   7  27
ATOM     27  O   UNL     1      34.066  17.387  33.378  1.00  0.00    -0.507 OA
ATOM     28  H   UNL     1      33.321  17.082  33.986  1.00  0.00     0.293 HD
ENDBRANCH   7  27
TORSDOF 7
ENDMDL
