MODEL 1
REMARK VINA RESULT:    -3.779      0.000      0.000
REMARK INTER + INTRA:          -4.758
REMARK INTER:                  -4.442
REMARK INTRA:                  -0.316
REMARK UNBOUND:                -0.316
REMARK SMILES COc1cc2ccc(=O)oc2c(OC)c1OC
REMARK SMILES IDX 3 1 15 2 12 3 11 4 5 5 4 6 6 7 7 8 8 9 9 10 10 11 2 12 1 13
REMARK SMILES IDX 16 14 17 15 13 16 14 17
REMARK H PARENT
REMARK Flexibility Score: inf
ROOT
ATOM      1  C   UNL     1      -4.583 -16.388  -6.001  1.00  0.00     0.165 A 
ATOM      2  C   UNL     1      -6.006 -16.370  -6.023  1.00  0.00     0.207 A 
ATOM      3  C   UNL     1      -6.698 -17.139  -7.001  1.00  0.00     0.208 A 
ATOM      4  C   UNL     1      -5.973 -17.901  -7.928  1.00  0.00     0.184 A 
ATOM      5  C   UNL     1      -4.568 -17.912  -7.899  1.00  0.00     0.025 A 
ATOM      6  C   UNL     1      -3.882 -17.163  -6.944  1.00  0.00     0.062 A 
ATOM      7  C   UNL     1      -3.883 -18.688  -8.843  1.00  0.00     0.020 A 
ATOM      8  C   UNL     1      -4.606 -19.422  -9.781  1.00  0.00     0.094 A 
ATOM      9  C   UNL     1      -6.002 -19.365  -9.752  1.00  0.00     0.336 A 
ATOM     10  O   UNL     1      -6.676 -20.020 -10.588  1.00  0.00    -0.246 OA
ATOM     11  O   UNL     1      -6.624 -18.619  -8.842  1.00  0.00    -0.419 OA
ENDROOT
BRANCH   1  12
ATOM     12  O   UNL     1      -3.887 -15.635  -5.042  1.00  0.00    -0.493 OA
ATOM     13  C   UNL     1      -3.320 -16.154  -3.842  1.00  0.00     0.278 C 
ENDBRANCH   1  12
BRANCH   2  14
ATOM     14  O   UNL     1      -6.766 -15.617  -5.108  1.00  0.00    -0.490 OA
ATOM     15  C   UNL     1      -7.161 -15.996  -3.794  1.00  0.00     0.278 C 
ENDBRANCH   2  14
BRANCH   3  16
ATOM     16  O   UNL     1      -8.102 -17.193  -7.112  1.00  0.00    -0.490 OA
ATOM     17  C   UNL     1      -8.986 -18.035  -6.381  1.00  0.00     0.278 C 
ENDBRANCH   3  16
TORSDOF 3
ENDMDL
MODEL 2
REMARK VINA RESULT:    -3.665      1.170      4.790
REMARK INTER + INTRA:          -4.624
REMARK INTER:                  -4.336
REMARK INTRA:                  -0.287
REMARK UNBOUND:                -0.316
REMARK SMILES COc1cc2ccc(=O)oc2c(OC)c1OC
REMARK SMILES IDX 3 1 15 2 12 3 11 4 5 5 4 6 6 7 7 8 8 9 9 10 10 11 2 12 1 13
REMARK SMILES IDX 16 14 17 15 13 16 14 17
REMARK H PARENT
REMARK Flexibility Score: inf
ROOT
ATOM      1  C   UNL     1      -4.613 -17.759  -7.928  1.00  0.00     0.165 A 
ATOM      2  C   UNL     1      -6.033 -17.666  -7.968  1.00  0.00     0.207 A 
ATOM      3  C   UNL     1      -6.716 -16.969  -6.932  1.00  0.00     0.208 A 
ATOM      4  C   UNL     1      -5.985 -16.385  -5.888  1.00  0.00     0.184 A 
ATOM      5  C   UNL     1      -4.584 -16.482  -5.855  1.00  0.00     0.025 A 
ATOM      6  C   UNL     1      -3.907 -17.162  -6.867  1.00  0.00     0.062 A 
ATOM      7  C   UNL     1      -3.894 -15.884  -4.794  1.00  0.00     0.020 A 
ATOM      8  C   UNL     1      -4.608 -15.214  -3.804  1.00  0.00     0.094 A 
ATOM      9  C   UNL     1      -6.001 -15.155  -3.898  1.00  0.00     0.336 A 
ATOM     10  O   UNL     1      -6.667 -14.555  -3.016  1.00  0.00    -0.246 OA
ATOM     11  O   UNL     1      -6.628 -15.733  -4.919  1.00  0.00    -0.419 OA
ENDROOT
BRANCH   1  12
ATOM     12  O   UNL     1      -3.926 -18.444  -8.944  1.00  0.00    -0.493 OA
ATOM     13  C   UNL     1      -3.681 -19.847  -8.969  1.00  0.00     0.278 C 
ENDBRANCH   1  12
BRANCH   2  14
ATOM     14  O   UNL     1      -6.799 -18.240  -9.001  1.00  0.00    -0.490 OA
ATOM     15  C   UNL     1      -7.349 -19.552  -9.044  1.00  0.00     0.278 C 
ENDBRANCH   2  14
BRANCH   3  16
ATOM     16  O   UNL     1      -8.116 -16.817  -6.875  1.00  0.00    -0.490 OA
ATOM     17  C   UNL     1      -9.054 -17.724  -6.306  1.00  0.00     0.278 C 
ENDBRANCH   3  16
TORSDOF 3
ENDMDL
MODEL 3
REMARK VINA RESULT:    -3.588      1.522      2.243
REMARK INTER + INTRA:          -4.533
REMARK INTER:                  -4.362
REMARK INTRA:                  -0.171
REMARK UNBOUND:                -0.316
REMARK SMILES COc1cc2ccc(=O)oc2c(OC)c1OC
REMARK SMILES IDX 3 1 15 2 12 3 11 4 5 5 4 6 6 7 7 8 8 9 9 10 10 11 2 12 1 13
REMARK SMILES IDX 16 14 17 15 13 16 14 17
REMARK H PARENT
REMARK Flexibility Score: inf
ROOT
ATOM      1  C   UNL     1      -4.685 -15.480  -4.013  1.00  0.00     0.165 A 
ATOM      2  C   UNL     1      -6.108 -15.468  -4.009  1.00  0.00     0.207 A 
ATOM      3  C   UNL     1      -6.813 -15.985  -5.132  1.00  0.00     0.208 A 
ATOM      4  C   UNL     1      -6.101 -16.499  -6.224  1.00  0.00     0.184 A 
ATOM      5  C   UNL     1      -4.696 -16.506  -6.220  1.00  0.00     0.025 A 
ATOM      6  C   UNL     1      -3.997 -16.003  -5.124  1.00  0.00     0.062 A 
ATOM      7  C   UNL     1      -4.025 -17.029  -7.332  1.00  0.00     0.020 A 
ATOM      8  C   UNL     1      -4.760 -17.523  -8.407  1.00  0.00     0.094 A 
ATOM      9  C   UNL     1      -6.155 -17.484  -8.345  1.00  0.00     0.336 A 
ATOM     10  O   UNL     1      -6.841 -17.924  -9.304  1.00  0.00    -0.246 OA
ATOM     11  O   UNL     1      -6.765 -16.982  -7.274  1.00  0.00    -0.419 OA
ENDROOT
BRANCH   1  12
ATOM     12  O   UNL     1      -3.976 -14.974  -2.911  1.00  0.00    -0.493 OA
ATOM     13  C   UNL     1      -2.677 -14.393  -2.968  1.00  0.00     0.278 C 
ENDBRANCH   1  12
BRANCH   2  14
ATOM     14  O   UNL     1      -6.856 -14.961  -2.929  1.00  0.00    -0.490 OA
ATOM     15  C   UNL     1      -7.630 -13.767  -2.898  1.00  0.00     0.278 C 
ENDBRANCH   2  14
BRANCH   3  16
ATOM     16  O   UNL     1      -8.219 -16.021  -5.231  1.00  0.00    -0.490 OA
ATOM     17  C   UNL     1      -9.091 -17.003  -4.684  1.00  0.00     0.278 C 
ENDBRANCH   3  16
TORSDOF 3
ENDMDL
MODEL 4
REMARK VINA RESULT:    -3.512      1.919      3.683
REMARK INTER + INTRA:          -4.443
REMARK INTER:                  -4.204
REMARK INTRA:                  -0.239
REMARK UNBOUND:                -0.316
REMARK SMILES COc1cc2ccc(=O)oc2c(OC)c1OC
REMARK SMILES IDX 3 1 15 2 12 3 11 4 5 5 4 6 6 7 7 8 8 9 9 10 10 11 2 12 1 13
REMARK SMILES IDX 16 14 17 15 13 16 14 17
REMARK H PARENT
REMARK Flexibility Score: inf
ROOT
ATOM      1  C   UNL     1      -5.997 -15.621  -4.419  1.00  0.00     0.165 A 
ATOM      2  C   UNL     1      -4.690 -16.115  -4.151  1.00  0.00     0.207 A 
ATOM      3  C   UNL     1      -4.077 -17.005  -5.077  1.00  0.00     0.208 A 
ATOM      4  C   UNL     1      -4.764 -17.383  -6.238  1.00  0.00     0.184 A 
ATOM      5  C   UNL     1      -6.056 -16.891  -6.495  1.00  0.00     0.025 A 
ATOM      6  C   UNL     1      -6.664 -16.019  -5.594  1.00  0.00     0.062 A 
ATOM      7  C   UNL     1      -6.707 -17.295  -7.667  1.00  0.00     0.020 A 
ATOM      8  C   UNL     1      -6.065 -18.168  -8.542  1.00  0.00     0.094 A 
ATOM      9  C   UNL     1      -4.780 -18.618  -8.224  1.00  0.00     0.336 A 
ATOM     10  O   UNL     1      -4.180 -19.407  -8.999  1.00  0.00    -0.246 OA
ATOM     11  O   UNL     1      -4.187 -18.217  -7.103  1.00  0.00    -0.419 OA
ENDROOT
BRANCH   1  12
ATOM     12  O   UNL     1      -6.615 -14.742  -3.514  1.00  0.00    -0.493 OA
ATOM     13  C   UNL     1      -7.925 -14.201  -3.659  1.00  0.00     0.278 C 
ENDBRANCH   1  12
BRANCH   2  14
ATOM     14  O   UNL     1      -3.969 -15.756  -2.995  1.00  0.00    -0.490 OA
ATOM     15  C   UNL     1      -2.974 -14.745  -2.876  1.00  0.00     0.278 C 
ENDBRANCH   2  14
BRANCH   3  16
ATOM     16  O   UNL     1      -2.788 -17.551  -4.909  1.00  0.00    -0.490 OA
ATOM     17  C   UNL     1      -2.428 -18.660  -4.093  1.00  0.00     0.278 C 
ENDBRANCH   3  16
TORSDOF 3
ENDMDL
MODEL 5
REMARK VINA RESULT:    -3.504      1.658      3.316
REMARK INTER + INTRA:          -4.435
REMARK INTER:                  -4.160
REMARK INTRA:                  -0.275
REMARK UNBOUND:                -0.316
REMARK SMILES COc1cc2ccc(=O)oc2c(OC)c1OC
REMARK SMILES IDX 3 1 15 2 12 3 11 4 5 5 4 6 6 7 7 8 8 9 9 10 10 11 2 12 1 13
REMARK SMILES IDX 16 14 17 15 13 16 14 17
REMARK H PARENT
REMARK Flexibility Score: inf
ROOT
ATOM      1  C   UNL     1      -7.489 -16.723  -6.238  1.00  0.00     0.165 A 
ATOM      2  C   UNL     1      -6.214 -16.475  -5.658  1.00  0.00     0.207 A 
ATOM      3  C   UNL     1      -5.050 -17.011  -6.277  1.00  0.00     0.208 A 
ATOM      4  C   UNL     1      -5.172 -17.774  -7.446  1.00  0.00     0.184 A 
ATOM      5  C   UNL     1      -6.436 -18.015  -8.012  1.00  0.00     0.025 A 
ATOM      6  C   UNL     1      -7.581 -17.493  -7.413  1.00  0.00     0.062 A 
ATOM      7  C   UNL     1      -6.512 -18.782  -9.181  1.00  0.00     0.020 A 
ATOM      8  C   UNL     1      -5.344 -19.286  -9.749  1.00  0.00     0.094 A 
ATOM      9  C   UNL     1      -4.121 -19.007  -9.133  1.00  0.00     0.336 A 
ATOM     10  O   UNL     1      -3.052 -19.451  -9.627  1.00  0.00    -0.246 OA
ATOM     11  O   UNL     1      -4.080 -18.275  -8.023  1.00  0.00    -0.419 OA
ENDROOT
BRANCH   1  12
ATOM     12  O   UNL     1      -8.647 -16.200  -5.639  1.00  0.00    -0.493 OA
ATOM     13  C   UNL     1      -9.125 -14.868  -5.799  1.00  0.00     0.278 C 
ENDBRANCH   1  12
BRANCH   2  14
ATOM     14  O   UNL     1      -6.053 -15.713  -4.485  1.00  0.00    -0.490 OA
ATOM     15  C   UNL     1      -6.213 -16.150  -3.140  1.00  0.00     0.278 C 
ENDBRANCH   2  14
BRANCH   3  16
ATOM     16  O   UNL     1      -3.741 -16.826  -5.787  1.00  0.00    -0.490 OA
ATOM     17  C   UNL     1      -3.111 -17.547  -4.734  1.00  0.00     0.278 C 
ENDBRANCH   3  16
TORSDOF 3
ENDMDL
MODEL 6
REMARK VINA RESULT:    -3.468      1.685      3.498
REMARK INTER + INTRA:          -4.393
REMARK INTER:                  -4.249
REMARK INTRA:                  -0.143
REMARK UNBOUND:                -0.316
REMARK SMILES COc1cc2ccc(=O)oc2c(OC)c1OC
REMARK SMILES IDX 3 1 15 2 12 3 11 4 5 5 4 6 6 7 7 8 8 9 9 10 10 11 2 12 1 13
REMARK SMILES IDX 16 14 17 15 13 16 14 17
REMARK H PARENT
REMARK Flexibility Score: inf
ROOT
ATOM      1  C   UNL     1      -6.409 -17.011  -6.686  1.00  0.00     0.165 A 
ATOM      2  C   UNL     1      -5.126 -17.464  -7.105  1.00  0.00     0.207 A 
ATOM      3  C   UNL     1      -5.006 -18.185  -8.327  1.00  0.00     0.208 A 
ATOM      4  C   UNL     1      -6.147 -18.439  -9.100  1.00  0.00     0.184 A 
ATOM      5  C   UNL     1      -7.410 -17.989  -8.679  1.00  0.00     0.025 A 
ATOM      6  C   UNL     1      -7.537 -17.281  -7.484  1.00  0.00     0.062 A 
ATOM      7  C   UNL     1      -8.523 -18.265  -9.481  1.00  0.00     0.020 A 
ATOM      8  C   UNL     1      -8.353 -18.974 -10.668  1.00  0.00     0.094 A 
ATOM      9  C   UNL     1      -7.069 -19.392 -11.027  1.00  0.00     0.336 A 
ATOM     10  O   UNL     1      -6.891 -20.035 -12.094  1.00  0.00    -0.246 OA
ATOM     11  O   UNL     1      -6.030 -19.115 -10.243  1.00  0.00    -0.419 OA
ENDROOT
BRANCH   1  12
ATOM     12  O   UNL     1      -6.543 -16.298  -5.484  1.00  0.00    -0.493 OA
ATOM     13  C   UNL     1      -7.686 -15.539  -5.101  1.00  0.00     0.278 C 
ENDBRANCH   1  12
BRANCH   2  14
ATOM     14  O   UNL     1      -3.958 -17.226  -6.355  1.00  0.00    -0.490 OA
ATOM     15  C   UNL     1      -3.464 -17.989  -5.260  1.00  0.00     0.278 C 
ENDBRANCH   2  14
BRANCH   3  16
ATOM     16  O   UNL     1      -3.786 -18.678  -8.834  1.00  0.00    -0.490 OA
ATOM     17  C   UNL     1      -3.313 -20.018  -8.773  1.00  0.00     0.278 C 
ENDBRANCH   3  16
TORSDOF 3
ENDMDL
MODEL 7
REMARK VINA RESULT:    -3.455      1.570      5.613
REMARK INTER + INTRA:          -4.376
REMARK INTER:                  -4.115
REMARK INTRA:                  -0.261
REMARK UNBOUND:                -0.316
REMARK SMILES COc1cc2ccc(=O)oc2c(OC)c1OC
REMARK SMILES IDX 3 1 15 2 12 3 11 4 5 5 4 6 6 7 7 8 8 9 9 10 10 11 2 12 1 13
REMARK SMILES IDX 16 14 17 15 13 16 14 17
REMARK H PARENT
REMARK Flexibility Score: inf
ROOT
ATOM      1  C   UNL     1      -6.795 -18.190  -8.621  1.00  0.00     0.165 A 
ATOM      2  C   UNL     1      -5.489 -18.119  -8.061  1.00  0.00     0.207 A 
ATOM      3  C   UNL     1      -5.275 -17.350  -6.883  1.00  0.00     0.208 A 
ATOM      4  C   UNL     1      -6.350 -16.673  -6.290  1.00  0.00     0.184 A 
ATOM      5  C   UNL     1      -7.637 -16.748  -6.849  1.00  0.00     0.025 A 
ATOM      6  C   UNL     1      -7.855 -17.500  -8.003  1.00  0.00     0.062 A 
ATOM      7  C   UNL     1      -8.682 -16.057  -6.224  1.00  0.00     0.020 A 
ATOM      8  C   UNL     1      -8.422 -15.317  -5.073  1.00  0.00     0.094 A 
ATOM      9  C   UNL     1      -7.119 -15.286  -4.570  1.00  0.00     0.336 A 
ATOM     10  O   UNL     1      -6.860 -14.625  -3.532  1.00  0.00    -0.246 OA
ATOM     11  O   UNL     1      -6.146 -15.954  -5.186  1.00  0.00    -0.419 OA
ENDROOT
BRANCH   1  12
ATOM     12  O   UNL     1      -7.021 -18.946  -9.783  1.00  0.00    -0.493 OA
ATOM     13  C   UNL     1      -7.541 -18.435 -11.007  1.00  0.00     0.278 C 
ENDBRANCH   1  12
BRANCH   2  14
ATOM     14  O   UNL     1      -4.386 -18.786  -8.630  1.00  0.00    -0.490 OA
ATOM     15  C   UNL     1      -3.968 -20.125  -8.390  1.00  0.00     0.278 C 
ENDBRANCH   2  14
BRANCH   3  16
ATOM     16  O   UNL     1      -4.024 -17.213  -6.247  1.00  0.00    -0.490 OA
ATOM     17  C   UNL     1      -3.482 -18.052  -5.234  1.00  0.00     0.278 C 
ENDBRANCH   3  16
TORSDOF 3
ENDMDL
MODEL 8
REMARK VINA RESULT:    -3.344     14.076     15.939
REMARK INTER + INTRA:          -4.247
REMARK INTER:                  -4.184
REMARK INTRA:                  -0.063
REMARK UNBOUND:                -0.316
REMARK SMILES COc1cc2ccc(=O)oc2c(OC)c1OC
REMARK SMILES IDX 3 1 15 2 12 3 11 4 5 5 4 6 6 7 7 8 8 9 9 10 10 11 2 12 1 13
REMARK SMILES IDX 16 14 17 15 13 16 14 17
REMARK H PARENT
REMARK Flexibility Score: inf
ROOT
ATOM      1  C   UNL     1      -5.789  -3.150  -4.115  1.00  0.00     0.165 A 
ATOM      2  C   UNL     1      -4.605  -2.636  -4.714  1.00  0.00     0.207 A 
ATOM      3  C   UNL     1      -4.705  -1.859  -5.902  1.00  0.00     0.208 A 
ATOM      4  C   UNL     1      -5.964  -1.608  -6.465  1.00  0.00     0.184 A 
ATOM      5  C   UNL     1      -7.128  -2.119  -5.868  1.00  0.00     0.025 A 
ATOM      6  C   UNL     1      -7.040  -2.881  -4.704  1.00  0.00     0.062 A 
ATOM      7  C   UNL     1      -8.365  -1.845  -6.464  1.00  0.00     0.020 A 
ATOM      8  C   UNL     1      -8.411  -1.079  -7.626  1.00  0.00     0.094 A 
ATOM      9  C   UNL     1      -7.214  -0.602  -8.167  1.00  0.00     0.336 A 
ATOM     10  O   UNL     1      -7.229   0.092  -9.217  1.00  0.00    -0.246 OA
ATOM     11  O   UNL     1      -6.053  -0.879  -7.578  1.00  0.00    -0.419 OA
ENDROOT
BRANCH   1  12
ATOM     12  O   UNL     1      -5.706  -3.919  -2.942  1.00  0.00    -0.493 OA
ATOM     13  C   UNL     1      -5.753  -5.341  -2.888  1.00  0.00     0.278 C 
ENDBRANCH   1  12
BRANCH   2  14
ATOM     14  O   UNL     1      -3.325  -2.867  -4.175  1.00  0.00    -0.490 OA
ATOM     15  C   UNL     1      -2.859  -2.523  -2.875  1.00  0.00     0.278 C 
ENDBRANCH   2  14
BRANCH   3  16
ATOM     16  O   UNL     1      -3.598  -1.303  -6.575  1.00  0.00    -0.490 OA
ATOM     17  C   UNL     1      -2.623  -2.001  -7.341  1.00  0.00     0.278 C 
ENDBRANCH   3  16
TORSDOF 3
ENDMDL
MODEL 9
REMARK VINA RESULT:    -3.293      1.462      4.833
REMARK INTER + INTRA:          -4.187
REMARK INTER:                  -3.882
REMARK INTRA:                  -0.305
REMARK UNBOUND:                -0.316
REMARK SMILES COc1cc2ccc(=O)oc2c(OC)c1OC
REMARK SMILES IDX 3 1 15 2 12 3 11 4 5 5 4 6 6 7 7 8 8 9 9 10 10 11 2 12 1 13
REMARK SMILES IDX 16 14 17 15 13 16 14 17
REMARK H PARENT
REMARK Flexibility Score: inf
ROOT
ATOM      1  C   UNL     1      -6.502 -17.827  -8.574  1.00  0.00     0.165 A 
ATOM      2  C   UNL     1      -7.630 -17.905  -7.710  1.00  0.00     0.207 A 
ATOM      3  C   UNL     1      -7.553 -17.329  -6.410  1.00  0.00     0.208 A 
ATOM      4  C   UNL     1      -6.373 -16.695  -5.999  1.00  0.00     0.184 A 
ATOM      5  C   UNL     1      -5.264 -16.623  -6.859  1.00  0.00     0.025 A 
ATOM      6  C   UNL     1      -5.331 -17.183  -8.134  1.00  0.00     0.062 A 
ATOM      7  C   UNL     1      -4.105 -15.980  -6.408  1.00  0.00     0.020 A 
ATOM      8  C   UNL     1      -4.079 -15.433  -5.127  1.00  0.00     0.094 A 
ATOM      9  C   UNL     1      -5.218 -15.540  -4.324  1.00  0.00     0.336 A 
ATOM     10  O   UNL     1      -5.218 -15.054  -3.164  1.00  0.00    -0.246 OA
ATOM     11  O   UNL     1      -6.305 -16.157  -4.781  1.00  0.00    -0.419 OA
ENDROOT
BRANCH   1  12
ATOM     12  O   UNL     1      -6.564 -18.390  -9.860  1.00  0.00    -0.493 OA
ATOM     13  C   UNL     1      -5.898 -19.582 -10.267  1.00  0.00     0.278 C 
ENDBRANCH   1  12
BRANCH   2  14
ATOM     14  O   UNL     1      -8.831 -18.533  -8.089  1.00  0.00    -0.490 OA
ATOM     15  C   UNL     1      -9.122 -19.927  -8.070  1.00  0.00     0.278 C 
ENDBRANCH   2  14
BRANCH   3  16
ATOM     16  O   UNL     1      -8.608 -17.350  -5.476  1.00  0.00    -0.490 OA
ATOM     17  C   UNL     1      -8.951 -18.413  -4.594  1.00  0.00     0.278 C 
ENDBRANCH   3  16
TORSDOF 3
ENDMDL
