MODEL 1
REMARK VINA RESULT:    -2.565      0.000      0.000
REMARK INTER + INTRA:          -3.965
REMARK INTER:                  -3.614
REMARK INTRA:                  -0.351
REMARK UNBOUND:                -0.351
REMARK SMILES CCCCCCCCC(=O)[O-]
REMARK SMILES IDX 6 1 7 2 8 3 9 4 10 5 11 6 5 7 4 8 3 9 2 10 1 11
REMARK H PARENT
REMARK Flexibility Score: inf
ROOT
ATOM      1  C   UNL     1       0.624  14.379  -4.436  1.00  0.00     0.000 C 
ENDROOT
BRANCH   1   2
ATOM      2  C   UNL     1       0.892  14.084  -5.917  1.00  0.00     0.006 C 
BRANCH   2   3
ATOM      3  C   UNL     1      -0.203  13.190  -6.506  1.00  0.00     0.053 C 
BRANCH   3   4
ATOM      4  C   UNL     1      -0.090  13.137  -7.997  1.00  0.00     0.041 C 
ATOM      5  O   UNL     1       1.036  13.234  -8.552  1.00  0.00    -0.550 OA
ATOM      6  O   UNL     1      -1.235  13.029  -8.777  1.00  0.00    -0.550 OA
ENDBRANCH   3   4
ENDBRANCH   2   3
ENDBRANCH   1   2
BRANCH   1   7
ATOM      7  C   UNL     1      -0.398  13.390  -3.856  1.00  0.00     0.000 C 
BRANCH   7   8
ATOM      8  C   UNL     1      -0.613  13.572  -2.343  1.00  0.00    -0.000 C 
BRANCH   8   9
ATOM      9  C   UNL     1      -2.086  13.696  -1.902  1.00  0.00    -0.000 C 
BRANCH   9  10
ATOM     10  C   UNL     1      -2.443  15.015  -1.195  1.00  0.00    -0.003 C 
ATOM     11  C   UNL     1      -1.606  16.197  -1.681  1.00  0.00     0.004 C 
ENDBRANCH   9  10
ENDBRANCH   8   9
ENDBRANCH   7   8
ENDBRANCH   1   7
TORSDOF 7
ENDMDL
MODEL 2
REMARK VINA RESULT:    -2.554      1.208      2.078
REMARK INTER + INTRA:          -3.950
REMARK INTER:                  -3.163
REMARK INTRA:                  -0.788
REMARK UNBOUND:                -0.351
REMARK SMILES CCCCCCCCC(=O)[O-]
REMARK SMILES IDX 6 1 7 2 8 3 9 4 10 5 11 6 5 7 4 8 3 9 2 10 1 11
REMARK H PARENT
REMARK Flexibility Score: inf
ROOT
ATOM      1  C   UNL     1       1.727  14.340  -4.009  1.00  0.00     0.000 C 
ENDROOT
BRANCH   1   2
ATOM      2  C   UNL     1       1.189  13.093  -4.722  1.00  0.00     0.006 C 
BRANCH   2   3
ATOM      3  C   UNL     1      -0.126  13.398  -5.444  1.00  0.00     0.053 C 
BRANCH   3   4
ATOM      4  C   UNL     1       0.061  13.322  -6.927  1.00  0.00     0.041 C 
ATOM      5  O   UNL     1      -0.887  12.949  -7.667  1.00  0.00    -0.550 OA
ATOM      6  O   UNL     1       1.297  13.617  -7.487  1.00  0.00    -0.550 OA
ENDBRANCH   3   4
ENDBRANCH   2   3
ENDBRANCH   1   2
BRANCH   1   7
ATOM      7  C   UNL     1       0.638  15.414  -3.885  1.00  0.00     0.000 C 
BRANCH   7   8
ATOM      8  C   UNL     1       0.275  15.733  -2.423  1.00  0.00    -0.000 C 
BRANCH   8   9
ATOM      9  C   UNL     1      -1.181  15.414  -2.027  1.00  0.00    -0.000 C 
BRANCH   9  10
ATOM     10  C   UNL     1      -1.545  13.919  -2.039  1.00  0.00    -0.003 C 
ATOM     11  C   UNL     1      -0.568  13.061  -1.236  1.00  0.00     0.004 C 
ENDBRANCH   9  10
ENDBRANCH   8   9
ENDBRANCH   7   8
ENDBRANCH   1   7
TORSDOF 7
ENDMDL
MODEL 3
REMARK VINA RESULT:    -2.475      1.566      2.476
REMARK INTER + INTRA:          -3.839
REMARK INTER:                  -3.091
REMARK INTRA:                  -0.748
REMARK UNBOUND:                -0.351
REMARK SMILES CCCCCCCCC(=O)[O-]
REMARK SMILES IDX 6 1 7 2 8 3 9 4 10 5 11 6 5 7 4 8 3 9 2 10 1 11
REMARK H PARENT
REMARK Flexibility Score: inf
ROOT
ATOM      1  C   UNL     1       0.218  13.313  -2.236  1.00  0.00     0.000 C 
ENDROOT
BRANCH   1   2
ATOM      2  C   UNL     1       0.701  13.066  -3.670  1.00  0.00     0.006 C 
BRANCH   2   3
ATOM      3  C   UNL     1      -0.426  13.310  -4.678  1.00  0.00     0.053 C 
BRANCH   3   4
ATOM      4  C   UNL     1       0.136  13.570  -6.040  1.00  0.00     0.041 C 
ATOM      5  O   UNL     1       1.273  14.098  -6.166  1.00  0.00    -0.550 OA
ATOM      6  O   UNL     1      -0.615  13.274  -7.171  1.00  0.00    -0.550 OA
ENDBRANCH   3   4
ENDBRANCH   2   3
ENDBRANCH   1   2
BRANCH   1   7
ATOM      7  C   UNL     1      -1.269  13.694  -2.215  1.00  0.00     0.000 C 
BRANCH   7   8
ATOM      8  C   UNL     1      -1.516  15.112  -1.666  1.00  0.00    -0.000 C 
BRANCH   8   9
ATOM      9  C   UNL     1      -0.245  15.957  -1.446  1.00  0.00    -0.000 C 
BRANCH   9  10
ATOM     10  C   UNL     1      -0.043  17.102  -2.453  1.00  0.00    -0.003 C 
ATOM     11  C   UNL     1       1.017  16.787  -3.508  1.00  0.00     0.004 C 
ENDBRANCH   9  10
ENDBRANCH   8   9
ENDBRANCH   7   8
ENDBRANCH   1   7
TORSDOF 7
ENDMDL
MODEL 4
REMARK VINA RESULT:    -2.471      1.818      3.183
REMARK INTER + INTRA:          -3.833
REMARK INTER:                  -3.155
REMARK INTRA:                  -0.678
REMARK UNBOUND:                -0.351
REMARK SMILES CCCCCCCCC(=O)[O-]
REMARK SMILES IDX 6 1 7 2 8 3 9 4 10 5 11 6 5 7 4 8 3 9 2 10 1 11
REMARK H PARENT
REMARK Flexibility Score: inf
ROOT
ATOM      1  C   UNL     1       0.427  14.955  -3.822  1.00  0.00     0.000 C 
ENDROOT
BRANCH   1   2
ATOM      2  C   UNL     1       0.839  14.551  -5.243  1.00  0.00     0.006 C 
BRANCH   2   3
ATOM      3  C   UNL     1       0.023  13.350  -5.731  1.00  0.00     0.053 C 
BRANCH   3   4
ATOM      4  C   UNL     1       0.039  13.278  -7.225  1.00  0.00     0.041 C 
ATOM      5  O   UNL     1      -0.993  12.926  -7.854  1.00  0.00    -0.550 OA
ATOM      6  O   UNL     1       1.210  13.553  -7.921  1.00  0.00    -0.550 OA
ENDBRANCH   3   4
ENDBRANCH   2   3
ENDBRANCH   1   2
BRANCH   1   7
ATOM      7  C   UNL     1      -0.252  13.786  -3.094  1.00  0.00     0.000 C 
BRANCH   7   8
ATOM      8  C   UNL     1       0.451  13.413  -1.777  1.00  0.00    -0.000 C 
BRANCH   8   9
ATOM      9  C   UNL     1       1.427  12.222  -1.871  1.00  0.00    -0.000 C 
BRANCH   9  10
ATOM     10  C   UNL     1       2.749  12.522  -2.598  1.00  0.00    -0.003 C 
ATOM     11  C   UNL     1       2.903  11.740  -3.902  1.00  0.00     0.004 C 
ENDBRANCH   9  10
ENDBRANCH   8   9
ENDBRANCH   7   8
ENDBRANCH   1   7
TORSDOF 7
ENDMDL
MODEL 5
REMARK VINA RESULT:    -2.451      1.959      3.204
REMARK INTER + INTRA:          -3.805
REMARK INTER:                  -3.138
REMARK INTRA:                  -0.667
REMARK UNBOUND:                -0.351
REMARK SMILES CCCCCCCCC(=O)[O-]
REMARK SMILES IDX 6 1 7 2 8 3 9 4 10 5 11 6 5 7 4 8 3 9 2 10 1 11
REMARK H PARENT
REMARK Flexibility Score: inf
ROOT
ATOM      1  C   UNL     1      -0.483  14.723  -2.162  1.00  0.00     0.000 C 
ENDROOT
BRANCH   1   2
ATOM      2  C   UNL     1       0.102  14.600  -3.574  1.00  0.00     0.006 C 
BRANCH   2   3
ATOM      3  C   UNL     1      -0.467  13.378  -4.300  1.00  0.00     0.053 C 
BRANCH   3   4
ATOM      4  C   UNL     1       0.171  13.224  -5.644  1.00  0.00     0.041 C 
ATOM      5  O   UNL     1      -0.502  13.413  -6.692  1.00  0.00    -0.550 OA
ATOM      6  O   UNL     1       1.497  12.822  -5.742  1.00  0.00    -0.550 OA
ENDBRANCH   3   4
ENDBRANCH   2   3
ENDBRANCH   1   2
BRANCH   1   7
ATOM      7  C   UNL     1      -1.724  13.833  -2.003  1.00  0.00     0.000 C 
BRANCH   7   8
ATOM      8  C   UNL     1      -1.662  12.937  -0.752  1.00  0.00    -0.000 C 
BRANCH   8   9
ATOM      9  C   UNL     1      -0.274  12.840  -0.086  1.00  0.00    -0.000 C 
BRANCH   9  10
ATOM     10  C   UNL     1       0.554  11.607  -0.487  1.00  0.00    -0.003 C 
ATOM     11  C   UNL     1       1.686  11.940  -1.459  1.00  0.00     0.004 C 
ENDBRANCH   9  10
ENDBRANCH   8   9
ENDBRANCH   7   8
ENDBRANCH   1   7
TORSDOF 7
ENDMDL
MODEL 6
REMARK VINA RESULT:    -2.434      1.128      2.143
REMARK INTER + INTRA:          -3.781
REMARK INTER:                  -3.286
REMARK INTRA:                  -0.495
REMARK UNBOUND:                -0.351
REMARK SMILES CCCCCCCCC(=O)[O-]
REMARK SMILES IDX 6 1 7 2 8 3 9 4 10 5 11 6 5 7 4 8 3 9 2 10 1 11
REMARK H PARENT
REMARK Flexibility Score: inf
ROOT
ATOM      1  C   UNL     1       0.012  13.509  -2.623  1.00  0.00     0.000 C 
ENDROOT
BRANCH   1   2
ATOM      2  C   UNL     1      -0.554  13.284  -4.031  1.00  0.00     0.006 C 
BRANCH   2   3
ATOM      3  C   UNL     1       0.320  13.963  -5.089  1.00  0.00     0.053 C 
BRANCH   3   4
ATOM      4  C   UNL     1       0.299  13.183  -6.366  1.00  0.00     0.041 C 
ATOM      5  O   UNL     1      -0.682  13.277  -7.150  1.00  0.00    -0.550 OA
ATOM      6  O   UNL     1       1.341  12.314  -6.666  1.00  0.00    -0.550 OA
ENDBRANCH   3   4
ENDBRANCH   2   3
ENDBRANCH   1   2
BRANCH   1   7
ATOM      7  C   UNL     1      -1.051  13.224  -1.553  1.00  0.00     0.000 C 
BRANCH   7   8
ATOM      8  C   UNL     1      -2.316  14.085  -1.721  1.00  0.00    -0.000 C 
BRANCH   8   9
ATOM      9  C   UNL     1      -2.378  15.338  -0.824  1.00  0.00    -0.000 C 
BRANCH   9  10
ATOM     10  C   UNL     1      -2.242  16.677  -1.569  1.00  0.00    -0.003 C 
ATOM     11  C   UNL     1      -0.794  17.022  -1.914  1.00  0.00     0.004 C 
ENDBRANCH   9  10
ENDBRANCH   8   9
ENDBRANCH   7   8
ENDBRANCH   1   7
TORSDOF 7
ENDMDL
MODEL 7
REMARK VINA RESULT:    -2.415      1.551      2.222
REMARK INTER + INTRA:          -3.754
REMARK INTER:                  -3.326
REMARK INTRA:                  -0.427
REMARK UNBOUND:                -0.351
REMARK SMILES CCCCCCCCC(=O)[O-]
REMARK SMILES IDX 6 1 7 2 8 3 9 4 10 5 11 6 5 7 4 8 3 9 2 10 1 11
REMARK H PARENT
REMARK Flexibility Score: inf
ROOT
ATOM      1  C   UNL     1       1.239  13.050  -6.040  1.00  0.00     0.000 C 
ENDROOT
BRANCH   1   2
ATOM      2  C   UNL     1      -0.202  13.203  -6.541  1.00  0.00     0.006 C 
BRANCH   2   3
ATOM      3  C   UNL     1      -0.448  12.339  -7.781  1.00  0.00     0.053 C 
BRANCH   3   4
ATOM      4  C   UNL     1      -0.574  13.197  -9.000  1.00  0.00     0.041 C 
ATOM      5  O   UNL     1      -1.665  13.252  -9.626  1.00  0.00    -0.550 OA
ATOM      6  O   UNL     1       0.528  13.897  -9.474  1.00  0.00    -0.550 OA
ENDBRANCH   3   4
ENDBRANCH   2   3
ENDBRANCH   1   2
BRANCH   1   7
ATOM      7  C   UNL     1       1.303  13.155  -4.510  1.00  0.00     0.000 C 
BRANCH   7   8
ATOM      8  C   UNL     1      -0.089  13.244  -3.858  1.00  0.00    -0.000 C 
BRANCH   8   9
ATOM      9  C   UNL     1      -0.363  14.545  -3.078  1.00  0.00    -0.000 C 
BRANCH   9  10
ATOM     10  C   UNL     1       0.497  15.749  -3.498  1.00  0.00    -0.003 C 
ATOM     11  C   UNL     1       0.349  16.945  -2.559  1.00  0.00     0.004 C 
ENDBRANCH   9  10
ENDBRANCH   8   9
ENDBRANCH   7   8
ENDBRANCH   1   7
TORSDOF 7
ENDMDL
MODEL 8
REMARK VINA RESULT:    -2.386      4.892      6.376
REMARK INTER + INTRA:          -3.713
REMARK INTER:                  -3.117
REMARK INTRA:                  -0.595
REMARK UNBOUND:                -0.351
REMARK SMILES CCCCCCCCC(=O)[O-]
REMARK SMILES IDX 6 1 7 2 8 3 9 4 10 5 11 6 5 7 4 8 3 9 2 10 1 11
REMARK H PARENT
REMARK Flexibility Score: inf
ROOT
ATOM      1  C   UNL     1      -0.219  12.770  -0.007  1.00  0.00     0.000 C 
ENDROOT
BRANCH   1   2
ATOM      2  C   UNL     1       0.638  11.593  -0.491  1.00  0.00     0.006 C 
BRANCH   2   3
ATOM      3  C   UNL     1       0.812  10.550   0.616  1.00  0.00     0.053 C 
BRANCH   3   4
ATOM      4  C   UNL     1       0.023   9.318   0.303  1.00  0.00     0.041 C 
ATOM      5  O   UNL     1      -1.185   9.233   0.649  1.00  0.00    -0.550 OA
ATOM      6  O   UNL     1       0.635   8.242  -0.328  1.00  0.00    -0.550 OA
ENDBRANCH   3   4
ENDBRANCH   2   3
ENDBRANCH   1   2
BRANCH   1   7
ATOM      7  C   UNL     1      -1.656  12.657  -0.536  1.00  0.00     0.000 C 
BRANCH   7   8
ATOM      8  C   UNL     1      -1.897  13.502  -1.799  1.00  0.00    -0.000 C 
BRANCH   8   9
ATOM      9  C   UNL     1      -0.930  14.689  -1.986  1.00  0.00    -0.000 C 
BRANCH   9  10
ATOM     10  C   UNL     1      -0.099  14.653  -3.280  1.00  0.00    -0.003 C 
ATOM     11  C   UNL     1      -0.245  13.338  -4.046  1.00  0.00     0.004 C 
ENDBRANCH   9  10
ENDBRANCH   8   9
ENDBRANCH   7   8
ENDBRANCH   1   7
TORSDOF 7
ENDMDL
MODEL 9
REMARK VINA RESULT:    -2.337      3.857      5.672
REMARK INTER + INTRA:          -3.643
REMARK INTER:                  -2.931
REMARK INTRA:                  -0.713
REMARK UNBOUND:                -0.351
REMARK SMILES CCCCCCCCC(=O)[O-]
REMARK SMILES IDX 6 1 7 2 8 3 9 4 10 5 11 6 5 7 4 8 3 9 2 10 1 11
REMARK H PARENT
REMARK Flexibility Score: inf
ROOT
ATOM      1  C   UNL     1      -1.579  12.501  -0.333  1.00  0.00     0.000 C 
ENDROOT
BRANCH   1   2
ATOM      2  C   UNL     1      -0.519  12.052   0.680  1.00  0.00     0.006 C 
BRANCH   2   3
ATOM      3  C   UNL     1       0.891  12.384   0.182  1.00  0.00     0.053 C 
BRANCH   3   4
ATOM      4  C   UNL     1       1.353  11.358  -0.804  1.00  0.00     0.041 C 
ATOM      5  O   UNL     1       1.740  11.709  -1.950  1.00  0.00    -0.550 OA
ATOM      6  O   UNL     1       1.310  10.009  -0.475  1.00  0.00    -0.550 OA
ENDBRANCH   3   4
ENDBRANCH   2   3
ENDBRANCH   1   2
BRANCH   1   7
ATOM      7  C   UNL     1      -1.519  14.019  -0.556  1.00  0.00     0.000 C 
BRANCH   7   8
ATOM      8  C   UNL     1      -1.465  14.403  -2.046  1.00  0.00    -0.000 C 
BRANCH   8   9
ATOM      9  C   UNL     1      -1.395  13.214  -3.025  1.00  0.00    -0.000 C 
BRANCH   9  10
ATOM     10  C   UNL     1      -0.402  13.386  -4.187  1.00  0.00    -0.003 C 
ATOM     11  C   UNL     1       0.589  14.528  -3.960  1.00  0.00     0.004 C 
ENDBRANCH   9  10
ENDBRANCH   8   9
ENDBRANCH   7   8
ENDBRANCH   1   7
TORSDOF 7
ENDMDL
