MODEL 1
REMARK VINA RESULT:    -2.658      0.000      0.000
REMARK INTER + INTRA:          -6.367
REMARK INTER:                  -5.765
REMARK INTRA:                  -0.602
REMARK UNBOUND:                -0.602
REMARK SMILES CCCCCCCCCCCCCCCCCCCCCC(=O)[O-]
REMARK SMILES IDX 12 1 11 2 10 3 9 4 8 5 7 6 6 7 5 8 4 9 3 10 2 11 1 12 13 13
REMARK SMILES IDX 14 14 15 15 16 16 17 17 18 18 19 19 20 20 21 21 22 22 23 23
REMARK SMILES IDX 24 24
REMARK H PARENT
REMARK Flexibility Score: inf
ROOT
ATOM      1  C   UNL     1      -2.463 -22.244  16.166  1.00  0.00     0.000 C 
ENDROOT
BRANCH   1   2
ATOM      2  C   UNL     1      -3.749 -23.056  16.381  1.00  0.00     0.000 C 
BRANCH   2   3
ATOM      3  C   UNL     1      -4.966 -22.130  16.523  1.00  0.00     0.000 C 
BRANCH   3   4
ATOM      4  C   UNL     1      -6.223 -22.878  16.999  1.00  0.00    -0.000 C 
BRANCH   4   5
ATOM      5  C   UNL     1      -6.442 -22.755  18.517  1.00  0.00    -0.000 C 
BRANCH   5   6
ATOM      6  C   UNL     1      -7.926 -22.827  18.909  1.00  0.00    -0.000 C 
BRANCH   6   7
ATOM      7  C   UNL     1      -8.744 -21.643  18.368  1.00  0.00    -0.000 C 
BRANCH   7   8
ATOM      8  C   UNL     1      -9.821 -21.159  19.356  1.00  0.00    -0.000 C 
BRANCH   8   9
ATOM      9  C   UNL     1     -10.320 -19.723  19.113  1.00  0.00    -0.000 C 
BRANCH   9  10
ATOM     10  C   UNL     1     -10.812 -19.039  20.397  1.00  0.00    -0.000 C 
BRANCH  10  11
ATOM     11  C   UNL     1      -9.750 -18.076  20.945  1.00  0.00    -0.003 C 
ATOM     12  C   UNL     1      -9.551 -18.270  22.444  1.00  0.00     0.004 C 
ENDBRANCH  10  11
ENDBRANCH   9  10
ENDBRANCH   8   9
ENDBRANCH   7   8
ENDBRANCH   6   7
ENDBRANCH   5   6
ENDBRANCH   4   5
ENDBRANCH   3   4
ENDBRANCH   2   3
ENDBRANCH   1   2
BRANCH   1  13
ATOM     13  C   UNL     1      -1.294 -23.100  15.652  1.00  0.00     0.000 C 
BRANCH  13  14
ATOM     14  C   UNL     1       0.081 -22.403  15.656  1.00  0.00     0.000 C 
BRANCH  14  15
ATOM     15  C   UNL     1       1.156 -23.124  14.814  1.00  0.00     0.000 C 
BRANCH  15  16
ATOM     16  C   UNL     1       2.555 -22.499  14.970  1.00  0.00     0.000 C 
BRANCH  16  17
ATOM     17  C   UNL     1       3.481 -22.797  13.777  1.00  0.00     0.000 C 
BRANCH  17  18
ATOM     18  C   UNL     1       4.978 -22.885  14.153  1.00  0.00     0.000 C 
BRANCH  18  19
ATOM     19  C   UNL     1       5.921 -22.373  13.050  1.00  0.00     0.000 C 
BRANCH  19  20
ATOM     20  C   UNL     1       7.404 -22.740  13.297  1.00  0.00     0.006 C 
BRANCH  20  21
ATOM     21  C   UNL     1       8.376 -21.855  12.503  1.00  0.00     0.053 C 
BRANCH  21  22
ATOM     22  C   UNL     1       8.141 -20.399  12.767  1.00  0.00     0.041 C 
ATOM     23  O   UNL     1       8.419 -19.908  13.893  1.00  0.00    -0.550 OA
ATOM     24  O   UNL     1       7.634 -19.580  11.766  1.00  0.00    -0.550 OA
ENDBRANCH  21  22
ENDBRANCH  20  21
ENDBRANCH  19  20
ENDBRANCH  18  19
ENDBRANCH  17  18
ENDBRANCH  16  17
ENDBRANCH  15  16
ENDBRANCH  14  15
ENDBRANCH  13  14
ENDBRANCH   1  13
TORSDOF 20
ENDMDL
MODEL 2
REMARK VINA RESULT:    -2.300      5.978     14.441
REMARK INTER + INTRA:          -5.592
REMARK INTER:                  -4.553
REMARK INTRA:                  -1.039
REMARK UNBOUND:                -0.602
REMARK SMILES CCCCCCCCCCCCCCCCCCCCCC(=O)[O-]
REMARK SMILES IDX 12 1 11 2 10 3 9 4 8 5 7 6 6 7 5 8 4 9 3 10 2 11 1 12 13 13
REMARK SMILES IDX 14 14 15 15 16 16 17 17 18 18 19 19 20 20 21 21 22 22 23 23
REMARK SMILES IDX 24 24
REMARK H PARENT
REMARK Flexibility Score: inf
ROOT
ATOM      1  C   UNL     1      -1.314 -22.118  16.021  1.00  0.00     0.000 C 
ENDROOT
BRANCH   1   2
ATOM      2  C   UNL     1      -0.058 -22.871  15.557  1.00  0.00     0.000 C 
BRANCH   2   3
ATOM      3  C   UNL     1       1.183 -21.970  15.635  1.00  0.00     0.000 C 
BRANCH   3   4
ATOM      4  C   UNL     1       2.416 -22.607  14.972  1.00  0.00    -0.000 C 
BRANCH   4   5
ATOM      5  C   UNL     1       3.550 -22.876  15.975  1.00  0.00    -0.000 C 
BRANCH   5   6
ATOM      6  C   UNL     1       4.098 -21.588  16.609  1.00  0.00    -0.000 C 
BRANCH   6   7
ATOM      7  C   UNL     1       5.396 -21.819  17.401  1.00  0.00    -0.000 C 
BRANCH   7   8
ATOM      8  C   UNL     1       6.628 -21.188  16.727  1.00  0.00    -0.000 C 
BRANCH   8   9
ATOM      9  C   UNL     1       7.851 -22.116  16.619  1.00  0.00    -0.000 C 
BRANCH   9  10
ATOM     10  C   UNL     1       8.213 -22.458  15.167  1.00  0.00    -0.000 C 
BRANCH  10  11
ATOM     11  C   UNL     1       7.216 -21.822  14.190  1.00  0.00    -0.003 C 
ATOM     12  C   UNL     1       6.341 -22.881  13.528  1.00  0.00     0.004 C 
ENDBRANCH  10  11
ENDBRANCH   9  10
ENDBRANCH   8   9
ENDBRANCH   7   8
ENDBRANCH   6   7
ENDBRANCH   5   6
ENDBRANCH   4   5
ENDBRANCH   3   4
ENDBRANCH   2   3
ENDBRANCH   1   2
BRANCH   1  13
ATOM     13  C   UNL     1      -2.600 -22.947  15.866  1.00  0.00     0.000 C 
BRANCH  13  14
ATOM     14  C   UNL     1      -3.912 -22.167  16.077  1.00  0.00     0.000 C 
BRANCH  14  15
ATOM     15  C   UNL     1      -4.976 -22.931  16.894  1.00  0.00     0.000 C 
BRANCH  15  16
ATOM     16  C   UNL     1      -6.231 -22.086  17.181  1.00  0.00     0.000 C 
BRANCH  16  17
ATOM     17  C   UNL     1      -7.524 -22.920  17.200  1.00  0.00     0.000 C 
BRANCH  17  18
ATOM     18  C   UNL     1      -8.809 -22.079  17.382  1.00  0.00     0.000 C 
BRANCH  18  19
ATOM     19  C   UNL     1      -8.873 -21.335  18.728  1.00  0.00     0.000 C 
BRANCH  19  20
ATOM     20  C   UNL     1     -10.307 -20.900  19.116  1.00  0.00     0.006 C 
BRANCH  20  21
ATOM     21  C   UNL     1     -10.448 -19.378  19.262  1.00  0.00     0.053 C 
BRANCH  21  22
ATOM     22  C   UNL     1     -10.166 -18.927  20.663  1.00  0.00     0.041 C 
ATOM     23  O   UNL     1     -10.007 -17.703  20.914  1.00  0.00    -0.550 OA
ATOM     24  O   UNL     1     -10.099 -19.855  21.694  1.00  0.00    -0.550 OA
ENDBRANCH  21  22
ENDBRANCH  20  21
ENDBRANCH  19  20
ENDBRANCH  18  19
ENDBRANCH  17  18
ENDBRANCH  16  17
ENDBRANCH  15  16
ENDBRANCH  14  15
ENDBRANCH  13  14
ENDBRANCH   1  13
TORSDOF 20
ENDMDL
MODEL 3
REMARK VINA RESULT:    -2.186      1.820      2.280
REMARK INTER + INTRA:          -5.342
REMARK INTER:                  -4.393
REMARK INTRA:                  -0.949
REMARK UNBOUND:                -0.602
REMARK SMILES CCCCCCCCCCCCCCCCCCCCCC(=O)[O-]
REMARK SMILES IDX 12 1 11 2 10 3 9 4 8 5 7 6 6 7 5 8 4 9 3 10 2 11 1 12 13 13
REMARK SMILES IDX 14 14 15 15 16 16 17 17 18 18 19 19 20 20 21 21 22 22 23 23
REMARK SMILES IDX 24 24
REMARK H PARENT
REMARK Flexibility Score: inf
ROOT
ATOM      1  C   UNL     1      -3.516 -21.999  16.000  1.00  0.00     0.000 C 
ENDROOT
BRANCH   1   2
ATOM      2  C   UNL     1      -4.616 -22.884  16.606  1.00  0.00     0.000 C 
BRANCH   2   3
ATOM      3  C   UNL     1      -6.010 -22.370  16.216  1.00  0.00     0.000 C 
BRANCH   3   4
ATOM      4  C   UNL     1      -7.140 -23.125  16.938  1.00  0.00    -0.000 C 
BRANCH   4   5
ATOM      5  C   UNL     1      -7.017 -23.042  18.469  1.00  0.00    -0.000 C 
BRANCH   5   6
ATOM      6  C   UNL     1      -8.245 -22.392  19.127  1.00  0.00    -0.000 C 
BRANCH   6   7
ATOM      7  C   UNL     1      -9.098 -21.587  18.132  1.00  0.00    -0.000 C 
BRANCH   7   8
ATOM      8  C   UNL     1     -10.395 -21.045  18.759  1.00  0.00    -0.000 C 
BRANCH   8   9
ATOM      9  C   UNL     1     -10.211 -20.347  20.119  1.00  0.00    -0.000 C 
BRANCH   9  10
ATOM     10  C   UNL     1     -10.179 -18.817  20.004  1.00  0.00    -0.000 C 
BRANCH  10  11
ATOM     11  C   UNL     1      -9.973 -18.168  21.379  1.00  0.00    -0.003 C 
ATOM     12  C   UNL     1      -9.702 -19.220  22.450  1.00  0.00     0.004 C 
ENDBRANCH  10  11
ENDBRANCH   9  10
ENDBRANCH   8   9
ENDBRANCH   7   8
ENDBRANCH   6   7
ENDBRANCH   5   6
ENDBRANCH   4   5
ENDBRANCH   3   4
ENDBRANCH   2   3
ENDBRANCH   1   2
BRANCH   1  13
ATOM     13  C   UNL     1      -2.140 -22.686  15.982  1.00  0.00     0.000 C 
BRANCH  13  14
ATOM     14  C   UNL     1      -0.931 -21.731  15.989  1.00  0.00     0.000 C 
BRANCH  14  15
ATOM     15  C   UNL     1       0.438 -22.446  16.000  1.00  0.00     0.000 C 
BRANCH  15  16
ATOM     16  C   UNL     1       0.979 -22.724  14.585  1.00  0.00     0.000 C 
BRANCH  16  17
ATOM     17  C   UNL     1       2.516 -22.716  14.518  1.00  0.00     0.000 C 
BRANCH  17  18
ATOM     18  C   UNL     1       3.203 -22.832  15.899  1.00  0.00     0.000 C 
BRANCH  18  19
ATOM     19  C   UNL     1       4.088 -21.622  16.249  1.00  0.00     0.000 C 
BRANCH  19  20
ATOM     20  C   UNL     1       5.203 -21.958  17.270  1.00  0.00     0.006 C 
BRANCH  20  21
ATOM     21  C   UNL     1       6.497 -21.171  17.017  1.00  0.00     0.053 C 
BRANCH  21  22
ATOM     22  C   UNL     1       7.385 -21.868  16.031  1.00  0.00     0.041 C 
ATOM     23  O   UNL     1       8.072 -22.861  16.390  1.00  0.00    -0.550 OA
ATOM     24  O   UNL     1       7.439 -21.435  14.713  1.00  0.00    -0.550 OA
ENDBRANCH  21  22
ENDBRANCH  20  21
ENDBRANCH  19  20
ENDBRANCH  18  19
ENDBRANCH  17  18
ENDBRANCH  16  17
ENDBRANCH  15  16
ENDBRANCH  14  15
ENDBRANCH  13  14
ENDBRANCH   1  13
TORSDOF 20
ENDMDL
MODEL 4
REMARK VINA RESULT:    -2.184      5.784     14.522
REMARK INTER + INTRA:          -5.340
REMARK INTER:                  -4.361
REMARK INTRA:                  -0.979
REMARK UNBOUND:                -0.602
REMARK SMILES CCCCCCCCCCCCCCCCCCCCCC(=O)[O-]
REMARK SMILES IDX 12 1 11 2 10 3 9 4 8 5 7 6 6 7 5 8 4 9 3 10 2 11 1 12 13 13
REMARK SMILES IDX 14 14 15 15 16 16 17 17 18 18 19 19 20 20 21 21 22 22 23 23
REMARK SMILES IDX 24 24
REMARK H PARENT
REMARK Flexibility Score: inf
ROOT
ATOM      1  C   UNL     1       1.735 -22.358  15.326  1.00  0.00     0.000 C 
ENDROOT
BRANCH   1   2
ATOM      2  C   UNL     1       2.841 -23.122  14.582  1.00  0.00     0.000 C 
BRANCH   2   3
ATOM      3  C   UNL     1       4.146 -22.311  14.555  1.00  0.00     0.000 C 
BRANCH   3   4
ATOM      4  C   UNL     1       5.143 -22.764  15.636  1.00  0.00    -0.000 C 
BRANCH   4   5
ATOM      5  C   UNL     1       5.370 -21.690  16.713  1.00  0.00    -0.000 C 
BRANCH   5   6
ATOM      6  C   UNL     1       6.845 -21.274  16.833  1.00  0.00    -0.000 C 
BRANCH   6   7
ATOM      7  C   UNL     1       7.816 -22.409  16.466  1.00  0.00    -0.000 C 
BRANCH   7   8
ATOM      8  C   UNL     1       8.978 -21.937  15.574  1.00  0.00    -0.000 C 
BRANCH   8   9
ATOM      9  C   UNL     1       8.772 -22.177  14.067  1.00  0.00    -0.000 C 
BRANCH   9  10
ATOM     10  C   UNL     1       7.811 -21.163  13.429  1.00  0.00    -0.000 C 
BRANCH  10  11
ATOM     11  C   UNL     1       8.583 -19.988  12.815  1.00  0.00    -0.003 C 
ATOM     12  C   UNL     1       7.890 -19.469  11.559  1.00  0.00     0.004 C 
ENDBRANCH  10  11
ENDBRANCH   9  10
ENDBRANCH   8   9
ENDBRANCH   7   8
ENDBRANCH   6   7
ENDBRANCH   5   6
ENDBRANCH   4   5
ENDBRANCH   3   4
ENDBRANCH   2   3
ENDBRANCH   1   2
BRANCH   1  13
ATOM     13  C   UNL     1       0.402 -23.124  15.365  1.00  0.00     0.000 C 
BRANCH  13  14
ATOM     14  C   UNL     1      -0.818 -22.293  15.809  1.00  0.00     0.000 C 
BRANCH  14  15
ATOM     15  C   UNL     1      -2.138 -23.092  15.862  1.00  0.00     0.000 C 
BRANCH  15  16
ATOM     16  C   UNL     1      -3.380 -22.187  15.971  1.00  0.00     0.000 C 
BRANCH  16  17
ATOM     17  C   UNL     1      -4.571 -22.883  16.653  1.00  0.00     0.000 C 
BRANCH  17  18
ATOM     18  C   UNL     1      -5.873 -22.049  16.644  1.00  0.00     0.000 C 
BRANCH  18  19
ATOM     19  C   UNL     1      -7.147 -22.895  16.812  1.00  0.00     0.000 C 
BRANCH  19  20
ATOM     20  C   UNL     1      -8.057 -22.405  17.965  1.00  0.00     0.006 C 
BRANCH  20  21
ATOM     21  C   UNL     1      -9.330 -21.708  17.463  1.00  0.00     0.053 C 
BRANCH  21  22
ATOM     22  C   UNL     1      -9.937 -20.836  18.521  1.00  0.00     0.041 C 
ATOM     23  O   UNL     1      -9.694 -21.056  19.737  1.00  0.00    -0.550 OA
ATOM     24  O   UNL     1     -10.752 -19.771  18.164  1.00  0.00    -0.550 OA
ENDBRANCH  21  22
ENDBRANCH  20  21
ENDBRANCH  19  20
ENDBRANCH  18  19
ENDBRANCH  17  18
ENDBRANCH  16  17
ENDBRANCH  15  16
ENDBRANCH  14  15
ENDBRANCH  13  14
ENDBRANCH   1  13
TORSDOF 20
ENDMDL
MODEL 5
REMARK VINA RESULT:    -2.178      5.940     14.559
REMARK INTER + INTRA:          -5.325
REMARK INTER:                  -4.518
REMARK INTRA:                  -0.807
REMARK UNBOUND:                -0.602
REMARK SMILES CCCCCCCCCCCCCCCCCCCCCC(=O)[O-]
REMARK SMILES IDX 12 1 11 2 10 3 9 4 8 5 7 6 6 7 5 8 4 9 3 10 2 11 1 12 13 13
REMARK SMILES IDX 14 14 15 15 16 16 17 17 18 18 19 19 20 20 21 21 22 22 23 23
REMARK SMILES IDX 24 24
REMARK H PARENT
REMARK Flexibility Score: inf
ROOT
ATOM      1  C   UNL     1      -4.699 -22.144  16.748  1.00  0.00     0.000 C 
ENDROOT
BRANCH   1   2
ATOM      2  C   UNL     1      -3.612 -21.958  15.678  1.00  0.00     0.000 C 
BRANCH   2   3
ATOM      3  C   UNL     1      -2.390 -22.839  15.978  1.00  0.00     0.000 C 
BRANCH   3   4
ATOM      4  C   UNL     1      -1.062 -22.140  15.639  1.00  0.00    -0.000 C 
BRANCH   4   5
ATOM      5  C   UNL     1       0.117 -23.125  15.557  1.00  0.00    -0.000 C 
BRANCH   5   6
ATOM      6  C   UNL     1       1.209 -22.660  14.581  1.00  0.00    -0.000 C 
BRANCH   6   7
ATOM      7  C   UNL     1       2.625 -23.041  15.046  1.00  0.00    -0.000 C 
BRANCH   7   8
ATOM      8  C   UNL     1       3.686 -22.847  13.948  1.00  0.00    -0.000 C 
BRANCH   8   9
ATOM      9  C   UNL     1       5.115 -22.606  14.468  1.00  0.00    -0.000 C 
BRANCH   9  10
ATOM     10  C   UNL     1       6.195 -23.069  13.479  1.00  0.00    -0.000 C 
BRANCH  10  11
ATOM     11  C   UNL     1       6.747 -21.882  12.678  1.00  0.00    -0.003 C 
ATOM     12  C   UNL     1       8.113 -21.450  13.203  1.00  0.00     0.004 C 
ENDBRANCH  10  11
ENDBRANCH   9  10
ENDBRANCH   8   9
ENDBRANCH   7   8
ENDBRANCH   6   7
ENDBRANCH   5   6
ENDBRANCH   4   5
ENDBRANCH   3   4
ENDBRANCH   2   3
ENDBRANCH   1   2
BRANCH   1  13
ATOM     13  C   UNL     1      -6.121 -22.141  16.162  1.00  0.00     0.000 C 
BRANCH  13  14
ATOM     14  C   UNL     1      -7.148 -22.993  16.932  1.00  0.00     0.000 C 
BRANCH  14  15
ATOM     15  C   UNL     1      -7.100 -22.807  18.464  1.00  0.00     0.000 C 
BRANCH  15  16
ATOM     16  C   UNL     1      -8.479 -22.485  19.071  1.00  0.00     0.000 C 
BRANCH  16  17
ATOM     17  C   UNL     1      -9.164 -21.283  18.399  1.00  0.00     0.000 C 
BRANCH  17  18
ATOM     18  C   UNL     1     -10.448 -20.810  19.119  1.00  0.00     0.000 C 
BRANCH  18  19
ATOM     19  C   UNL     1     -10.219 -19.615  20.063  1.00  0.00     0.000 C 
BRANCH  19  20
ATOM     20  C   UNL     1     -10.731 -19.869  21.502  1.00  0.00     0.006 C 
BRANCH  20  21
ATOM     21  C   UNL     1      -9.592 -20.082  22.510  1.00  0.00     0.053 C 
BRANCH  21  22
ATOM     22  C   UNL     1      -9.501 -21.512  22.948  1.00  0.00     0.041 C 
ATOM     23  O   UNL     1     -10.340 -21.978  23.764  1.00  0.00    -0.550 OA
ATOM     24  O   UNL     1      -8.505 -22.336  22.441  1.00  0.00    -0.550 OA
ENDBRANCH  21  22
ENDBRANCH  20  21
ENDBRANCH  19  20
ENDBRANCH  18  19
ENDBRANCH  17  18
ENDBRANCH  16  17
ENDBRANCH  15  16
ENDBRANCH  14  15
ENDBRANCH  13  14
ENDBRANCH   1  13
TORSDOF 20
ENDMDL
MODEL 6
REMARK VINA RESULT:    -2.012      5.783     14.884
REMARK INTER + INTRA:          -4.966
REMARK INTER:                  -4.111
REMARK INTRA:                  -0.855
REMARK UNBOUND:                -0.602
REMARK SMILES CCCCCCCCCCCCCCCCCCCCCC(=O)[O-]
REMARK SMILES IDX 12 1 11 2 10 3 9 4 8 5 7 6 6 7 5 8 4 9 3 10 2 11 1 12 13 13
REMARK SMILES IDX 14 14 15 15 16 16 17 17 18 18 19 19 20 20 21 21 22 22 23 23
REMARK SMILES IDX 24 24
REMARK H PARENT
REMARK Flexibility Score: inf
ROOT
ATOM      1  C   UNL     1       0.948 -22.745  15.139  1.00  0.00     0.000 C 
ENDROOT
BRANCH   1   2
ATOM      2  C   UNL     1       2.407 -22.264  15.175  1.00  0.00     0.000 C 
BRANCH   2   3
ATOM      3  C   UNL     1       3.275 -23.070  14.197  1.00  0.00     0.000 C 
BRANCH   3   4
ATOM      4  C   UNL     1       4.780 -22.841  14.419  1.00  0.00    -0.000 C 
BRANCH   4   5
ATOM      5  C   UNL     1       5.584 -22.906  13.109  1.00  0.00    -0.000 C 
BRANCH   5   6
ATOM      6  C   UNL     1       7.086 -23.125  13.347  1.00  0.00    -0.000 C 
BRANCH   6   7
ATOM      7  C   UNL     1       7.963 -22.110  12.596  1.00  0.00    -0.000 C 
BRANCH   7   8
ATOM      8  C   UNL     1       7.278 -20.743  12.418  1.00  0.00    -0.000 C 
BRANCH   8   9
ATOM      9  C   UNL     1       8.010 -19.773  11.474  1.00  0.00    -0.000 C 
BRANCH   9  10
ATOM     10  C   UNL     1       8.822 -20.495  10.389  1.00  0.00    -0.000 C 
BRANCH  10  11
ATOM     11  C   UNL     1       7.927 -20.891   9.207  1.00  0.00    -0.003 C 
ATOM     12  C   UNL     1       7.929 -22.401   8.994  1.00  0.00     0.004 C 
ENDBRANCH  10  11
ENDBRANCH   9  10
ENDBRANCH   8   9
ENDBRANCH   7   8
ENDBRANCH   6   7
ENDBRANCH   5   6
ENDBRANCH   4   5
ENDBRANCH   3   4
ENDBRANCH   2   3
ENDBRANCH   1   2
BRANCH   1  13
ATOM     13  C   UNL     1       0.039 -21.970  16.107  1.00  0.00     0.000 C 
BRANCH  13  14
ATOM     14  C   UNL     1      -1.417 -21.788  15.636  1.00  0.00     0.000 C 
BRANCH  14  15
ATOM     15  C   UNL     1      -2.257 -23.083  15.671  1.00  0.00     0.000 C 
BRANCH  15  16
ATOM     16  C   UNL     1      -3.368 -23.047  16.737  1.00  0.00     0.000 C 
BRANCH  16  17
ATOM     17  C   UNL     1      -4.656 -22.370  16.238  1.00  0.00     0.000 C 
BRANCH  17  18
ATOM     18  C   UNL     1      -5.806 -22.374  17.271  1.00  0.00     0.000 C 
BRANCH  18  19
ATOM     19  C   UNL     1      -7.072 -23.100  16.780  1.00  0.00     0.000 C 
BRANCH  19  20
ATOM     20  C   UNL     1      -8.383 -22.402  17.218  1.00  0.00     0.006 C 
BRANCH  20  21
ATOM     21  C   UNL     1      -8.253 -21.686  18.570  1.00  0.00     0.053 C 
BRANCH  21  22
ATOM     22  C   UNL     1      -9.589 -21.269  19.106  1.00  0.00     0.041 C 
ATOM     23  O   UNL     1     -10.443 -20.748  18.340  1.00  0.00    -0.550 OA
ATOM     24  O   UNL     1      -9.899 -21.473  20.444  1.00  0.00    -0.550 OA
ENDBRANCH  21  22
ENDBRANCH  20  21
ENDBRANCH  19  20
ENDBRANCH  18  19
ENDBRANCH  17  18
ENDBRANCH  16  17
ENDBRANCH  15  16
ENDBRANCH  14  15
ENDBRANCH  13  14
ENDBRANCH   1  13
TORSDOF 20
ENDMDL
MODEL 7
REMARK VINA RESULT:     0.119      2.893      5.756
REMARK INTER + INTRA:          -0.344
REMARK INTER:                   0.424
REMARK INTRA:                  -0.769
REMARK UNBOUND:                -0.602
REMARK SMILES CCCCCCCCCCCCCCCCCCCCCC(=O)[O-]
REMARK SMILES IDX 12 1 11 2 10 3 9 4 8 5 7 6 6 7 5 8 4 9 3 10 2 11 1 12 13 13
REMARK SMILES IDX 14 14 15 15 16 16 17 17 18 18 19 19 20 20 21 21 22 22 23 23
REMARK SMILES IDX 24 24
REMARK H PARENT
REMARK Flexibility Score: inf
ROOT
ATOM      1  C   UNL     1      -8.774 -21.788  16.324  1.00  0.00     0.000 C 
ENDROOT
BRANCH   1   2
ATOM      2  C   UNL     1      -9.342 -20.650  15.462  1.00  0.00     0.000 C 
BRANCH   2   3
ATOM      3  C   UNL     1     -10.573 -20.017  16.129  1.00  0.00     0.000 C 
BRANCH   3   4
ATOM      4  C   UNL     1     -11.101 -20.856  17.305  1.00  0.00    -0.000 C 
BRANCH   4   5
ATOM      5  C   UNL     1     -10.312 -20.612  18.603  1.00  0.00    -0.000 C 
BRANCH   5   6
ATOM      6  C   UNL     1     -11.125 -19.840  19.654  1.00  0.00    -0.000 C 
BRANCH   6   7
ATOM      7  C   UNL     1     -10.845 -18.328  19.631  1.00  0.00    -0.000 C 
BRANCH   7   8
ATOM      8  C   UNL     1     -10.194 -17.822  20.931  1.00  0.00    -0.000 C 
BRANCH   8   9
ATOM      9  C   UNL     1     -10.517 -18.658  22.182  1.00  0.00    -0.000 C 
BRANCH   9  10
ATOM     10  C   UNL     1      -9.292 -19.405  22.731  1.00  0.00    -0.000 C 
BRANCH  10  11
ATOM     11  C   UNL     1      -9.514 -20.923  22.692  1.00  0.00    -0.003 C 
ATOM     12  C   UNL     1     -10.883 -21.295  23.251  1.00  0.00     0.004 C 
ENDBRANCH  10  11
ENDBRANCH   9  10
ENDBRANCH   8   9
ENDBRANCH   7   8
ENDBRANCH   6   7
ENDBRANCH   5   6
ENDBRANCH   4   5
ENDBRANCH   3   4
ENDBRANCH   2   3
ENDBRANCH   1   2
BRANCH   1  13
ATOM     13  C   UNL     1      -7.246 -21.915  16.215  1.00  0.00     0.000 C 
BRANCH  13  14
ATOM     14  C   UNL     1      -6.539 -22.428  17.485  1.00  0.00     0.000 C 
BRANCH  14  15
ATOM     15  C   UNL     1      -5.166 -23.084  17.221  1.00  0.00     0.000 C 
BRANCH  15  16
ATOM     16  C   UNL     1      -4.316 -22.302  16.202  1.00  0.00     0.000 C 
BRANCH  16  17
ATOM     17  C   UNL     1      -2.887 -22.857  16.062  1.00  0.00     0.000 C 
BRANCH  17  18
ATOM     18  C   UNL     1      -1.880 -21.849  15.463  1.00  0.00     0.000 C 
BRANCH  18  19
ATOM     19  C   UNL     1      -0.455 -21.993  16.027  1.00  0.00     0.000 C 
BRANCH  19  20
ATOM     20  C   UNL     1       0.387 -23.063  15.290  1.00  0.00     0.006 C 
BRANCH  20  21
ATOM     21  C   UNL     1       1.899 -22.830  15.429  1.00  0.00     0.053 C 
BRANCH  21  22
ATOM     22  C   UNL     1       2.578 -22.793  14.093  1.00  0.00     0.041 C 
ATOM     23  O   UNL     1       3.814 -23.016  14.006  1.00  0.00    -0.550 OA
ATOM     24  O   UNL     1       1.843 -22.534  12.944  1.00  0.00    -0.550 OA
ENDBRANCH  21  22
ENDBRANCH  20  21
ENDBRANCH  19  20
ENDBRANCH  18  19
ENDBRANCH  17  18
ENDBRANCH  16  17
ENDBRANCH  15  16
ENDBRANCH  14  15
ENDBRANCH  13  14
ENDBRANCH   1  13
TORSDOF 20
ENDMDL
