MODEL 1
REMARK VINA RESULT:    -2.893      0.000      0.000
REMARK INTER + INTRA:          -4.367
REMARK INTER:                  -3.908
REMARK INTRA:                  -0.459
REMARK UNBOUND:                -0.459
REMARK SMILES CCCCCCCC=O
REMARK SMILES IDX 5 1 4 2 3 3 2 4 1 5 6 6 7 7 8 8 9 9
REMARK H PARENT
REMARK Flexibility Score: inf
ROOT
ATOM      1  C   UNL     1      11.088  -5.407  -1.495  1.00  0.00     0.000 C 
ENDROOT
BRANCH   1   2
ATOM      2  C   UNL     1       9.699  -5.372  -0.847  1.00  0.00     0.000 C 
BRANCH   2   3
ATOM      3  C   UNL     1       8.698  -4.621  -1.731  1.00  0.00    -0.000 C 
BRANCH   3   4
ATOM      4  C   UNL     1       9.067  -4.751  -3.213  1.00  0.00    -0.003 C 
ATOM      5  C   UNL     1       9.138  -3.384  -3.887  1.00  0.00     0.004 C 
ENDBRANCH   3   4
ENDBRANCH   2   3
ENDBRANCH   1   2
BRANCH   1   6
ATOM      6  C   UNL     1      11.966  -4.260  -0.980  1.00  0.00     0.008 C 
BRANCH   6   7
ATOM      7  C   UNL     1      13.228  -4.108  -1.835  1.00  0.00     0.072 C 
BRANCH   7   8
ATOM      8  C   UNL     1      12.893  -4.129  -3.296  1.00  0.00     0.224 C 
ATOM      9  O   UNL     1      12.738  -3.086  -3.911  1.00  0.00    -0.303 OA
ENDBRANCH   7   8
ENDBRANCH   6   7
ENDBRANCH   1   6
TORSDOF 6
ENDMDL
MODEL 2
REMARK VINA RESULT:    -2.718      2.029      4.407
REMARK INTER + INTRA:          -4.131
REMARK INTER:                  -3.866
REMARK INTRA:                  -0.265
REMARK UNBOUND:                -0.459
REMARK SMILES CCCCCCCC=O
REMARK SMILES IDX 5 1 4 2 3 3 2 4 1 5 6 6 7 7 8 8 9 9
REMARK H PARENT
REMARK Flexibility Score: inf
ROOT
ATOM      1  C   UNL     1      12.547  -4.476  -0.757  1.00  0.00     0.000 C 
ENDROOT
BRANCH   1   2
ATOM      2  C   UNL     1      13.369  -5.742  -0.491  1.00  0.00     0.000 C 
BRANCH   2   3
ATOM      3  C   UNL     1      14.871  -5.438  -0.512  1.00  0.00    -0.000 C 
BRANCH   3   4
ATOM      4  C   UNL     1      15.390  -5.324  -1.950  1.00  0.00    -0.003 C 
ATOM      5  C   UNL     1      16.898  -5.547  -2.013  1.00  0.00     0.004 C 
ENDBRANCH   3   4
ENDBRANCH   2   3
ENDBRANCH   1   2
BRANCH   1   6
ATOM      6  C   UNL     1      11.234  -4.812  -1.474  1.00  0.00     0.008 C 
BRANCH   6   7
ATOM      7  C   UNL     1      11.106  -4.025  -2.783  1.00  0.00     0.072 C 
BRANCH   7   8
ATOM      8  C   UNL     1      12.357  -4.136  -3.601  1.00  0.00     0.224 C 
ATOM      9  O   UNL     1      12.925  -3.133  -4.003  1.00  0.00    -0.303 OA
ENDBRANCH   7   8
ENDBRANCH   6   7
ENDBRANCH   1   6
TORSDOF 6
ENDMDL
MODEL 3
REMARK VINA RESULT:    -2.667      1.457      1.680
REMARK INTER + INTRA:          -4.063
REMARK INTER:                  -3.862
REMARK INTRA:                  -0.201
REMARK UNBOUND:                -0.459
REMARK SMILES CCCCCCCC=O
REMARK SMILES IDX 5 1 4 2 3 3 2 4 1 5 6 6 7 7 8 8 9 9
REMARK H PARENT
REMARK Flexibility Score: inf
ROOT
ATOM      1  C   UNL     1      10.640  -4.434  -1.350  1.00  0.00     0.000 C 
ENDROOT
BRANCH   1   2
ATOM      2  C   UNL     1       9.952  -5.786  -1.133  1.00  0.00     0.000 C 
BRANCH   2   3
ATOM      3  C   UNL     1       8.788  -5.659  -0.143  1.00  0.00    -0.000 C 
BRANCH   3   4
ATOM      4  C   UNL     1       7.504  -5.222  -0.857  1.00  0.00    -0.003 C 
ATOM      5  C   UNL     1       7.413  -5.832  -2.252  1.00  0.00     0.004 C 
ENDBRANCH   3   4
ENDBRANCH   2   3
ENDBRANCH   1   2
BRANCH   1   6
ATOM      6  C   UNL     1      12.060  -4.439  -0.770  1.00  0.00     0.008 C 
BRANCH   6   7
ATOM      7  C   UNL     1      13.069  -3.883  -1.781  1.00  0.00     0.072 C 
BRANCH   7   8
ATOM      8  C   UNL     1      12.500  -3.893  -3.168  1.00  0.00     0.224 C 
ATOM      9  O   UNL     1      12.939  -3.139  -4.022  1.00  0.00    -0.303 OA
ENDBRANCH   7   8
ENDBRANCH   6   7
ENDBRANCH   1   6
TORSDOF 6
ENDMDL
MODEL 4
REMARK VINA RESULT:    -2.630      1.206      1.686
REMARK INTER + INTRA:          -4.013
REMARK INTER:                  -3.722
REMARK INTRA:                  -0.291
REMARK UNBOUND:                -0.459
REMARK SMILES CCCCCCCC=O
REMARK SMILES IDX 5 1 4 2 3 3 2 4 1 5 6 6 7 7 8 8 9 9
REMARK H PARENT
REMARK Flexibility Score: inf
ROOT
ATOM      1  C   UNL     1       9.997  -4.900  -1.139  1.00  0.00     0.000 C 
ENDROOT
BRANCH   1   2
ATOM      2  C   UNL     1       9.383  -4.835  -2.542  1.00  0.00     0.000 C 
BRANCH   2   3
ATOM      3  C   UNL     1       8.910  -3.415  -2.871  1.00  0.00    -0.000 C 
BRANCH   3   4
ATOM      4  C   UNL     1       7.420  -3.402  -3.233  1.00  0.00    -0.003 C 
ATOM      5  C   UNL     1       6.548  -3.373  -1.983  1.00  0.00     0.004 C 
ENDBRANCH   3   4
ENDBRANCH   2   3
ENDBRANCH   1   2
BRANCH   1   6
ATOM      6  C   UNL     1      11.497  -5.210  -1.207  1.00  0.00     0.008 C 
BRANCH   6   7
ATOM      7  C   UNL     1      12.319  -3.924  -1.340  1.00  0.00     0.072 C 
BRANCH   7   8
ATOM      8  C   UNL     1      13.168  -3.954  -2.575  1.00  0.00     0.224 C 
ATOM      9  O   UNL     1      12.874  -3.275  -3.546  1.00  0.00    -0.303 OA
ENDBRANCH   7   8
ENDBRANCH   6   7
ENDBRANCH   1   6
TORSDOF 6
ENDMDL
MODEL 5
REMARK VINA RESULT:    -2.519      1.396      3.586
REMARK INTER + INTRA:          -3.862
REMARK INTER:                  -3.404
REMARK INTRA:                  -0.458
REMARK UNBOUND:                -0.459
REMARK SMILES CCCCCCCC=O
REMARK SMILES IDX 5 1 4 2 3 3 2 4 1 5 6 6 7 7 8 8 9 9
REMARK H PARENT
REMARK Flexibility Score: inf
ROOT
ATOM      1  C   UNL     1       9.988  -5.032  -1.025  1.00  0.00     0.000 C 
ENDROOT
BRANCH   1   2
ATOM      2  C   UNL     1      11.503  -5.259  -0.982  1.00  0.00     0.000 C 
BRANCH   2   3
ATOM      3  C   UNL     1      12.262  -3.935  -1.134  1.00  0.00    -0.000 C 
BRANCH   3   4
ATOM      4  C   UNL     1      13.257  -4.002  -2.299  1.00  0.00    -0.003 C 
ATOM      5  C   UNL     1      12.538  -3.933  -3.643  1.00  0.00     0.004 C 
ENDBRANCH   3   4
ENDBRANCH   2   3
ENDBRANCH   1   2
BRANCH   1   6
ATOM      6  C   UNL     1       9.383  -5.591  -2.319  1.00  0.00     0.008 C 
BRANCH   6   7
ATOM      7  C   UNL     1       8.279  -4.671  -2.852  1.00  0.00     0.072 C 
BRANCH   7   8
ATOM      8  C   UNL     1       8.827  -3.321  -3.202  1.00  0.00     0.224 C 
ATOM      9  O   UNL     1       9.135  -3.057  -4.353  1.00  0.00    -0.303 OA
ENDBRANCH   7   8
ENDBRANCH   6   7
ENDBRANCH   1   6
TORSDOF 6
ENDMDL
MODEL 6
REMARK VINA RESULT:    -2.487      9.325     11.213
REMARK INTER + INTRA:          -3.818
REMARK INTER:                  -3.355
REMARK INTRA:                  -0.463
REMARK UNBOUND:                -0.459
REMARK SMILES CCCCCCCC=O
REMARK SMILES IDX 5 1 4 2 3 3 2 4 1 5 6 6 7 7 8 8 9 9
REMARK H PARENT
REMARK Flexibility Score: inf
ROOT
ATOM      1  C   UNL     1       8.045   4.601  -7.387  1.00  0.00     0.000 C 
ENDROOT
BRANCH   1   2
ATOM      2  C   UNL     1       8.258   5.835  -8.272  1.00  0.00     0.000 C 
BRANCH   2   3
ATOM      3  C   UNL     1       9.523   6.597  -7.860  1.00  0.00    -0.000 C 
BRANCH   3   4
ATOM      4  C   UNL     1      10.437   6.839  -9.066  1.00  0.00    -0.003 C 
ATOM      5  C   UNL     1       9.958   6.060 -10.287  1.00  0.00     0.004 C 
ENDBRANCH   3   4
ENDBRANCH   2   3
ENDBRANCH   1   2
BRANCH   1   6
ATOM      6  C   UNL     1       9.382   4.059  -6.867  1.00  0.00     0.008 C 
BRANCH   6   7
ATOM      7  C   UNL     1       9.851   2.860  -7.698  1.00  0.00     0.072 C 
BRANCH   7   8
ATOM      8  C   UNL     1       8.684   2.121  -8.280  1.00  0.00     0.224 C 
ATOM      9  O   UNL     1       8.745   0.916  -8.468  1.00  0.00    -0.303 OA
ENDBRANCH   7   8
ENDBRANCH   6   7
ENDBRANCH   1   6
TORSDOF 6
ENDMDL
MODEL 7
REMARK VINA RESULT:    -2.474     11.331     13.065
REMARK INTER + INTRA:          -3.801
REMARK INTER:                  -3.609
REMARK INTRA:                  -0.192
REMARK UNBOUND:                -0.459
REMARK SMILES CCCCCCCC=O
REMARK SMILES IDX 5 1 4 2 3 3 2 4 1 5 6 6 7 7 8 8 9 9
REMARK H PARENT
REMARK Flexibility Score: inf
ROOT
ATOM      1  C   UNL     1      16.578   1.107   7.723  1.00  0.00     0.000 C 
ENDROOT
BRANCH   1   2
ATOM      2  C   UNL     1      16.168   2.573   7.542  1.00  0.00     0.000 C 
BRANCH   2   3
ATOM      3  C   UNL     1      17.380   3.503   7.672  1.00  0.00    -0.000 C 
BRANCH   3   4
ATOM      4  C   UNL     1      18.657   2.706   7.960  1.00  0.00    -0.003 C 
ATOM      5  C   UNL     1      19.891   3.431   7.431  1.00  0.00     0.004 C 
ENDBRANCH   3   4
ENDBRANCH   2   3
ENDBRANCH   1   2
BRANCH   1   6
ATOM      6  C   UNL     1      15.724   0.184   6.845  1.00  0.00     0.008 C 
BRANCH   6   7
ATOM      7  C   UNL     1      15.412  -1.130   7.570  1.00  0.00     0.072 C 
BRANCH   7   8
ATOM      8  C   UNL     1      15.563  -2.301   6.647  1.00  0.00     0.224 C 
ATOM      9  O   UNL     1      14.581  -2.820   6.139  1.00  0.00    -0.303 OA
ENDBRANCH   7   8
ENDBRANCH   6   7
ENDBRANCH   1   6
TORSDOF 6
ENDMDL
MODEL 8
REMARK VINA RESULT:    -2.383      2.216      2.799
REMARK INTER + INTRA:          -3.678
REMARK INTER:                  -3.423
REMARK INTRA:                  -0.255
REMARK UNBOUND:                -0.459
REMARK SMILES CCCCCCCC=O
REMARK SMILES IDX 5 1 4 2 3 3 2 4 1 5 6 6 7 7 8 8 9 9
REMARK H PARENT
REMARK Flexibility Score: inf
ROOT
ATOM      1  C   UNL     1       9.278  -4.996  -1.491  1.00  0.00     0.000 C 
ENDROOT
BRANCH   1   2
ATOM      2  C   UNL     1       9.409  -3.851  -2.502  1.00  0.00     0.000 C 
BRANCH   2   3
ATOM      3  C   UNL     1       8.127  -3.012  -2.552  1.00  0.00    -0.000 C 
BRANCH   3   4
ATOM      4  C   UNL     1       6.972  -3.730  -1.846  1.00  0.00    -0.003 C 
ATOM      5  C   UNL     1       5.640  -3.441  -2.532  1.00  0.00     0.004 C 
ENDBRANCH   3   4
ENDBRANCH   2   3
ENDBRANCH   1   2
BRANCH   1   6
ATOM      6  C   UNL     1      10.657  -5.478  -1.022  1.00  0.00     0.008 C 
BRANCH   6   7
ATOM      7  C   UNL     1      11.652  -4.315  -0.952  1.00  0.00     0.072 C 
BRANCH   7   8
ATOM      8  C   UNL     1      12.991  -4.782  -0.470  1.00  0.00     0.224 C 
ATOM      9  O   UNL     1      13.475  -4.325   0.554  1.00  0.00    -0.303 OA
ENDBRANCH   7   8
ENDBRANCH   6   7
ENDBRANCH   1   6
TORSDOF 6
ENDMDL
MODEL 9
REMARK VINA RESULT:    -2.348     10.541     12.355
REMARK INTER + INTRA:          -3.631
REMARK INTER:                  -3.181
REMARK INTRA:                  -0.450
REMARK UNBOUND:                -0.459
REMARK SMILES CCCCCCCC=O
REMARK SMILES IDX 5 1 4 2 3 3 2 4 1 5 6 6 7 7 8 8 9 9
REMARK H PARENT
REMARK Flexibility Score: inf
ROOT
ATOM      1  C   UNL     1       9.677   5.969 -10.314  1.00  0.00     0.000 C 
ENDROOT
BRANCH   1   2
ATOM      2  C   UNL     1       8.547   5.128  -9.709  1.00  0.00     0.000 C 
BRANCH   2   3
ATOM      3  C   UNL     1       8.969   3.662  -9.563  1.00  0.00    -0.000 C 
BRANCH   3   4
ATOM      4  C   UNL     1       8.668   3.141  -8.153  1.00  0.00    -0.003 C 
ATOM      5  C   UNL     1       9.895   3.241  -7.253  1.00  0.00     0.004 C 
ENDBRANCH   3   4
ENDBRANCH   2   3
ENDBRANCH   1   2
BRANCH   1   6
ATOM      6  C   UNL     1      10.574   6.557  -9.217  1.00  0.00     0.008 C 
BRANCH   6   7
ATOM      7  C   UNL     1       9.746   6.987  -8.001  1.00  0.00     0.072 C 
BRANCH   7   8
ATOM      8  C   UNL     1      10.011   8.420  -7.651  1.00  0.00     0.224 C 
ATOM      9  O   UNL     1       9.827   8.823  -6.513  1.00  0.00    -0.303 OA
ENDBRANCH   7   8
ENDBRANCH   6   7
ENDBRANCH   1   6
TORSDOF 6
ENDMDL
