MODEL 1
REMARK VINA RESULT:    -3.972      0.000      0.000
REMARK INTER + INTRA:          -8.378
REMARK INTER:                  -6.875
REMARK INTRA:                  -1.503
REMARK UNBOUND:                -1.503
REMARK SMILES CCCCCCCCCCCCCCO
REMARK SMILES IDX 8 1 7 2 6 3 5 4 4 5 3 6 2 7 1 8 9 9 10 10 11 11 12 12 13 13
REMARK SMILES IDX 14 14 15 15
REMARK H PARENT 15 16
REMARK Flexibility Score: inf
ROOT
ATOM      1  C   UNL     1     186.955 191.517 190.250  1.00  0.00     0.000 C 
ENDROOT
BRANCH   1   2
ATOM      2  C   UNL     1     185.962 192.686 190.322  1.00  0.00    -0.000 C 
BRANCH   2   3
ATOM      3  C   UNL     1     185.717 193.282 188.927  1.00  0.00    -0.000 C 
BRANCH   3   4
ATOM      4  C   UNL     1     185.731 192.221 187.817  1.00  0.00    -0.000 C 
BRANCH   4   5
ATOM      5  C   UNL     1     184.366 191.531 187.637  1.00  0.00    -0.000 C 
BRANCH   5   6
ATOM      6  C   UNL     1     184.501 190.131 187.001  1.00  0.00    -0.000 C 
BRANCH   6   7
ATOM      7  C   UNL     1     185.958 189.706 186.753  1.00  0.00    -0.003 C 
ATOM      8  C   UNL     1     186.328 189.672 185.272  1.00  0.00     0.004 C 
ENDBRANCH   6   7
ENDBRANCH   5   6
ENDBRANCH   4   5
ENDBRANCH   3   4
ENDBRANCH   2   3
ENDBRANCH   1   2
BRANCH   1   9
ATOM      9  C   UNL     1     186.379 190.213 190.824  1.00  0.00     0.000 C 
BRANCH   9  10
ATOM     10  C   UNL     1     184.977 190.398 191.422  1.00  0.00     0.000 C 
BRANCH  10  11
ATOM     11  C   UNL     1     183.930 189.608 190.625  1.00  0.00     0.000 C 
BRANCH  11  12
ATOM     12  C   UNL     1     183.869 188.147 191.094  1.00  0.00     0.002 C 
BRANCH  12  13
ATOM     13  C   UNL     1     183.382 187.189 189.992  1.00  0.00     0.028 C 
BRANCH  13  14
ATOM     14  C   UNL     1     181.970 186.638 190.239  1.00  0.00     0.156 C 
BRANCH  14  15
ATOM     15  O   UNL     1     181.501 187.000 191.509  1.00  0.00    -0.396 OA
ATOM     16  H   UNL     1     181.226 186.160 191.960  1.00  0.00     0.210 HD
ENDBRANCH  14  15
ENDBRANCH  13  14
ENDBRANCH  12  13
ENDBRANCH  11  12
ENDBRANCH  10  11
ENDBRANCH   9  10
ENDBRANCH   1   9
TORSDOF 13
ENDMDL
MODEL 2
REMARK VINA RESULT:    -3.832      2.671      5.163
REMARK INTER + INTRA:          -8.136
REMARK INTER:                  -7.154
REMARK INTRA:                  -0.982
REMARK UNBOUND:                -1.503
REMARK SMILES CCCCCCCCCCCCCCO
REMARK SMILES IDX 8 1 7 2 6 3 5 4 4 5 3 6 2 7 1 8 9 9 10 10 11 11 12 12 13 13
REMARK SMILES IDX 14 14 15 15
REMARK H PARENT 15 16
REMARK Flexibility Score: inf
ROOT
ATOM      1  C   UNL     1     185.399 192.458 187.740  1.00  0.00     0.000 C 
ENDROOT
BRANCH   1   2
ATOM      2  C   UNL     1     185.615 193.050 189.141  1.00  0.00    -0.000 C 
BRANCH   2   3
ATOM      3  C   UNL     1     187.094 192.969 189.548  1.00  0.00    -0.000 C 
BRANCH   3   4
ATOM      4  C   UNL     1     187.773 194.346 189.595  1.00  0.00    -0.000 C 
BRANCH   4   5
ATOM      5  C   UNL     1     186.790 195.502 189.339  1.00  0.00    -0.000 C 
BRANCH   5   6
ATOM      6  C   UNL     1     187.328 196.851 189.863  1.00  0.00    -0.000 C 
BRANCH   6   7
ATOM      7  C   UNL     1     186.612 197.347 191.130  1.00  0.00    -0.003 C 
ATOM      8  C   UNL     1     186.831 198.835 191.397  1.00  0.00     0.004 C 
ENDBRANCH   6   7
ENDBRANCH   5   6
ENDBRANCH   4   5
ENDBRANCH   3   4
ENDBRANCH   2   3
ENDBRANCH   1   2
BRANCH   1   9
ATOM      9  C   UNL     1     186.514 191.483 187.331  1.00  0.00     0.000 C 
BRANCH   9  10
ATOM     10  C   UNL     1     185.970 190.138 186.827  1.00  0.00     0.000 C 
BRANCH  10  11
ATOM     11  C   UNL     1     184.456 190.037 187.054  1.00  0.00     0.000 C 
BRANCH  11  12
ATOM     12  C   UNL     1     184.106 188.803 187.898  1.00  0.00     0.002 C 
BRANCH  12  13
ATOM     13  C   UNL     1     184.576 188.928 189.357  1.00  0.00     0.028 C 
BRANCH  13  14
ATOM     14  C   UNL     1     183.856 190.035 190.141  1.00  0.00     0.156 C 
BRANCH  14  15
ATOM     15  O   UNL     1     183.112 189.500 191.202  1.00  0.00    -0.396 OA
ATOM     16  H   UNL     1     182.157 189.683 191.000  1.00  0.00     0.210 HD
ENDBRANCH  14  15
ENDBRANCH  13  14
ENDBRANCH  12  13
ENDBRANCH  11  12
ENDBRANCH  10  11
ENDBRANCH   9  10
ENDBRANCH   1   9
TORSDOF 13
ENDMDL
MODEL 3
REMARK VINA RESULT:    -3.824      1.337      2.935
REMARK INTER + INTRA:          -8.123
REMARK INTER:                  -6.599
REMARK INTRA:                  -1.524
REMARK UNBOUND:                -1.503
REMARK SMILES CCCCCCCCCCCCCCO
REMARK SMILES IDX 8 1 7 2 6 3 5 4 4 5 3 6 2 7 1 8 9 9 10 10 11 11 12 12 13 13
REMARK SMILES IDX 14 14 15 15
REMARK H PARENT 15 16
REMARK Flexibility Score: inf
ROOT
ATOM      1  C   UNL     1     187.804 189.761 188.894  1.00  0.00     0.000 C 
ENDROOT
BRANCH   1   2
ATOM      2  C   UNL     1     187.512 189.267 187.469  1.00  0.00    -0.000 C 
BRANCH   2   3
ATOM      3  C   UNL     1     186.671 190.293 186.695  1.00  0.00    -0.000 C 
BRANCH   3   4
ATOM      4  C   UNL     1     185.160 190.085 186.882  1.00  0.00    -0.000 C 
BRANCH   4   5
ATOM      5  C   UNL     1     184.486 191.252 187.626  1.00  0.00    -0.000 C 
BRANCH   5   6
ATOM      6  C   UNL     1     185.461 192.422 187.878  1.00  0.00    -0.000 C 
BRANCH   6   7
ATOM      7  C   UNL     1     185.551 192.839 189.355  1.00  0.00    -0.003 C 
ATOM      8  C   UNL     1     186.028 194.278 189.543  1.00  0.00     0.004 C 
ENDBRANCH   6   7
ENDBRANCH   5   6
ENDBRANCH   4   5
ENDBRANCH   3   4
ENDBRANCH   2   3
ENDBRANCH   1   2
BRANCH   1   9
ATOM      9  C   UNL     1     187.226 188.833 189.974  1.00  0.00     0.000 C 
BRANCH   9  10
ATOM     10  C   UNL     1     185.882 189.330 190.525  1.00  0.00     0.000 C 
BRANCH  10  11
ATOM     11  C   UNL     1     184.748 188.359 190.172  1.00  0.00     0.000 C 
BRANCH  11  12
ATOM     12  C   UNL     1     183.496 188.647 191.013  1.00  0.00     0.002 C 
BRANCH  12  13
ATOM     13  C   UNL     1     182.505 187.470 191.024  1.00  0.00     0.028 C 
BRANCH  13  14
ATOM     14  C   UNL     1     182.695 186.496 189.852  1.00  0.00     0.156 C 
BRANCH  14  15
ATOM     15  O   UNL     1     182.458 185.173 190.251  1.00  0.00    -0.396 OA
ATOM     16  H   UNL     1     182.808 185.088 191.176  1.00  0.00     0.210 HD
ENDBRANCH  14  15
ENDBRANCH  13  14
ENDBRANCH  12  13
ENDBRANCH  11  12
ENDBRANCH  10  11
ENDBRANCH   9  10
ENDBRANCH   1   9
TORSDOF 13
ENDMDL
MODEL 4
REMARK VINA RESULT:    -3.781      3.476      6.389
REMARK INTER + INTRA:          -8.048
REMARK INTER:                  -6.581
REMARK INTRA:                  -1.466
REMARK UNBOUND:                -1.503
REMARK SMILES CCCCCCCCCCCCCCO
REMARK SMILES IDX 8 1 7 2 6 3 5 4 4 5 3 6 2 7 1 8 9 9 10 10 11 11 12 12 13 13
REMARK SMILES IDX 14 14 15 15
REMARK H PARENT 15 16
REMARK Flexibility Score: inf
ROOT
ATOM      1  C   UNL     1     186.180 190.740 187.093  1.00  0.00     0.000 C 
ENDROOT
BRANCH   1   2
ATOM      2  C   UNL     1     184.657 190.546 187.120  1.00  0.00    -0.000 C 
BRANCH   2   3
ATOM      3  C   UNL     1     184.292 189.140 187.621  1.00  0.00    -0.000 C 
BRANCH   3   4
ATOM      4  C   UNL     1     184.762 188.883 189.061  1.00  0.00    -0.000 C 
BRANCH   4   5
ATOM      5  C   UNL     1     183.951 189.676 190.102  1.00  0.00    -0.000 C 
BRANCH   5   6
ATOM      6  C   UNL     1     184.594 189.623 191.504  1.00  0.00    -0.000 C 
BRANCH   6   7
ATOM      7  C   UNL     1     185.447 190.859 191.836  1.00  0.00    -0.003 C 
ATOM      8  C   UNL     1     186.928 190.667 191.521  1.00  0.00     0.004 C 
ENDBRANCH   6   7
ENDBRANCH   5   6
ENDBRANCH   4   5
ENDBRANCH   3   4
ENDBRANCH   2   3
ENDBRANCH   1   2
BRANCH   1   9
ATOM      9  C   UNL     1     186.649 191.883 188.005  1.00  0.00     0.000 C 
BRANCH   9  10
ATOM     10  C   UNL     1     185.579 192.968 188.194  1.00  0.00     0.000 C 
BRANCH  10  11
ATOM     11  C   UNL     1     185.705 193.632 189.571  1.00  0.00     0.000 C 
BRANCH  11  12
ATOM     12  C   UNL     1     186.957 194.519 189.641  1.00  0.00     0.002 C 
BRANCH  12  13
ATOM     13  C   UNL     1     186.952 195.458 190.860  1.00  0.00     0.028 C 
BRANCH  13  14
ATOM     14  C   UNL     1     186.712 196.932 190.499  1.00  0.00     0.156 C 
BRANCH  14  15
ATOM     15  O   UNL     1     187.090 197.195 189.175  1.00  0.00    -0.396 OA
ATOM     16  H   UNL     1     186.912 198.158 189.014  1.00  0.00     0.210 HD
ENDBRANCH  14  15
ENDBRANCH  13  14
ENDBRANCH  12  13
ENDBRANCH  11  12
ENDBRANCH  10  11
ENDBRANCH   9  10
ENDBRANCH   1   9
TORSDOF 13
ENDMDL
MODEL 5
REMARK VINA RESULT:    -3.710      3.270      5.614
REMARK INTER + INTRA:          -7.925
REMARK INTER:                  -6.329
REMARK INTRA:                  -1.597
REMARK UNBOUND:                -1.503
REMARK SMILES CCCCCCCCCCCCCCO
REMARK SMILES IDX 8 1 7 2 6 3 5 4 4 5 3 6 2 7 1 8 9 9 10 10 11 11 12 12 13 13
REMARK SMILES IDX 14 14 15 15
REMARK H PARENT 15 16
REMARK Flexibility Score: inf
ROOT
ATOM      1  C   UNL     1     186.110 191.690 190.004  1.00  0.00     0.000 C 
ENDROOT
BRANCH   1   2
ATOM      2  C   UNL     1     185.666 191.337 191.432  1.00  0.00    -0.000 C 
BRANCH   2   3
ATOM      3  C   UNL     1     186.188 189.952 191.841  1.00  0.00    -0.000 C 
BRANCH   3   4
ATOM      4  C   UNL     1     185.058 188.969 192.185  1.00  0.00    -0.000 C 
BRANCH   4   5
ATOM      5  C   UNL     1     183.783 189.218 191.359  1.00  0.00    -0.000 C 
BRANCH   5   6
ATOM      6  C   UNL     1     183.609 188.181 190.229  1.00  0.00    -0.000 C 
BRANCH   6   7
ATOM      7  C   UNL     1     184.203 188.631 188.885  1.00  0.00    -0.003 C 
ATOM      8  C   UNL     1     185.635 188.145 188.671  1.00  0.00     0.004 C 
ENDBRANCH   6   7
ENDBRANCH   5   6
ENDBRANCH   4   5
ENDBRANCH   3   4
ENDBRANCH   2   3
ENDBRANCH   1   2
BRANCH   1   9
ATOM      9  C   UNL     1     184.991 192.344 189.179  1.00  0.00     0.000 C 
BRANCH   9  10
ATOM     10  C   UNL     1     185.126 192.068 187.675  1.00  0.00     0.000 C 
BRANCH  10  11
ATOM     11  C   UNL     1     186.566 191.684 187.312  1.00  0.00     0.000 C 
BRANCH  11  12
ATOM     12  C   UNL     1     186.593 190.691 186.142  1.00  0.00     0.002 C 
BRANCH  12  13
ATOM     13  C   UNL     1     187.985 190.569 185.497  1.00  0.00     0.028 C 
BRANCH  13  14
ATOM     14  C   UNL     1     187.997 190.895 183.996  1.00  0.00     0.156 C 
BRANCH  14  15
ATOM     15  O   UNL     1     188.711 189.927 183.275  1.00  0.00    -0.396 OA
ATOM     16  H   UNL     1     189.636 190.273 183.175  1.00  0.00     0.210 HD
ENDBRANCH  14  15
ENDBRANCH  13  14
ENDBRANCH  12  13
ENDBRANCH  11  12
ENDBRANCH  10  11
ENDBRANCH   9  10
ENDBRANCH   1   9
TORSDOF 13
ENDMDL
MODEL 6
REMARK VINA RESULT:    -3.706      4.626      7.085
REMARK INTER + INTRA:          -7.917
REMARK INTER:                  -7.086
REMARK INTRA:                  -0.832
REMARK UNBOUND:                -1.503
REMARK SMILES CCCCCCCCCCCCCCO
REMARK SMILES IDX 8 1 7 2 6 3 5 4 4 5 3 6 2 7 1 8 9 9 10 10 11 11 12 12 13 13
REMARK SMILES IDX 14 14 15 15
REMARK H PARENT 15 16
REMARK Flexibility Score: inf
ROOT
ATOM      1  C   UNL     1     186.393 192.799 189.071  1.00  0.00     0.000 C 
ENDROOT
BRANCH   1   2
ATOM      2  C   UNL     1     185.407 191.919 189.853  1.00  0.00    -0.000 C 
BRANCH   2   3
ATOM      3  C   UNL     1     184.231 191.489 188.963  1.00  0.00    -0.000 C 
BRANCH   3   4
ATOM      4  C   UNL     1     184.603 191.436 187.473  1.00  0.00    -0.000 C 
BRANCH   4   5
ATOM      5  C   UNL     1     184.651 189.999 186.924  1.00  0.00    -0.000 C 
BRANCH   5   6
ATOM      6  C   UNL     1     185.928 189.733 186.099  1.00  0.00    -0.000 C 
BRANCH   6   7
ATOM      7  C   UNL     1     186.829 190.970 185.946  1.00  0.00    -0.003 C 
ATOM      8  C   UNL     1     188.230 190.764 186.518  1.00  0.00     0.004 C 
ENDBRANCH   6   7
ENDBRANCH   5   6
ENDBRANCH   4   5
ENDBRANCH   3   4
ENDBRANCH   2   3
ENDBRANCH   1   2
BRANCH   1   9
ATOM      9  C   UNL     1     186.031 194.291 189.130  1.00  0.00     0.000 C 
BRANCH   9  10
ATOM     10  C   UNL     1     186.639 195.000 190.349  1.00  0.00     0.000 C 
BRANCH  10  11
ATOM     11  C   UNL     1     186.875 196.488 190.060  1.00  0.00     0.000 C 
BRANCH  11  12
ATOM     12  C   UNL     1     187.253 197.245 191.342  1.00  0.00     0.002 C 
BRANCH  12  13
ATOM     13  C   UNL     1     188.022 198.547 191.058  1.00  0.00     0.028 C 
BRANCH  13  14
ATOM     14  C   UNL     1     187.237 199.816 191.421  1.00  0.00     0.156 C 
BRANCH  14  15
ATOM     15  O   UNL     1     185.906 199.512 191.741  1.00  0.00    -0.396 OA
ATOM     16  H   UNL     1     185.350 199.845 190.989  1.00  0.00     0.210 HD
ENDBRANCH  14  15
ENDBRANCH  13  14
ENDBRANCH  12  13
ENDBRANCH  11  12
ENDBRANCH  10  11
ENDBRANCH   9  10
ENDBRANCH   1   9
TORSDOF 13
ENDMDL
MODEL 7
REMARK VINA RESULT:    -3.705      3.214      5.728
REMARK INTER + INTRA:          -7.916
REMARK INTER:                  -6.123
REMARK INTRA:                  -1.793
REMARK UNBOUND:                -1.503
REMARK SMILES CCCCCCCCCCCCCCO
REMARK SMILES IDX 8 1 7 2 6 3 5 4 4 5 3 6 2 7 1 8 9 9 10 10 11 11 12 12 13 13
REMARK SMILES IDX 14 14 15 15
REMARK H PARENT 15 16
REMARK Flexibility Score: inf
ROOT
ATOM      1  C   UNL     1     185.492 192.347 187.699  1.00  0.00     0.000 C 
ENDROOT
BRANCH   1   2
ATOM      2  C   UNL     1     184.342 191.432 188.146  1.00  0.00    -0.000 C 
BRANCH   2   3
ATOM      3  C   UNL     1     184.222 190.212 187.219  1.00  0.00    -0.000 C 
BRANCH   3   4
ATOM      4  C   UNL     1     184.186 188.883 187.989  1.00  0.00    -0.000 C 
BRANCH   4   5
ATOM      5  C   UNL     1     184.965 188.943 189.315  1.00  0.00    -0.000 C 
BRANCH   5   6
ATOM      6  C   UNL     1     184.055 188.694 190.537  1.00  0.00    -0.000 C 
BRANCH   6   7
ATOM      7  C   UNL     1     184.632 189.236 191.855  1.00  0.00    -0.003 C 
ATOM      8  C   UNL     1     185.281 190.610 191.704  1.00  0.00     0.004 C 
ENDBRANCH   6   7
ENDBRANCH   5   6
ENDBRANCH   4   5
ENDBRANCH   3   4
ENDBRANCH   2   3
ENDBRANCH   1   2
BRANCH   1   9
ATOM      9  C   UNL     1     186.654 192.373 188.703  1.00  0.00     0.000 C 
BRANCH   9  10
ATOM     10  C   UNL     1     187.665 191.240 188.469  1.00  0.00     0.000 C 
BRANCH  10  11
ATOM     11  C   UNL     1     187.956 191.064 186.973  1.00  0.00     0.000 C 
BRANCH  11  12
ATOM     12  C   UNL     1     187.727 189.610 186.535  1.00  0.00     0.002 C 
BRANCH  12  13
ATOM     13  C   UNL     1     187.108 189.503 185.131  1.00  0.00     0.028 C 
BRANCH  13  14
ATOM     14  C   UNL     1     187.636 190.556 184.146  1.00  0.00     0.156 C 
BRANCH  14  15
ATOM     15  O   UNL     1     188.530 189.987 183.228  1.00  0.00    -0.396 OA
ATOM     16  H   UNL     1     189.443 190.163 183.574  1.00  0.00     0.210 HD
ENDBRANCH  14  15
ENDBRANCH  13  14
ENDBRANCH  12  13
ENDBRANCH  11  12
ENDBRANCH  10  11
ENDBRANCH   9  10
ENDBRANCH   1   9
TORSDOF 13
ENDMDL
MODEL 8
REMARK VINA RESULT:    -3.691      1.295      3.549
REMARK INTER + INTRA:          -7.891
REMARK INTER:                  -6.324
REMARK INTRA:                  -1.567
REMARK UNBOUND:                -1.503
REMARK SMILES CCCCCCCCCCCCCCO
REMARK SMILES IDX 8 1 7 2 6 3 5 4 4 5 3 6 2 7 1 8 9 9 10 10 11 11 12 12 13 13
REMARK SMILES IDX 14 14 15 15
REMARK H PARENT 15 16
REMARK Flexibility Score: inf
ROOT
ATOM      1  C   UNL     1     185.869 189.821 186.901  1.00  0.00     0.000 C 
ENDROOT
BRANCH   1   2
ATOM      2  C   UNL     1     186.425 191.249 186.996  1.00  0.00    -0.000 C 
BRANCH   2   3
ATOM      3  C   UNL     1     185.340 192.230 187.465  1.00  0.00    -0.000 C 
BRANCH   3   4
ATOM      4  C   UNL     1     185.663 192.867 188.825  1.00  0.00    -0.000 C 
BRANCH   4   5
ATOM      5  C   UNL     1     187.087 192.540 189.311  1.00  0.00    -0.000 C 
BRANCH   5   6
ATOM      6  C   UNL     1     187.081 191.706 190.609  1.00  0.00    -0.000 C 
BRANCH   6   7
ATOM      7  C   UNL     1     186.138 192.258 191.691  1.00  0.00    -0.003 C 
ATOM      8  C   UNL     1     186.774 193.360 192.535  1.00  0.00     0.004 C 
ENDBRANCH   6   7
ENDBRANCH   5   6
ENDBRANCH   4   5
ENDBRANCH   3   4
ENDBRANCH   2   3
ENDBRANCH   1   2
BRANCH   1   9
ATOM      9  C   UNL     1     185.910 189.078 188.246  1.00  0.00     0.000 C 
BRANCH   9  10
ATOM     10  C   UNL     1     184.512 188.702 188.758  1.00  0.00     0.000 C 
BRANCH  10  11
ATOM     11  C   UNL     1     184.022 189.708 189.808  1.00  0.00     0.000 C 
BRANCH  11  12
ATOM     12  C   UNL     1     183.919 189.051 191.193  1.00  0.00     0.002 C 
BRANCH  12  13
ATOM     13  C   UNL     1     183.593 187.549 191.115  1.00  0.00     0.028 C 
BRANCH  13  14
ATOM     14  C   UNL     1     182.088 187.245 191.155  1.00  0.00     0.156 C 
BRANCH  14  15
ATOM     15  O   UNL     1     181.788 186.083 190.432  1.00  0.00    -0.396 OA
ATOM     16  H   UNL     1     182.356 185.360 190.807  1.00  0.00     0.210 HD
ENDBRANCH  14  15
ENDBRANCH  13  14
ENDBRANCH  12  13
ENDBRANCH  11  12
ENDBRANCH  10  11
ENDBRANCH   9  10
ENDBRANCH   1   9
TORSDOF 13
ENDMDL
MODEL 9
REMARK VINA RESULT:    -3.642      2.028      4.830
REMARK INTER + INTRA:          -7.806
REMARK INTER:                  -6.485
REMARK INTRA:                  -1.321
REMARK UNBOUND:                -1.503
REMARK SMILES CCCCCCCCCCCCCCO
REMARK SMILES IDX 8 1 7 2 6 3 5 4 4 5 3 6 2 7 1 8 9 9 10 10 11 11 12 12 13 13
REMARK SMILES IDX 14 14 15 15
REMARK H PARENT 15 16
REMARK Flexibility Score: inf
ROOT
ATOM      1  C   UNL     1     187.064 190.333 190.598  1.00  0.00     0.000 C 
ENDROOT
BRANCH   1   2
ATOM      2  C   UNL     1     186.231 189.355 191.441  1.00  0.00    -0.000 C 
BRANCH   2   3
ATOM      3  C   UNL     1     184.868 189.965 191.799  1.00  0.00    -0.000 C 
BRANCH   3   4
ATOM      4  C   UNL     1     183.769 189.597 190.791  1.00  0.00    -0.000 C 
BRANCH   4   5
ATOM      5  C   UNL     1     183.319 188.130 190.913  1.00  0.00    -0.000 C 
BRANCH   5   6
ATOM      6  C   UNL     1     183.652 187.311 189.647  1.00  0.00    -0.000 C 
BRANCH   6   7
ATOM      7  C   UNL     1     182.671 186.157 189.385  1.00  0.00    -0.003 C 
ATOM      8  C   UNL     1     181.410 186.237 190.243  1.00  0.00     0.004 C 
ENDBRANCH   6   7
ENDBRANCH   5   6
ENDBRANCH   4   5
ENDBRANCH   3   4
ENDBRANCH   2   3
ENDBRANCH   1   2
BRANCH   1   9
ATOM      9  C   UNL     1     186.775 191.803 190.938  1.00  0.00     0.000 C 
BRANCH   9  10
ATOM     10  C   UNL     1     186.677 192.692 189.689  1.00  0.00     0.000 C 
BRANCH  10  11
ATOM     11  C   UNL     1     185.275 192.619 189.070  1.00  0.00     0.000 C 
BRANCH  11  12
ATOM     12  C   UNL     1     185.340 192.125 187.617  1.00  0.00     0.002 C 
BRANCH  12  13
ATOM     13  C   UNL     1     184.743 190.717 187.441  1.00  0.00     0.028 C 
BRANCH  13  14
ATOM     14  C   UNL     1     185.722 189.709 186.821  1.00  0.00     0.156 C 
BRANCH  14  15
ATOM     15  O   UNL     1     185.211 189.178 185.628  1.00  0.00    -0.396 OA
ATOM     16  H   UNL     1     185.159 188.195 185.754  1.00  0.00     0.210 HD
ENDBRANCH  14  15
ENDBRANCH  13  14
ENDBRANCH  12  13
ENDBRANCH  11  12
ENDBRANCH  10  11
ENDBRANCH   9  10
ENDBRANCH   1   9
TORSDOF 13
ENDMDL
