MODEL 1
REMARK VINA RESULT:    -4.441      0.000      0.000
REMARK INTER + INTRA:          -9.420
REMARK INTER:                  -8.076
REMARK INTRA:                  -1.344
REMARK UNBOUND:                -1.344
REMARK SMILES CCCCCCCCCCCCCCCC(=O)[O-]
REMARK SMILES IDX 9 1 10 2 11 3 12 4 13 5 14 6 15 7 16 8 17 9 18 10 8 11 7 12
REMARK SMILES IDX 6 13 5 14 4 15 3 16 2 17 1 18
REMARK H PARENT
REMARK Flexibility Score: inf
ROOT
ATOM      1  C   UNL     1     -45.096  27.616   0.025  1.00  0.00     0.000 C 
ENDROOT
BRANCH   1   2
ATOM      2  C   UNL     1     -43.684  27.171  -0.382  1.00  0.00     0.000 C 
BRANCH   2   3
ATOM      3  C   UNL     1     -42.617  28.049   0.288  1.00  0.00     0.000 C 
BRANCH   3   4
ATOM      4  C   UNL     1     -43.112  29.476   0.586  1.00  0.00     0.000 C 
BRANCH   4   5
ATOM      5  C   UNL     1     -42.940  29.930   2.047  1.00  0.00     0.000 C 
BRANCH   5   6
ATOM      6  C   UNL     1     -43.072  28.774   3.053  1.00  0.00     0.006 C 
BRANCH   6   7
ATOM      7  C   UNL     1     -44.447  28.749   3.730  1.00  0.00     0.053 C 
BRANCH   7   8
ATOM      8  C   UNL     1     -45.018  27.364   3.772  1.00  0.00     0.041 C 
ATOM      9  O   UNL     1     -46.155  27.161   4.274  1.00  0.00    -0.550 OA
ATOM     10  O   UNL     1     -44.278  26.293   3.291  1.00  0.00    -0.550 OA
ENDBRANCH   7   8
ENDBRANCH   6   7
ENDBRANCH   5   6
ENDBRANCH   4   5
ENDBRANCH   3   4
ENDBRANCH   2   3
ENDBRANCH   1   2
BRANCH   1  11
ATOM     11  C   UNL     1     -46.197  26.883  -0.756  1.00  0.00     0.000 C 
BRANCH  11  12
ATOM     12  C   UNL     1     -45.635  25.894  -1.788  1.00  0.00    -0.000 C 
BRANCH  12  13
ATOM     13  C   UNL     1     -46.193  26.188  -3.189  1.00  0.00    -0.000 C 
BRANCH  13  14
ATOM     14  C   UNL     1     -46.450  27.685  -3.424  1.00  0.00    -0.000 C 
BRANCH  14  15
ATOM     15  C   UNL     1     -46.519  28.048  -4.918  1.00  0.00    -0.000 C 
BRANCH  15  16
ATOM     16  C   UNL     1     -46.136  26.860  -5.825  1.00  0.00    -0.000 C 
BRANCH  16  17
ATOM     17  C   UNL     1     -45.467  27.282  -7.143  1.00  0.00    -0.003 C 
ATOM     18  C   UNL     1     -45.257  28.792  -7.250  1.00  0.00     0.004 C 
ENDBRANCH  16  17
ENDBRANCH  15  16
ENDBRANCH  14  15
ENDBRANCH  13  14
ENDBRANCH  12  13
ENDBRANCH  11  12
ENDBRANCH   1  11
TORSDOF 14
ENDMDL
MODEL 2
REMARK VINA RESULT:    -4.089      2.384      4.065
REMARK INTER + INTRA:          -8.780
REMARK INTER:                  -6.981
REMARK INTRA:                  -1.798
REMARK UNBOUND:                -1.344
REMARK SMILES CCCCCCCCCCCCCCCC(=O)[O-]
REMARK SMILES IDX 9 1 10 2 11 3 12 4 13 5 14 6 15 7 16 8 17 9 18 10 8 11 7 12
REMARK SMILES IDX 6 13 5 14 4 15 3 16 2 17 1 18
REMARK H PARENT
REMARK Flexibility Score: inf
ROOT
ATOM      1  C   UNL     1     -42.487  27.890   0.656  1.00  0.00     0.000 C 
ENDROOT
BRANCH   1   2
ATOM      2  C   UNL     1     -42.996  28.187   2.075  1.00  0.00     0.000 C 
BRANCH   2   3
ATOM      3  C   UNL     1     -44.078  27.182   2.491  1.00  0.00     0.000 C 
BRANCH   3   4
ATOM      4  C   UNL     1     -45.239  27.833   3.266  1.00  0.00     0.000 C 
BRANCH   4   5
ATOM      5  C   UNL     1     -45.231  27.574   4.783  1.00  0.00     0.000 C 
BRANCH   5   6
ATOM      6  C   UNL     1     -44.660  28.752   5.590  1.00  0.00     0.006 C 
BRANCH   6   7
ATOM      7  C   UNL     1     -43.153  28.610   5.836  1.00  0.00     0.053 C 
BRANCH   7   8
ATOM      8  C   UNL     1     -42.861  28.167   7.237  1.00  0.00     0.041 C 
ATOM      9  O   UNL     1     -43.570  27.282   7.784  1.00  0.00    -0.550 OA
ATOM     10  O   UNL     1     -41.828  28.759   7.952  1.00  0.00    -0.550 OA
ENDBRANCH   7   8
ENDBRANCH   6   7
ENDBRANCH   5   6
ENDBRANCH   4   5
ENDBRANCH   3   4
ENDBRANCH   2   3
ENDBRANCH   1   2
BRANCH   1  11
ATOM     11  C   UNL     1     -42.572  29.112  -0.272  1.00  0.00     0.000 C 
BRANCH  11  12
ATOM     12  C   UNL     1     -43.901  29.869  -0.137  1.00  0.00    -0.000 C 
BRANCH  12  13
ATOM     13  C   UNL     1     -44.983  29.242  -1.029  1.00  0.00    -0.000 C 
BRANCH  13  14
ATOM     14  C   UNL     1     -46.149  28.650  -0.221  1.00  0.00    -0.000 C 
BRANCH  14  15
ATOM     15  C   UNL     1     -46.319  27.137  -0.446  1.00  0.00    -0.000 C 
BRANCH  15  16
ATOM     16  C   UNL     1     -45.125  26.523  -1.205  1.00  0.00    -0.000 C 
BRANCH  16  17
ATOM     17  C   UNL     1     -45.540  25.555  -2.325  1.00  0.00    -0.003 C 
ATOM     18  C   UNL     1     -46.110  26.267  -3.551  1.00  0.00     0.004 C 
ENDBRANCH  16  17
ENDBRANCH  15  16
ENDBRANCH  14  15
ENDBRANCH  13  14
ENDBRANCH  12  13
ENDBRANCH  11  12
ENDBRANCH   1  11
TORSDOF 14
ENDMDL
MODEL 3
REMARK VINA RESULT:    -4.040      1.998      3.287
REMARK INTER + INTRA:          -8.691
REMARK INTER:                  -7.596
REMARK INTRA:                  -1.095
REMARK UNBOUND:                -1.344
REMARK SMILES CCCCCCCCCCCCCCCC(=O)[O-]
REMARK SMILES IDX 9 1 10 2 11 3 12 4 13 5 14 6 15 7 16 8 17 9 18 10 8 11 7 12
REMARK SMILES IDX 6 13 5 14 4 15 3 16 2 17 1 18
REMARK H PARENT
REMARK Flexibility Score: inf
ROOT
ATOM      1  C   UNL     1     -42.518  27.888   0.854  1.00  0.00     0.000 C 
ENDROOT
BRANCH   1   2
ATOM      2  C   UNL     1     -43.024  29.137   1.592  1.00  0.00     0.000 C 
BRANCH   2   3
ATOM      3  C   UNL     1     -43.276  28.834   3.076  1.00  0.00     0.000 C 
BRANCH   3   4
ATOM      4  C   UNL     1     -43.951  27.469   3.306  1.00  0.00     0.000 C 
BRANCH   4   5
ATOM      5  C   UNL     1     -45.325  27.534   3.996  1.00  0.00     0.000 C 
BRANCH   5   6
ATOM      6  C   UNL     1     -45.227  27.506   5.531  1.00  0.00     0.006 C 
BRANCH   6   7
ATOM      7  C   UNL     1     -43.971  26.775   6.018  1.00  0.00     0.053 C 
BRANCH   7   8
ATOM      8  C   UNL     1     -43.220  27.582   7.033  1.00  0.00     0.041 C 
ATOM      9  O   UNL     1     -42.114  28.104   6.736  1.00  0.00    -0.550 OA
ATOM     10  O   UNL     1     -43.726  27.727   8.318  1.00  0.00    -0.550 OA
ENDBRANCH   7   8
ENDBRANCH   6   7
ENDBRANCH   5   6
ENDBRANCH   4   5
ENDBRANCH   3   4
ENDBRANCH   2   3
ENDBRANCH   1   2
BRANCH   1  11
ATOM     11  C   UNL     1     -43.381  27.529  -0.365  1.00  0.00     0.000 C 
BRANCH  11  12
ATOM     12  C   UNL     1     -44.797  28.118  -0.284  1.00  0.00    -0.000 C 
BRANCH  12  13
ATOM     13  C   UNL     1     -45.850  27.067  -0.669  1.00  0.00    -0.000 C 
BRANCH  13  14
ATOM     14  C   UNL     1     -45.336  26.068  -1.717  1.00  0.00    -0.000 C 
BRANCH  14  15
ATOM     15  C   UNL     1     -46.329  25.858  -2.874  1.00  0.00    -0.000 C 
BRANCH  15  16
ATOM     16  C   UNL     1     -46.341  27.049  -3.854  1.00  0.00    -0.000 C 
BRANCH  16  17
ATOM     17  C   UNL     1     -46.931  26.707  -5.232  1.00  0.00    -0.003 C 
ATOM     18  C   UNL     1     -45.864  26.493  -6.304  1.00  0.00     0.004 C 
ENDBRANCH  16  17
ENDBRANCH  15  16
ENDBRANCH  14  15
ENDBRANCH  13  14
ENDBRANCH  12  13
ENDBRANCH  11  12
ENDBRANCH   1  11
TORSDOF 14
ENDMDL
MODEL 4
REMARK VINA RESULT:    -4.029      1.740      1.918
REMARK INTER + INTRA:          -8.670
REMARK INTER:                  -8.087
REMARK INTRA:                  -0.583
REMARK UNBOUND:                -1.344
REMARK SMILES CCCCCCCCCCCCCCCC(=O)[O-]
REMARK SMILES IDX 9 1 10 2 11 3 12 4 13 5 14 6 15 7 16 8 17 9 18 10 8 11 7 12
REMARK SMILES IDX 6 13 5 14 4 15 3 16 2 17 1 18
REMARK H PARENT
REMARK Flexibility Score: inf
ROOT
ATOM      1  C   UNL     1     -44.139  26.750  -0.763  1.00  0.00     0.000 C 
ENDROOT
BRANCH   1   2
ATOM      2  C   UNL     1     -43.523  28.055  -0.235  1.00  0.00     0.000 C 
BRANCH   2   3
ATOM      3  C   UNL     1     -42.625  27.785   0.980  1.00  0.00     0.000 C 
BRANCH   3   4
ATOM      4  C   UNL     1     -43.344  28.009   2.323  1.00  0.00     0.000 C 
BRANCH   4   5
ATOM      5  C   UNL     1     -43.221  29.434   2.893  1.00  0.00     0.000 C 
BRANCH   5   6
ATOM      6  C   UNL     1     -42.625  29.464   4.310  1.00  0.00     0.006 C 
BRANCH   6   7
ATOM      7  C   UNL     1     -43.645  29.048   5.377  1.00  0.00     0.053 C 
BRANCH   7   8
ATOM      8  C   UNL     1     -43.109  27.965   6.263  1.00  0.00     0.041 C 
ATOM      9  O   UNL     1     -42.147  28.200   7.041  1.00  0.00    -0.550 OA
ATOM     10  O   UNL     1     -43.648  26.687   6.203  1.00  0.00    -0.550 OA
ENDBRANCH   7   8
ENDBRANCH   6   7
ENDBRANCH   5   6
ENDBRANCH   4   5
ENDBRANCH   3   4
ENDBRANCH   2   3
ENDBRANCH   1   2
BRANCH   1  11
ATOM     11  C   UNL     1     -45.520  26.962  -1.402  1.00  0.00     0.000 C 
BRANCH  11  12
ATOM     12  C   UNL     1     -46.180  25.646  -1.840  1.00  0.00    -0.000 C 
BRANCH  12  13
ATOM     13  C   UNL     1     -47.083  25.867  -3.063  1.00  0.00    -0.000 C 
BRANCH  13  14
ATOM     14  C   UNL     1     -46.513  26.904  -4.043  1.00  0.00    -0.000 C 
BRANCH  14  15
ATOM     15  C   UNL     1     -47.016  26.700  -5.483  1.00  0.00    -0.000 C 
BRANCH  15  16
ATOM     16  C   UNL     1     -45.867  26.372  -6.460  1.00  0.00    -0.000 C 
BRANCH  16  17
ATOM     17  C   UNL     1     -45.643  27.451  -7.532  1.00  0.00    -0.003 C 
ATOM     18  C   UNL     1     -45.289  28.815  -6.942  1.00  0.00     0.004 C 
ENDBRANCH  16  17
ENDBRANCH  15  16
ENDBRANCH  14  15
ENDBRANCH  13  14
ENDBRANCH  12  13
ENDBRANCH  11  12
ENDBRANCH   1  11
TORSDOF 14
ENDMDL
MODEL 5
REMARK VINA RESULT:    -3.979      3.848      8.340
REMARK INTER + INTRA:          -8.579
REMARK INTER:                  -7.473
REMARK INTRA:                  -1.106
REMARK UNBOUND:                -1.344
REMARK SMILES CCCCCCCCCCCCCCCC(=O)[O-]
REMARK SMILES IDX 9 1 10 2 11 3 12 4 13 5 14 6 15 7 16 8 17 9 18 10 8 11 7 12
REMARK SMILES IDX 6 13 5 14 4 15 3 16 2 17 1 18
REMARK H PARENT
REMARK Flexibility Score: inf
ROOT
ATOM      1  C   UNL     1     -44.791  27.163   0.254  1.00  0.00     0.000 C 
ENDROOT
BRANCH   1   2
ATOM      2  C   UNL     1     -44.620  26.672  -1.191  1.00  0.00     0.000 C 
BRANCH   2   3
ATOM      3  C   UNL     1     -45.707  25.651  -1.555  1.00  0.00     0.000 C 
BRANCH   3   4
ATOM      4  C   UNL     1     -46.477  26.022  -2.837  1.00  0.00     0.000 C 
BRANCH   4   5
ATOM      5  C   UNL     1     -46.455  27.520  -3.195  1.00  0.00     0.000 C 
BRANCH   5   6
ATOM      6  C   UNL     1     -46.344  27.773  -4.708  1.00  0.00     0.006 C 
BRANCH   6   7
ATOM      7  C   UNL     1     -46.030  26.492  -5.488  1.00  0.00     0.053 C 
BRANCH   7   8
ATOM      8  C   UNL     1     -45.764  26.776  -6.935  1.00  0.00     0.041 C 
ATOM      9  O   UNL     1     -46.037  25.915  -7.812  1.00  0.00    -0.550 OA
ATOM     10  O   UNL     1     -45.182  27.980  -7.311  1.00  0.00    -0.550 OA
ENDBRANCH   7   8
ENDBRANCH   6   7
ENDBRANCH   5   6
ENDBRANCH   4   5
ENDBRANCH   3   4
ENDBRANCH   2   3
ENDBRANCH   1   2
BRANCH   1  11
ATOM     11  C   UNL     1     -43.448  27.366   0.974  1.00  0.00     0.000 C 
BRANCH  11  12
ATOM     12  C   UNL     1     -42.488  28.275   0.194  1.00  0.00    -0.000 C 
BRANCH  12  13
ATOM     13  C   UNL     1     -42.509  29.705   0.756  1.00  0.00    -0.000 C 
BRANCH  13  14
ATOM     14  C   UNL     1     -43.363  29.830   2.027  1.00  0.00    -0.000 C 
BRANCH  14  15
ATOM     15  C   UNL     1     -42.517  30.076   3.290  1.00  0.00    -0.000 C 
BRANCH  15  16
ATOM     16  C   UNL     1     -42.944  29.168   4.462  1.00  0.00    -0.000 C 
BRANCH  16  17
ATOM     17  C   UNL     1     -44.327  28.523   4.269  1.00  0.00    -0.003 C 
ATOM     18  C   UNL     1     -44.407  27.102   4.825  1.00  0.00     0.004 C 
ENDBRANCH  16  17
ENDBRANCH  15  16
ENDBRANCH  14  15
ENDBRANCH  13  14
ENDBRANCH  12  13
ENDBRANCH  11  12
ENDBRANCH   1  11
TORSDOF 14
ENDMDL
MODEL 6
REMARK VINA RESULT:    -3.894      2.634      4.672
REMARK INTER + INTRA:          -8.425
REMARK INTER:                  -7.075
REMARK INTRA:                  -1.349
REMARK UNBOUND:                -1.344
REMARK SMILES CCCCCCCCCCCCCCCC(=O)[O-]
REMARK SMILES IDX 9 1 10 2 11 3 12 4 13 5 14 6 15 7 16 8 17 9 18 10 8 11 7 12
REMARK SMILES IDX 6 13 5 14 4 15 3 16 2 17 1 18
REMARK H PARENT
REMARK Flexibility Score: inf
ROOT
ATOM      1  C   UNL     1     -44.131  27.087   3.141  1.00  0.00     0.000 C 
ENDROOT
BRANCH   1   2
ATOM      2  C   UNL     1     -44.261  28.594   3.409  1.00  0.00     0.000 C 
BRANCH   2   3
ATOM      3  C   UNL     1     -45.485  28.892   4.286  1.00  0.00     0.000 C 
BRANCH   3   4
ATOM      4  C   UNL     1     -46.131  27.622   4.871  1.00  0.00     0.000 C 
BRANCH   4   5
ATOM      5  C   UNL     1     -45.983  27.462   6.395  1.00  0.00     0.000 C 
BRANCH   5   6
ATOM      6  C   UNL     1     -45.064  28.524   7.023  1.00  0.00     0.006 C 
BRANCH   6   7
ATOM      7  C   UNL     1     -43.919  27.897   7.827  1.00  0.00     0.053 C 
BRANCH   7   8
ATOM      8  C   UNL     1     -42.582  28.388   7.362  1.00  0.00     0.041 C 
ATOM      9  O   UNL     1     -42.230  28.230   6.163  1.00  0.00    -0.550 OA
ATOM     10  O   UNL     1     -41.711  28.989   8.260  1.00  0.00    -0.550 OA
ENDBRANCH   7   8
ENDBRANCH   6   7
ENDBRANCH   5   6
ENDBRANCH   4   5
ENDBRANCH   3   4
ENDBRANCH   2   3
ENDBRANCH   1   2
BRANCH   1  11
ATOM     11  C   UNL     1     -43.377  26.779   1.838  1.00  0.00     0.000 C 
BRANCH  11  12
ATOM     12  C   UNL     1     -42.724  28.025   1.221  1.00  0.00    -0.000 C 
BRANCH  12  13
ATOM     13  C   UNL     1     -43.113  28.172  -0.258  1.00  0.00    -0.000 C 
BRANCH  13  14
ATOM     14  C   UNL     1     -44.518  28.765  -0.446  1.00  0.00    -0.000 C 
BRANCH  14  15
ATOM     15  C   UNL     1     -45.470  27.811  -1.191  1.00  0.00    -0.000 C 
BRANCH  15  16
ATOM     16  C   UNL     1     -44.898  26.382  -1.296  1.00  0.00    -0.000 C 
BRANCH  16  17
ATOM     17  C   UNL     1     -45.590  25.519  -2.364  1.00  0.00    -0.003 C 
ATOM     18  C   UNL     1     -46.500  26.327  -3.288  1.00  0.00     0.004 C 
ENDBRANCH  16  17
ENDBRANCH  15  16
ENDBRANCH  14  15
ENDBRANCH  13  14
ENDBRANCH  12  13
ENDBRANCH  11  12
ENDBRANCH   1  11
TORSDOF 14
ENDMDL
MODEL 7
REMARK VINA RESULT:    -3.878      1.528      2.633
REMARK INTER + INTRA:          -8.396
REMARK INTER:                  -6.512
REMARK INTRA:                  -1.884
REMARK UNBOUND:                -1.344
REMARK SMILES CCCCCCCCCCCCCCCC(=O)[O-]
REMARK SMILES IDX 9 1 10 2 11 3 12 4 13 5 14 6 15 7 16 8 17 9 18 10 8 11 7 12
REMARK SMILES IDX 6 13 5 14 4 15 3 16 2 17 1 18
REMARK H PARENT
REMARK Flexibility Score: inf
ROOT
ATOM      1  C   UNL     1     -43.985  27.488   0.188  1.00  0.00     0.000 C 
ENDROOT
BRANCH   1   2
ATOM      2  C   UNL     1     -42.605  27.875   0.741  1.00  0.00     0.000 C 
BRANCH   2   3
ATOM      3  C   UNL     1     -42.427  29.399   0.752  1.00  0.00     0.000 C 
BRANCH   3   4
ATOM      4  C   UNL     1     -42.971  30.060   2.032  1.00  0.00     0.000 C 
BRANCH   4   5
ATOM      5  C   UNL     1     -42.600  29.339   3.341  1.00  0.00     0.000 C 
BRANCH   5   6
ATOM      6  C   UNL     1     -43.776  29.247   4.329  1.00  0.00     0.006 C 
BRANCH   6   7
ATOM      7  C   UNL     1     -45.086  28.858   3.635  1.00  0.00     0.053 C 
BRANCH   7   8
ATOM      8  C   UNL     1     -45.423  27.415   3.858  1.00  0.00     0.041 C 
ATOM      9  O   UNL     1     -44.628  26.512   3.484  1.00  0.00    -0.550 OA
ATOM     10  O   UNL     1     -46.631  27.066   4.447  1.00  0.00    -0.550 OA
ENDBRANCH   7   8
ENDBRANCH   6   7
ENDBRANCH   5   6
ENDBRANCH   4   5
ENDBRANCH   3   4
ENDBRANCH   2   3
ENDBRANCH   1   2
BRANCH   1  11
ATOM     11  C   UNL     1     -44.588  28.574  -0.716  1.00  0.00     0.000 C 
BRANCH  11  12
ATOM     12  C   UNL     1     -46.049  28.892  -0.368  1.00  0.00    -0.000 C 
BRANCH  12  13
ATOM     13  C   UNL     1     -46.876  29.131  -1.640  1.00  0.00    -0.000 C 
BRANCH  13  14
ATOM     14  C   UNL     1     -46.131  28.718  -2.919  1.00  0.00    -0.000 C 
BRANCH  14  15
ATOM     15  C   UNL     1     -46.974  27.808  -3.830  1.00  0.00    -0.000 C 
BRANCH  15  16
ATOM     16  C   UNL     1     -46.327  26.421  -4.028  1.00  0.00    -0.000 C 
BRANCH  16  17
ATOM     17  C   UNL     1     -45.645  25.875  -2.762  1.00  0.00    -0.003 C 
ATOM     18  C   UNL     1     -46.623  25.205  -1.798  1.00  0.00     0.004 C 
ENDBRANCH  16  17
ENDBRANCH  15  16
ENDBRANCH  14  15
ENDBRANCH  13  14
ENDBRANCH  12  13
ENDBRANCH  11  12
ENDBRANCH   1  11
TORSDOF 14
ENDMDL
MODEL 8
REMARK VINA RESULT:    -3.832      3.992      8.991
REMARK INTER + INTRA:          -8.312
REMARK INTER:                  -7.507
REMARK INTRA:                  -0.805
REMARK UNBOUND:                -1.344
REMARK SMILES CCCCCCCCCCCCCCCC(=O)[O-]
REMARK SMILES IDX 9 1 10 2 11 3 12 4 13 5 14 6 15 7 16 8 17 9 18 10 8 11 7 12
REMARK SMILES IDX 6 13 5 14 4 15 3 16 2 17 1 18
REMARK H PARENT
REMARK Flexibility Score: inf
ROOT
ATOM      1  C   UNL     1     -43.538  27.243  -0.293  1.00  0.00     0.000 C 
ENDROOT
BRANCH   1   2
ATOM      2  C   UNL     1     -44.984  27.185  -0.808  1.00  0.00     0.000 C 
BRANCH   2   3
ATOM      3  C   UNL     1     -45.218  25.918  -1.643  1.00  0.00     0.000 C 
BRANCH   3   4
ATOM      4  C   UNL     1     -46.235  26.127  -2.780  1.00  0.00     0.000 C 
BRANCH   4   5
ATOM      5  C   UNL     1     -46.483  27.596  -3.166  1.00  0.00     0.000 C 
BRANCH   5   6
ATOM      6  C   UNL     1     -46.412  27.838  -4.683  1.00  0.00     0.006 C 
BRANCH   6   7
ATOM      7  C   UNL     1     -46.273  26.531  -5.473  1.00  0.00     0.053 C 
BRANCH   7   8
ATOM      8  C   UNL     1     -45.772  26.775  -6.863  1.00  0.00     0.041 C 
ATOM      9  O   UNL     1     -45.840  25.866  -7.732  1.00  0.00    -0.550 OA
ATOM     10  O   UNL     1     -45.196  27.996  -7.190  1.00  0.00    -0.550 OA
ENDBRANCH   7   8
ENDBRANCH   6   7
ENDBRANCH   5   6
ENDBRANCH   4   5
ENDBRANCH   3   4
ENDBRANCH   2   3
ENDBRANCH   1   2
BRANCH   1  11
ATOM     11  C   UNL     1     -43.366  28.215   0.885  1.00  0.00     0.000 C 
BRANCH  11  12
ATOM     12  C   UNL     1     -44.489  28.091   1.925  1.00  0.00    -0.000 C 
BRANCH  12  13
ATOM     13  C   UNL     1     -44.085  27.134   3.057  1.00  0.00    -0.000 C 
BRANCH  13  14
ATOM     14  C   UNL     1     -44.993  27.256   4.290  1.00  0.00    -0.000 C 
BRANCH  14  15
ATOM     15  C   UNL     1     -44.772  28.570   5.062  1.00  0.00    -0.000 C 
BRANCH  15  16
ATOM     16  C   UNL     1     -43.314  28.724   5.543  1.00  0.00    -0.000 C 
BRANCH  16  17
ATOM     17  C   UNL     1     -42.967  27.838   6.751  1.00  0.00    -0.003 C 
ATOM     18  C   UNL     1     -42.304  28.610   7.890  1.00  0.00     0.004 C 
ENDBRANCH  16  17
ENDBRANCH  15  16
ENDBRANCH  14  15
ENDBRANCH  13  14
ENDBRANCH  12  13
ENDBRANCH  11  12
ENDBRANCH   1  11
TORSDOF 14
ENDMDL
MODEL 9
REMARK VINA RESULT:    -3.811      1.349      2.153
REMARK INTER + INTRA:          -8.274
REMARK INTER:                  -6.981
REMARK INTRA:                  -1.293
REMARK UNBOUND:                -1.344
REMARK SMILES CCCCCCCCCCCCCCCC(=O)[O-]
REMARK SMILES IDX 9 1 10 2 11 3 12 4 13 5 14 6 15 7 16 8 17 9 18 10 8 11 7 12
REMARK SMILES IDX 6 13 5 14 4 15 3 16 2 17 1 18
REMARK H PARENT
REMARK Flexibility Score: inf
ROOT
ATOM      1  C   UNL     1     -43.893  27.164   1.278  1.00  0.00     0.000 C 
ENDROOT
BRANCH   1   2
ATOM      2  C   UNL     1     -42.674  28.036   0.942  1.00  0.00     0.000 C 
BRANCH   2   3
ATOM      3  C   UNL     1     -42.911  29.495   1.358  1.00  0.00     0.000 C 
BRANCH   3   4
ATOM      4  C   UNL     1     -43.601  29.625   2.728  1.00  0.00     0.000 C 
BRANCH   4   5
ATOM      5  C   UNL     1     -42.752  29.171   3.929  1.00  0.00     0.000 C 
BRANCH   5   6
ATOM      6  C   UNL     1     -43.598  28.817   5.163  1.00  0.00     0.006 C 
BRANCH   6   7
ATOM      7  C   UNL     1     -44.115  27.374   5.117  1.00  0.00     0.053 C 
BRANCH   7   8
ATOM      8  C   UNL     1     -45.610  27.325   5.036  1.00  0.00     0.041 C 
ATOM      9  O   UNL     1     -46.190  27.454   3.926  1.00  0.00    -0.550 OA
ATOM     10  O   UNL     1     -46.364  27.173   6.192  1.00  0.00    -0.550 OA
ENDBRANCH   7   8
ENDBRANCH   6   7
ENDBRANCH   5   6
ENDBRANCH   4   5
ENDBRANCH   3   4
ENDBRANCH   2   3
ENDBRANCH   1   2
BRANCH   1  11
ATOM     11  C   UNL     1     -45.141  27.553   0.471  1.00  0.00     0.000 C 
BRANCH  11  12
ATOM     12  C   UNL     1     -44.907  27.502  -1.045  1.00  0.00    -0.000 C 
BRANCH  12  13
ATOM     13  C   UNL     1     -44.972  26.057  -1.563  1.00  0.00    -0.000 C 
BRANCH  13  14
ATOM     14  C   UNL     1     -46.383  25.652  -2.016  1.00  0.00    -0.000 C 
BRANCH  14  15
ATOM     15  C   UNL     1     -46.990  26.645  -3.025  1.00  0.00    -0.000 C 
BRANCH  15  16
ATOM     16  C   UNL     1     -46.353  26.516  -4.424  1.00  0.00    -0.000 C 
BRANCH  16  17
ATOM     17  C   UNL     1     -46.189  27.861  -5.151  1.00  0.00    -0.003 C 
ATOM     18  C   UNL     1     -46.252  29.062  -4.209  1.00  0.00     0.004 C 
ENDBRANCH  16  17
ENDBRANCH  15  16
ENDBRANCH  14  15
ENDBRANCH  13  14
ENDBRANCH  12  13
ENDBRANCH  11  12
ENDBRANCH   1  11
TORSDOF 14
ENDMDL
