MODEL 1
REMARK VINA RESULT:    -3.700      0.000      0.000
REMARK INTER + INTRA:          -4.721
REMARK INTER:                  -4.457
REMARK INTRA:                  -0.264
REMARK UNBOUND:                -0.264
REMARK SMILES NC(=O)C[C@H]([NH3+])C(=O)[O-]
REMARK SMILES IDX 4 1 5 2 6 3 7 7 8 8 9 9 2 10 3 11 1 12
REMARK H PARENT 6 4 6 5 6 6 1 13 1 14
REMARK Flexibility Score: inf
ROOT
ATOM      1  C   UNL     1       5.565  11.980  12.275  1.00  0.00     0.171 C 
ENDROOT
BRANCH   1   2
ATOM      2  C   UNL     1       6.073  13.045  13.270  1.00  0.00     0.237 C 
BRANCH   2   3
ATOM      3  N   UNL     1       5.338  14.311  13.140  1.00  0.00    -0.350 N 
ATOM      4  H   UNL     1       4.887  14.582  14.043  1.00  0.00     0.345 HD
ATOM      5  H   UNL     1       5.993  15.071  12.841  1.00  0.00     0.345 HD
ATOM      6  H   UNL     1       4.597  14.212  12.408  1.00  0.00     0.345 HD
ENDBRANCH   2   3
BRANCH   2   7
ATOM      7  C   UNL     1       7.561  13.258  13.139  1.00  0.00     0.100 C 
ATOM      8  O   UNL     1       8.206  12.736  12.190  1.00  0.00    -0.544 OA
ATOM      9  O   UNL     1       8.240  13.991  14.104  1.00  0.00    -0.544 OA
ENDBRANCH   2   7
ENDBRANCH   1   2
BRANCH   1  10
ATOM     10  C   UNL     1       4.275  12.361  11.604  1.00  0.00     0.223 C 
ATOM     11  O   UNL     1       3.259  12.623  12.302  1.00  0.00    -0.275 OA
ATOM     12  N   UNL     1       4.185  12.409  10.180  1.00  0.00    -0.369 N 
ATOM     13  H   UNL     1       3.285  12.664   9.717  1.00  0.00     0.159 HD
ATOM     14  H   UNL     1       5.014  12.189   9.585  1.00  0.00     0.159 HD
ENDBRANCH   1  10
TORSDOF 4
ENDMDL
MODEL 2
REMARK VINA RESULT:    -3.570      2.859      4.569
REMARK INTER + INTRA:          -4.564
REMARK INTER:                  -4.288
REMARK INTRA:                  -0.276
REMARK UNBOUND:                -0.264
REMARK SMILES NC(=O)C[C@H]([NH3+])C(=O)[O-]
REMARK SMILES IDX 4 1 5 2 6 3 7 7 8 8 9 9 2 10 3 11 1 12
REMARK H PARENT 6 4 6 5 6 6 1 13 1 14
REMARK Flexibility Score: inf
ROOT
ATOM      1  C   UNL     1       5.386  13.796  15.765  1.00  0.00     0.171 C 
ENDROOT
BRANCH   1   2
ATOM      2  C   UNL     1       6.452  13.969  14.663  1.00  0.00     0.237 C 
BRANCH   2   3
ATOM      3  N   UNL     1       6.869  15.371  14.520  1.00  0.00    -0.350 N 
ATOM      4  H   UNL     1       7.190  15.574  13.546  1.00  0.00     0.345 HD
ATOM      5  H   UNL     1       6.069  16.004  14.755  1.00  0.00     0.345 HD
ATOM      6  H   UNL     1       7.652  15.573  15.183  1.00  0.00     0.345 HD
ENDBRANCH   2   3
BRANCH   2   7
ATOM      7  C   UNL     1       5.985  13.398  13.348  1.00  0.00     0.100 C 
ATOM      8  O   UNL     1       6.790  12.805  12.580  1.00  0.00    -0.544 OA
ATOM      9  O   UNL     1       4.665  13.571  12.951  1.00  0.00    -0.544 OA
ENDBRANCH   2   7
ENDBRANCH   1   2
BRANCH   1  10
ATOM     10  C   UNL     1       5.709  14.545  17.028  1.00  0.00     0.223 C 
ATOM     11  O   UNL     1       6.868  14.476  17.519  1.00  0.00    -0.275 OA
ATOM     12  N   UNL     1       4.708  15.318  17.689  1.00  0.00    -0.369 N 
ATOM     13  H   UNL     1       4.932  15.828  18.572  1.00  0.00     0.159 HD
ATOM     14  H   UNL     1       3.740  15.381  17.302  1.00  0.00     0.159 HD
ENDBRANCH   1  10
TORSDOF 4
ENDMDL
MODEL 3
REMARK VINA RESULT:    -3.515      3.368      5.139
REMARK INTER + INTRA:          -4.498
REMARK INTER:                  -3.998
REMARK INTRA:                  -0.500
REMARK UNBOUND:                -0.264
REMARK SMILES NC(=O)C[C@H]([NH3+])C(=O)[O-]
REMARK SMILES IDX 4 1 5 2 6 3 7 7 8 8 9 9 2 10 3 11 1 12
REMARK H PARENT 6 4 6 5 6 6 1 13 1 14
REMARK Flexibility Score: inf
ROOT
ATOM      1  C   UNL     1       6.803  13.746  16.517  1.00  0.00     0.171 C 
ENDROOT
BRANCH   1   2
ATOM      2  C   UNL     1       6.684  14.072  15.013  1.00  0.00     0.237 C 
BRANCH   2   3
ATOM      3  N   UNL     1       6.980  15.484  14.735  1.00  0.00    -0.350 N 
ATOM      4  H   UNL     1       8.010  15.655  14.694  1.00  0.00     0.345 HD
ATOM      5  H   UNL     1       6.550  15.763  13.822  1.00  0.00     0.345 HD
ATOM      6  H   UNL     1       6.567  16.084  15.486  1.00  0.00     0.345 HD
ENDBRANCH   2   3
BRANCH   2   7
ATOM      7  C   UNL     1       5.335  13.676  14.468  1.00  0.00     0.100 C 
ATOM      8  O   UNL     1       5.076  13.792  13.240  1.00  0.00    -0.544 OA
ATOM      9  O   UNL     1       4.345  13.228  15.334  1.00  0.00    -0.544 OA
ENDBRANCH   2   7
ENDBRANCH   1   2
BRANCH   1  10
ATOM     10  C   UNL     1       6.442  14.902  17.407  1.00  0.00     0.223 C 
ATOM     11  O   UNL     1       7.338  15.700  17.793  1.00  0.00    -0.275 OA
ATOM     12  N   UNL     1       5.094  15.094  17.837  1.00  0.00    -0.369 N 
ATOM     13  H   UNL     1       4.848  15.891  18.464  1.00  0.00     0.159 HD
ATOM     14  H   UNL     1       4.339  14.439  17.534  1.00  0.00     0.159 HD
ENDBRANCH   1  10
TORSDOF 4
ENDMDL
MODEL 4
REMARK VINA RESULT:    -3.510      3.540      3.994
REMARK INTER + INTRA:          -4.491
REMARK INTER:                  -4.131
REMARK INTRA:                  -0.360
REMARK UNBOUND:                -0.264
REMARK SMILES NC(=O)C[C@H]([NH3+])C(=O)[O-]
REMARK SMILES IDX 4 1 5 2 6 3 7 7 8 8 9 9 2 10 3 11 1 12
REMARK H PARENT 6 4 6 5 6 6 1 13 1 14
REMARK Flexibility Score: inf
ROOT
ATOM      1  C   UNL     1       8.173  11.205  11.088  1.00  0.00     0.171 C 
ENDROOT
BRANCH   1   2
ATOM      2  C   UNL     1       7.448  11.156  12.450  1.00  0.00     0.237 C 
BRANCH   2   3
ATOM      3  N   UNL     1       6.998   9.798  12.782  1.00  0.00    -0.350 N 
ATOM      4  H   UNL     1       6.519   9.773  13.711  1.00  0.00     0.345 HD
ATOM      5  H   UNL     1       6.337   9.454  12.047  1.00  0.00     0.345 HD
ATOM      6  H   UNL     1       7.821   9.153  12.808  1.00  0.00     0.345 HD
ENDBRANCH   2   3
BRANCH   2   7
ATOM      7  C   UNL     1       6.307  12.141  12.502  1.00  0.00     0.100 C 
ATOM      8  O   UNL     1       5.272  11.968  11.804  1.00  0.00    -0.544 OA
ATOM      9  O   UNL     1       6.417  13.282  13.288  1.00  0.00    -0.544 OA
ENDBRANCH   2   7
ENDBRANCH   1   2
BRANCH   1  10
ATOM     10  C   UNL     1       8.096   9.911  10.326  1.00  0.00     0.223 C 
ATOM     11  O   UNL     1       6.988   9.514   9.875  1.00  0.00    -0.275 OA
ATOM     12  N   UNL     1       9.264   9.116  10.126  1.00  0.00    -0.369 N 
ATOM     13  H   UNL     1       9.206   8.213   9.606  1.00  0.00     0.159 HD
ATOM     14  H   UNL     1      10.190   9.425  10.499  1.00  0.00     0.159 HD
ENDBRANCH   1  10
TORSDOF 4
ENDMDL
MODEL 5
REMARK VINA RESULT:    -3.483      4.375      5.481
REMARK INTER + INTRA:          -4.459
REMARK INTER:                  -4.031
REMARK INTRA:                  -0.428
REMARK UNBOUND:                -0.264
REMARK SMILES NC(=O)C[C@H]([NH3+])C(=O)[O-]
REMARK SMILES IDX 4 1 5 2 6 3 7 7 8 8 9 9 2 10 3 11 1 12
REMARK H PARENT 6 4 6 5 6 6 1 13 1 14
REMARK Flexibility Score: inf
ROOT
ATOM      1  C   UNL     1       6.900  10.164  10.202  1.00  0.00     0.171 C 
ENDROOT
BRANCH   1   2
ATOM      2  C   UNL     1       6.222   9.558  11.450  1.00  0.00     0.237 C 
BRANCH   2   3
ATOM      3  N   UNL     1       7.056   9.703  12.651  1.00  0.00    -0.350 N 
ATOM      4  H   UNL     1       6.673   9.146  13.448  1.00  0.00     0.345 HD
ATOM      5  H   UNL     1       8.030   9.381  12.445  1.00  0.00     0.345 HD
ATOM      6  H   UNL     1       7.096  10.710  12.930  1.00  0.00     0.345 HD
ENDBRANCH   2   3
BRANCH   2   7
ATOM      7  C   UNL     1       5.831   8.120  11.221  1.00  0.00     0.100 C 
ATOM      8  O   UNL     1       6.427   7.419  10.360  1.00  0.00    -0.544 OA
ATOM      9  O   UNL     1       4.768   7.573  11.928  1.00  0.00    -0.544 OA
ENDBRANCH   2   7
ENDBRANCH   1   2
BRANCH   1  10
ATOM     10  C   UNL     1       8.393  10.280  10.334  1.00  0.00     0.223 C 
ATOM     11  O   UNL     1       8.911  11.389  10.637  1.00  0.00    -0.275 OA
ATOM     12  N   UNL     1       9.231   9.150  10.100  1.00  0.00    -0.369 N 
ATOM     13  H   UNL     1      10.268   9.236  10.182  1.00  0.00     0.159 HD
ATOM     14  H   UNL     1       8.821   8.225   9.841  1.00  0.00     0.159 HD
ENDBRANCH   1  10
TORSDOF 4
ENDMDL
MODEL 6
REMARK VINA RESULT:    -3.467      3.759      4.484
REMARK INTER + INTRA:          -4.440
REMARK INTER:                  -4.107
REMARK INTRA:                  -0.333
REMARK UNBOUND:                -0.264
REMARK SMILES NC(=O)C[C@H]([NH3+])C(=O)[O-]
REMARK SMILES IDX 4 1 5 2 6 3 7 7 8 8 9 9 2 10 3 11 1 12
REMARK H PARENT 6 4 6 5 6 6 1 13 1 14
REMARK Flexibility Score: inf
ROOT
ATOM      1  C   UNL     1       7.178  14.946  16.816  1.00  0.00     0.171 C 
ENDROOT
BRANCH   1   2
ATOM      2  C   UNL     1       7.655  15.080  15.355  1.00  0.00     0.237 C 
BRANCH   2   3
ATOM      3  N   UNL     1       6.530  15.237  14.423  1.00  0.00    -0.350 N 
ATOM      4  H   UNL     1       6.646  14.629  13.581  1.00  0.00     0.345 HD
ATOM      5  H   UNL     1       5.635  14.988  14.905  1.00  0.00     0.345 HD
ATOM      6  H   UNL     1       6.468  16.235  14.115  1.00  0.00     0.345 HD
ENDBRANCH   2   3
BRANCH   2   7
ATOM      7  C   UNL     1       8.542  13.927  14.956  1.00  0.00     0.100 C 
ATOM      8  O   UNL     1       8.477  13.435  13.797  1.00  0.00    -0.544 OA
ATOM      9  O   UNL     1       9.402  13.364  15.889  1.00  0.00    -0.544 OA
ENDBRANCH   2   7
ENDBRANCH   1   2
BRANCH   1  10
ATOM     10  C   UNL     1       5.754  14.478  16.937  1.00  0.00     0.223 C 
ATOM     11  O   UNL     1       5.403  13.393  16.400  1.00  0.00    -0.275 OA
ATOM     12  N   UNL     1       4.790  15.264  17.637  1.00  0.00    -0.369 N 
ATOM     13  H   UNL     1       3.799  14.942  17.709  1.00  0.00     0.159 HD
ATOM     14  H   UNL     1       5.060  16.169  18.082  1.00  0.00     0.159 HD
ENDBRANCH   1  10
TORSDOF 4
ENDMDL
MODEL 7
REMARK VINA RESULT:    -3.460      3.194      4.124
REMARK INTER + INTRA:          -4.431
REMARK INTER:                  -4.172
REMARK INTRA:                  -0.259
REMARK UNBOUND:                -0.264
REMARK SMILES NC(=O)C[C@H]([NH3+])C(=O)[O-]
REMARK SMILES IDX 4 1 5 2 6 3 7 7 8 8 9 9 2 10 3 11 1 12
REMARK H PARENT 6 4 6 5 6 6 1 13 1 14
REMARK Flexibility Score: inf
ROOT
ATOM      1  C   UNL     1       7.370  10.526  11.429  1.00  0.00     0.171 C 
ENDROOT
BRANCH   1   2
ATOM      2  C   UNL     1       7.199  11.914  12.082  1.00  0.00     0.237 C 
BRANCH   2   3
ATOM      3  N   UNL     1       8.314  12.236  12.983  1.00  0.00    -0.350 N 
ATOM      4  H   UNL     1       8.726  13.170  12.758  1.00  0.00     0.345 HD
ATOM      5  H   UNL     1       7.979  12.238  13.974  1.00  0.00     0.345 HD
ATOM      6  H   UNL     1       9.059  11.507  12.892  1.00  0.00     0.345 HD
ENDBRANCH   2   3
BRANCH   2   7
ATOM      7  C   UNL     1       5.871  12.031  12.787  1.00  0.00     0.100 C 
ATOM      8  O   UNL     1       5.182  13.083  12.693  1.00  0.00    -0.544 OA
ATOM      9  O   UNL     1       5.424  10.993  13.594  1.00  0.00    -0.544 OA
ENDBRANCH   2   7
ENDBRANCH   1   2
BRANCH   1  10
ATOM     10  C   UNL     1       8.576  10.433  10.536  1.00  0.00     0.223 C 
ATOM     11  O   UNL     1       9.088  11.483  10.063  1.00  0.00    -0.275 OA
ATOM     12  N   UNL     1       9.135   9.163  10.201  1.00  0.00    -0.369 N 
ATOM     13  H   UNL     1       9.965   9.102   9.572  1.00  0.00     0.159 HD
ATOM     14  H   UNL     1       8.720   8.282  10.577  1.00  0.00     0.159 HD
ENDBRANCH   1  10
TORSDOF 4
ENDMDL
MODEL 8
REMARK VINA RESULT:    -3.391      7.888      9.261
REMARK INTER + INTRA:          -4.348
REMARK INTER:                  -3.970
REMARK INTRA:                  -0.378
REMARK UNBOUND:                -0.264
REMARK SMILES NC(=O)C[C@H]([NH3+])C(=O)[O-]
REMARK SMILES IDX 4 1 5 2 6 3 7 7 8 8 9 9 2 10 3 11 1 12
REMARK H PARENT 6 4 6 5 6 6 1 13 1 14
REMARK Flexibility Score: inf
ROOT
ATOM      1  C   UNL     1       7.855  17.978  20.533  1.00  0.00     0.171 C 
ENDROOT
BRANCH   1   2
ATOM      2  C   UNL     1       8.864  17.347  19.550  1.00  0.00     0.237 C 
BRANCH   2   3
ATOM      3  N   UNL     1       9.618  18.368  18.810  1.00  0.00    -0.350 N 
ATOM      4  H   UNL     1       9.116  18.653  17.939  1.00  0.00     0.345 HD
ATOM      5  H   UNL     1       9.762  19.210  19.414  1.00  0.00     0.345 HD
ATOM      6  H   UNL     1      10.558  17.989  18.549  1.00  0.00     0.345 HD
ENDBRANCH   2   3
BRANCH   2   7
ATOM      7  C   UNL     1       8.190  16.375  18.615  1.00  0.00     0.100 C 
ATOM      8  O   UNL     1       8.768  15.985  17.565  1.00  0.00    -0.544 OA
ATOM      9  O   UNL     1       6.897  15.944  18.883  1.00  0.00    -0.544 OA
ENDBRANCH   2   7
ENDBRANCH   1   2
BRANCH   1  10
ATOM     10  C   UNL     1       7.424  19.363  20.135  1.00  0.00     0.223 C 
ATOM     11  O   UNL     1       8.071  20.363  20.548  1.00  0.00    -0.275 OA
ATOM     12  N   UNL     1       6.276  19.556  19.310  1.00  0.00    -0.369 N 
ATOM     13  H   UNL     1       5.973  20.519  19.045  1.00  0.00     0.159 HD
ATOM     14  H   UNL     1       5.723  18.741  18.965  1.00  0.00     0.159 HD
ENDBRANCH   1  10
TORSDOF 4
ENDMDL
MODEL 9
REMARK VINA RESULT:    -3.279      2.546      3.767
REMARK INTER + INTRA:          -4.213
REMARK INTER:                  -3.766
REMARK INTRA:                  -0.446
REMARK UNBOUND:                -0.264
REMARK SMILES NC(=O)C[C@H]([NH3+])C(=O)[O-]
REMARK SMILES IDX 4 1 5 2 6 3 7 7 8 8 9 9 2 10 3 11 1 12
REMARK H PARENT 6 4 6 5 6 6 1 13 1 14
REMARK Flexibility Score: inf
ROOT
ATOM      1  C   UNL     1       6.353  12.309  14.366  1.00  0.00     0.171 C 
ENDROOT
BRANCH   1   2
ATOM      2  C   UNL     1       5.449  13.554  14.486  1.00  0.00     0.237 C 
BRANCH   2   3
ATOM      3  N   UNL     1       5.394  14.314  13.230  1.00  0.00    -0.350 N 
ATOM      4  H   UNL     1       4.787  15.159  13.324  1.00  0.00     0.345 HD
ATOM      5  H   UNL     1       6.358  14.612  12.954  1.00  0.00     0.345 HD
ATOM      6  H   UNL     1       5.010  13.705  12.470  1.00  0.00     0.345 HD
ENDBRANCH   2   3
BRANCH   2   7
ATOM      7  C   UNL     1       5.868  14.430  15.640  1.00  0.00     0.100 C 
ATOM      8  O   UNL     1       6.858  15.203  15.537  1.00  0.00    -0.544 OA
ATOM      9  O   UNL     1       5.189  14.349  16.850  1.00  0.00    -0.544 OA
ENDBRANCH   2   7
ENDBRANCH   1   2
BRANCH   1  10
ATOM     10  C   UNL     1       7.635  12.573  13.626  1.00  0.00     0.223 C 
ATOM     11  O   UNL     1       7.659  12.502  12.368  1.00  0.00    -0.275 OA
ATOM     12  N   UNL     1       8.832  12.885  14.338  1.00  0.00    -0.369 N 
ATOM     13  H   UNL     1       9.723  13.057  13.822  1.00  0.00     0.159 HD
ATOM     14  H   UNL     1       8.834  12.941  15.381  1.00  0.00     0.159 HD
ENDBRANCH   1  10
TORSDOF 4
ENDMDL
