MODEL 1
REMARK VINA RESULT:    -5.964      0.000      0.000
REMARK INTER + INTRA:          -7.716
REMARK INTER:                  -7.359
REMARK INTRA:                  -0.357
REMARK UNBOUND:                -0.357
REMARK SMILES O=c1c(O)c(-c2cc(O)c(O)c(O)c2)oc2cc(O)cc(O)c12
REMARK SMILES IDX 5 1 3 2 2 3 1 4 23 5 21 6 20 7 18 8 17 9 16 10 15 11 6 12
REMARK SMILES IDX 7 13 8 14 14 15 10 16 12 17 9 18 11 20 13 22 4 24 22 26
REMARK SMILES IDX 19 28
REMARK H PARENT 9 19 11 21 13 23 4 25 22 27 19 29
REMARK Flexibility Score: inf
ROOT
ATOM      1  C   UNL     1       6.452   6.075 -32.744  1.00  0.00     0.180 A 
ATOM      2  C   UNL     1       6.160   6.377 -31.402  1.00  0.00     0.208 A 
ATOM      3  C   UNL     1       4.882   6.082 -30.901  1.00  0.00     0.238 A 
ATOM      4  O   UNL     1       4.609   6.404 -29.715  1.00  0.00    -0.285 OA
ATOM      5  C   UNL     1       3.918   5.474 -31.741  1.00  0.00     0.111 A 
ATOM      6  C   UNL     1       2.606   5.095 -31.328  1.00  0.00     0.134 A 
ATOM      7  C   UNL     1       1.692   4.621 -32.277  1.00  0.00     0.093 A 
ATOM      8  C   UNL     1       2.065   4.451 -33.613  1.00  0.00     0.123 A 
ATOM      9  C   UNL     1       3.361   4.763 -34.014  1.00  0.00     0.094 A 
ATOM     10  C   UNL     1       4.284   5.272 -33.098  1.00  0.00     0.146 A 
ATOM     11  O   UNL     1       5.506   5.566 -33.525  1.00  0.00    -0.452 OA
ENDROOT
BRANCH   1  12
ATOM     12  C   UNL     1       7.785   6.334 -33.337  1.00  0.00     0.029 A 
ATOM     13  C   UNL     1       8.791   5.362 -33.224  1.00  0.00     0.062 A 
ATOM     14  C   UNL     1      10.064   5.587 -33.756  1.00  0.00     0.162 A 
ATOM     15  C   UNL     1       8.081   7.556 -33.962  1.00  0.00     0.062 A 
ATOM     16  C   UNL     1      10.350   6.804 -34.400  1.00  0.00     0.200 A 
ATOM     17  C   UNL     1       9.356   7.791 -34.498  1.00  0.00     0.162 A 
BRANCH  14  18
ATOM     18  O   UNL     1      11.031   4.591 -33.636  1.00  0.00    -0.504 OA
ATOM     19  H   UNL     1      10.818   3.611 -33.786  1.00  0.00     0.293 HD
ENDBRANCH  14  18
BRANCH  16  20
ATOM     20  O   UNL     1      11.623   7.019 -34.931  1.00  0.00    -0.502 OA
ATOM     21  H   UNL     1      11.789   7.071 -35.929  1.00  0.00     0.293 HD
ENDBRANCH  16  20
BRANCH  17  22
ATOM     22  O   UNL     1       9.637   9.006 -35.123  1.00  0.00    -0.504 OA
ATOM     23  H   UNL     1       9.647   9.878 -34.607  1.00  0.00     0.293 HD
ENDBRANCH  17  22
ENDBRANCH   1  12
BRANCH   2  24
ATOM     24  O   UNL     1       7.119   6.996 -30.596  1.00  0.00    -0.502 OA
ATOM     25  H   UNL     1       7.568   7.866 -30.858  1.00  0.00     0.293 HD
ENDBRANCH   2  24
BRANCH   6  26
ATOM     26  O   UNL     1       2.163   5.136 -30.002  1.00  0.00    -0.507 OA
ATOM     27  H   UNL     1       2.089   4.334 -29.395  1.00  0.00     0.293 HD
ENDBRANCH   6  26
BRANCH   8  28
ATOM     28  O   UNL     1       1.154   3.964 -34.548  1.00  0.00    -0.508 OA
ATOM     29  H   UNL     1       1.425   3.783 -35.508  1.00  0.00     0.293 HD
ENDBRANCH   8  28
TORSDOF 7
ENDMDL
MODEL 2
REMARK VINA RESULT:    -5.840      1.741      3.048
REMARK INTER + INTRA:          -7.562
REMARK INTER:                  -7.980
REMARK INTRA:                   0.418
REMARK UNBOUND:                -0.357
REMARK SMILES O=c1c(O)c(-c2cc(O)c(O)c(O)c2)oc2cc(O)cc(O)c12
REMARK SMILES IDX 5 1 3 2 2 3 1 4 23 5 21 6 20 7 18 8 17 9 16 10 15 11 6 12
REMARK SMILES IDX 7 13 8 14 14 15 10 16 12 17 9 18 11 20 13 22 4 24 22 26
REMARK SMILES IDX 19 28
REMARK H PARENT 9 19 11 21 13 23 4 25 22 27 19 29
REMARK Flexibility Score: inf
ROOT
ATOM      1  C   UNL     1       6.639   5.459 -32.764  1.00  0.00     0.180 A 
ATOM      2  C   UNL     1       5.907   5.086 -33.905  1.00  0.00     0.208 A 
ATOM      3  C   UNL     1       4.521   4.893 -33.792  1.00  0.00     0.238 A 
ATOM      4  O   UNL     1       3.880   4.506 -34.804  1.00  0.00    -0.285 OA
ATOM      5  C   UNL     1       3.882   5.090 -32.544  1.00  0.00     0.111 A 
ATOM      6  C   UNL     1       2.477   4.961 -32.324  1.00  0.00     0.134 A 
ATOM      7  C   UNL     1       1.971   5.052 -31.022  1.00  0.00     0.093 A 
ATOM      8  C   UNL     1       2.811   5.332 -29.940  1.00  0.00     0.123 A 
ATOM      9  C   UNL     1       4.175   5.518 -30.154  1.00  0.00     0.094 A 
ATOM     10  C   UNL     1       4.714   5.397 -31.436  1.00  0.00     0.146 A 
ATOM     11  O   UNL     1       6.021   5.572 -31.594  1.00  0.00    -0.452 OA
ENDROOT
BRANCH   1  12
ATOM     12  C   UNL     1       8.099   5.706 -32.811  1.00  0.00     0.029 A 
ATOM     13  C   UNL     1       8.859   5.154 -33.853  1.00  0.00     0.062 A 
ATOM     14  C   UNL     1      10.242   5.353 -33.910  1.00  0.00     0.162 A 
ATOM     15  C   UNL     1       8.749   6.433 -31.801  1.00  0.00     0.062 A 
ATOM     16  C   UNL     1      10.886   6.100 -32.909  1.00  0.00     0.200 A 
ATOM     17  C   UNL     1      10.135   6.637 -31.850  1.00  0.00     0.162 A 
BRANCH  14  18
ATOM     18  O   UNL     1      10.959   4.800 -34.971  1.00  0.00    -0.504 OA
ATOM     19  H   UNL     1      11.136   3.805 -35.041  1.00  0.00     0.293 HD
ENDBRANCH  14  18
BRANCH  16  20
ATOM     20  O   UNL     1      12.266   6.297 -32.976  1.00  0.00    -0.502 OA
ATOM     21  H   UNL     1      12.925   5.637 -32.578  1.00  0.00     0.293 HD
ENDBRANCH  16  20
BRANCH  17  22
ATOM     22  O   UNL     1      10.770   7.368 -30.845  1.00  0.00    -0.504 OA
ATOM     23  H   UNL     1      11.092   8.316 -31.001  1.00  0.00     0.293 HD
ENDBRANCH  17  22
ENDBRANCH   1  12
BRANCH   2  24
ATOM     24  O   UNL     1       6.562   4.876 -35.122  1.00  0.00    -0.502 OA
ATOM     25  H   UNL     1       6.503   3.999 -35.625  1.00  0.00     0.293 HD
ENDBRANCH   2  24
BRANCH   6  26
ATOM     26  O   UNL     1       1.541   4.774 -33.345  1.00  0.00    -0.507 OA
ATOM     27  H   UNL     1       1.738   4.870 -34.330  1.00  0.00     0.293 HD
ENDBRANCH   6  26
BRANCH   8  28
ATOM     28  O   UNL     1       2.297   5.436 -28.650  1.00  0.00    -0.508 OA
ATOM     29  H   UNL     1       2.623   6.147 -28.005  1.00  0.00     0.293 HD
ENDBRANCH   8  28
TORSDOF 7
ENDMDL
MODEL 3
REMARK VINA RESULT:    -5.799      1.758      3.181
REMARK INTER + INTRA:          -7.512
REMARK INTER:                  -7.866
REMARK INTRA:                   0.354
REMARK UNBOUND:                -0.357
REMARK SMILES O=c1c(O)c(-c2cc(O)c(O)c(O)c2)oc2cc(O)cc(O)c12
REMARK SMILES IDX 5 1 3 2 2 3 1 4 23 5 21 6 20 7 18 8 17 9 16 10 15 11 6 12
REMARK SMILES IDX 7 13 8 14 14 15 10 16 12 17 9 18 11 20 13 22 4 24 22 26
REMARK SMILES IDX 19 28
REMARK H PARENT 9 19 11 21 13 23 4 25 22 27 19 29
REMARK Flexibility Score: inf
ROOT
ATOM      1  C   UNL     1       6.630   5.356 -32.765  1.00  0.00     0.180 A 
ATOM      2  C   UNL     1       5.900   4.995 -33.910  1.00  0.00     0.208 A 
ATOM      3  C   UNL     1       4.511   4.813 -33.804  1.00  0.00     0.238 A 
ATOM      4  O   UNL     1       3.871   4.437 -34.820  1.00  0.00    -0.285 OA
ATOM      5  C   UNL     1       3.869   5.012 -32.558  1.00  0.00     0.111 A 
ATOM      6  C   UNL     1       2.462   4.895 -32.344  1.00  0.00     0.134 A 
ATOM      7  C   UNL     1       1.951   4.985 -31.044  1.00  0.00     0.093 A 
ATOM      8  C   UNL     1       2.789   5.253 -29.958  1.00  0.00     0.123 A 
ATOM      9  C   UNL     1       4.155   5.428 -30.165  1.00  0.00     0.094 A 
ATOM     10  C   UNL     1       4.699   5.307 -31.445  1.00  0.00     0.146 A 
ATOM     11  O   UNL     1       6.007   5.471 -31.597  1.00  0.00    -0.452 OA
ENDROOT
BRANCH   1  12
ATOM     12  C   UNL     1       8.092   5.590 -32.803  1.00  0.00     0.029 A 
ATOM     13  C   UNL     1       8.689   6.391 -31.819  1.00  0.00     0.062 A 
ATOM     14  C   UNL     1      10.064   6.646 -31.842  1.00  0.00     0.162 A 
ATOM     15  C   UNL     1       8.887   5.073 -33.839  1.00  0.00     0.062 A 
ATOM     16  C   UNL     1      10.860   6.108 -32.868  1.00  0.00     0.200 A 
ATOM     17  C   UNL     1      10.267   5.323 -33.871  1.00  0.00     0.162 A 
BRANCH  14  18
ATOM     18  O   UNL     1      10.621   7.435 -30.837  1.00  0.00    -0.504 OA
ATOM     19  H   UNL     1      10.463   8.435 -30.786  1.00  0.00     0.293 HD
ENDBRANCH  14  18
BRANCH  16  20
ATOM     20  O   UNL     1      12.232   6.365 -32.883  1.00  0.00    -0.502 OA
ATOM     21  H   UNL     1      12.882   5.793 -33.409  1.00  0.00     0.293 HD
ENDBRANCH  16  20
BRANCH  17  22
ATOM     22  O   UNL     1      11.048   4.799 -34.900  1.00  0.00    -0.504 OA
ATOM     23  H   UNL     1      12.032   5.023 -34.988  1.00  0.00     0.293 HD
ENDBRANCH  17  22
ENDBRANCH   1  12
BRANCH   2  24
ATOM     24  O   UNL     1       6.558   4.782 -35.125  1.00  0.00    -0.502 OA
ATOM     25  H   UNL     1       7.469   5.178 -35.325  1.00  0.00     0.293 HD
ENDBRANCH   2  24
BRANCH   6  26
ATOM     26  O   UNL     1       1.528   4.720 -33.371  1.00  0.00    -0.507 OA
ATOM     27  H   UNL     1       0.918   3.922 -33.462  1.00  0.00     0.293 HD
ENDBRANCH   6  26
BRANCH   8  28
ATOM     28  O   UNL     1       2.270   5.358 -28.670  1.00  0.00    -0.508 OA
ATOM     29  H   UNL     1       2.873   5.386 -27.855  1.00  0.00     0.293 HD
ENDBRANCH   8  28
TORSDOF 7
ENDMDL
MODEL 4
REMARK VINA RESULT:    -5.761      1.856      7.428
REMARK INTER + INTRA:          -7.465
REMARK INTER:                  -7.502
REMARK INTRA:                   0.037
REMARK UNBOUND:                -0.357
REMARK SMILES O=c1c(O)c(-c2cc(O)c(O)c(O)c2)oc2cc(O)cc(O)c12
REMARK SMILES IDX 5 1 3 2 2 3 1 4 23 5 21 6 20 7 18 8 17 9 16 10 15 11 6 12
REMARK SMILES IDX 7 13 8 14 14 15 10 16 12 17 9 18 11 20 13 22 4 24 22 26
REMARK SMILES IDX 19 28
REMARK H PARENT 9 19 11 21 13 23 4 25 22 27 19 29
REMARK Flexibility Score: inf
ROOT
ATOM      1  C   UNL     1       5.492   4.684 -32.543  1.00  0.00     0.180 A 
ATOM      2  C   UNL     1       5.720   3.702 -33.523  1.00  0.00     0.208 A 
ATOM      3  C   UNL     1       7.010   3.561 -34.058  1.00  0.00     0.238 A 
ATOM      4  O   UNL     1       7.195   2.717 -34.974  1.00  0.00    -0.285 OA
ATOM      5  C   UNL     1       8.059   4.391 -33.596  1.00  0.00     0.111 A 
ATOM      6  C   UNL     1       9.414   4.307 -34.039  1.00  0.00     0.134 A 
ATOM      7  C   UNL     1      10.342   5.264 -33.611  1.00  0.00     0.093 A 
ATOM      8  C   UNL     1       9.978   6.263 -32.703  1.00  0.00     0.123 A 
ATOM      9  C   UNL     1       8.674   6.317 -32.219  1.00  0.00     0.094 A 
ATOM     10  C   UNL     1       7.717   5.398 -32.656  1.00  0.00     0.146 A 
ATOM     11  O   UNL     1       6.482   5.491 -32.178  1.00  0.00    -0.452 OA
ENDROOT
BRANCH   1  12
ATOM     12  C   UNL     1       4.165   4.877 -31.913  1.00  0.00     0.029 A 
ATOM     13  C   UNL     1       3.026   4.988 -32.725  1.00  0.00     0.062 A 
ATOM     14  C   UNL     1       1.763   5.191 -32.159  1.00  0.00     0.162 A 
ATOM     15  C   UNL     1       4.029   5.008 -30.522  1.00  0.00     0.062 A 
ATOM     16  C   UNL     1       1.629   5.300 -30.765  1.00  0.00     0.200 A 
ATOM     17  C   UNL     1       2.767   5.212 -29.946  1.00  0.00     0.162 A 
BRANCH  14  18
ATOM     18  O   UNL     1       0.655   5.281 -33.000  1.00  0.00    -0.504 OA
ATOM     19  H   UNL     1       0.722   5.641 -33.945  1.00  0.00     0.293 HD
ENDBRANCH  14  18
BRANCH  16  20
ATOM     20  O   UNL     1       0.364   5.500 -30.208  1.00  0.00    -0.502 OA
ATOM     21  H   UNL     1      -0.396   5.917 -30.731  1.00  0.00     0.293 HD
ENDBRANCH  16  20
BRANCH  17  22
ATOM     22  O   UNL     1       2.643   5.334 -28.562  1.00  0.00    -0.504 OA
ATOM     23  H   UNL     1       2.806   6.216 -28.090  1.00  0.00     0.293 HD
ENDBRANCH  17  22
ENDBRANCH   1  12
BRANCH   2  24
ATOM     24  O   UNL     1       4.664   2.908 -33.980  1.00  0.00    -0.502 OA
ATOM     25  H   UNL     1       4.167   3.109 -34.839  1.00  0.00     0.293 HD
ENDBRANCH   2  24
BRANCH   6  26
ATOM     26  O   UNL     1       9.902   3.295 -34.872  1.00  0.00    -0.507 OA
ATOM     27  H   UNL     1      10.637   3.414 -35.551  1.00  0.00     0.293 HD
ENDBRANCH   6  26
BRANCH   8  28
ATOM     28  O   UNL     1      10.912   7.202 -32.269  1.00  0.00    -0.508 OA
ATOM     29  H   UNL     1      11.071   7.375 -31.283  1.00  0.00     0.293 HD
ENDBRANCH   8  28
TORSDOF 7
ENDMDL
MODEL 5
REMARK VINA RESULT:    -5.596      3.468      9.067
REMARK INTER + INTRA:          -7.261
REMARK INTER:                  -6.903
REMARK INTRA:                  -0.358
REMARK UNBOUND:                -0.357
REMARK SMILES O=c1c(O)c(-c2cc(O)c(O)c(O)c2)oc2cc(O)cc(O)c12
REMARK SMILES IDX 5 1 3 2 2 3 1 4 23 5 21 6 20 7 18 8 17 9 16 10 15 11 6 12
REMARK SMILES IDX 7 13 8 14 14 15 10 16 12 17 9 18 11 20 13 22 4 24 22 26
REMARK SMILES IDX 19 28
REMARK H PARENT 9 19 11 21 13 23 4 25 22 27 19 29
REMARK Flexibility Score: inf
ROOT
ATOM      1  C   UNL     1      11.466   5.723 -33.192  1.00  0.00     0.180 A 
ATOM      2  C   UNL     1      12.075   6.499 -34.194  1.00  0.00     0.208 A 
ATOM      3  C   UNL     1      13.475   6.601 -34.220  1.00  0.00     0.238 A 
ATOM      4  O   UNL     1      14.011   7.341 -35.086  1.00  0.00    -0.285 OA
ATOM      5  C   UNL     1      14.249   5.915 -33.253  1.00  0.00     0.111 A 
ATOM      6  C   UNL     1      15.676   5.916 -33.209  1.00  0.00     0.134 A 
ATOM      7  C   UNL     1      16.334   5.309 -32.132  1.00  0.00     0.093 A 
ATOM      8  C   UNL     1      15.618   4.644 -31.133  1.00  0.00     0.123 A 
ATOM      9  C   UNL     1      14.228   4.587 -31.199  1.00  0.00     0.094 A 
ATOM     10  C   UNL     1      13.542   5.214 -32.241  1.00  0.00     0.146 A 
ATOM     11  O   UNL     1      12.216   5.145 -32.261  1.00  0.00    -0.452 OA
ENDROOT
BRANCH   1  12
ATOM     12  C   UNL     1       9.997   5.546 -33.116  1.00  0.00     0.029 A 
ATOM     13  C   UNL     1       9.256   6.320 -32.210  1.00  0.00     0.062 A 
ATOM     14  C   UNL     1       7.871   6.160 -32.101  1.00  0.00     0.162 A 
ATOM     15  C   UNL     1       9.336   4.579 -33.891  1.00  0.00     0.062 A 
ATOM     16  C   UNL     1       7.210   5.206 -32.894  1.00  0.00     0.200 A 
ATOM     17  C   UNL     1       7.948   4.412 -33.788  1.00  0.00     0.162 A 
BRANCH  14  18
ATOM     18  O   UNL     1       7.168   6.958 -31.200  1.00  0.00    -0.504 OA
ATOM     19  H   UNL     1       7.594   7.754 -30.739  1.00  0.00     0.293 HD
ENDBRANCH  14  18
BRANCH  16  20
ATOM     20  O   UNL     1       5.827   5.055 -32.782  1.00  0.00    -0.502 OA
ATOM     21  H   UNL     1       5.368   4.936 -31.887  1.00  0.00     0.293 HD
ENDBRANCH  16  20
BRANCH  17  22
ATOM     22  O   UNL     1       7.301   3.453 -34.568  1.00  0.00    -0.504 OA
ATOM     23  H   UNL     1       6.830   3.700 -35.430  1.00  0.00     0.293 HD
ENDBRANCH  17  22
ENDBRANCH   1  12
BRANCH   2  24
ATOM     24  O   UNL     1      11.290   7.185 -35.125  1.00  0.00    -0.502 OA
ATOM     25  H   UNL     1      11.630   7.994 -35.631  1.00  0.00     0.293 HD
ENDBRANCH   2  24
BRANCH   6  26
ATOM     26  O   UNL     1      16.487   6.470 -34.204  1.00  0.00    -0.507 OA
ATOM     27  H   UNL     1      17.422   6.159 -34.422  1.00  0.00     0.293 HD
ENDBRANCH   6  26
BRANCH   8  28
ATOM     28  O   UNL     1      16.281   4.029 -30.074  1.00  0.00    -0.508 OA
ATOM     29  H   UNL     1      16.907   3.246 -30.222  1.00  0.00     0.293 HD
ENDBRANCH   8  28
TORSDOF 7
ENDMDL
MODEL 6
REMARK VINA RESULT:    -5.440      7.760     12.289
REMARK INTER + INTRA:          -7.069
REMARK INTER:                  -6.726
REMARK INTRA:                  -0.343
REMARK UNBOUND:                -0.357
REMARK SMILES O=c1c(O)c(-c2cc(O)c(O)c(O)c2)oc2cc(O)cc(O)c12
REMARK SMILES IDX 5 1 3 2 2 3 1 4 23 5 21 6 20 7 18 8 17 9 16 10 15 11 6 12
REMARK SMILES IDX 7 13 8 14 14 15 10 16 12 17 9 18 11 20 13 22 4 24 22 26
REMARK SMILES IDX 19 28
REMARK H PARENT 9 19 11 21 13 23 4 25 22 27 19 29
REMARK Flexibility Score: inf
ROOT
ATOM      1  C   UNL     1      16.440   3.896 -31.458  1.00  0.00     0.180 A 
ATOM      2  C   UNL     1      16.851   2.622 -31.890  1.00  0.00     0.208 A 
ATOM      3  C   UNL     1      17.631   1.831 -31.031  1.00  0.00     0.238 A 
ATOM      4  O   UNL     1      18.041   0.715 -31.444  1.00  0.00    -0.285 OA
ATOM      5  C   UNL     1      17.977   2.316 -29.747  1.00  0.00     0.111 A 
ATOM      6  C   UNL     1      18.730   1.583 -28.780  1.00  0.00     0.134 A 
ATOM      7  C   UNL     1      19.125   2.210 -27.592  1.00  0.00     0.093 A 
ATOM      8  C   UNL     1      18.739   3.523 -27.308  1.00  0.00     0.123 A 
ATOM      9  C   UNL     1      17.955   4.226 -28.220  1.00  0.00     0.094 A 
ATOM     10  C   UNL     1      17.576   3.640 -29.429  1.00  0.00     0.146 A 
ATOM     11  O   UNL     1      16.837   4.349 -30.274  1.00  0.00    -0.452 OA
ENDROOT
BRANCH   1  12
ATOM     12  C   UNL     1      15.595   4.778 -32.296  1.00  0.00     0.029 A 
ATOM     13  C   UNL     1      16.183   5.860 -32.969  1.00  0.00     0.062 A 
ATOM     14  C   UNL     1      15.406   6.721 -33.751  1.00  0.00     0.162 A 
ATOM     15  C   UNL     1      14.207   4.588 -32.387  1.00  0.00     0.062 A 
ATOM     16  C   UNL     1      14.020   6.515 -33.856  1.00  0.00     0.200 A 
ATOM     17  C   UNL     1      13.420   5.447 -33.168  1.00  0.00     0.162 A 
BRANCH  14  18
ATOM     18  O   UNL     1      16.031   7.775 -34.416  1.00  0.00    -0.504 OA
ATOM     19  H   UNL     1      16.259   8.646 -33.951  1.00  0.00     0.293 HD
ENDBRANCH  14  18
BRANCH  16  20
ATOM     20  O   UNL     1      13.253   7.377 -34.641  1.00  0.00    -0.502 OA
ATOM     21  H   UNL     1      12.553   7.991 -34.242  1.00  0.00     0.293 HD
ENDBRANCH  16  20
BRANCH  17  22
ATOM     22  O   UNL     1      12.043   5.246 -33.256  1.00  0.00    -0.504 OA
ATOM     23  H   UNL     1      11.493   5.657 -34.000  1.00  0.00     0.293 HD
ENDBRANCH  17  22
ENDBRANCH   1  12
BRANCH   2  24
ATOM     24  O   UNL     1      16.516   2.173 -33.170  1.00  0.00    -0.502 OA
ATOM     25  H   UNL     1      15.723   1.566 -33.342  1.00  0.00     0.293 HD
ENDBRANCH   2  24
BRANCH   6  26
ATOM     26  O   UNL     1      19.086   0.239 -28.924  1.00  0.00    -0.507 OA
ATOM     27  H   UNL     1      18.444  -0.505 -29.150  1.00  0.00     0.293 HD
ENDBRANCH   6  26
BRANCH   8  28
ATOM     28  O   UNL     1      19.123   4.134 -26.117  1.00  0.00    -0.508 OA
ATOM     29  H   UNL     1      20.065   4.482 -25.978  1.00  0.00     0.293 HD
ENDBRANCH   8  28
TORSDOF 7
ENDMDL
MODEL 7
REMARK VINA RESULT:    -5.434      8.536     12.061
REMARK INTER + INTRA:          -7.062
REMARK INTER:                  -6.710
REMARK INTRA:                  -0.352
REMARK UNBOUND:                -0.357
REMARK SMILES O=c1c(O)c(-c2cc(O)c(O)c(O)c2)oc2cc(O)cc(O)c12
REMARK SMILES IDX 5 1 3 2 2 3 1 4 23 5 21 6 20 7 18 8 17 9 16 10 15 11 6 12
REMARK SMILES IDX 7 13 8 14 14 15 10 16 12 17 9 18 11 20 13 22 4 24 22 26
REMARK SMILES IDX 19 28
REMARK H PARENT 9 19 11 21 13 23 4 25 22 27 19 29
REMARK Flexibility Score: inf
ROOT
ATOM      1  C   UNL     1      16.657   3.050 -31.422  1.00  0.00     0.180 A 
ATOM      2  C   UNL     1      17.375   3.151 -30.218  1.00  0.00     0.208 A 
ATOM      3  C   UNL     1      17.900   1.985 -29.638  1.00  0.00     0.238 A 
ATOM      4  O   UNL     1      18.495   2.075 -28.532  1.00  0.00    -0.285 OA
ATOM      5  C   UNL     1      17.715   0.736 -30.277  1.00  0.00     0.111 A 
ATOM      6  C   UNL     1      18.238  -0.504 -29.800  1.00  0.00     0.134 A 
ATOM      7  C   UNL     1      17.883  -1.696 -30.443  1.00  0.00     0.093 A 
ATOM      8  C   UNL     1      17.077  -1.687 -31.585  1.00  0.00     0.123 A 
ATOM      9  C   UNL     1      16.611  -0.477 -32.092  1.00  0.00     0.094 A 
ATOM     10  C   UNL     1      16.918   0.725 -31.452  1.00  0.00     0.146 A 
ATOM     11  O   UNL     1      16.444   1.855 -31.963  1.00  0.00    -0.452 OA
ENDROOT
BRANCH   1  12
ATOM     12  C   UNL     1      16.095   4.238 -32.107  1.00  0.00     0.029 A 
ATOM     13  C   UNL     1      14.820   4.700 -31.750  1.00  0.00     0.062 A 
ATOM     14  C   UNL     1      14.256   5.806 -32.394  1.00  0.00     0.162 A 
ATOM     15  C   UNL     1      16.789   4.877 -33.147  1.00  0.00     0.062 A 
ATOM     16  C   UNL     1      14.963   6.457 -33.420  1.00  0.00     0.200 A 
ATOM     17  C   UNL     1      16.231   5.987 -33.798  1.00  0.00     0.162 A 
BRANCH  14  18
ATOM     18  O   UNL     1      12.992   6.244 -31.999  1.00  0.00    -0.504 OA
ATOM     19  H   UNL     1      12.704   6.255 -31.028  1.00  0.00     0.293 HD
ENDBRANCH  14  18
BRANCH  16  20
ATOM     20  O   UNL     1      14.394   7.562 -34.055  1.00  0.00    -0.502 OA
ATOM     21  H   UNL     1      13.701   8.147 -33.603  1.00  0.00     0.293 HD
ENDBRANCH  16  20
BRANCH  17  22
ATOM     22  O   UNL     1      16.931   6.618 -34.826  1.00  0.00    -0.504 OA
ATOM     23  H   UNL     1      16.554   7.426 -35.307  1.00  0.00     0.293 HD
ENDBRANCH  17  22
ENDBRANCH   1  12
BRANCH   2  24
ATOM     24  O   UNL     1      17.527   4.392 -29.593  1.00  0.00    -0.502 OA
ATOM     25  H   UNL     1      18.400   4.904 -29.608  1.00  0.00     0.293 HD
ENDBRANCH   2  24
BRANCH   6  26
ATOM     26  O   UNL     1      19.125  -0.615 -28.725  1.00  0.00    -0.507 OA
ATOM     27  H   UNL     1      19.882  -1.279 -28.672  1.00  0.00     0.293 HD
ENDBRANCH   6  26
BRANCH   8  28
ATOM     28  O   UNL     1      16.742  -2.877 -32.227  1.00  0.00    -0.508 OA
ATOM     29  H   UNL     1      15.832  -3.306 -32.108  1.00  0.00     0.293 HD
ENDBRANCH   8  28
TORSDOF 7
ENDMDL
MODEL 8
REMARK VINA RESULT:    -5.416      1.874      6.879
REMARK INTER + INTRA:          -7.040
REMARK INTER:                  -6.890
REMARK INTRA:                  -0.149
REMARK UNBOUND:                -0.357
REMARK SMILES O=c1c(O)c(-c2cc(O)c(O)c(O)c2)oc2cc(O)cc(O)c12
REMARK SMILES IDX 5 1 3 2 2 3 1 4 23 5 21 6 20 7 18 8 17 9 16 10 15 11 6 12
REMARK SMILES IDX 7 13 8 14 14 15 10 16 12 17 9 18 11 20 13 22 4 24 22 26
REMARK SMILES IDX 19 28
REMARK H PARENT 9 19 11 21 13 23 4 25 22 27 19 29
REMARK Flexibility Score: inf
ROOT
ATOM      1  C   UNL     1       5.688   5.129 -32.281  1.00  0.00     0.180 A 
ATOM      2  C   UNL     1       6.607   6.177 -32.102  1.00  0.00     0.208 A 
ATOM      3  C   UNL     1       7.903   6.044 -32.627  1.00  0.00     0.238 A 
ATOM      4  O   UNL     1       8.737   6.963 -32.416  1.00  0.00    -0.285 OA
ATOM      5  C   UNL     1       8.258   4.872 -33.337  1.00  0.00     0.111 A 
ATOM      6  C   UNL     1       9.530   4.648 -33.946  1.00  0.00     0.134 A 
ATOM      7  C   UNL     1       9.814   3.399 -34.510  1.00  0.00     0.093 A 
ATOM      8  C   UNL     1       8.850   2.388 -34.547  1.00  0.00     0.123 A 
ATOM      9  C   UNL     1       7.586   2.618 -34.008  1.00  0.00     0.094 A 
ATOM     10  C   UNL     1       7.285   3.841 -33.405  1.00  0.00     0.146 A 
ATOM     11  O   UNL     1       6.072   4.015 -32.895  1.00  0.00    -0.452 OA
ENDROOT
BRANCH   1  12
ATOM     12  C   UNL     1       4.296   5.206 -31.779  1.00  0.00     0.029 A 
ATOM     13  C   UNL     1       4.065   5.303 -30.398  1.00  0.00     0.062 A 
ATOM     14  C   UNL     1       2.762   5.357 -29.895  1.00  0.00     0.162 A 
ATOM     15  C   UNL     1       3.199   5.127 -32.652  1.00  0.00     0.062 A 
ATOM     16  C   UNL     1       1.667   5.299 -30.774  1.00  0.00     0.200 A 
ATOM     17  C   UNL     1       1.889   5.179 -32.156  1.00  0.00     0.162 A 
BRANCH  14  18
ATOM     18  O   UNL     1       2.575   5.469 -28.518  1.00  0.00    -0.504 OA
ATOM     19  H   UNL     1       1.735   5.872 -28.119  1.00  0.00     0.293 HD
ENDBRANCH  14  18
BRANCH  16  20
ATOM     20  O   UNL     1       0.369   5.357 -30.263  1.00  0.00    -0.502 OA
ATOM     21  H   UNL     1      -0.105   6.236 -30.093  1.00  0.00     0.293 HD
ENDBRANCH  16  20
BRANCH  17  22
ATOM     22  O   UNL     1       0.807   5.106 -33.033  1.00  0.00    -0.504 OA
ATOM     23  H   UNL     1       0.722   5.732 -33.825  1.00  0.00     0.293 HD
ENDBRANCH  17  22
ENDBRANCH   1  12
BRANCH   2  24
ATOM     24  O   UNL     1       6.241   7.316 -31.379  1.00  0.00    -0.502 OA
ATOM     25  H   UNL     1       5.660   7.269 -30.551  1.00  0.00     0.293 HD
ENDBRANCH   2  24
BRANCH   6  26
ATOM     26  O   UNL     1      10.529   5.621 -34.046  1.00  0.00    -0.507 OA
ATOM     27  H   UNL     1      10.666   6.223 -34.843  1.00  0.00     0.293 HD
ENDBRANCH   6  26
BRANCH   8  28
ATOM     28  O   UNL     1       9.136   1.154 -35.125  1.00  0.00    -0.508 OA
ATOM     29  H   UNL     1       8.989   0.286 -34.623  1.00  0.00     0.293 HD
ENDBRANCH   8  28
TORSDOF 7
ENDMDL
MODEL 9
REMARK VINA RESULT:    -5.413      2.180      6.993
REMARK INTER + INTRA:          -7.035
REMARK INTER:                  -6.679
REMARK INTRA:                  -0.356
REMARK UNBOUND:                -0.357
REMARK SMILES O=c1c(O)c(-c2cc(O)c(O)c(O)c2)oc2cc(O)cc(O)c12
REMARK SMILES IDX 5 1 3 2 2 3 1 4 23 5 21 6 20 7 18 8 17 9 16 10 15 11 6 12
REMARK SMILES IDX 7 13 8 14 14 15 10 16 12 17 9 18 11 20 13 22 4 24 22 26
REMARK SMILES IDX 19 28
REMARK H PARENT 9 19 11 21 13 23 4 25 22 27 19 29
REMARK Flexibility Score: inf
ROOT
ATOM      1  C   UNL     1       7.485   5.031 -32.933  1.00  0.00     0.180 A 
ATOM      2  C   UNL     1       8.097   6.054 -32.187  1.00  0.00     0.208 A 
ATOM      3  C   UNL     1       9.496   6.167 -32.206  1.00  0.00     0.238 A 
ATOM      4  O   UNL     1      10.041   7.051 -31.493  1.00  0.00    -0.285 OA
ATOM      5  C   UNL     1      10.265   5.268 -32.983  1.00  0.00     0.111 A 
ATOM      6  C   UNL     1      11.687   5.316 -33.108  1.00  0.00     0.134 A 
ATOM      7  C   UNL     1      12.354   4.298 -33.799  1.00  0.00     0.093 A 
ATOM      8  C   UNL     1      11.646   3.268 -34.425  1.00  0.00     0.123 A 
ATOM      9  C   UNL     1      10.255   3.246 -34.359  1.00  0.00     0.094 A 
ATOM     10  C   UNL     1       9.564   4.228 -33.646  1.00  0.00     0.146 A 
ATOM     11  O   UNL     1       8.239   4.163 -33.600  1.00  0.00    -0.452 OA
ENDROOT
BRANCH   1  12
ATOM     12  C   UNL     1       6.015   4.863 -32.983  1.00  0.00     0.029 A 
ATOM     13  C   UNL     1       5.404   3.888 -32.179  1.00  0.00     0.062 A 
ATOM     14  C   UNL     1       4.020   3.693 -32.220  1.00  0.00     0.162 A 
ATOM     15  C   UNL     1       5.222   5.620 -33.861  1.00  0.00     0.062 A 
ATOM     16  C   UNL     1       3.228   4.468 -33.085  1.00  0.00     0.200 A 
ATOM     17  C   UNL     1       3.834   5.431 -33.909  1.00  0.00     0.162 A 
BRANCH  14  18
ATOM     18  O   UNL     1       3.450   2.725 -31.395  1.00  0.00    -0.504 OA
ATOM     19  H   UNL     1       3.975   1.925 -31.061  1.00  0.00     0.293 HD
ENDBRANCH  14  18
BRANCH  16  20
ATOM     20  O   UNL     1       1.847   4.270 -33.118  1.00  0.00    -0.502 OA
ATOM     21  H   UNL     1       1.409   3.631 -33.771  1.00  0.00     0.293 HD
ENDBRANCH  16  20
BRANCH  17  22
ATOM     22  O   UNL     1       3.055   6.194 -34.780  1.00  0.00    -0.504 OA
ATOM     23  H   UNL     1       2.171   6.594 -34.490  1.00  0.00     0.293 HD
ENDBRANCH  17  22
ENDBRANCH   1  12
BRANCH   2  24
ATOM     24  O   UNL     1       7.319   6.916 -31.409  1.00  0.00    -0.502 OA
ATOM     25  H   UNL     1       7.275   7.913 -31.584  1.00  0.00     0.293 HD
ENDBRANCH   2  24
BRANCH   6  26
ATOM     26  O   UNL     1      12.480   6.350 -32.601  1.00  0.00    -0.507 OA
ATOM     27  H   UNL     1      12.209   6.968 -31.851  1.00  0.00     0.293 HD
ENDBRANCH   6  26
BRANCH   8  28
ATOM     28  O   UNL     1      12.317   2.268 -35.124  1.00  0.00    -0.508 OA
ATOM     29  H   UNL     1      13.187   1.875 -34.784  1.00  0.00     0.293 HD
ENDBRANCH   8  28
TORSDOF 7
ENDMDL
