MODEL 1
REMARK VINA RESULT:    -5.352      0.000      0.000
REMARK INTER + INTRA:         -10.017
REMARK INTER:                  -8.168
REMARK INTRA:                  -1.849
REMARK UNBOUND:                -1.849
REMARK SMILES CC(=O)CCC=C(C)CCC=C(C)CCC=C(C)C
REMARK SMILES IDX 10 1 11 2 12 3 13 4 14 5 15 6 16 7 18 8 17 9 19 10 9 11 7 12
REMARK SMILES IDX 6 13 8 14 5 15 4 16 2 17 3 18 1 19
REMARK H PARENT
REMARK Flexibility Score: inf
ROOT
ATOM      1  C   UNL     1      19.725 -23.750 -24.132  1.00  0.00     0.032 C 
ENDROOT
BRANCH   1   2
ATOM      2  C   UNL     1      19.038 -22.998 -23.017  1.00  0.00    -0.028 C 
ATOM      3  C   UNL     1      18.649 -21.705 -23.089  1.00  0.00    -0.077 C 
ATOM      4  C   UNL     1      18.962 -20.843 -24.289  1.00  0.00     0.039 C 
BRANCH   3   5
ATOM      5  C   UNL     1      17.898 -21.100 -21.923  1.00  0.00     0.034 C 
BRANCH   5   6
ATOM      6  C   UNL     1      18.856 -20.349 -20.991  1.00  0.00     0.032 C 
BRANCH   6   7
ATOM      7  C   UNL     1      19.162 -21.170 -19.764  1.00  0.00    -0.028 C 
ATOM      8  C   UNL     1      18.973 -21.896 -17.423  1.00  0.00     0.039 C 
ATOM      9  C   UNL     1      18.534 -21.030 -18.575  1.00  0.00    -0.080 C 
ATOM     10  C   UNL     1      17.402 -20.047 -18.379  1.00  0.00     0.039 C 
ENDBRANCH   6   7
ENDBRANCH   5   6
ENDBRANCH   3   5
ENDBRANCH   1   2
BRANCH   1  11
ATOM     11  C   UNL     1      18.878 -24.930 -24.627  1.00  0.00     0.034 C 
BRANCH  11  12
ATOM     12  C   UNL     1      17.777 -24.484 -25.568  1.00  0.00    -0.077 C 
ATOM     13  C   UNL     1      18.033 -23.496 -26.456  1.00  0.00    -0.028 C 
ATOM     14  C   UNL     1      16.435 -25.173 -25.503  1.00  0.00     0.039 C 
BRANCH  13  15
ATOM     15  C   UNL     1      17.022 -22.935 -27.428  1.00  0.00     0.035 C 
BRANCH  15  16
ATOM     16  C   UNL     1      16.444 -21.599 -26.943  1.00  0.00     0.079 C 
BRANCH  16  17
ATOM     17  C   UNL     1      15.263 -21.804 -26.031  1.00  0.00     0.130 C 
ATOM     18  O   UNL     1      14.277 -22.396 -26.443  1.00  0.00    -0.300 OA
ATOM     19  C   UNL     1      15.292 -21.326 -24.610  1.00  0.00     0.087 C 
ENDBRANCH  16  17
ENDBRANCH  15  16
ENDBRANCH  13  15
ENDBRANCH  11  12
ENDBRANCH   1  11
TORSDOF 9
ENDMDL
MODEL 2
REMARK VINA RESULT:    -5.218      1.977      3.759
REMARK INTER + INTRA:          -9.813
REMARK INTER:                  -7.052
REMARK INTRA:                  -2.762
REMARK UNBOUND:                -1.849
REMARK SMILES CC(=O)CCC=C(C)CCC=C(C)CCC=C(C)C
REMARK SMILES IDX 10 1 11 2 12 3 13 4 14 5 15 6 16 7 18 8 17 9 19 10 9 11 7 12
REMARK SMILES IDX 6 13 8 14 5 15 4 16 2 17 3 18 1 19
REMARK H PARENT
REMARK Flexibility Score: inf
ROOT
ATOM      1  C   UNL     1      19.410 -21.948 -25.835  1.00  0.00     0.032 C 
ENDROOT
BRANCH   1   2
ATOM      2  C   UNL     1      19.636 -23.115 -24.904  1.00  0.00    -0.028 C 
ATOM      3  C   UNL     1      18.933 -24.269 -24.935  1.00  0.00    -0.077 C 
ATOM      4  C   UNL     1      17.761 -24.465 -25.867  1.00  0.00     0.039 C 
BRANCH   3   5
ATOM      5  C   UNL     1      19.320 -25.388 -23.993  1.00  0.00     0.034 C 
BRANCH   5   6
ATOM      6  C   UNL     1      19.568 -24.847 -22.580  1.00  0.00     0.032 C 
BRANCH   6   7
ATOM      7  C   UNL     1      18.264 -24.550 -21.883  1.00  0.00    -0.028 C 
ATOM      8  C   UNL     1      16.621 -23.220 -20.630  1.00  0.00     0.039 C 
ATOM      9  C   UNL     1      17.949 -23.359 -21.329  1.00  0.00    -0.080 C 
ATOM     10  C   UNL     1      18.878 -22.169 -21.404  1.00  0.00     0.039 C 
ENDBRANCH   6   7
ENDBRANCH   5   6
ENDBRANCH   3   5
ENDBRANCH   1   2
BRANCH   1  11
ATOM     11  C   UNL     1      18.705 -20.784 -25.126  1.00  0.00     0.034 C 
BRANCH  11  12
ATOM     12  C   UNL     1      17.196 -20.925 -25.166  1.00  0.00    -0.077 C 
ATOM     13  C   UNL     1      16.546 -21.342 -24.055  1.00  0.00    -0.028 C 
ATOM     14  C   UNL     1      16.460 -20.573 -26.437  1.00  0.00     0.039 C 
BRANCH  13  15
ATOM     15  C   UNL     1      15.054 -21.556 -23.965  1.00  0.00     0.035 C 
BRANCH  15  16
ATOM     16  C   UNL     1      14.695 -23.043 -23.854  1.00  0.00     0.079 C 
BRANCH  16  17
ATOM     17  C   UNL     1      14.100 -23.567 -25.135  1.00  0.00     0.130 C 
ATOM     18  O   UNL     1      13.694 -22.782 -25.978  1.00  0.00    -0.300 OA
ATOM     19  C   UNL     1      14.034 -25.040 -25.410  1.00  0.00     0.087 C 
ENDBRANCH  16  17
ENDBRANCH  15  16
ENDBRANCH  13  15
ENDBRANCH  11  12
ENDBRANCH   1  11
TORSDOF 9
ENDMDL
MODEL 3
REMARK VINA RESULT:    -5.208      2.610      5.923
REMARK INTER + INTRA:          -9.797
REMARK INTER:                  -7.252
REMARK INTRA:                  -2.546
REMARK UNBOUND:                -1.849
REMARK SMILES CC(=O)CCC=C(C)CCC=C(C)CCC=C(C)C
REMARK SMILES IDX 10 1 11 2 12 3 13 4 14 5 15 6 16 7 18 8 17 9 19 10 9 11 7 12
REMARK SMILES IDX 6 13 8 14 5 15 4 16 2 17 3 18 1 19
REMARK H PARENT
REMARK Flexibility Score: inf
ROOT
ATOM      1  C   UNL     1      19.556 -21.759 -25.527  1.00  0.00     0.032 C 
ENDROOT
BRANCH   1   2
ATOM      2  C   UNL     1      18.880 -23.091 -25.747  1.00  0.00    -0.028 C 
ATOM      3  C   UNL     1      19.018 -24.165 -24.937  1.00  0.00    -0.077 C 
ATOM      4  C   UNL     1      19.962 -24.160 -23.759  1.00  0.00     0.039 C 
BRANCH   3   5
ATOM      5  C   UNL     1      18.218 -25.414 -25.235  1.00  0.00     0.034 C 
BRANCH   5   6
ATOM      6  C   UNL     1      16.802 -25.054 -25.702  1.00  0.00     0.032 C 
BRANCH   6   7
ATOM      7  C   UNL     1      15.834 -25.086 -24.546  1.00  0.00    -0.028 C 
ATOM      8  C   UNL     1      13.840 -24.469 -23.249  1.00  0.00     0.039 C 
ATOM      9  C   UNL     1      14.693 -24.364 -24.486  1.00  0.00    -0.080 C 
ATOM     10  C   UNL     1      14.247 -23.475 -25.625  1.00  0.00     0.039 C 
ENDBRANCH   6   7
ENDBRANCH   5   6
ENDBRANCH   3   5
ENDBRANCH   1   2
BRANCH   1  11
ATOM     11  C   UNL     1      18.554 -20.677 -25.100  1.00  0.00     0.034 C 
BRANCH  11  12
ATOM     12  C   UNL     1      17.985 -20.943 -23.720  1.00  0.00    -0.077 C 
ATOM     13  C   UNL     1      18.787 -20.800 -22.640  1.00  0.00    -0.028 C 
ATOM     14  C   UNL     1      16.532 -21.335 -23.591  1.00  0.00     0.039 C 
BRANCH  13  15
ATOM     15  C   UNL     1      18.360 -21.062 -21.216  1.00  0.00     0.035 C 
BRANCH  15  16
ATOM     16  C   UNL     1      19.053 -22.298 -20.629  1.00  0.00     0.079 C 
BRANCH  16  17
ATOM     17  C   UNL     1      18.057 -23.356 -20.231  1.00  0.00     0.130 C 
ATOM     18  O   UNL     1      17.905 -23.629 -19.051  1.00  0.00    -0.300 OA
ATOM     19  C   UNL     1      17.218 -24.053 -21.261  1.00  0.00     0.087 C 
ENDBRANCH  16  17
ENDBRANCH  15  16
ENDBRANCH  13  15
ENDBRANCH  11  12
ENDBRANCH   1  11
TORSDOF 9
ENDMDL
MODEL 4
REMARK VINA RESULT:    -5.156      1.876      3.401
REMARK INTER + INTRA:          -9.718
REMARK INTER:                  -7.290
REMARK INTRA:                  -2.429
REMARK UNBOUND:                -1.849
REMARK SMILES CC(=O)CCC=C(C)CCC=C(C)CCC=C(C)C
REMARK SMILES IDX 10 1 11 2 12 3 13 4 14 5 15 6 16 7 18 8 17 9 19 10 9 11 7 12
REMARK SMILES IDX 6 13 8 14 5 15 4 16 2 17 3 18 1 19
REMARK H PARENT
REMARK Flexibility Score: inf
ROOT
ATOM      1  C   UNL     1      18.774 -20.800 -25.076  1.00  0.00     0.032 C 
ENDROOT
BRANCH   1   2
ATOM      2  C   UNL     1      18.880 -20.722 -23.572  1.00  0.00    -0.028 C 
ATOM      3  C   UNL     1      17.905 -21.093 -22.713  1.00  0.00    -0.077 C 
ATOM      4  C   UNL     1      16.546 -21.542 -23.194  1.00  0.00     0.039 C 
BRANCH   3   5
ATOM      5  C   UNL     1      18.178 -21.035 -21.226  1.00  0.00     0.034 C 
BRANCH   5   6
ATOM      6  C   UNL     1      18.401 -22.442 -20.659  1.00  0.00     0.032 C 
BRANCH   6   7
ATOM      7  C   UNL     1      19.479 -23.164 -21.428  1.00  0.00    -0.028 C 
ATOM      8  C   UNL     1      20.545 -25.035 -22.613  1.00  0.00     0.039 C 
ATOM      9  C   UNL     1      19.369 -24.428 -21.893  1.00  0.00    -0.080 C 
ATOM     10  C   UNL     1      18.103 -25.235 -21.724  1.00  0.00     0.039 C 
ENDBRANCH   6   7
ENDBRANCH   5   6
ENDBRANCH   3   5
ENDBRANCH   1   2
BRANCH   1  11
ATOM     11  C   UNL     1      19.310 -22.134 -25.615  1.00  0.00     0.034 C 
BRANCH  11  12
ATOM     12  C   UNL     1      18.191 -23.083 -25.996  1.00  0.00    -0.077 C 
ATOM     13  C   UNL     1      18.014 -24.213 -25.275  1.00  0.00    -0.028 C 
ATOM     14  C   UNL     1      17.292 -22.726 -27.156  1.00  0.00     0.039 C 
BRANCH  13  15
ATOM     15  C   UNL     1      16.963 -25.257 -25.563  1.00  0.00     0.035 C 
BRANCH  15  16
ATOM     16  C   UNL     1      15.785 -25.168 -24.583  1.00  0.00     0.079 C 
BRANCH  16  17
ATOM     17  C   UNL     1      14.482 -24.937 -25.303  1.00  0.00     0.130 C 
ATOM     18  O   UNL     1      13.802 -25.893 -25.644  1.00  0.00    -0.300 OA
ATOM     19  C   UNL     1      13.984 -23.548 -25.573  1.00  0.00     0.087 C 
ENDBRANCH  16  17
ENDBRANCH  15  16
ENDBRANCH  13  15
ENDBRANCH  11  12
ENDBRANCH   1  11
TORSDOF 9
ENDMDL
MODEL 5
REMARK VINA RESULT:    -5.144      2.429      4.986
REMARK INTER + INTRA:          -9.700
REMARK INTER:                  -7.341
REMARK INTRA:                  -2.359
REMARK UNBOUND:                -1.849
REMARK SMILES CC(=O)CCC=C(C)CCC=C(C)CCC=C(C)C
REMARK SMILES IDX 10 1 11 2 12 3 13 4 14 5 15 6 16 7 18 8 17 9 19 10 9 11 7 12
REMARK SMILES IDX 6 13 8 14 5 15 4 16 2 17 3 18 1 19
REMARK H PARENT
REMARK Flexibility Score: inf
ROOT
ATOM      1  C   UNL     1      15.939 -22.177 -26.730  1.00  0.00     0.032 C 
ENDROOT
BRANCH   1   2
ATOM      2  C   UNL     1      17.316 -22.713 -26.421  1.00  0.00    -0.028 C 
ATOM      3  C   UNL     1      18.305 -21.998 -25.838  1.00  0.00    -0.077 C 
ATOM      4  C   UNL     1      18.148 -20.529 -25.522  1.00  0.00     0.039 C 
BRANCH   3   5
ATOM      5  C   UNL     1      19.612 -22.685 -25.514  1.00  0.00     0.034 C 
BRANCH   5   6
ATOM      6  C   UNL     1      19.366 -23.983 -24.736  1.00  0.00     0.032 C 
BRANCH   6   7
ATOM      7  C   UNL     1      20.349 -24.123 -23.601  1.00  0.00    -0.028 C 
ATOM      8  C   UNL     1      21.446 -25.187 -21.677  1.00  0.00     0.039 C 
ATOM      9  C   UNL     1      20.438 -25.205 -22.796  1.00  0.00    -0.080 C 
ATOM     10  C   UNL     1      19.572 -26.426 -22.999  1.00  0.00     0.039 C 
ENDBRANCH   6   7
ENDBRANCH   5   6
ENDBRANCH   3   5
ENDBRANCH   1   2
BRANCH   1  11
ATOM     11  C   UNL     1      14.863 -22.838 -25.856  1.00  0.00     0.034 C 
BRANCH  11  12
ATOM     12  C   UNL     1      15.091 -22.576 -24.380  1.00  0.00    -0.077 C 
ATOM     13  C   UNL     1      15.618 -23.557 -23.613  1.00  0.00    -0.028 C 
ATOM     14  C   UNL     1      14.745 -21.218 -23.816  1.00  0.00     0.039 C 
BRANCH  13  15
ATOM     15  C   UNL     1      15.868 -23.443 -22.129  1.00  0.00     0.035 C 
BRANCH  15  16
ATOM     16  C   UNL     1      17.346 -23.175 -21.817  1.00  0.00     0.079 C 
BRANCH  16  17
ATOM     17  C   UNL     1      17.598 -21.716 -21.539  1.00  0.00     0.130 C 
ATOM     18  O   UNL     1      16.784 -21.074 -20.893  1.00  0.00    -0.300 OA
ATOM     19  C   UNL     1      18.855 -21.046 -22.009  1.00  0.00     0.087 C 
ENDBRANCH  16  17
ENDBRANCH  15  16
ENDBRANCH  13  15
ENDBRANCH  11  12
ENDBRANCH   1  11
TORSDOF 9
ENDMDL
MODEL 6
REMARK VINA RESULT:    -5.075      3.108      4.788
REMARK INTER + INTRA:          -9.594
REMARK INTER:                  -7.433
REMARK INTRA:                  -2.161
REMARK UNBOUND:                -1.849
REMARK SMILES CC(=O)CCC=C(C)CCC=C(C)CCC=C(C)C
REMARK SMILES IDX 10 1 11 2 12 3 13 4 14 5 15 6 16 7 18 8 17 9 19 10 9 11 7 12
REMARK SMILES IDX 6 13 8 14 5 15 4 16 2 17 3 18 1 19
REMARK H PARENT
REMARK Flexibility Score: inf
ROOT
ATOM      1  C   UNL     1      18.567 -21.372 -25.255  1.00  0.00     0.032 C 
ENDROOT
BRANCH   1   2
ATOM      2  C   UNL     1      18.851 -20.655 -23.957  1.00  0.00    -0.028 C 
ATOM      3  C   UNL     1      18.212 -20.896 -22.790  1.00  0.00    -0.077 C 
ATOM      4  C   UNL     1      17.057 -21.865 -22.698  1.00  0.00     0.039 C 
BRANCH   3   5
ATOM      5  C   UNL     1      18.654 -20.157 -21.547  1.00  0.00     0.034 C 
BRANCH   5   6
ATOM      6  C   UNL     1      18.338 -20.973 -20.288  1.00  0.00     0.032 C 
BRANCH   6   7
ATOM      7  C   UNL     1      19.561 -21.714 -19.810  1.00  0.00    -0.028 C 
ATOM      8  C   UNL     1      20.917 -23.657 -19.157  1.00  0.00     0.039 C 
ATOM      9  C   UNL     1      19.640 -23.058 -19.685  1.00  0.00    -0.080 C 
ATOM     10  C   UNL     1      18.497 -23.966 -20.074  1.00  0.00     0.039 C 
ENDBRANCH   6   7
ENDBRANCH   5   6
ENDBRANCH   3   5
ENDBRANCH   1   2
BRANCH   1  11
ATOM     11  C   UNL     1      19.628 -22.439 -25.558  1.00  0.00     0.034 C 
BRANCH  11  12
ATOM     12  C   UNL     1      19.270 -23.783 -24.956  1.00  0.00    -0.077 C 
ATOM     13  C   UNL     1      19.974 -24.235 -23.893  1.00  0.00    -0.028 C 
ATOM     14  C   UNL     1      18.122 -24.568 -25.545  1.00  0.00     0.039 C 
BRANCH  13  15
ATOM     15  C   UNL     1      19.745 -25.565 -23.216  1.00  0.00     0.035 C 
BRANCH  15  16
ATOM     16  C   UNL     1      20.831 -25.872 -22.177  1.00  0.00     0.079 C 
BRANCH  16  17
ATOM     17  C   UNL     1      20.490 -27.092 -21.362  1.00  0.00     0.130 C 
ATOM     18  O   UNL     1      20.481 -27.021 -20.143  1.00  0.00    -0.300 OA
ATOM     19  C   UNL     1      20.121 -28.385 -22.026  1.00  0.00     0.087 C 
ENDBRANCH  16  17
ENDBRANCH  15  16
ENDBRANCH  13  15
ENDBRANCH  11  12
ENDBRANCH   1  11
TORSDOF 9
ENDMDL
MODEL 7
REMARK VINA RESULT:    -5.048      2.493      5.645
REMARK INTER + INTRA:          -9.552
REMARK INTER:                  -7.101
REMARK INTRA:                  -2.451
REMARK UNBOUND:                -1.849
REMARK SMILES CC(=O)CCC=C(C)CCC=C(C)CCC=C(C)C
REMARK SMILES IDX 10 1 11 2 12 3 13 4 14 5 15 6 16 7 18 8 17 9 19 10 9 11 7 12
REMARK SMILES IDX 6 13 8 14 5 15 4 16 2 17 3 18 1 19
REMARK H PARENT
REMARK Flexibility Score: inf
ROOT
ATOM      1  C   UNL     1      18.707 -25.321 -23.656  1.00  0.00     0.032 C 
ENDROOT
BRANCH   1   2
ATOM      2  C   UNL     1      17.580 -25.344 -24.661  1.00  0.00    -0.028 C 
ATOM      3  C   UNL     1      16.298 -25.014 -24.385  1.00  0.00    -0.077 C 
ATOM      4  C   UNL     1      15.845 -24.676 -22.985  1.00  0.00     0.039 C 
BRANCH   3   5
ATOM      5  C   UNL     1      15.285 -25.006 -25.509  1.00  0.00     0.034 C 
BRANCH   5   6
ATOM      6  C   UNL     1      14.493 -23.694 -25.517  1.00  0.00     0.032 C 
BRANCH   6   7
ATOM      7  C   UNL     1      15.329 -22.568 -26.072  1.00  0.00    -0.028 C 
ATOM      8  C   UNL     1      16.375 -20.345 -26.131  1.00  0.00     0.039 C 
ATOM      9  C   UNL     1      15.549 -21.395 -25.436  1.00  0.00    -0.080 C 
ATOM     10  C   UNL     1      15.005 -21.121 -24.053  1.00  0.00     0.039 C 
ENDBRANCH   6   7
ENDBRANCH   5   6
ENDBRANCH   3   5
ENDBRANCH   1   2
BRANCH   1  11
ATOM     11  C   UNL     1      19.834 -24.373 -24.089  1.00  0.00     0.034 C 
BRANCH  11  12
ATOM     12  C   UNL     1      19.356 -22.940 -24.211  1.00  0.00    -0.077 C 
ATOM     13  C   UNL     1      18.919 -22.297 -23.104  1.00  0.00    -0.028 C 
ATOM     14  C   UNL     1      19.405 -22.264 -25.561  1.00  0.00     0.039 C 
BRANCH  13  15
ATOM     15  C   UNL     1      18.388 -20.884 -23.087  1.00  0.00     0.035 C 
BRANCH  15  16
ATOM     16  C   UNL     1      18.947 -20.077 -21.908  1.00  0.00     0.079 C 
BRANCH  16  17
ATOM     17  C   UNL     1      18.107 -20.251 -20.670  1.00  0.00     0.130 C 
ATOM     18  O   UNL     1      18.632 -20.617 -19.629  1.00  0.00    -0.300 OA
ATOM     19  C   UNL     1      16.639 -19.942 -20.683  1.00  0.00     0.087 C 
ENDBRANCH  16  17
ENDBRANCH  15  16
ENDBRANCH  13  15
ENDBRANCH  11  12
ENDBRANCH   1  11
TORSDOF 9
ENDMDL
MODEL 8
REMARK VINA RESULT:    -5.020      2.496      5.643
REMARK INTER + INTRA:          -9.511
REMARK INTER:                  -7.399
REMARK INTRA:                  -2.112
REMARK UNBOUND:                -1.849
REMARK SMILES CC(=O)CCC=C(C)CCC=C(C)CCC=C(C)C
REMARK SMILES IDX 10 1 11 2 12 3 13 4 14 5 15 6 16 7 18 8 17 9 19 10 9 11 7 12
REMARK SMILES IDX 6 13 8 14 5 15 4 16 2 17 3 18 1 19
REMARK H PARENT
REMARK Flexibility Score: inf
ROOT
ATOM      1  C   UNL     1      19.974 -24.261 -23.707  1.00  0.00     0.032 C 
ENDROOT
BRANCH   1   2
ATOM      2  C   UNL     1      18.868 -24.226 -24.733  1.00  0.00    -0.028 C 
ATOM      3  C   UNL     1      18.738 -23.280 -25.690  1.00  0.00    -0.077 C 
ATOM      4  C   UNL     1      19.658 -22.084 -25.760  1.00  0.00     0.039 C 
BRANCH   3   5
ATOM      5  C   UNL     1      17.623 -23.412 -26.704  1.00  0.00     0.034 C 
BRANCH   5   6
ATOM      6  C   UNL     1      16.836 -22.101 -26.821  1.00  0.00     0.032 C 
BRANCH   6   7
ATOM      7  C   UNL     1      16.330 -21.659 -25.471  1.00  0.00    -0.028 C 
ATOM      8  C   UNL     1      14.700 -21.339 -23.661  1.00  0.00     0.039 C 
ATOM      9  C   UNL     1      15.075 -21.874 -25.018  1.00  0.00    -0.080 C 
ATOM     10  C   UNL     1      14.055 -22.644 -25.824  1.00  0.00     0.039 C 
ENDBRANCH   6   7
ENDBRANCH   5   6
ENDBRANCH   3   5
ENDBRANCH   1   2
BRANCH   1  11
ATOM     11  C   UNL     1      19.422 -24.249 -22.275  1.00  0.00     0.034 C 
BRANCH  11  12
ATOM     12  C   UNL     1      18.440 -23.115 -22.055  1.00  0.00    -0.077 C 
ATOM     13  C   UNL     1      18.869 -21.840 -22.187  1.00  0.00    -0.028 C 
ATOM     14  C   UNL     1      17.005 -23.444 -21.719  1.00  0.00     0.039 C 
BRANCH  13  15
ATOM     15  C   UNL     1      18.009 -20.619 -21.967  1.00  0.00     0.035 C 
BRANCH  15  16
ATOM     16  C   UNL     1      18.324 -19.930 -20.633  1.00  0.00     0.079 C 
BRANCH  16  17
ATOM     17  C   UNL     1      17.210 -20.117 -19.636  1.00  0.00     0.130 C 
ATOM     18  O   UNL     1      17.459 -20.101 -18.441  1.00  0.00    -0.300 OA
ATOM     19  C   UNL     1      15.789 -20.282 -20.088  1.00  0.00     0.087 C 
ENDBRANCH  16  17
ENDBRANCH  15  16
ENDBRANCH  13  15
ENDBRANCH  11  12
ENDBRANCH   1  11
TORSDOF 9
ENDMDL
MODEL 9
REMARK VINA RESULT:    -4.991      3.305      6.236
REMARK INTER + INTRA:          -9.466
REMARK INTER:                  -7.209
REMARK INTRA:                  -2.257
REMARK UNBOUND:                -1.849
REMARK SMILES CC(=O)CCC=C(C)CCC=C(C)CCC=C(C)C
REMARK SMILES IDX 10 1 11 2 12 3 13 4 14 5 15 6 16 7 18 8 17 9 19 10 9 11 7 12
REMARK SMILES IDX 6 13 8 14 5 15 4 16 2 17 3 18 1 19
REMARK H PARENT
REMARK Flexibility Score: inf
ROOT
ATOM      1  C   UNL     1      19.763 -25.399 -23.217  1.00  0.00     0.032 C 
ENDROOT
BRANCH   1   2
ATOM      2  C   UNL     1      19.976 -24.128 -24.005  1.00  0.00    -0.028 C 
ATOM      3  C   UNL     1      19.201 -23.727 -25.038  1.00  0.00    -0.077 C 
ATOM      4  C   UNL     1      18.079 -24.583 -25.575  1.00  0.00     0.039 C 
BRANCH   3   5
ATOM      5  C   UNL     1      19.482 -22.389 -25.687  1.00  0.00     0.034 C 
BRANCH   5   6
ATOM      6  C   UNL     1      18.442 -21.348 -25.257  1.00  0.00     0.032 C 
BRANCH   6   7
ATOM      7  C   UNL     1      18.869 -20.657 -23.986  1.00  0.00    -0.028 C 
ATOM      8  C   UNL     1      18.822 -20.090 -21.596  1.00  0.00     0.039 C 
ATOM      9  C   UNL     1      18.319 -20.883 -22.773  1.00  0.00    -0.080 C 
ATOM     10  C   UNL     1      17.232 -21.913 -22.566  1.00  0.00     0.039 C 
ENDBRANCH   6   7
ENDBRANCH   5   6
ENDBRANCH   3   5
ENDBRANCH   1   2
BRANCH   1  11
ATOM     11  C   UNL     1      20.310 -25.280 -21.788  1.00  0.00     0.034 C 
BRANCH  11  12
ATOM     12  C   UNL     1      19.321 -24.607 -20.856  1.00  0.00    -0.077 C 
ATOM     13  C   UNL     1      19.706 -23.504 -20.176  1.00  0.00    -0.028 C 
ATOM     14  C   UNL     1      17.926 -25.174 -20.735  1.00  0.00     0.039 C 
BRANCH  13  15
ATOM     15  C   UNL     1      18.837 -22.755 -19.195  1.00  0.00     0.035 C 
BRANCH  15  16
ATOM     16  C   UNL     1      19.556 -22.515 -17.861  1.00  0.00     0.079 C 
BRANCH  16  17
ATOM     17  C   UNL     1      19.435 -23.703 -16.944  1.00  0.00     0.130 C 
ATOM     18  O   UNL     1      20.368 -24.002 -16.215  1.00  0.00    -0.300 OA
ATOM     19  C   UNL     1      18.168 -24.504 -16.881  1.00  0.00     0.087 C 
ENDBRANCH  16  17
ENDBRANCH  15  16
ENDBRANCH  13  15
ENDBRANCH  11  12
ENDBRANCH   1  11
TORSDOF 9
ENDMDL
