MODEL 1
REMARK VINA RESULT:    -3.959      0.000      0.000
REMARK INTER + INTRA:          -7.400
REMARK INTER:                  -6.389
REMARK INTRA:                  -1.012
REMARK UNBOUND:                -1.012
REMARK SMILES CCCCCCCCCCCCO
REMARK SMILES IDX 7 1 6 2 5 3 4 4 3 5 2 6 1 7 8 8 9 9 10 10 11 11 12 12 13 13
REMARK H PARENT 13 14
REMARK Flexibility Score: inf
ROOT
ATOM      1  C   UNL     1      -5.203   4.674 -24.615  1.00  0.00     0.000 C 
ENDROOT
BRANCH   1   2
ATOM      2  C   UNL     1      -5.823   5.491 -23.469  1.00  0.00    -0.000 C 
BRANCH   2   3
ATOM      3  C   UNL     1      -6.457   4.608 -22.382  1.00  0.00    -0.000 C 
BRANCH   3   4
ATOM      4  C   UNL     1      -6.416   3.114 -22.738  1.00  0.00    -0.000 C 
BRANCH   4   5
ATOM      5  C   UNL     1      -5.574   2.291 -21.750  1.00  0.00    -0.000 C 
BRANCH   5   6
ATOM      6  C   UNL     1      -4.979   3.189 -20.658  1.00  0.00    -0.003 C 
ATOM      7  C   UNL     1      -4.935   2.466 -19.314  1.00  0.00     0.004 C 
ENDBRANCH   5   6
ENDBRANCH   4   5
ENDBRANCH   3   4
ENDBRANCH   2   3
ENDBRANCH   1   2
BRANCH   1   8
ATOM      8  C   UNL     1      -3.679   4.868 -24.760  1.00  0.00     0.000 C 
BRANCH   8   9
ATOM      9  C   UNL     1      -2.884   3.881 -23.887  1.00  0.00     0.000 C 
BRANCH   9  10
ATOM     10  C   UNL     1      -1.497   4.414 -23.500  1.00  0.00     0.002 C 
BRANCH  10  11
ATOM     11  C   UNL     1      -0.879   5.303 -24.590  1.00  0.00     0.028 C 
BRANCH  11  12
ATOM     12  C   UNL     1      -0.374   6.624 -24.002  1.00  0.00     0.156 C 
BRANCH  12  13
ATOM     13  O   UNL     1      -0.613   6.662 -22.621  1.00  0.00    -0.396 OA
ATOM     14  H   UNL     1      -0.879   5.743 -22.353  1.00  0.00     0.210 HD
ENDBRANCH  12  13
ENDBRANCH  11  12
ENDBRANCH  10  11
ENDBRANCH   9  10
ENDBRANCH   8   9
ENDBRANCH   1   8
TORSDOF 11
ENDMDL
MODEL 2
REMARK VINA RESULT:    -3.942      4.112      5.673
REMARK INTER + INTRA:          -7.374
REMARK INTER:                  -6.909
REMARK INTRA:                  -0.465
REMARK UNBOUND:                -1.012
REMARK SMILES CCCCCCCCCCCCO
REMARK SMILES IDX 7 1 6 2 5 3 4 4 3 5 2 6 1 7 8 8 9 9 10 10 11 11 12 12 13 13
REMARK H PARENT 13 14
REMARK Flexibility Score: inf
ROOT
ATOM      1  C   UNL     1      -1.811   2.471 -22.971  1.00  0.00     0.000 C 
ENDROOT
BRANCH   1   2
ATOM      2  C   UNL     1      -0.927   1.480 -23.747  1.00  0.00    -0.000 C 
BRANCH   2   3
ATOM      3  C   UNL     1      -0.302   0.405 -22.843  1.00  0.00    -0.000 C 
BRANCH   3   4
ATOM      4  C   UNL     1       1.215   0.269 -23.051  1.00  0.00    -0.000 C 
BRANCH   4   5
ATOM      5  C   UNL     1       1.926  -0.361 -21.843  1.00  0.00    -0.000 C 
BRANCH   5   6
ATOM      6  C   UNL     1       1.524  -1.832 -21.677  1.00  0.00    -0.003 C 
ATOM      7  C   UNL     1       2.606  -2.763 -22.216  1.00  0.00     0.004 C 
ENDBRANCH   5   6
ENDBRANCH   4   5
ENDBRANCH   3   4
ENDBRANCH   2   3
ENDBRANCH   1   2
BRANCH   1   8
ATOM      8  C   UNL     1      -2.412   3.586 -23.853  1.00  0.00     0.000 C 
BRANCH   8   9
ATOM      9  C   UNL     1      -1.530   3.895 -25.077  1.00  0.00     0.000 C 
BRANCH   9  10
ATOM     10  C   UNL     1      -0.493   4.993 -24.799  1.00  0.00     0.002 C 
BRANCH  10  11
ATOM     11  C   UNL     1      -1.018   6.400 -25.125  1.00  0.00     0.028 C 
BRANCH  11  12
ATOM     12  C   UNL     1      -0.757   7.367 -23.967  1.00  0.00     0.156 C 
BRANCH  12  13
ATOM     13  O   UNL     1      -0.500   6.652 -22.788  1.00  0.00    -0.396 OA
ATOM     14  H   UNL     1      -1.244   6.003 -22.682  1.00  0.00     0.210 HD
ENDBRANCH  12  13
ENDBRANCH  11  12
ENDBRANCH  10  11
ENDBRANCH   9  10
ENDBRANCH   8   9
ENDBRANCH   1   8
TORSDOF 11
ENDMDL
MODEL 3
REMARK VINA RESULT:    -3.847      1.477      2.866
REMARK INTER + INTRA:          -7.220
REMARK INTER:                  -6.667
REMARK INTRA:                  -0.553
REMARK UNBOUND:                -1.012
REMARK SMILES CCCCCCCCCCCCO
REMARK SMILES IDX 7 1 6 2 5 3 4 4 3 5 2 6 1 7 8 8 9 9 10 10 11 11 12 12 13 13
REMARK H PARENT 13 14
REMARK Flexibility Score: inf
ROOT
ATOM      1  C   UNL     1      -3.306   3.391 -22.516  1.00  0.00     0.000 C 
ENDROOT
BRANCH   1   2
ATOM      2  C   UNL     1      -4.010   2.455 -21.518  1.00  0.00    -0.000 C 
BRANCH   2   3
ATOM      3  C   UNL     1      -5.540   2.458 -21.676  1.00  0.00    -0.000 C 
BRANCH   3   4
ATOM      4  C   UNL     1      -6.070   3.779 -22.255  1.00  0.00    -0.000 C 
BRANCH   4   5
ATOM      5  C   UNL     1      -7.434   3.619 -22.945  1.00  0.00    -0.000 C 
BRANCH   5   6
ATOM      6  C   UNL     1      -7.786   2.138 -23.126  1.00  0.00    -0.003 C 
ATOM      7  C   UNL     1      -8.120   1.824 -24.582  1.00  0.00     0.004 C 
ENDBRANCH   5   6
ENDBRANCH   4   5
ENDBRANCH   3   4
ENDBRANCH   2   3
ENDBRANCH   1   2
BRANCH   1   8
ATOM      8  C   UNL     1      -1.971   2.831 -23.051  1.00  0.00     0.000 C 
BRANCH   8   9
ATOM      9  C   UNL     1      -1.644   3.360 -24.459  1.00  0.00     0.000 C 
BRANCH   9  10
ATOM     10  C   UNL     1      -1.836   4.880 -24.582  1.00  0.00     0.002 C 
BRANCH  10  11
ATOM     11  C   UNL     1      -0.506   5.634 -24.731  1.00  0.00     0.028 C 
BRANCH  11  12
ATOM     12  C   UNL     1      -0.547   6.973 -23.988  1.00  0.00     0.156 C 
BRANCH  12  13
ATOM     13  O   UNL     1      -0.589   6.757 -22.604  1.00  0.00    -0.396 OA
ATOM     14  H   UNL     1      -1.104   5.921 -22.461  1.00  0.00     0.210 HD
ENDBRANCH  12  13
ENDBRANCH  11  12
ENDBRANCH  10  11
ENDBRANCH   9  10
ENDBRANCH   8   9
ENDBRANCH   1   8
TORSDOF 11
ENDMDL
MODEL 4
REMARK VINA RESULT:    -3.845      1.281      2.876
REMARK INTER + INTRA:          -7.218
REMARK INTER:                  -6.398
REMARK INTRA:                  -0.820
REMARK UNBOUND:                -1.012
REMARK SMILES CCCCCCCCCCCCO
REMARK SMILES IDX 7 1 6 2 5 3 4 4 3 5 2 6 1 7 8 8 9 9 10 10 11 11 12 12 13 13
REMARK H PARENT 13 14
REMARK Flexibility Score: inf
ROOT
ATOM      1  C   UNL     1      -5.100   3.272 -21.486  1.00  0.00     0.000 C 
ENDROOT
BRANCH   1   2
ATOM      2  C   UNL     1      -5.840   1.952 -21.765  1.00  0.00    -0.000 C 
BRANCH   2   3
ATOM      3  C   UNL     1      -7.216   2.168 -22.417  1.00  0.00    -0.000 C 
BRANCH   3   4
ATOM      4  C   UNL     1      -7.286   3.469 -23.231  1.00  0.00    -0.000 C 
BRANCH   4   5
ATOM      5  C   UNL     1      -8.529   4.310 -22.901  1.00  0.00    -0.000 C 
BRANCH   5   6
ATOM      6  C   UNL     1      -8.207   5.372 -21.842  1.00  0.00    -0.003 C 
ATOM      7  C   UNL     1      -7.025   6.236 -22.271  1.00  0.00     0.004 C 
ENDBRANCH   5   6
ENDBRANCH   4   5
ENDBRANCH   3   4
ENDBRANCH   2   3
ENDBRANCH   1   2
BRANCH   1   8
ATOM      8  C   UNL     1      -3.752   3.393 -22.228  1.00  0.00     0.000 C 
BRANCH   8   9
ATOM      9  C   UNL     1      -3.899   4.111 -23.582  1.00  0.00     0.000 C 
BRANCH   9  10
ATOM     10  C   UNL     1      -2.590   4.135 -24.386  1.00  0.00     0.002 C 
BRANCH  10  11
ATOM     11  C   UNL     1      -1.374   4.513 -23.527  1.00  0.00     0.028 C 
BRANCH  11  12
ATOM     12  C   UNL     1      -0.860   5.910 -23.887  1.00  0.00     0.156 C 
BRANCH  12  13
ATOM     13  O   UNL     1      -0.586   6.640 -22.722  1.00  0.00    -0.396 OA
ATOM     14  H   UNL     1      -1.217   6.315 -22.027  1.00  0.00     0.210 HD
ENDBRANCH  12  13
ENDBRANCH  11  12
ENDBRANCH  10  11
ENDBRANCH   9  10
ENDBRANCH   8   9
ENDBRANCH   1   8
TORSDOF 11
ENDMDL
MODEL 5
REMARK VINA RESULT:    -3.833      5.867      7.388
REMARK INTER + INTRA:          -7.198
REMARK INTER:                  -6.938
REMARK INTRA:                  -0.260
REMARK UNBOUND:                -1.012
REMARK SMILES CCCCCCCCCCCCO
REMARK SMILES IDX 7 1 6 2 5 3 4 4 3 5 2 6 1 7 8 8 9 9 10 10 11 11 12 12 13 13
REMARK H PARENT 13 14
REMARK Flexibility Score: inf
ROOT
ATOM      1  C   UNL     1      -0.545   0.558 -22.892  1.00  0.00     0.000 C 
ENDROOT
BRANCH   1   2
ATOM      2  C   UNL     1       0.967   0.278 -22.850  1.00  0.00    -0.000 C 
BRANCH   2   3
ATOM      3  C   UNL     1       1.320  -0.972 -22.028  1.00  0.00    -0.000 C 
BRANCH   3   4
ATOM      4  C   UNL     1       2.359  -1.863 -22.727  1.00  0.00    -0.000 C 
BRANCH   4   5
ATOM      5  C   UNL     1       2.802  -3.052 -21.859  1.00  0.00    -0.000 C 
BRANCH   5   6
ATOM      6  C   UNL     1       3.600  -4.067 -22.686  1.00  0.00    -0.003 C 
ATOM      7  C   UNL     1       4.389  -5.012 -21.785  1.00  0.00     0.004 C 
ENDBRANCH   5   6
ENDBRANCH   4   5
ENDBRANCH   3   4
ENDBRANCH   2   3
ENDBRANCH   1   2
BRANCH   1   8
ATOM      8  C   UNL     1      -0.918   1.828 -23.686  1.00  0.00     0.000 C 
BRANCH   8   9
ATOM      9  C   UNL     1      -1.938   2.702 -22.935  1.00  0.00     0.000 C 
BRANCH   9  10
ATOM     10  C   UNL     1      -2.112   4.089 -23.570  1.00  0.00     0.002 C 
BRANCH  10  11
ATOM     11  C   UNL     1      -0.842   4.579 -24.281  1.00  0.00     0.028 C 
BRANCH  11  12
ATOM     12  C   UNL     1      -0.660   6.089 -24.104  1.00  0.00     0.156 C 
BRANCH  12  13
ATOM     13  O   UNL     1      -0.706   6.426 -22.744  1.00  0.00    -0.396 OA
ATOM     14  H   UNL     1      -0.913   5.590 -22.251  1.00  0.00     0.210 HD
ENDBRANCH  12  13
ENDBRANCH  11  12
ENDBRANCH  10  11
ENDBRANCH   9  10
ENDBRANCH   8   9
ENDBRANCH   1   8
TORSDOF 11
ENDMDL
MODEL 6
REMARK VINA RESULT:    -3.792      4.035      5.004
REMARK INTER + INTRA:          -7.132
REMARK INTER:                  -6.708
REMARK INTRA:                  -0.424
REMARK UNBOUND:                -1.012
REMARK SMILES CCCCCCCCCCCCO
REMARK SMILES IDX 7 1 6 2 5 3 4 4 3 5 2 6 1 7 8 8 9 9 10 10 11 11 12 12 13 13
REMARK H PARENT 13 14
REMARK Flexibility Score: inf
ROOT
ATOM      1  C   UNL     1      -1.688   2.368 -23.140  1.00  0.00     0.000 C 
ENDROOT
BRANCH   1   2
ATOM      2  C   UNL     1      -2.220   3.804 -23.289  1.00  0.00    -0.000 C 
BRANCH   2   3
ATOM      3  C   UNL     1      -3.755   3.877 -23.259  1.00  0.00    -0.000 C 
BRANCH   3   4
ATOM      4  C   UNL     1      -4.352   3.216 -22.006  1.00  0.00    -0.000 C 
BRANCH   4   5
ATOM      5  C   UNL     1      -5.735   3.777 -21.641  1.00  0.00    -0.000 C 
BRANCH   5   6
ATOM      6  C   UNL     1      -6.711   3.637 -22.815  1.00  0.00    -0.003 C 
ATOM      7  C   UNL     1      -7.315   2.236 -22.865  1.00  0.00     0.004 C 
ENDBRANCH   5   6
ENDBRANCH   4   5
ENDBRANCH   3   4
ENDBRANCH   2   3
ENDBRANCH   1   2
BRANCH   1   8
ATOM      8  C   UNL     1      -1.042   1.811 -24.427  1.00  0.00     0.000 C 
BRANCH   8   9
ATOM      9  C   UNL     1       0.261   1.045 -24.137  1.00  0.00     0.000 C 
BRANCH   9  10
ATOM     10  C   UNL     1       0.250   0.354 -22.765  1.00  0.00     0.002 C 
BRANCH  10  11
ATOM     11  C   UNL     1       1.638  -0.151 -22.344  1.00  0.00     0.028 C 
BRANCH  11  12
ATOM     12  C   UNL     1       1.589  -1.628 -21.944  1.00  0.00     0.156 C 
BRANCH  12  13
ATOM     13  O   UNL     1       0.439  -1.885 -21.184  1.00  0.00    -0.396 OA
ATOM     14  H   UNL     1      -0.275  -2.140 -21.826  1.00  0.00     0.210 HD
ENDBRANCH  12  13
ENDBRANCH  11  12
ENDBRANCH  10  11
ENDBRANCH   9  10
ENDBRANCH   8   9
ENDBRANCH   1   8
TORSDOF 11
ENDMDL
MODEL 7
REMARK VINA RESULT:    -3.776      4.118      6.109
REMARK INTER + INTRA:          -7.105
REMARK INTER:                  -6.407
REMARK INTRA:                  -0.698
REMARK UNBOUND:                -1.012
REMARK SMILES CCCCCCCCCCCCO
REMARK SMILES IDX 7 1 6 2 5 3 4 4 3 5 2 6 1 7 8 8 9 9 10 10 11 11 12 12 13 13
REMARK H PARENT 13 14
REMARK Flexibility Score: inf
ROOT
ATOM      1  C   UNL     1      -1.239   2.852 -24.843  1.00  0.00     0.000 C 
ENDROOT
BRANCH   1   2
ATOM      2  C   UNL     1      -0.593   1.490 -24.534  1.00  0.00    -0.000 C 
BRANCH   2   3
ATOM      3  C   UNL     1      -0.973   0.952 -23.144  1.00  0.00    -0.000 C 
BRANCH   3   4
ATOM      4  C   UNL     1       0.125   0.066 -22.534  1.00  0.00    -0.000 C 
BRANCH   4   5
ATOM      5  C   UNL     1       1.481   0.235 -23.236  1.00  0.00    -0.000 C 
BRANCH   5   6
ATOM      6  C   UNL     1       2.475  -0.837 -22.772  1.00  0.00    -0.003 C 
ATOM      7  C   UNL     1       1.766  -1.952 -22.008  1.00  0.00     0.004 C 
ENDBRANCH   5   6
ENDBRANCH   4   5
ENDBRANCH   3   4
ENDBRANCH   2   3
ENDBRANCH   1   2
BRANCH   1   8
ATOM      8  C   UNL     1      -1.922   3.504 -23.622  1.00  0.00     0.000 C 
BRANCH   8   9
ATOM      9  C   UNL     1      -3.278   4.135 -23.985  1.00  0.00     0.000 C 
BRANCH   9  10
ATOM     10  C   UNL     1      -4.365   3.850 -22.938  1.00  0.00     0.002 C 
BRANCH  10  11
ATOM     11  C   UNL     1      -3.854   2.992 -21.771  1.00  0.00     0.028 C 
BRANCH  11  12
ATOM     12  C   UNL     1      -4.778   3.109 -20.556  1.00  0.00     0.156 C 
BRANCH  12  13
ATOM     13  O   UNL     1      -4.189   2.497 -19.440  1.00  0.00    -0.396 OA
ATOM     14  H   UNL     1      -3.304   2.159 -19.735  1.00  0.00     0.210 HD
ENDBRANCH  12  13
ENDBRANCH  11  12
ENDBRANCH  10  11
ENDBRANCH   9  10
ENDBRANCH   8   9
ENDBRANCH   1   8
TORSDOF 11
ENDMDL
MODEL 8
REMARK VINA RESULT:    -3.770      2.065      2.466
REMARK INTER + INTRA:          -7.097
REMARK INTER:                  -6.050
REMARK INTRA:                  -1.047
REMARK UNBOUND:                -1.012
REMARK SMILES CCCCCCCCCCCCO
REMARK SMILES IDX 7 1 6 2 5 3 4 4 3 5 2 6 1 7 8 8 9 9 10 10 11 11 12 12 13 13
REMARK H PARENT 13 14
REMARK Flexibility Score: inf
ROOT
ATOM      1  C   UNL     1      -5.489   4.670 -24.521  1.00  0.00     0.000 C 
ENDROOT
BRANCH   1   2
ATOM      2  C   UNL     1      -6.156   5.316 -23.295  1.00  0.00    -0.000 C 
BRANCH   2   3
ATOM      3  C   UNL     1      -6.125   4.409 -22.053  1.00  0.00    -0.000 C 
BRANCH   3   4
ATOM      4  C   UNL     1      -6.160   2.916 -22.412  1.00  0.00    -0.000 C 
BRANCH   4   5
ATOM      5  C   UNL     1      -5.476   2.035 -21.355  1.00  0.00    -0.000 C 
BRANCH   5   6
ATOM      6  C   UNL     1      -4.864   2.892 -20.241  1.00  0.00    -0.003 C 
ATOM      7  C   UNL     1      -4.917   2.168 -18.898  1.00  0.00     0.004 C 
ENDBRANCH   5   6
ENDBRANCH   4   5
ENDBRANCH   3   4
ENDBRANCH   2   3
ENDBRANCH   1   2
BRANCH   1   8
ATOM      8  C   UNL     1      -4.066   5.200 -24.802  1.00  0.00     0.000 C 
BRANCH   8   9
ATOM      9  C   UNL     1      -3.032   4.063 -24.893  1.00  0.00     0.000 C 
BRANCH   9  10
ATOM     10  C   UNL     1      -2.043   4.066 -23.718  1.00  0.00     0.002 C 
BRANCH  10  11
ATOM     11  C   UNL     1      -2.160   2.809 -22.842  1.00  0.00     0.028 C 
BRANCH  11  12
ATOM     12  C   UNL     1      -1.241   1.695 -23.353  1.00  0.00     0.156 C 
BRANCH  12  13
ATOM     13  O   UNL     1      -1.602   0.468 -22.778  1.00  0.00    -0.396 OA
ATOM     14  H   UNL     1      -1.039  -0.225 -23.211  1.00  0.00     0.210 HD
ENDBRANCH  12  13
ENDBRANCH  11  12
ENDBRANCH  10  11
ENDBRANCH   9  10
ENDBRANCH   8   9
ENDBRANCH   1   8
TORSDOF 11
ENDMDL
MODEL 9
REMARK VINA RESULT:    -3.658      3.030      3.735
REMARK INTER + INTRA:          -6.916
REMARK INTER:                  -5.981
REMARK INTRA:                  -0.935
REMARK UNBOUND:                -1.012
REMARK SMILES CCCCCCCCCCCCO
REMARK SMILES IDX 7 1 6 2 5 3 4 4 3 5 2 6 1 7 8 8 9 9 10 10 11 11 12 12 13 13
REMARK H PARENT 13 14
REMARK Flexibility Score: inf
ROOT
ATOM      1  C   UNL     1      -2.954   4.351 -23.505  1.00  0.00     0.000 C 
ENDROOT
BRANCH   1   2
ATOM      2  C   UNL     1      -3.822   4.320 -24.775  1.00  0.00    -0.000 C 
BRANCH   2   3
ATOM      3  C   UNL     1      -5.316   4.125 -24.471  1.00  0.00    -0.000 C 
BRANCH   3   4
ATOM      4  C   UNL     1      -5.650   4.346 -22.987  1.00  0.00    -0.000 C 
BRANCH   4   5
ATOM      5  C   UNL     1      -6.391   3.154 -22.362  1.00  0.00    -0.000 C 
BRANCH   5   6
ATOM      6  C   UNL     1      -5.416   2.226 -21.628  1.00  0.00    -0.003 C 
ATOM      7  C   UNL     1      -4.688   2.965 -20.508  1.00  0.00     0.004 C 
ENDBRANCH   5   6
ENDBRANCH   4   5
ENDBRANCH   3   4
ENDBRANCH   2   3
ENDBRANCH   1   2
BRANCH   1   8
ATOM      8  C   UNL     1      -2.122   3.068 -23.294  1.00  0.00     0.000 C 
BRANCH   8   9
ATOM      9  C   UNL     1      -1.362   2.655 -24.567  1.00  0.00     0.000 C 
BRANCH   9  10
ATOM     10  C   UNL     1      -0.555   1.360 -24.383  1.00  0.00     0.002 C 
BRANCH  10  11
ATOM     11  C   UNL     1      -0.680   0.781 -22.966  1.00  0.00     0.028 C 
BRANCH  11  12
ATOM     12  C   UNL     1       0.585   0.014 -22.571  1.00  0.00     0.156 C 
BRANCH  12  13
ATOM     13  O   UNL     1       0.256  -1.071 -21.746  1.00  0.00    -0.396 OA
ATOM     14  H   UNL     1      -0.668  -0.910 -21.419  1.00  0.00     0.210 HD
ENDBRANCH  12  13
ENDBRANCH  11  12
ENDBRANCH  10  11
ENDBRANCH   9  10
ENDBRANCH   8   9
ENDBRANCH   1   8
TORSDOF 11
ENDMDL
