MODEL 1
REMARK VINA RESULT:     4.596      0.000      0.000
REMARK INTER + INTRA:           8.117
REMARK INTER:                   6.208
REMARK INTRA:                   1.909
REMARK UNBOUND:                 1.909
REMARK SMILES CC[C@H](CC[C@H](C)[C@H]1CC[C@@H]2[C@@H]3CC(=O)C4=CC(=O)CC[C@]4(C)[C@H]3CC[C@@]21C)C(C)C
REMARK SMILES IDX 4 1 3 2 2 3 1 4 29 5 30 6 31 7 5 8 6 9 7 10 8 11 9 12 27 13
REMARK SMILES IDX 10 14 11 15 26 16 28 17 12 18 25 19 24 20 13 21 22 22 14 23
REMARK SMILES IDX 16 24 21 25 23 26 15 27 17 28 20 29 18 30 19 31
REMARK H PARENT
REMARK Flexibility Score: inf
ROOT
ATOM      1  C   UNL     1     -11.577 -18.586  27.168  1.00  0.00     0.004 C 
ENDROOT
BRANCH   1   2
ATOM      2  C   UNL     1     -12.745 -18.719  28.188  1.00  0.00    -0.009 C 
BRANCH   2   3
ATOM      3  C   UNL     1     -14.059 -18.197  27.539  1.00  0.00     0.000 C 
ATOM      4  C   UNL     1     -13.874 -16.967  26.650  1.00  0.00     0.004 C 
ENDBRANCH   2   3
BRANCH   2   5
ATOM      5  C   UNL     1     -12.818 -20.185  28.756  1.00  0.00    -0.014 C 
ATOM      6  C   UNL     1     -13.626 -21.162  27.888  1.00  0.00     0.007 C 
ATOM      7  C   UNL     1     -13.293 -20.230  30.218  1.00  0.00     0.007 C 
ENDBRANCH   2   5
ENDBRANCH   1   2
BRANCH   1   8
ATOM      8  C   UNL     1     -10.703 -17.340  27.428  1.00  0.00     0.004 C 
BRANCH   8   9
ATOM      9  C   UNL     1     -10.057 -17.324  28.841  1.00  0.00    -0.011 C 
ATOM     10  C   UNL     1      -9.905 -18.769  29.366  1.00  0.00     0.008 C 
BRANCH   9  11
ATOM     11  C   UNL     1     -10.866 -16.377  29.801  1.00  0.00    -0.002 C 
ATOM     12  C   UNL     1     -12.165 -15.811  29.241  1.00  0.00     0.005 C 
ATOM     13  C   UNL     1     -11.218 -16.882  31.245  1.00  0.00    -0.026 C 
ATOM     14  C   UNL     1     -12.820 -15.154  30.440  1.00  0.00     0.005 C 
ATOM     15  C   UNL     1     -12.510 -16.084  31.626  1.00  0.00    -0.001 C 
ATOM     16  C   UNL     1     -10.045 -16.611  32.234  1.00  0.00     0.007 C 
ATOM     17  C   UNL     1     -11.539 -18.397  31.299  1.00  0.00     0.012 C 
ATOM     18  C   UNL     1     -12.439 -15.389  33.014  1.00  0.00     0.004 C 
ATOM     19  C   UNL     1      -9.887 -15.133  32.633  1.00  0.00     0.005 C 
ATOM     20  C   UNL     1     -11.188 -14.476  33.191  1.00  0.00     0.003 C 
ATOM     21  C   UNL     1     -13.729 -14.611  33.318  1.00  0.00     0.085 C 
ATOM     22  C   UNL     1     -11.054 -13.925  34.667  1.00  0.00    -0.000 C 
ATOM     23  C   UNL     1     -13.663 -13.949  34.657  1.00  0.00     0.159 C 
ATOM     24  C   UNL     1     -12.396 -13.344  35.134  1.00  0.00     0.005 C 
ATOM     25  C   UNL     1      -9.976 -12.792  34.693  1.00  0.00     0.020 C 
ATOM     26  C   UNL     1     -10.659 -15.049  35.665  1.00  0.00     0.017 C 
ATOM     27  O   UNL     1     -14.720 -13.848  35.340  1.00  0.00    -0.295 OA
ATOM     28  C   UNL     1     -12.445 -12.356  36.050  1.00  0.00     0.055 C 
ATOM     29  C   UNL     1      -9.878 -12.082  36.050  1.00  0.00     0.081 C 
ATOM     30  C   UNL     1     -11.233 -11.703  36.561  1.00  0.00     0.156 C 
ATOM     31  O   UNL     1     -11.331 -10.832  37.466  1.00  0.00    -0.295 OA
ENDBRANCH   9  11
ENDBRANCH   8   9
ENDBRANCH   1   8
TORSDOF 6
ENDMDL
MODEL 2
REMARK VINA RESULT:     6.228      3.202      8.767
REMARK INTER + INTRA:          10.322
REMARK INTER:                   9.219
REMARK INTRA:                   1.103
REMARK UNBOUND:                 1.909
REMARK SMILES CC[C@H](CC[C@H](C)[C@H]1CC[C@@H]2[C@@H]3CC(=O)C4=CC(=O)CC[C@]4(C)[C@H]3CC[C@@]21C)C(C)C
REMARK SMILES IDX 4 1 3 2 2 3 1 4 29 5 30 6 31 7 5 8 6 9 7 10 8 11 9 12 27 13
REMARK SMILES IDX 10 14 11 15 26 16 28 17 12 18 25 19 24 20 13 21 22 22 14 23
REMARK SMILES IDX 16 24 21 25 23 26 15 27 17 28 20 29 18 30 19 31
REMARK H PARENT
REMARK Flexibility Score: inf
ROOT
ATOM      1  C   UNL     1     -12.186 -14.287  36.439  1.00  0.00     0.004 C 
ENDROOT
BRANCH   1   2
ATOM      2  C   UNL     1     -11.266 -13.531  37.442  1.00  0.00    -0.009 C 
BRANCH   2   3
ATOM      3  C   UNL     1      -9.875 -14.224  37.489  1.00  0.00     0.000 C 
ATOM      4  C   UNL     1      -9.892 -15.622  38.109  1.00  0.00     0.004 C 
ENDBRANCH   2   3
BRANCH   2   5
ATOM      5  C   UNL     1     -11.234 -11.993  37.108  1.00  0.00    -0.014 C 
ATOM      6  C   UNL     1     -12.383 -11.514  36.209  1.00  0.00     0.007 C 
ATOM      7  C   UNL     1      -9.876 -11.537  36.550  1.00  0.00     0.007 C 
ENDBRANCH   2   5
ENDBRANCH   1   2
BRANCH   1   8
ATOM      8  C   UNL     1     -12.057 -13.750  34.997  1.00  0.00     0.004 C 
BRANCH   8   9
ATOM      9  C   UNL     1     -11.149 -14.628  34.092  1.00  0.00    -0.011 C 
ATOM     10  C   UNL     1      -9.875 -13.843  33.705  1.00  0.00     0.008 C 
BRANCH   9  11
ATOM     11  C   UNL     1     -11.964 -15.169  32.861  1.00  0.00    -0.002 C 
ATOM     12  C   UNL     1     -13.089 -14.272  32.360  1.00  0.00     0.005 C 
ATOM     13  C   UNL     1     -11.186 -15.621  31.575  1.00  0.00    -0.026 C 
ATOM     14  C   UNL     1     -13.520 -14.924  31.061  1.00  0.00     0.005 C 
ATOM     15  C   UNL     1     -12.218 -15.428  30.414  1.00  0.00    -0.001 C 
ATOM     16  C   UNL     1     -10.710 -17.100  31.700  1.00  0.00     0.007 C 
ATOM     17  C   UNL     1      -9.940 -14.748  31.279  1.00  0.00     0.012 C 
ATOM     18  C   UNL     1     -12.372 -16.669  29.491  1.00  0.00     0.004 C 
ATOM     19  C   UNL     1     -11.836 -18.138  31.559  1.00  0.00     0.005 C 
ATOM     20  C   UNL     1     -12.692 -17.985  30.262  1.00  0.00     0.003 C 
ATOM     21  C   UNL     1     -13.410 -16.418  28.385  1.00  0.00     0.085 C 
ATOM     22  C   UNL     1     -12.669 -19.252  29.317  1.00  0.00    -0.000 C 
ATOM     23  C   UNL     1     -13.553 -17.609  27.492  1.00  0.00     0.159 C 
ATOM     24  C   UNL     1     -13.500 -18.981  28.056  1.00  0.00     0.005 C 
ATOM     25  C   UNL     1     -13.290 -20.468  30.079  1.00  0.00     0.020 C 
ATOM     26  C   UNL     1     -11.225 -19.601  28.860  1.00  0.00     0.017 C 
ATOM     27  O   UNL     1     -13.792 -17.428  26.267  1.00  0.00    -0.295 OA
ATOM     28  C   UNL     1     -14.103 -19.986  27.390  1.00  0.00     0.055 C 
ATOM     29  C   UNL     1     -13.459 -21.712  29.198  1.00  0.00     0.081 C 
ATOM     30  C   UNL     1     -14.100 -21.367  27.891  1.00  0.00     0.156 C 
ATOM     31  O   UNL     1     -14.620 -22.280  27.196  1.00  0.00    -0.295 OA
ENDBRANCH   9  11
ENDBRANCH   8   9
ENDBRANCH   1   8
TORSDOF 6
ENDMDL
MODEL 3
REMARK VINA RESULT:     6.692      0.688      1.817
REMARK INTER + INTRA:          10.948
REMARK INTER:                   6.428
REMARK INTRA:                   4.519
REMARK UNBOUND:                 1.909
REMARK SMILES CC[C@H](CC[C@H](C)[C@H]1CC[C@@H]2[C@@H]3CC(=O)C4=CC(=O)CC[C@]4(C)[C@H]3CC[C@@]21C)C(C)C
REMARK SMILES IDX 4 1 3 2 2 3 1 4 29 5 30 6 31 7 5 8 6 9 7 10 8 11 9 12 27 13
REMARK SMILES IDX 10 14 11 15 26 16 28 17 12 18 25 19 24 20 13 21 22 22 14 23
REMARK SMILES IDX 16 24 21 25 23 26 15 27 17 28 20 29 18 30 19 31
REMARK H PARENT
REMARK Flexibility Score: inf
ROOT
ATOM      1  C   UNL     1     -11.668 -16.759  27.251  1.00  0.00     0.004 C 
ENDROOT
BRANCH   1   2
ATOM      2  C   UNL     1     -12.977 -17.593  27.138  1.00  0.00    -0.009 C 
BRANCH   2   3
ATOM      3  C   UNL     1     -13.262 -18.292  28.498  1.00  0.00     0.000 C 
ATOM      4  C   UNL     1     -13.777 -19.726  28.371  1.00  0.00     0.004 C 
ENDBRANCH   2   3
BRANCH   2   5
ATOM      5  C   UNL     1     -14.152 -16.704  26.586  1.00  0.00    -0.014 C 
ATOM      6  C   UNL     1     -14.447 -16.899  25.091  1.00  0.00     0.007 C 
ATOM      7  C   UNL     1     -13.974 -15.214  26.918  1.00  0.00     0.007 C 
ENDBRANCH   2   5
ENDBRANCH   1   2
BRANCH   1   8
ATOM      8  C   UNL     1     -10.416 -17.644  27.437  1.00  0.00     0.004 C 
BRANCH   8   9
ATOM      9  C   UNL     1      -9.889 -17.666  28.897  1.00  0.00    -0.011 C 
ATOM     10  C   UNL     1      -9.916 -19.112  29.444  1.00  0.00     0.008 C 
BRANCH   9  11
ATOM     11  C   UNL     1     -10.683 -16.635  29.781  1.00  0.00    -0.002 C 
ATOM     12  C   UNL     1     -11.843 -15.924  29.095  1.00  0.00     0.005 C 
ATOM     13  C   UNL     1     -11.241 -17.098  31.172  1.00  0.00    -0.026 C 
ATOM     14  C   UNL     1     -12.542 -15.198  30.228  1.00  0.00     0.005 C 
ATOM     15  C   UNL     1     -12.467 -16.159  31.427  1.00  0.00    -0.001 C 
ATOM     16  C   UNL     1     -10.156 -16.965  32.283  1.00  0.00     0.007 C 
ATOM     17  C   UNL     1     -11.736 -18.568  31.172  1.00  0.00     0.012 C 
ATOM     18  C   UNL     1     -12.465 -15.480  32.824  1.00  0.00     0.004 C 
ATOM     19  C   UNL     1      -9.875 -15.516  32.717  1.00  0.00     0.005 C 
ATOM     20  C   UNL     1     -11.145 -14.715  33.144  1.00  0.00     0.003 C 
ATOM     21  C   UNL     1     -13.684 -14.560  33.002  1.00  0.00     0.085 C 
ATOM     22  C   UNL     1     -11.106 -14.186  34.634  1.00  0.00    -0.000 C 
ATOM     23  C   UNL     1     -13.686 -13.912  34.349  1.00  0.00     0.159 C 
ATOM     24  C   UNL     1     -12.415 -13.456  34.965  1.00  0.00     0.005 C 
ATOM     25  C   UNL     1      -9.916 -13.183  34.788  1.00  0.00     0.020 C 
ATOM     26  C   UNL     1     -10.949 -15.349  35.652  1.00  0.00     0.017 C 
ATOM     27  O   UNL     1     -14.790 -13.693  34.919  1.00  0.00    -0.295 OA
ATOM     28  C   UNL     1     -12.450 -12.471  35.884  1.00  0.00     0.055 C 
ATOM     29  C   UNL     1      -9.883 -12.491  36.157  1.00  0.00     0.081 C 
ATOM     30  C   UNL     1     -11.232 -11.961  36.529  1.00  0.00     0.156 C 
ATOM     31  O   UNL     1     -11.326 -11.086  37.430  1.00  0.00    -0.295 OA
ENDBRANCH   9  11
ENDBRANCH   8   9
ENDBRANCH   1   8
TORSDOF 6
ENDMDL
