MODEL 1
REMARK VINA RESULT:    -4.855      0.000      0.000
REMARK INTER + INTRA:          -5.280
REMARK INTER:                  -5.280
REMARK INTRA:                   0.000
REMARK UNBOUND:                 0.000
REMARK SMILES Cc1cc(O)c2c(c1)C(=O)c1cc(O)cc(O)c1C2=O
REMARK SMILES IDX 1 1 2 2 8 3 7 4 6 5 4 6 3 7 19 8 20 9 18 10 11 11 9 12 10 13
REMARK SMILES IDX 12 14 13 15 15 16 16 17 5 18 17 20 14 22
REMARK H PARENT 5 19 17 21 14 23
REMARK Flexibility Score: inf
ROOT
ATOM      1  C   UNL     1       8.491   0.760  14.144  1.00  0.00     0.044 C 
ATOM      2  C   UNL     1       8.002   2.121  13.744  1.00  0.00    -0.047 A 
ATOM      3  C   UNL     1       8.222   2.595  12.447  1.00  0.00     0.016 A 
ATOM      4  C   UNL     1       7.808   3.885  12.075  1.00  0.00     0.038 A 
ATOM      5  C   UNL     1       7.188   4.726  13.025  1.00  0.00     0.076 A 
ATOM      6  C   UNL     1       6.926   4.223  14.327  1.00  0.00     0.127 A 
ATOM      7  C   UNL     1       7.365   2.943  14.679  1.00  0.00     0.050 A 
ATOM      8  C   UNL     1       6.899   6.131  12.638  1.00  0.00     0.201 C 
ATOM      9  O   UNL     1       6.903   7.037  13.514  1.00  0.00    -0.288 OA
ATOM     10  C   UNL     1       6.794   6.493  11.201  1.00  0.00     0.076 A 
ATOM     11  C   UNL     1       7.416   5.649  10.253  1.00  0.00     0.041 A 
ATOM     12  C   UNL     1       8.016   4.367  10.688  1.00  0.00     0.194 C 
ATOM     13  O   UNL     1       8.683   3.672   9.872  1.00  0.00    -0.289 OA
ATOM     14  C   UNL     1       7.458   6.029   8.901  1.00  0.00     0.059 A 
ATOM     15  C   UNL     1       6.876   7.225   8.482  1.00  0.00     0.120 A 
ATOM     16  C   UNL     1       6.224   8.043   9.408  1.00  0.00     0.093 A 
ATOM     17  C   UNL     1       6.152   7.678  10.756  1.00  0.00     0.131 A 
ENDROOT
BRANCH   6  18
ATOM     18  O   UNL     1       6.209   4.944  15.285  1.00  0.00    -0.507 OA
ATOM     19  H   UNL     1       5.803   4.525  16.111  1.00  0.00     0.293 HD
ENDBRANCH   6  18
BRANCH  17  20
ATOM     20  O   UNL     1       5.407   8.499  11.606  1.00  0.00    -0.507 OA
ATOM     21  H   UNL     1       4.413   8.654  11.504  1.00  0.00     0.293 HD
ENDBRANCH  17  20
BRANCH  15  22
ATOM     22  O   UNL     1       6.941   7.587   7.137  1.00  0.00    -0.508 OA
ATOM     23  H   UNL     1       7.828   7.682   6.656  1.00  0.00     0.293 HD
ENDBRANCH  15  22
TORSDOF 3
ENDMDL
MODEL 2
REMARK VINA RESULT:    -4.579      1.856      5.453
REMARK INTER + INTRA:          -4.981
REMARK INTER:                  -4.981
REMARK INTRA:                   0.000
REMARK UNBOUND:                 0.000
REMARK SMILES Cc1cc(O)c2c(c1)C(=O)c1cc(O)cc(O)c1C2=O
REMARK SMILES IDX 1 1 2 2 8 3 7 4 6 5 4 6 3 7 19 8 20 9 18 10 11 11 9 12 10 13
REMARK SMILES IDX 12 14 13 15 15 16 16 17 5 18 17 20 14 22
REMARK H PARENT 5 19 17 21 14 23
REMARK Flexibility Score: inf
ROOT
ATOM      1  C   UNL     1       5.992   8.592  10.614  1.00  0.00     0.044 C 
ATOM      2  C   UNL     1       6.399   7.372  11.388  1.00  0.00    -0.047 A 
ATOM      3  C   UNL     1       6.645   6.166  10.723  1.00  0.00     0.016 A 
ATOM      4  C   UNL     1       6.984   5.007  11.441  1.00  0.00     0.038 A 
ATOM      5  C   UNL     1       7.052   5.049  12.851  1.00  0.00     0.076 A 
ATOM      6  C   UNL     1       6.846   6.286  13.517  1.00  0.00     0.127 A 
ATOM      7  C   UNL     1       6.491   7.421  12.782  1.00  0.00     0.050 A 
ATOM      8  C   UNL     1       7.267   3.773  13.582  1.00  0.00     0.201 C 
ATOM      9  O   UNL     1       6.789   3.624  14.738  1.00  0.00    -0.288 OA
ATOM     10  C   UNL     1       7.879   2.616  12.880  1.00  0.00     0.076 A 
ATOM     11  C   UNL     1       7.809   2.578  11.469  1.00  0.00     0.041 A 
ATOM     12  C   UNL     1       7.274   3.742  10.725  1.00  0.00     0.194 C 
ATOM     13  O   UNL     1       7.090   3.665   9.479  1.00  0.00    -0.289 OA
ATOM     14  C   UNL     1       8.251   1.437  10.778  1.00  0.00     0.059 A 
ATOM     15  C   UNL     1       8.774   0.346  11.471  1.00  0.00     0.120 A 
ATOM     16  C   UNL     1       8.884   0.395  12.864  1.00  0.00     0.093 A 
ATOM     17  C   UNL     1       8.469   1.526  13.573  1.00  0.00     0.131 A 
ENDROOT
BRANCH   6  18
ATOM     18  O   UNL     1       7.016   6.439  14.896  1.00  0.00    -0.507 OA
ATOM     19  H   UNL     1       7.725   5.953  15.429  1.00  0.00     0.293 HD
ENDBRANCH   6  18
BRANCH  17  20
ATOM     20  O   UNL     1       8.692   1.539  14.952  1.00  0.00    -0.507 OA
ATOM     21  H   UNL     1       8.825   2.386  15.488  1.00  0.00     0.293 HD
ENDBRANCH  17  20
BRANCH  15  22
ATOM     22  O   UNL     1       9.195  -0.780  10.765  1.00  0.00    -0.508 OA
ATOM     23  H   UNL     1      10.148  -1.118  10.826  1.00  0.00     0.293 HD
ENDBRANCH  15  22
TORSDOF 3
ENDMDL
MODEL 3
REMARK VINA RESULT:    -4.513      2.749      5.504
REMARK INTER + INTRA:          -4.908
REMARK INTER:                  -4.908
REMARK INTRA:                   0.000
REMARK UNBOUND:                 0.000
REMARK SMILES Cc1cc(O)c2c(c1)C(=O)c1cc(O)cc(O)c1C2=O
REMARK SMILES IDX 1 1 2 2 8 3 7 4 6 5 4 6 3 7 19 8 20 9 18 10 11 11 9 12 10 13
REMARK SMILES IDX 12 14 13 15 15 16 16 17 5 18 17 20 14 22
REMARK H PARENT 5 19 17 21 14 23
REMARK Flexibility Score: inf
ROOT
ATOM      1  C   UNL     1       2.858   7.892  14.364  1.00  0.00     0.044 C 
ATOM      2  C   UNL     1       3.570   6.574  14.283  1.00  0.00    -0.047 A 
ATOM      3  C   UNL     1       4.717   6.441  13.494  1.00  0.00     0.016 A 
ATOM      4  C   UNL     1       5.367   5.200  13.376  1.00  0.00     0.038 A 
ATOM      5  C   UNL     1       4.844   4.067  14.038  1.00  0.00     0.076 A 
ATOM      6  C   UNL     1       3.707   4.218  14.874  1.00  0.00     0.127 A 
ATOM      7  C   UNL     1       3.067   5.458  14.960  1.00  0.00     0.050 A 
ATOM      8  C   UNL     1       5.471   2.747  13.771  1.00  0.00     0.201 C 
ATOM      9  O   UNL     1       4.775   1.698  13.831  1.00  0.00    -0.288 OA
ATOM     10  C   UNL     1       6.862   2.682  13.253  1.00  0.00     0.076 A 
ATOM     11  C   UNL     1       7.381   3.817  12.591  1.00  0.00     0.041 A 
ATOM     12  C   UNL     1       6.600   5.076  12.563  1.00  0.00     0.194 C 
ATOM     13  O   UNL     1       6.999   6.051  11.867  1.00  0.00    -0.289 OA
ATOM     14  C   UNL     1       8.638   3.748  11.967  1.00  0.00     0.059 A 
ATOM     15  C   UNL     1       9.386   2.572  12.008  1.00  0.00     0.120 A 
ATOM     16  C   UNL     1       8.896   1.460  12.696  1.00  0.00     0.093 A 
ATOM     17  C   UNL     1       7.657   1.509  13.341  1.00  0.00     0.131 A 
ENDROOT
BRANCH   6  18
ATOM     18  O   UNL     1       3.202   3.178  15.658  1.00  0.00    -0.507 OA
ATOM     19  H   UNL     1       3.582   2.241  15.656  1.00  0.00     0.293 HD
ENDBRANCH   6  18
BRANCH  17  20
ATOM     20  O   UNL     1       7.272   0.390  14.084  1.00  0.00    -0.507 OA
ATOM     21  H   UNL     1       6.580  -0.277  13.772  1.00  0.00     0.293 HD
ENDBRANCH  17  20
BRANCH  15  22
ATOM     22  O   UNL     1      10.625   2.524  11.371  1.00  0.00    -0.508 OA
ATOM     23  H   UNL     1      11.098   3.366  11.065  1.00  0.00     0.293 HD
ENDBRANCH  15  22
TORSDOF 3
ENDMDL
MODEL 4
REMARK VINA RESULT:    -4.475      2.734      4.427
REMARK INTER + INTRA:          -4.867
REMARK INTER:                  -4.867
REMARK INTRA:                   0.000
REMARK UNBOUND:                 0.000
REMARK SMILES Cc1cc(O)c2c(c1)C(=O)c1cc(O)cc(O)c1C2=O
REMARK SMILES IDX 1 1 2 2 8 3 7 4 6 5 4 6 3 7 19 8 20 9 18 10 11 11 9 12 10 13
REMARK SMILES IDX 12 14 13 15 15 16 16 17 5 18 17 20 14 22
REMARK H PARENT 5 19 17 21 14 23
REMARK Flexibility Score: inf
ROOT
ATOM      1  C   UNL     1       5.486   0.262   8.125  1.00  0.00     0.044 C 
ATOM      2  C   UNL     1       5.802   0.921   9.435  1.00  0.00    -0.047 A 
ATOM      3  C   UNL     1       6.109   2.285   9.481  1.00  0.00     0.016 A 
ATOM      4  C   UNL     1       6.449   2.903  10.695  1.00  0.00     0.038 A 
ATOM      5  C   UNL     1       6.510   2.138  11.881  1.00  0.00     0.076 A 
ATOM      6  C   UNL     1       6.153   0.764  11.837  1.00  0.00     0.127 A 
ATOM      7  C   UNL     1       5.837   0.167  10.613  1.00  0.00     0.050 A 
ATOM      8  C   UNL     1       7.016   2.793  13.115  1.00  0.00     0.201 C 
ATOM      9  O   UNL     1       7.619   2.110  13.986  1.00  0.00    -0.288 OA
ATOM     10  C   UNL     1       6.977   4.273  13.233  1.00  0.00     0.076 A 
ATOM     11  C   UNL     1       6.917   5.035  12.044  1.00  0.00     0.041 A 
ATOM     12  C   UNL     1       6.741   4.356  10.740  1.00  0.00     0.194 C 
ATOM     13  O   UNL     1       6.814   5.018   9.668  1.00  0.00    -0.289 OA
ATOM     14  C   UNL     1       7.019   6.436  12.107  1.00  0.00     0.059 A 
ATOM     15  C   UNL     1       7.164   7.082  13.333  1.00  0.00     0.120 A 
ATOM     16  C   UNL     1       7.183   6.336  14.514  1.00  0.00     0.093 A 
ATOM     17  C   UNL     1       7.064   4.944  14.481  1.00  0.00     0.131 A 
ENDROOT
BRANCH   6  18
ATOM     18  O   UNL     1       6.069  -0.032  12.982  1.00  0.00    -0.507 OA
ATOM     19  H   UNL     1       5.607   0.260  13.833  1.00  0.00     0.293 HD
ENDBRANCH   6  18
BRANCH  17  20
ATOM     20  O   UNL     1       7.001   4.273  15.704  1.00  0.00    -0.507 OA
ATOM     21  H   UNL     1       6.451   4.594  16.490  1.00  0.00     0.293 HD
ENDBRANCH  17  20
BRANCH  15  22
ATOM     22  O   UNL     1       7.275   8.471  13.369  1.00  0.00    -0.508 OA
ATOM     23  H   UNL     1       7.335   9.020  12.519  1.00  0.00     0.293 HD
ENDBRANCH  15  22
TORSDOF 3
ENDMDL
MODEL 5
REMARK VINA RESULT:    -4.463      2.950      3.996
REMARK INTER + INTRA:          -4.855
REMARK INTER:                  -4.855
REMARK INTRA:                   0.000
REMARK UNBOUND:                 0.000
REMARK SMILES Cc1cc(O)c2c(c1)C(=O)c1cc(O)cc(O)c1C2=O
REMARK SMILES IDX 1 1 2 2 8 3 7 4 6 5 4 6 3 7 19 8 20 9 18 10 11 11 9 12 10 13
REMARK SMILES IDX 12 14 13 15 15 16 16 17 5 18 17 20 14 22
REMARK H PARENT 5 19 17 21 14 23
REMARK Flexibility Score: inf
ROOT
ATOM      1  C   UNL     1       9.229  -1.118  10.669  1.00  0.00     0.044 C 
ATOM      2  C   UNL     1       8.263  -0.057  11.110  1.00  0.00    -0.047 A 
ATOM      3  C   UNL     1       8.734   1.178  11.565  1.00  0.00     0.016 A 
ATOM      4  C   UNL     1       7.842   2.162  12.021  1.00  0.00     0.038 A 
ATOM      5  C   UNL     1       6.455   1.896  12.048  1.00  0.00     0.076 A 
ATOM      6  C   UNL     1       5.979   0.657  11.543  1.00  0.00     0.127 A 
ATOM      7  C   UNL     1       6.888  -0.313  11.112  1.00  0.00     0.050 A 
ATOM      8  C   UNL     1       5.558   2.902  12.674  1.00  0.00     0.201 C 
ATOM      9  O   UNL     1       4.493   2.530  13.235  1.00  0.00    -0.288 OA
ATOM     10  C   UNL     1       6.008   4.312  12.802  1.00  0.00     0.076 A 
ATOM     11  C   UNL     1       7.396   4.574  12.775  1.00  0.00     0.041 A 
ATOM     12  C   UNL     1       8.348   3.481  12.471  1.00  0.00     0.194 C 
ATOM     13  O   UNL     1       9.590   3.679  12.571  1.00  0.00    -0.289 OA
ATOM     14  C   UNL     1       7.866   5.874  13.032  1.00  0.00     0.059 A 
ATOM     15  C   UNL     1       6.974   6.911  13.298  1.00  0.00     0.120 A 
ATOM     16  C   UNL     1       5.598   6.665  13.285  1.00  0.00     0.093 A 
ATOM     17  C   UNL     1       5.104   5.386  13.014  1.00  0.00     0.131 A 
ENDROOT
BRANCH   6  18
ATOM     18  O   UNL     1       4.618   0.364  11.420  1.00  0.00    -0.507 OA
ATOM     19  H   UNL     1       3.958   0.441  12.182  1.00  0.00     0.293 HD
ENDBRANCH   6  18
BRANCH  17  20
ATOM     20  O   UNL     1       3.718   5.235  12.929  1.00  0.00    -0.507 OA
ATOM     21  H   UNL     1       3.268   4.456  12.469  1.00  0.00     0.293 HD
ENDBRANCH  17  20
BRANCH  15  22
ATOM     22  O   UNL     1       7.464   8.189  13.561  1.00  0.00    -0.508 OA
ATOM     23  H   UNL     1       7.428   8.925  12.866  1.00  0.00     0.293 HD
ENDBRANCH  15  22
TORSDOF 3
ENDMDL
MODEL 6
REMARK VINA RESULT:    -4.463      1.446      5.491
REMARK INTER + INTRA:          -4.855
REMARK INTER:                  -4.855
REMARK INTRA:                   0.000
REMARK UNBOUND:                 0.000
REMARK SMILES Cc1cc(O)c2c(c1)C(=O)c1cc(O)cc(O)c1C2=O
REMARK SMILES IDX 1 1 2 2 8 3 7 4 6 5 4 6 3 7 19 8 20 9 18 10 11 11 9 12 10 13
REMARK SMILES IDX 12 14 13 15 15 16 16 17 5 18 17 20 14 22
REMARK H PARENT 5 19 17 21 14 23
REMARK Flexibility Score: inf
ROOT
ATOM      1  C   UNL     1       6.625   8.258   8.166  1.00  0.00     0.044 C 
ATOM      2  C   UNL     1       6.650   7.491   9.456  1.00  0.00    -0.047 A 
ATOM      3  C   UNL     1       7.038   6.147   9.469  1.00  0.00     0.016 A 
ATOM      4  C   UNL     1       7.023   5.408  10.663  1.00  0.00     0.038 A 
ATOM      5  C   UNL     1       6.587   6.016  11.862  1.00  0.00     0.076 A 
ATOM      6  C   UNL     1       6.238   7.392  11.851  1.00  0.00     0.127 A 
ATOM      7  C   UNL     1       6.243   8.102  10.647  1.00  0.00     0.050 A 
ATOM      8  C   UNL     1       6.445   5.164  13.070  1.00  0.00     0.201 C 
ATOM      9  O   UNL     1       5.578   5.447  13.940  1.00  0.00    -0.288 OA
ATOM     10  C   UNL     1       7.191   3.882  13.161  1.00  0.00     0.076 A 
ATOM     11  C   UNL     1       7.625   3.277  11.960  1.00  0.00     0.041 A 
ATOM     12  C   UNL     1       7.467   3.993  10.673  1.00  0.00     0.194 C 
ATOM     13  O   UNL     1       7.734   3.408   9.587  1.00  0.00    -0.289 OA
ATOM     14  C   UNL     1       8.209   1.999  11.993  1.00  0.00     0.059 A 
ATOM     15  C   UNL     1       8.379   1.328  13.203  1.00  0.00     0.120 A 
ATOM     16  C   UNL     1       7.989   1.940  14.398  1.00  0.00     0.093 A 
ATOM     17  C   UNL     1       7.423   3.218  14.394  1.00  0.00     0.131 A 
ENDROOT
BRANCH   6  18
ATOM     18  O   UNL     1       5.916   8.099  13.013  1.00  0.00    -0.507 OA
ATOM     19  H   UNL     1       6.597   8.595  13.572  1.00  0.00     0.293 HD
ENDBRANCH   6  18
BRANCH  17  20
ATOM     20  O   UNL     1       7.141   3.802  15.631  1.00  0.00    -0.507 OA
ATOM     21  H   UNL     1       7.441   4.731  15.891  1.00  0.00     0.293 HD
ENDBRANCH  17  20
BRANCH  15  22
ATOM     22  O   UNL     1       8.950   0.057  13.210  1.00  0.00    -0.508 OA
ATOM     23  H   UNL     1       8.769  -0.602  13.959  1.00  0.00     0.293 HD
ENDBRANCH  15  22
TORSDOF 3
ENDMDL
MODEL 7
REMARK VINA RESULT:    -4.462     11.628     13.238
REMARK INTER + INTRA:          -4.854
REMARK INTER:                  -4.854
REMARK INTRA:                   0.000
REMARK UNBOUND:                 0.000
REMARK SMILES Cc1cc(O)c2c(c1)C(=O)c1cc(O)cc(O)c1C2=O
REMARK SMILES IDX 1 1 2 2 8 3 7 4 6 5 4 6 3 7 19 8 20 9 18 10 11 11 9 12 10 13
REMARK SMILES IDX 12 14 13 15 15 16 16 17 5 18 17 20 14 22
REMARK H PARENT 5 19 17 21 14 23
REMARK Flexibility Score: inf
ROOT
ATOM      1  C   UNL     1       1.778   7.134  21.780  1.00  0.00     0.044 C 
ATOM      2  C   UNL     1       2.486   5.932  22.332  1.00  0.00    -0.047 A 
ATOM      3  C   UNL     1       2.188   4.655  21.845  1.00  0.00     0.016 A 
ATOM      4  C   UNL     1       2.813   3.518  22.384  1.00  0.00     0.038 A 
ATOM      5  C   UNL     1       3.731   3.659  23.449  1.00  0.00     0.076 A 
ATOM      6  C   UNL     1       4.063   4.960  23.909  1.00  0.00     0.127 A 
ATOM      7  C   UNL     1       3.414   6.075  23.369  1.00  0.00     0.050 A 
ATOM      8  C   UNL     1       4.257   2.426  24.090  1.00  0.00     0.201 C 
ATOM      9  O   UNL     1       4.575   2.440  25.309  1.00  0.00    -0.288 OA
ATOM     10  C   UNL     1       4.230   1.139  23.348  1.00  0.00     0.076 A 
ATOM     11  C   UNL     1       3.310   1.003  22.284  1.00  0.00     0.041 A 
ATOM     12  C   UNL     1       2.516   2.172  21.839  1.00  0.00     0.194 C 
ATOM     13  O   UNL     1       1.604   2.026  20.979  1.00  0.00    -0.289 OA
ATOM     14  C   UNL     1       3.156  -0.242  21.649  1.00  0.00     0.059 A 
ATOM     15  C   UNL     1       3.915  -1.340  22.048  1.00  0.00     0.120 A 
ATOM     16  C   UNL     1       4.856  -1.200  23.073  1.00  0.00     0.093 A 
ATOM     17  C   UNL     1       5.041   0.032  23.708  1.00  0.00     0.131 A 
ENDROOT
BRANCH   6  18
ATOM     18  O   UNL     1       5.049   5.193  24.870  1.00  0.00    -0.507 OA
ATOM     19  H   UNL     1       5.478   4.461  25.420  1.00  0.00     0.293 HD
ENDBRANCH   6  18
BRANCH  17  20
ATOM     20  O   UNL     1       6.060   0.119  24.659  1.00  0.00    -0.507 OA
ATOM     21  H   UNL     1       6.821  -0.543  24.725  1.00  0.00     0.293 HD
ENDBRANCH  17  20
BRANCH  15  22
ATOM     22  O   UNL     1       3.737  -2.568  21.412  1.00  0.00    -0.508 OA
ATOM     23  H   UNL     1       4.351  -2.872  20.666  1.00  0.00     0.293 HD
ENDBRANCH  15  22
TORSDOF 3
ENDMDL
MODEL 8
REMARK VINA RESULT:    -4.387     11.543     12.846
REMARK INTER + INTRA:          -4.772
REMARK INTER:                  -4.772
REMARK INTRA:                   0.000
REMARK UNBOUND:                 0.000
REMARK SMILES Cc1cc(O)c2c(c1)C(=O)c1cc(O)cc(O)c1C2=O
REMARK SMILES IDX 1 1 2 2 8 3 7 4 6 5 4 6 3 7 19 8 20 9 18 10 11 11 9 12 10 13
REMARK SMILES IDX 12 14 13 15 15 16 16 17 5 18 17 20 14 22
REMARK H PARENT 5 19 17 21 14 23
REMARK Flexibility Score: inf
ROOT
ATOM      1  C   UNL     1       7.143  -2.903  24.254  1.00  0.00     0.044 C 
ATOM      2  C   UNL     1       6.227  -1.860  23.683  1.00  0.00    -0.047 A 
ATOM      3  C   UNL     1       6.092  -0.620  24.314  1.00  0.00     0.016 A 
ATOM      4  C   UNL     1       5.205   0.348  23.814  1.00  0.00     0.038 A 
ATOM      5  C   UNL     1       4.418   0.059  22.677  1.00  0.00     0.076 A 
ATOM      6  C   UNL     1       4.592  -1.184  22.013  1.00  0.00     0.127 A 
ATOM      7  C   UNL     1       5.467  -2.138  22.542  1.00  0.00     0.050 A 
ATOM      8  C   UNL     1       3.387   1.047  22.266  1.00  0.00     0.201 C 
ATOM      9  O   UNL     1       2.335   0.655  21.694  1.00  0.00    -0.288 OA
ATOM     10  C   UNL     1       3.510   2.463  22.697  1.00  0.00     0.076 A 
ATOM     11  C   UNL     1       4.298   2.748  23.835  1.00  0.00     0.041 A 
ATOM     12  C   UNL     1       5.093   1.672  24.471  1.00  0.00     0.194 C 
ATOM     13  O   UNL     1       5.695   1.889  25.558  1.00  0.00    -0.289 OA
ATOM     14  C   UNL     1       4.327   4.054  24.355  1.00  0.00     0.059 A 
ATOM     15  C   UNL     1       3.598   5.075  23.749  1.00  0.00     0.120 A 
ATOM     16  C   UNL     1       2.850   4.807  22.599  1.00  0.00     0.093 A 
ATOM     17  C   UNL     1       2.819   3.522  22.051  1.00  0.00     0.131 A 
ENDROOT
BRANCH   6  18
ATOM     18  O   UNL     1       3.945  -1.499  20.815  1.00  0.00    -0.507 OA
ATOM     19  H   UNL     1       3.543  -2.405  20.618  1.00  0.00     0.293 HD
ENDBRANCH   6  18
BRANCH  17  20
ATOM     20  O   UNL     1       2.124   3.349  20.852  1.00  0.00    -0.507 OA
ATOM     21  H   UNL     1       1.155   3.066  20.803  1.00  0.00     0.293 HD
ENDBRANCH  17  20
BRANCH  15  22
ATOM     22  O   UNL     1       3.633   6.359  24.290  1.00  0.00    -0.508 OA
ATOM     23  H   UNL     1       3.130   6.591  25.139  1.00  0.00     0.293 HD
ENDBRANCH  15  22
TORSDOF 3
ENDMDL
MODEL 9
REMARK VINA RESULT:    -4.299      2.899      3.540
REMARK INTER + INTRA:          -4.676
REMARK INTER:                  -4.676
REMARK INTRA:                   0.000
REMARK UNBOUND:                 0.000
REMARK SMILES Cc1cc(O)c2c(c1)C(=O)c1cc(O)cc(O)c1C2=O
REMARK SMILES IDX 1 1 2 2 8 3 7 4 6 5 4 6 3 7 19 8 20 9 18 10 11 11 9 12 10 13
REMARK SMILES IDX 12 14 13 15 15 16 16 17 5 18 17 20 14 22
REMARK H PARENT 5 19 17 21 14 23
REMARK Flexibility Score: inf
ROOT
ATOM      1  C   UNL     1       9.250  -0.720  11.125  1.00  0.00     0.044 C 
ATOM      2  C   UNL     1       8.548   0.416  11.809  1.00  0.00    -0.047 A 
ATOM      3  C   UNL     1       7.619   1.193  11.108  1.00  0.00     0.016 A 
ATOM      4  C   UNL     1       6.988   2.287  11.726  1.00  0.00     0.038 A 
ATOM      5  C   UNL     1       7.312   2.625  13.059  1.00  0.00     0.076 A 
ATOM      6  C   UNL     1       8.221   1.806  13.779  1.00  0.00     0.127 A 
ATOM      7  C   UNL     1       8.850   0.735  13.137  1.00  0.00     0.050 A 
ATOM      8  C   UNL     1       6.737   3.872  13.626  1.00  0.00     0.201 C 
ATOM      9  O   UNL     1       7.375   4.515  14.503  1.00  0.00    -0.288 OA
ATOM     10  C   UNL     1       5.509   4.456  13.029  1.00  0.00     0.076 A 
ATOM     11  C   UNL     1       5.188   4.115  11.695  1.00  0.00     0.041 A 
ATOM     12  C   UNL     1       5.982   3.085  10.986  1.00  0.00     0.194 C 
ATOM     13  O   UNL     1       5.783   2.869   9.758  1.00  0.00    -0.289 OA
ATOM     14  C   UNL     1       4.115   4.753  11.050  1.00  0.00     0.059 A 
ATOM     15  C   UNL     1       3.352   5.709  11.719  1.00  0.00     0.120 A 
ATOM     16  C   UNL     1       3.639   6.019  13.051  1.00  0.00     0.093 A 
ATOM     17  C   UNL     1       4.689   5.385  13.721  1.00  0.00     0.131 A 
ENDROOT
BRANCH   6  18
ATOM     18  O   UNL     1       8.500   1.998  15.134  1.00  0.00    -0.507 OA
ATOM     19  H   UNL     1       7.892   2.503  15.764  1.00  0.00     0.293 HD
ENDBRANCH   6  18
BRANCH  17  20
ATOM     20  O   UNL     1       4.860   5.680  15.076  1.00  0.00    -0.507 OA
ATOM     21  H   UNL     1       5.729   6.013  15.471  1.00  0.00     0.293 HD
ENDBRANCH  17  20
BRANCH  15  22
ATOM     22  O   UNL     1       2.300   6.337  11.054  1.00  0.00    -0.508 OA
ATOM     23  H   UNL     1       1.690   6.993  11.528  1.00  0.00     0.293 HD
ENDBRANCH  15  22
TORSDOF 3
ENDMDL
