MODEL 1
REMARK VINA RESULT:    -3.190      0.000      0.000
REMARK INTER + INTRA:          -4.295
REMARK INTER:                  -3.936
REMARK INTRA:                  -0.358
REMARK UNBOUND:                -0.358
REMARK SMILES O=c1c(O)c(-c2cc(O)c(O)c(O)c2)oc2cc(O)cc(O)c12
REMARK SMILES IDX 5 1 3 2 2 3 1 4 23 5 21 6 20 7 18 8 17 9 16 10 15 11 6 12
REMARK SMILES IDX 7 13 8 14 14 15 10 16 12 17 9 18 11 20 13 22 4 24 22 26
REMARK SMILES IDX 19 28
REMARK H PARENT 9 19 11 21 13 23 4 25 22 27 19 29
REMARK Flexibility Score: inf
ROOT
ATOM      1  C   UNL     1     -16.578  29.564  14.894  1.00  0.00     0.180 A 
ATOM      2  C   UNL     1     -16.552  28.167  15.069  1.00  0.00     0.208 A 
ATOM      3  C   UNL     1     -17.740  27.503  15.413  1.00  0.00     0.238 A 
ATOM      4  O   UNL     1     -17.730  26.251  15.562  1.00  0.00    -0.285 OA
ATOM      5  C   UNL     1     -18.925  28.246  15.596  1.00  0.00     0.111 A 
ATOM      6  C   UNL     1     -20.162  27.655  15.947  1.00  0.00     0.134 A 
ATOM      7  C   UNL     1     -21.295  28.463  16.119  1.00  0.00     0.093 A 
ATOM      8  C   UNL     1     -21.214  29.850  15.948  1.00  0.00     0.123 A 
ATOM      9  C   UNL     1     -19.996  30.437  15.602  1.00  0.00     0.094 A 
ATOM     10  C   UNL     1     -18.855  29.648  15.424  1.00  0.00     0.146 A 
ATOM     11  O   UNL     1     -17.711  30.233  15.089  1.00  0.00    -0.452 OA
ENDROOT
BRANCH   1  12
ATOM     12  C   UNL     1     -15.371  30.332  14.513  1.00  0.00     0.029 A 
ATOM     13  C   UNL     1     -15.076  30.521  13.156  1.00  0.00     0.062 A 
ATOM     14  C   UNL     1     -13.930  31.227  12.768  1.00  0.00     0.162 A 
ATOM     15  C   UNL     1     -14.481  30.825  15.480  1.00  0.00     0.062 A 
ATOM     16  C   UNL     1     -13.053  31.739  13.735  1.00  0.00     0.200 A 
ATOM     17  C   UNL     1     -13.330  31.529  15.108  1.00  0.00     0.162 A 
BRANCH  14  18
ATOM     18  O   UNL     1     -13.653  31.425  11.416  1.00  0.00    -0.504 OA
ATOM     19  H   UNL     1     -13.529  32.354  11.030  1.00  0.00     0.293 HD
ENDBRANCH  14  18
BRANCH  16  20
ATOM     20  O   UNL     1     -11.929  32.443  13.295  1.00  0.00    -0.502 OA
ATOM     21  H   UNL     1     -11.909  33.442  13.146  1.00  0.00     0.293 HD
ENDBRANCH  16  20
BRANCH  17  22
ATOM     22  O   UNL     1     -12.492  31.990  16.125  1.00  0.00    -0.504 OA
ATOM     23  H   UNL     1     -11.486  31.902  16.114  1.00  0.00     0.293 HD
ENDBRANCH  17  22
ENDBRANCH   1  12
BRANCH   2  24
ATOM     24  O   UNL     1     -15.353  27.461  14.930  1.00  0.00    -0.502 OA
ATOM     25  H   UNL     1     -14.783  27.519  14.095  1.00  0.00     0.293 HD
ENDBRANCH   2  24
BRANCH   6  26
ATOM     26  O   UNL     1     -20.275  26.275  16.124  1.00  0.00    -0.507 OA
ATOM     27  H   UNL     1     -21.031  25.743  15.709  1.00  0.00     0.293 HD
ENDBRANCH   6  26
BRANCH   8  28
ATOM     28  O   UNL     1     -22.339  30.653  16.121  1.00  0.00    -0.508 OA
ATOM     29  H   UNL     1     -22.883  30.979  15.332  1.00  0.00     0.293 HD
ENDBRANCH   8  28
TORSDOF 7
ENDMDL
MODEL 2
REMARK VINA RESULT:    -3.187      2.350      7.528
REMARK INTER + INTRA:          -4.290
REMARK INTER:                  -4.722
REMARK INTRA:                   0.432
REMARK UNBOUND:                -0.358
REMARK SMILES O=c1c(O)c(-c2cc(O)c(O)c(O)c2)oc2cc(O)cc(O)c12
REMARK SMILES IDX 5 1 3 2 2 3 1 4 23 5 21 6 20 7 18 8 17 9 16 10 15 11 6 12
REMARK SMILES IDX 7 13 8 14 14 15 10 16 12 17 9 18 11 20 13 22 4 24 22 26
REMARK SMILES IDX 19 28
REMARK H PARENT 9 19 11 21 13 23 4 25 22 27 19 29
REMARK Flexibility Score: inf
ROOT
ATOM      1  C   UNL     1     -17.820  27.765  15.854  1.00  0.00     0.180 A 
ATOM      2  C   UNL     1     -18.274  29.092  15.986  1.00  0.00     0.208 A 
ATOM      3  C   UNL     1     -17.331  30.132  16.017  1.00  0.00     0.238 A 
ATOM      4  O   UNL     1     -17.726  31.324  16.125  1.00  0.00    -0.285 OA
ATOM      5  C   UNL     1     -15.956  29.828  15.936  1.00  0.00     0.111 A 
ATOM      6  C   UNL     1     -14.942  30.815  15.965  1.00  0.00     0.134 A 
ATOM      7  C   UNL     1     -13.595  30.433  15.888  1.00  0.00     0.093 A 
ATOM      8  C   UNL     1     -13.244  29.081  15.785  1.00  0.00     0.123 A 
ATOM      9  C   UNL     1     -14.239  28.105  15.756  1.00  0.00     0.094 A 
ATOM     10  C   UNL     1     -15.588  28.466  15.830  1.00  0.00     0.146 A 
ATOM     11  O   UNL     1     -16.515  27.516  15.795  1.00  0.00    -0.452 OA
ENDROOT
BRANCH   1  12
ATOM     12  C   UNL     1     -18.754  26.617  15.794  1.00  0.00     0.029 A 
ATOM     13  C   UNL     1     -18.261  25.345  15.473  1.00  0.00     0.062 A 
ATOM     14  C   UNL     1     -19.126  24.246  15.391  1.00  0.00     0.162 A 
ATOM     15  C   UNL     1     -20.133  26.785  15.995  1.00  0.00     0.062 A 
ATOM     16  C   UNL     1     -20.500  24.410  15.613  1.00  0.00     0.200 A 
ATOM     17  C   UNL     1     -21.010  25.697  15.912  1.00  0.00     0.162 A 
BRANCH  14  18
ATOM     18  O   UNL     1     -18.625  22.982  15.087  1.00  0.00    -0.504 OA
ATOM     19  H   UNL     1     -18.116  22.433  15.771  1.00  0.00     0.293 HD
ENDBRANCH  14  18
BRANCH  16  20
ATOM     20  O   UNL     1     -21.318  23.281  15.528  1.00  0.00    -0.502 OA
ATOM     21  H   UNL     1     -21.096  22.388  15.945  1.00  0.00     0.293 HD
ENDBRANCH  16  20
BRANCH  17  22
ATOM     22  O   UNL     1     -22.369  25.939  16.125  1.00  0.00    -0.504 OA
ATOM     23  H   UNL     1     -22.728  26.694  16.692  1.00  0.00     0.293 HD
ENDBRANCH  17  22
ENDBRANCH   1  12
BRANCH   2  24
ATOM     24  O   UNL     1     -19.639  29.361  16.114  1.00  0.00    -0.502 OA
ATOM     25  H   UNL     1     -20.144  29.933  15.447  1.00  0.00     0.293 HD
ENDBRANCH   2  24
BRANCH   6  26
ATOM     26  O   UNL     1     -15.262  32.170  16.067  1.00  0.00    -0.507 OA
ATOM     27  H   UNL     1     -16.126  32.484  16.494  1.00  0.00     0.293 HD
ENDBRANCH   6  26
BRANCH   8  28
ATOM     28  O   UNL     1     -11.906  28.700  15.711  1.00  0.00    -0.508 OA
ATOM     29  H   UNL     1     -11.169  29.274  16.103  1.00  0.00     0.293 HD
ENDBRANCH   8  28
TORSDOF 7
ENDMDL
MODEL 3
REMARK VINA RESULT:    -3.165      2.360      7.588
REMARK INTER + INTRA:          -4.264
REMARK INTER:                  -4.775
REMARK INTRA:                   0.511
REMARK UNBOUND:                -0.358
REMARK SMILES O=c1c(O)c(-c2cc(O)c(O)c(O)c2)oc2cc(O)cc(O)c12
REMARK SMILES IDX 5 1 3 2 2 3 1 4 23 5 21 6 20 7 18 8 17 9 16 10 15 11 6 12
REMARK SMILES IDX 7 13 8 14 14 15 10 16 12 17 9 18 11 20 13 22 4 24 22 26
REMARK SMILES IDX 19 28
REMARK H PARENT 9 19 11 21 13 23 4 25 22 27 19 29
REMARK Flexibility Score: inf
ROOT
ATOM      1  C   UNL     1     -17.956  27.710  15.854  1.00  0.00     0.180 A 
ATOM      2  C   UNL     1     -18.399  29.041  15.982  1.00  0.00     0.208 A 
ATOM      3  C   UNL     1     -17.448  30.073  16.020  1.00  0.00     0.238 A 
ATOM      4  O   UNL     1     -17.835  31.269  16.124  1.00  0.00    -0.285 OA
ATOM      5  C   UNL     1     -16.075  29.758  15.950  1.00  0.00     0.111 A 
ATOM      6  C   UNL     1     -15.054  30.737  15.986  1.00  0.00     0.134 A 
ATOM      7  C   UNL     1     -13.709  30.344  15.920  1.00  0.00     0.093 A 
ATOM      8  C   UNL     1     -13.368  28.990  15.821  1.00  0.00     0.123 A 
ATOM      9  C   UNL     1     -14.371  28.021  15.784  1.00  0.00     0.094 A 
ATOM     10  C   UNL     1     -15.718  28.394  15.847  1.00  0.00     0.146 A 
ATOM     11  O   UNL     1     -16.652  27.451  15.805  1.00  0.00    -0.452 OA
ENDROOT
BRANCH   1  12
ATOM     12  C   UNL     1     -18.898  26.571  15.787  1.00  0.00     0.029 A 
ATOM     13  C   UNL     1     -20.267  26.796  15.983  1.00  0.00     0.062 A 
ATOM     14  C   UNL     1     -21.177  25.732  15.944  1.00  0.00     0.162 A 
ATOM     15  C   UNL     1     -18.443  25.257  15.588  1.00  0.00     0.062 A 
ATOM     16  C   UNL     1     -20.726  24.423  15.724  1.00  0.00     0.200 A 
ATOM     17  C   UNL     1     -19.341  24.183  15.551  1.00  0.00     0.162 A 
BRANCH  14  18
ATOM     18  O   UNL     1     -22.539  25.968  16.125  1.00  0.00    -0.504 OA
ATOM     19  H   UNL     1     -22.874  26.781  16.628  1.00  0.00     0.293 HD
ENDBRANCH  14  18
BRANCH  16  20
ATOM     20  O   UNL     1     -21.675  23.399  15.686  1.00  0.00    -0.502 OA
ATOM     21  H   UNL     1     -21.459  22.422  15.820  1.00  0.00     0.293 HD
ENDBRANCH  16  20
BRANCH  17  22
ATOM     22  O   UNL     1     -18.817  22.904  15.348  1.00  0.00    -0.504 OA
ATOM     23  H   UNL     1     -17.860  22.647  15.544  1.00  0.00     0.293 HD
ENDBRANCH  17  22
ENDBRANCH   1  12
BRANCH   2  24
ATOM     24  O   UNL     1     -19.763  29.322  16.099  1.00  0.00    -0.502 OA
ATOM     25  H   UNL     1     -20.116  30.266  16.207  1.00  0.00     0.293 HD
ENDBRANCH   2  24
BRANCH   6  26
ATOM     26  O   UNL     1     -15.363  32.095  16.086  1.00  0.00    -0.507 OA
ATOM     27  H   UNL     1     -16.258  32.414  16.439  1.00  0.00     0.293 HD
ENDBRANCH   6  26
BRANCH   8  28
ATOM     28  O   UNL     1     -12.032  28.598  15.757  1.00  0.00    -0.508 OA
ATOM     29  H   UNL     1     -11.432  28.883  14.993  1.00  0.00     0.293 HD
ENDBRANCH   8  28
TORSDOF 7
ENDMDL
MODEL 4
REMARK VINA RESULT:    -2.815      3.247      5.769
REMARK INTER + INTRA:          -3.832
REMARK INTER:                  -4.163
REMARK INTRA:                   0.331
REMARK UNBOUND:                -0.358
REMARK SMILES O=c1c(O)c(-c2cc(O)c(O)c(O)c2)oc2cc(O)cc(O)c12
REMARK SMILES IDX 5 1 3 2 2 3 1 4 23 5 21 6 20 7 18 8 17 9 16 10 15 11 6 12
REMARK SMILES IDX 7 13 8 14 14 15 10 16 12 17 9 18 11 20 13 22 4 24 22 26
REMARK SMILES IDX 19 28
REMARK H PARENT 9 19 11 21 13 23 4 25 22 27 19 29
REMARK Flexibility Score: inf
ROOT
ATOM      1  C   UNL     1     -14.120  30.405  11.277  1.00  0.00     0.180 A 
ATOM      2  C   UNL     1     -12.993  29.649  11.655  1.00  0.00     0.208 A 
ATOM      3  C   UNL     1     -13.001  28.990  12.895  1.00  0.00     0.238 A 
ATOM      4  O   UNL     1     -12.002  28.303  13.239  1.00  0.00    -0.285 OA
ATOM      5  C   UNL     1     -14.123  29.113  13.741  1.00  0.00     0.111 A 
ATOM      6  C   UNL     1     -14.209  28.485  15.007  1.00  0.00     0.134 A 
ATOM      7  C   UNL     1     -15.356  28.663  15.795  1.00  0.00     0.093 A 
ATOM      8  C   UNL     1     -16.415  29.457  15.342  1.00  0.00     0.123 A 
ATOM      9  C   UNL     1     -16.335  30.077  14.095  1.00  0.00     0.094 A 
ATOM     10  C   UNL     1     -15.201  29.911  13.293  1.00  0.00     0.146 A 
ATOM     11  O   UNL     1     -15.153  30.509  12.109  1.00  0.00    -0.452 OA
ENDROOT
BRANCH   1  12
ATOM     12  C   UNL     1     -14.194  31.111   9.979  1.00  0.00     0.029 A 
ATOM     13  C   UNL     1     -13.012  31.546   9.364  1.00  0.00     0.062 A 
ATOM     14  C   UNL     1     -13.056  32.234   8.144  1.00  0.00     0.162 A 
ATOM     15  C   UNL     1     -15.427  31.408   9.377  1.00  0.00     0.062 A 
ATOM     16  C   UNL     1     -14.286  32.511   7.532  1.00  0.00     0.200 A 
ATOM     17  C   UNL     1     -15.486  32.098   8.160  1.00  0.00     0.162 A 
BRANCH  14  18
ATOM     18  O   UNL     1     -11.875  32.649   7.531  1.00  0.00    -0.504 OA
ATOM     19  H   UNL     1     -11.833  33.500   6.982  1.00  0.00     0.293 HD
ENDBRANCH  14  18
BRANCH  16  20
ATOM     20  O   UNL     1     -14.274  33.192   6.312  1.00  0.00    -0.502 OA
ATOM     21  H   UNL     1     -13.840  34.094   6.171  1.00  0.00     0.293 HD
ENDBRANCH  16  20
BRANCH  17  22
ATOM     22  O   UNL     1     -16.748  32.357   7.620  1.00  0.00    -0.504 OA
ATOM     23  H   UNL     1     -17.018  33.240   7.211  1.00  0.00     0.293 HD
ENDBRANCH  17  22
ENDBRANCH   1  12
BRANCH   2  24
ATOM     24  O   UNL     1     -11.875  29.584  10.819  1.00  0.00    -0.502 OA
ATOM     25  H   UNL     1     -11.004  29.155  11.110  1.00  0.00     0.293 HD
ENDBRANCH   2  24
BRANCH   6  26
ATOM     26  O   UNL     1     -13.168  27.688  15.486  1.00  0.00    -0.507 OA
ATOM     27  H   UNL     1     -13.001  26.756  15.126  1.00  0.00     0.293 HD
ENDBRANCH   6  26
BRANCH   8  28
ATOM     28  O   UNL     1     -17.554  29.635  16.125  1.00  0.00    -0.508 OA
ATOM     29  H   UNL     1     -18.292  30.272  15.850  1.00  0.00     0.293 HD
ENDBRANCH   8  28
TORSDOF 7
ENDMDL
MODEL 5
REMARK VINA RESULT:    -2.708      1.810      6.858
REMARK INTER + INTRA:          -3.699
REMARK INTER:                  -4.094
REMARK INTRA:                   0.395
REMARK UNBOUND:                -0.358
REMARK SMILES O=c1c(O)c(-c2cc(O)c(O)c(O)c2)oc2cc(O)cc(O)c12
REMARK SMILES IDX 5 1 3 2 2 3 1 4 23 5 21 6 20 7 18 8 17 9 16 10 15 11 6 12
REMARK SMILES IDX 7 13 8 14 14 15 10 16 12 17 9 18 11 20 13 22 4 24 22 26
REMARK SMILES IDX 19 28
REMARK H PARENT 9 19 11 21 13 23 4 25 22 27 19 29
REMARK Flexibility Score: inf
ROOT
ATOM      1  C   UNL     1     -16.925  28.954  15.718  1.00  0.00     0.180 A 
ATOM      2  C   UNL     1     -16.146  27.805  15.479  1.00  0.00     0.208 A 
ATOM      3  C   UNL     1     -14.749  27.931  15.428  1.00  0.00     0.238 A 
ATOM      4  O   UNL     1     -14.041  26.907  15.225  1.00  0.00    -0.285 OA
ATOM      5  C   UNL     1     -14.157  29.200  15.595  1.00  0.00     0.111 A 
ATOM      6  C   UNL     1     -12.758  29.414  15.553  1.00  0.00     0.134 A 
ATOM      7  C   UNL     1     -12.246  30.708  15.720  1.00  0.00     0.093 A 
ATOM      8  C   UNL     1     -13.107  31.793  15.926  1.00  0.00     0.123 A 
ATOM      9  C   UNL     1     -14.486  31.588  15.969  1.00  0.00     0.094 A 
ATOM     10  C   UNL     1     -15.016  30.304  15.806  1.00  0.00     0.146 A 
ATOM     11  O   UNL     1     -16.332  30.136  15.857  1.00  0.00    -0.452 OA
ENDROOT
BRANCH   1  12
ATOM     12  C   UNL     1     -18.402  28.898  15.806  1.00  0.00     0.029 A 
ATOM     13  C   UNL     1     -19.133  30.092  15.867  1.00  0.00     0.062 A 
ATOM     14  C   UNL     1     -20.530  30.067  15.969  1.00  0.00     0.162 A 
ATOM     15  C   UNL     1     -19.084  27.674  15.889  1.00  0.00     0.062 A 
ATOM     16  C   UNL     1     -21.213  28.844  16.029  1.00  0.00     0.200 A 
ATOM     17  C   UNL     1     -20.480  27.633  15.995  1.00  0.00     0.162 A 
BRANCH  14  18
ATOM     18  O   UNL     1     -21.251  31.259  16.014  1.00  0.00    -0.504 OA
ATOM     19  H   UNL     1     -21.064  32.017  15.367  1.00  0.00     0.293 HD
ENDBRANCH  14  18
BRANCH  16  20
ATOM     20  O   UNL     1     -22.607  28.874  16.123  1.00  0.00    -0.502 OA
ATOM     21  H   UNL     1     -23.210  29.322  15.448  1.00  0.00     0.293 HD
ENDBRANCH  16  20
BRANCH  17  22
ATOM     22  O   UNL     1     -21.090  26.379  16.072  1.00  0.00    -0.504 OA
ATOM     23  H   UNL     1     -20.803  25.576  15.530  1.00  0.00     0.293 HD
ENDBRANCH  17  22
ENDBRANCH   1  12
BRANCH   2  24
ATOM     24  O   UNL     1     -16.760  26.568  15.268  1.00  0.00    -0.502 OA
ATOM     25  H   UNL     1     -17.399  26.157  15.939  1.00  0.00     0.293 HD
ENDBRANCH   2  24
BRANCH   6  26
ATOM     26  O   UNL     1     -11.875  28.352  15.348  1.00  0.00    -0.507 OA
ATOM     27  H   UNL     1     -11.364  27.928  16.114  1.00  0.00     0.293 HD
ENDBRANCH   6  26
BRANCH   8  28
ATOM     28  O   UNL     1     -12.599  33.080  16.090  1.00  0.00    -0.508 OA
ATOM     29  H   UNL     1     -11.611  33.245  16.237  1.00  0.00     0.293 HD
ENDBRANCH   8  28
TORSDOF 7
ENDMDL
MODEL 6
REMARK VINA RESULT:    -2.607      3.128      5.511
REMARK INTER + INTRA:          -3.575
REMARK INTER:                  -3.886
REMARK INTRA:                   0.311
REMARK UNBOUND:                -0.358
REMARK SMILES O=c1c(O)c(-c2cc(O)c(O)c(O)c2)oc2cc(O)cc(O)c12
REMARK SMILES IDX 5 1 3 2 2 3 1 4 23 5 21 6 20 7 18 8 17 9 16 10 15 11 6 12
REMARK SMILES IDX 7 13 8 14 14 15 10 16 12 17 9 18 11 20 13 22 4 24 22 26
REMARK SMILES IDX 19 28
REMARK H PARENT 9 19 11 21 13 23 4 25 22 27 19 29
REMARK Flexibility Score: inf
ROOT
ATOM      1  C   UNL     1     -14.198  30.407  11.504  1.00  0.00     0.180 A 
ATOM      2  C   UNL     1     -13.056  29.723  11.962  1.00  0.00     0.208 A 
ATOM      3  C   UNL     1     -13.106  29.074  13.206  1.00  0.00     0.238 A 
ATOM      4  O   UNL     1     -12.092  28.450  13.622  1.00  0.00    -0.285 OA
ATOM      5  C   UNL     1     -14.286  29.134  13.976  1.00  0.00     0.111 A 
ATOM      6  C   UNL     1     -14.418  28.512  15.240  1.00  0.00     0.134 A 
ATOM      7  C   UNL     1     -15.622  28.625  15.950  1.00  0.00     0.093 A 
ATOM      8  C   UNL     1     -16.695  29.351  15.420  1.00  0.00     0.123 A 
ATOM      9  C   UNL     1     -16.570  29.966  14.174  1.00  0.00     0.094 A 
ATOM     10  C   UNL     1     -15.378  29.863  13.450  1.00  0.00     0.146 A 
ATOM     11  O   UNL     1     -15.289  30.454  12.264  1.00  0.00    -0.452 OA
ENDROOT
BRANCH   1  12
ATOM     12  C   UNL     1     -14.229  31.098  10.195  1.00  0.00     0.029 A 
ATOM     13  C   UNL     1     -15.453  31.269   9.535  1.00  0.00     0.062 A 
ATOM     14  C   UNL     1     -15.507  31.904   8.287  1.00  0.00     0.162 A 
ATOM     15  C   UNL     1     -13.050  31.536   9.572  1.00  0.00     0.062 A 
ATOM     16  C   UNL     1     -14.332  32.361   7.675  1.00  0.00     0.200 A 
ATOM     17  C   UNL     1     -13.088  32.168   8.323  1.00  0.00     0.162 A 
BRANCH  14  18
ATOM     18  O   UNL     1     -16.731  32.084   7.645  1.00  0.00    -0.504 OA
ATOM     19  H   UNL     1     -17.445  32.695   8.025  1.00  0.00     0.293 HD
ENDBRANCH  14  18
BRANCH  16  20
ATOM     20  O   UNL     1     -14.442  32.994   6.434  1.00  0.00    -0.502 OA
ATOM     21  H   UNL     1     -15.023  33.801   6.260  1.00  0.00     0.293 HD
ENDBRANCH  16  20
BRANCH  17  22
ATOM     22  O   UNL     1     -11.875  32.577   7.764  1.00  0.00    -0.504 OA
ATOM     23  H   UNL     1     -11.080  32.889   8.303  1.00  0.00     0.293 HD
ENDBRANCH  17  22
ENDBRANCH   1  12
BRANCH   2  24
ATOM     24  O   UNL     1     -11.883  29.720  11.202  1.00  0.00    -0.502 OA
ATOM     25  H   UNL     1     -10.962  29.759  11.624  1.00  0.00     0.293 HD
ENDBRANCH   2  24
BRANCH   6  26
ATOM     26  O   UNL     1     -13.365  27.782  15.795  1.00  0.00    -0.507 OA
ATOM     27  H   UNL     1     -12.420  27.854  15.438  1.00  0.00     0.293 HD
ENDBRANCH   6  26
BRANCH   8  28
ATOM     28  O   UNL     1     -17.891  29.465  16.125  1.00  0.00    -0.508 OA
ATOM     29  H   UNL     1     -18.523  28.680  16.229  1.00  0.00     0.293 HD
ENDBRANCH   8  28
TORSDOF 7
ENDMDL
MODEL 7
REMARK VINA RESULT:    -1.461      1.666      2.113
REMARK INTER + INTRA:          -2.162
REMARK INTER:                  -2.663
REMARK INTRA:                   0.501
REMARK UNBOUND:                -0.358
REMARK SMILES O=c1c(O)c(-c2cc(O)c(O)c(O)c2)oc2cc(O)cc(O)c12
REMARK SMILES IDX 5 1 3 2 2 3 1 4 23 5 21 6 20 7 18 8 17 9 16 10 15 11 6 12
REMARK SMILES IDX 7 13 8 14 14 15 10 16 12 17 9 18 11 20 13 22 4 24 22 26
REMARK SMILES IDX 19 28
REMARK H PARENT 9 19 11 21 13 23 4 25 22 27 19 29
REMARK Flexibility Score: inf
ROOT
ATOM      1  C   UNL     1     -17.463  28.646  15.612  1.00  0.00     0.180 A 
ATOM      2  C   UNL     1     -17.808  27.289  15.759  1.00  0.00     0.208 A 
ATOM      3  C   UNL     1     -19.162  26.941  15.882  1.00  0.00     0.238 A 
ATOM      4  O   UNL     1     -19.483  25.728  16.004  1.00  0.00    -0.285 OA
ATOM      5  C   UNL     1     -20.144  27.954  15.875  1.00  0.00     0.111 A 
ATOM      6  C   UNL     1     -21.529  27.689  15.998  1.00  0.00     0.134 A 
ATOM      7  C   UNL     1     -22.444  28.752  15.992  1.00  0.00     0.093 A 
ATOM      8  C   UNL     1     -22.000  30.073  15.867  1.00  0.00     0.123 A 
ATOM      9  C   UNL     1     -20.636  30.339  15.745  1.00  0.00     0.094 A 
ATOM     10  C   UNL     1     -19.708  29.293  15.748  1.00  0.00     0.146 A 
ATOM     11  O   UNL     1     -18.416  29.574  15.625  1.00  0.00    -0.452 OA
ENDROOT
BRANCH   1  12
ATOM     12  C   UNL     1     -16.059  29.089  15.458  1.00  0.00     0.029 A 
ATOM     13  C   UNL     1     -15.047  28.131  15.311  1.00  0.00     0.062 A 
ATOM     14  C   UNL     1     -13.708  28.522  15.182  1.00  0.00     0.162 A 
ATOM     15  C   UNL     1     -15.710  30.448  15.514  1.00  0.00     0.062 A 
ATOM     16  C   UNL     1     -13.362  29.881  15.216  1.00  0.00     0.200 A 
ATOM     17  C   UNL     1     -14.376  30.854  15.391  1.00  0.00     0.162 A 
BRANCH  14  18
ATOM     18  O   UNL     1     -12.710  27.563  15.021  1.00  0.00    -0.504 OA
ATOM     19  H   UNL     1     -11.729  27.793  15.133  1.00  0.00     0.293 HD
ENDBRANCH  14  18
BRANCH  16  20
ATOM     20  O   UNL     1     -12.014  30.218  15.075  1.00  0.00    -0.502 OA
ATOM     21  H   UNL     1     -11.395  30.414  15.849  1.00  0.00     0.293 HD
ENDBRANCH  16  20
BRANCH  17  22
ATOM     22  O   UNL     1     -14.104  32.222  15.455  1.00  0.00    -0.504 OA
ATOM     23  H   UNL     1     -14.798  32.929  15.653  1.00  0.00     0.293 HD
ENDBRANCH  17  22
ENDBRANCH   1  12
BRANCH   2  24
ATOM     24  O   UNL     1     -16.811  26.310  15.812  1.00  0.00    -0.502 OA
ATOM     25  H   UNL     1     -15.826  26.533  15.725  1.00  0.00     0.293 HD
ENDBRANCH   2  24
BRANCH   6  26
ATOM     26  O   UNL     1     -22.003  26.382  16.125  1.00  0.00    -0.507 OA
ATOM     27  H   UNL     1     -21.771  25.806  16.926  1.00  0.00     0.293 HD
ENDBRANCH   6  26
BRANCH   8  28
ATOM     28  O   UNL     1     -22.908  31.130  15.863  1.00  0.00    -0.508 OA
ATOM     29  H   UNL     1     -23.611  31.227  16.586  1.00  0.00     0.293 HD
ENDBRANCH   8  28
TORSDOF 7
ENDMDL
MODEL 8
REMARK VINA RESULT:    -1.069      1.819      7.231
REMARK INTER + INTRA:          -1.678
REMARK INTER:                  -2.046
REMARK INTRA:                   0.368
REMARK UNBOUND:                -0.358
REMARK SMILES O=c1c(O)c(-c2cc(O)c(O)c(O)c2)oc2cc(O)cc(O)c12
REMARK SMILES IDX 5 1 3 2 2 3 1 4 23 5 21 6 20 7 18 8 17 9 16 10 15 11 6 12
REMARK SMILES IDX 7 13 8 14 14 15 10 16 12 17 9 18 11 20 13 22 4 24 22 26
REMARK SMILES IDX 19 28
REMARK H PARENT 9 19 11 21 13 23 4 25 22 27 19 29
REMARK Flexibility Score: inf
ROOT
ATOM      1  C   UNL     1     -17.084  29.289  15.607  1.00  0.00     0.180 A 
ATOM      2  C   UNL     1     -16.441  30.536  15.735  1.00  0.00     0.208 A 
ATOM      3  C   UNL     1     -15.050  30.604  15.561  1.00  0.00     0.238 A 
ATOM      4  O   UNL     1     -14.466  31.717  15.663  1.00  0.00    -0.285 OA
ATOM      5  C   UNL     1     -14.324  29.427  15.282  1.00  0.00     0.111 A 
ATOM      6  C   UNL     1     -12.921  29.409  15.097  1.00  0.00     0.134 A 
ATOM      7  C   UNL     1     -12.270  28.196  14.831  1.00  0.00     0.093 A 
ATOM      8  C   UNL     1     -12.995  27.001  14.749  1.00  0.00     0.123 A 
ATOM      9  C   UNL     1     -14.379  27.015  14.930  1.00  0.00     0.094 A 
ATOM     10  C   UNL     1     -15.046  28.215  15.194  1.00  0.00     0.146 A 
ATOM     11  O   UNL     1     -16.364  28.199  15.358  1.00  0.00    -0.452 OA
ENDROOT
BRANCH   1  12
ATOM     12  C   UNL     1     -18.549  29.140  15.757  1.00  0.00     0.029 A 
ATOM     13  C   UNL     1     -19.102  27.858  15.872  1.00  0.00     0.062 A 
ATOM     14  C   UNL     1     -20.487  27.688  15.996  1.00  0.00     0.162 A 
ATOM     15  C   UNL     1     -19.404  30.254  15.729  1.00  0.00     0.062 A 
ATOM     16  C   UNL     1     -21.339  28.802  15.990  1.00  0.00     0.200 A 
ATOM     17  C   UNL     1     -20.790  30.099  15.848  1.00  0.00     0.162 A 
BRANCH  14  18
ATOM     18  O   UNL     1     -21.028  26.411  16.125  1.00  0.00    -0.504 OA
ATOM     19  H   UNL     1     -20.816  25.822  16.922  1.00  0.00     0.293 HD
ENDBRANCH  14  18
BRANCH  16  20
ATOM     20  O   UNL     1     -22.712  28.579  16.125  1.00  0.00    -0.502 OA
ATOM     21  H   UNL     1     -23.113  27.734  16.507  1.00  0.00     0.293 HD
ENDBRANCH  16  20
BRANCH  17  22
ATOM     22  O   UNL     1     -21.578  31.252  15.813  1.00  0.00    -0.504 OA
ATOM     23  H   UNL     1     -22.274  31.483  16.507  1.00  0.00     0.293 HD
ENDBRANCH  17  22
ENDBRANCH   1  12
BRANCH   2  24
ATOM     24  O   UNL     1     -17.177  31.678  16.061  1.00  0.00    -0.502 OA
ATOM     25  H   UNL     1     -17.683  31.768  16.935  1.00  0.00     0.293 HD
ENDBRANCH   2  24
BRANCH   6  26
ATOM     26  O   UNL     1     -12.171  30.584  15.174  1.00  0.00    -0.507 OA
ATOM     27  H   UNL     1     -12.097  31.222  14.390  1.00  0.00     0.293 HD
ENDBRANCH   6  26
BRANCH   8  28
ATOM     28  O   UNL     1     -12.349  25.795  14.487  1.00  0.00    -0.508 OA
ATOM     29  H   UNL     1     -11.941  25.241  15.230  1.00  0.00     0.293 HD
ENDBRANCH   8  28
TORSDOF 7
ENDMDL
