MODEL 1
REMARK VINA RESULT:     9.324      0.000      0.000
REMARK INTER + INTRA:           9.851
REMARK INTER:                   9.869
REMARK INTRA:                  -0.018
REMARK UNBOUND:                -0.018
REMARK SMILES O=C([O-])c1cccnc1
REMARK SMILES IDX 4 1 5 2 9 3 6 4 8 5 7 6 2 7 1 8 3 9
REMARK H PARENT
REMARK Flexibility Score: inf
ROOT
ATOM      1  C   UNL     1      -0.542   8.986 -25.197  1.00  0.00     0.016 A 
ATOM      2  C   UNL     1      -0.034   7.694 -24.985  1.00  0.00     0.013 A 
ATOM      3  C   UNL     1      -0.051   9.726 -26.287  1.00  0.00     0.120 A 
ATOM      4  C   UNL     1       0.934   7.172 -25.843  1.00  0.00     0.021 A 
ATOM      5  N   UNL     1       0.892   9.194 -27.109  1.00  0.00    -0.264 NA
ATOM      6  C   UNL     1       1.390   7.946 -26.911  1.00  0.00     0.111 A 
ENDROOT
BRANCH   1   7
ATOM      7  C   UNL     1      -1.568   9.550 -24.294  1.00  0.00     0.073 C 
ATOM      8  O   UNL     1      -2.687   8.986 -24.164  1.00  0.00    -0.545 OA
ATOM      9  O   UNL     1      -1.312  10.713 -23.575  1.00  0.00    -0.545 OA
ENDBRANCH   1   7
TORSDOF 1
ENDMDL
MODEL 2
REMARK VINA RESULT:    11.395      8.817     10.232
REMARK INTER + INTRA:          12.043
REMARK INTER:                  12.064
REMARK INTRA:                  -0.021
REMARK UNBOUND:                -0.018
REMARK SMILES O=C([O-])c1cccnc1
REMARK SMILES IDX 4 1 5 2 9 3 6 4 8 5 7 6 2 7 1 8 3 9
REMARK H PARENT
REMARK Flexibility Score: inf
ROOT
ATOM      1  C   UNL     1      -5.116  16.783 -25.381  1.00  0.00     0.016 A 
ATOM      2  C   UNL     1      -5.700  17.819 -26.128  1.00  0.00     0.013 A 
ATOM      3  C   UNL     1      -4.952  16.967 -23.997  1.00  0.00     0.120 A 
ATOM      4  C   UNL     1      -6.103  18.996 -25.497  1.00  0.00     0.021 A 
ATOM      5  N   UNL     1      -5.354  18.125 -23.406  1.00  0.00    -0.264 NA
ATOM      6  C   UNL     1      -5.919  19.132 -24.120  1.00  0.00     0.111 A 
ENDROOT
BRANCH   1   7
ATOM      7  C   UNL     1      -4.685  15.530 -26.039  1.00  0.00     0.073 C 
ATOM      8  O   UNL     1      -3.673  14.904 -25.625  1.00  0.00    -0.545 OA
ATOM      9  O   UNL     1      -5.392  15.026 -27.125  1.00  0.00    -0.545 OA
ENDBRANCH   1   7
TORSDOF 1
ENDMDL
