MODEL 1
REMARK VINA RESULT:    -4.522      0.000      0.000
REMARK INTER + INTRA:          -9.655
REMARK INTER:                  -8.487
REMARK INTRA:                  -1.168
REMARK UNBOUND:                -1.168
REMARK SMILES CCCCCCCCC=CCCCCCCCC(=O)[O-]
REMARK SMILES IDX 10 1 9 2 11 3 12 4 13 5 14 6 15 7 16 8 17 9 18 10 19 11
REMARK SMILES IDX 20 12 8 13 7 14 6 15 5 16 4 17 3 18 2 19 1 20
REMARK H PARENT
REMARK Flexibility Score: inf
ROOT
ATOM      1  C   UNL     1      -0.602  12.748  -4.456  1.00  0.00    -0.031 C 
ATOM      2  C   UNL     1       0.455  12.368  -3.717  1.00  0.00    -0.031 C 
ENDROOT
BRANCH   1   3
ATOM      3  C   UNL     1      -1.853  11.914  -4.596  1.00  0.00     0.027 C 
BRANCH   3   4
ATOM      4  C   UNL     1      -2.937  12.617  -5.432  1.00  0.00     0.004 C 
BRANCH   4   5
ATOM      5  C   UNL     1      -3.344  14.001  -4.889  1.00  0.00     0.000 C 
BRANCH   5   6
ATOM      6  C   UNL     1      -2.876  15.155  -5.795  1.00  0.00     0.000 C 
BRANCH   6   7
ATOM      7  C   UNL     1      -1.708  15.953  -5.185  1.00  0.00     0.000 C 
BRANCH   7   8
ATOM      8  C   UNL     1      -1.786  16.150  -3.659  1.00  0.00     0.006 C 
BRANCH   8   9
ATOM      9  C   UNL     1      -0.413  16.084  -2.976  1.00  0.00     0.053 C 
BRANCH   9  10
ATOM     10  C   UNL     1      -0.574  15.939  -1.495  1.00  0.00     0.041 C 
ATOM     11  O   UNL     1       0.436  15.789  -0.760  1.00  0.00    -0.550 OA
ATOM     12  O   UNL     1      -1.837  16.014  -0.923  1.00  0.00    -0.550 OA
ENDBRANCH   9  10
ENDBRANCH   8   9
ENDBRANCH   7   8
ENDBRANCH   6   7
ENDBRANCH   5   6
ENDBRANCH   4   5
ENDBRANCH   3   4
ENDBRANCH   1   3
BRANCH   2  13
ATOM     13  C   UNL     1       0.482  11.089  -2.912  1.00  0.00     0.027 C 
BRANCH  13  14
ATOM     14  C   UNL     1       1.892  10.479  -2.832  1.00  0.00     0.004 C 
BRANCH  14  15
ATOM     15  C   UNL     1       2.124   9.567  -1.606  1.00  0.00     0.000 C 
BRANCH  15  16
ATOM     16  C   UNL     1       0.856   9.211  -0.803  1.00  0.00     0.000 C 
BRANCH  16  17
ATOM     17  C   UNL     1       1.118   8.542   0.562  1.00  0.00    -0.000 C 
BRANCH  17  18
ATOM     18  C   UNL     1       1.912   7.218   0.497  1.00  0.00    -0.000 C 
BRANCH  18  19
ATOM     19  C   UNL     1       3.031   7.080   1.547  1.00  0.00    -0.003 C 
ATOM     20  C   UNL     1       3.587   5.658   1.644  1.00  0.00     0.004 C 
ENDBRANCH  18  19
ENDBRANCH  17  18
ENDBRANCH  16  17
ENDBRANCH  15  16
ENDBRANCH  14  15
ENDBRANCH  13  14
ENDBRANCH   2  13
TORSDOF 15
ENDMDL
MODEL 2
REMARK VINA RESULT:    -4.476      2.969      7.872
REMARK INTER + INTRA:          -9.570
REMARK INTER:                  -8.119
REMARK INTRA:                  -1.450
REMARK UNBOUND:                -1.168
REMARK SMILES CCCCCCCCC=CCCCCCCCC(=O)[O-]
REMARK SMILES IDX 10 1 9 2 11 3 12 4 13 5 14 6 15 7 16 8 17 9 18 10 19 11
REMARK SMILES IDX 20 12 8 13 7 14 6 15 5 16 4 17 3 18 2 19 1 20
REMARK H PARENT
REMARK Flexibility Score: inf
ROOT
ATOM      1  C   UNL     1      -1.603  11.418  -4.174  1.00  0.00    -0.031 C 
ATOM      2  C   UNL     1      -2.649  11.854  -4.898  1.00  0.00    -0.031 C 
ENDROOT
BRANCH   1   3
ATOM      3  C   UNL     1      -0.250  12.091  -4.191  1.00  0.00     0.027 C 
BRANCH   3   4
ATOM      4  C   UNL     1       0.604  11.722  -2.965  1.00  0.00     0.004 C 
BRANCH   4   5
ATOM      5  C   UNL     1       1.647  10.621  -3.240  1.00  0.00     0.000 C 
BRANCH   5   6
ATOM      6  C   UNL     1       1.985   9.798  -1.983  1.00  0.00     0.000 C 
BRANCH   6   7
ATOM      7  C   UNL     1       1.010  10.062  -0.820  1.00  0.00     0.000 C 
BRANCH   7   8
ATOM      8  C   UNL     1       0.717   8.839   0.069  1.00  0.00     0.006 C 
BRANCH   8   9
ATOM      9  C   UNL     1       1.659   7.659  -0.205  1.00  0.00     0.053 C 
BRANCH   9  10
ATOM     10  C   UNL     1       2.687   7.551   0.876  1.00  0.00     0.041 C 
ATOM     11  O   UNL     1       3.522   8.477   1.053  1.00  0.00    -0.550 OA
ATOM     12  O   UNL     1       2.697   6.447   1.719  1.00  0.00    -0.550 OA
ENDBRANCH   9  10
ENDBRANCH   8   9
ENDBRANCH   7   8
ENDBRANCH   6   7
ENDBRANCH   5   6
ENDBRANCH   4   5
ENDBRANCH   3   4
ENDBRANCH   1   3
BRANCH   2  13
ATOM     13  C   UNL     1      -2.594  13.090  -5.765  1.00  0.00     0.027 C 
BRANCH  13  14
ATOM     14  C   UNL     1      -3.329  14.283  -5.129  1.00  0.00     0.004 C 
BRANCH  14  15
ATOM     15  C   UNL     1      -2.533  15.608  -5.152  1.00  0.00     0.000 C 
BRANCH  15  16
ATOM     16  C   UNL     1      -1.042  15.473  -5.522  1.00  0.00     0.000 C 
BRANCH  16  17
ATOM     17  C   UNL     1      -0.078  15.402  -4.321  1.00  0.00    -0.000 C 
BRANCH  17  18
ATOM     18  C   UNL     1      -0.329  16.459  -3.222  1.00  0.00    -0.000 C 
BRANCH  18  19
ATOM     19  C   UNL     1      -0.893  15.901  -1.901  1.00  0.00    -0.003 C 
ATOM     20  C   UNL     1       0.151  15.841  -0.783  1.00  0.00     0.004 C 
ENDBRANCH  18  19
ENDBRANCH  17  18
ENDBRANCH  16  17
ENDBRANCH  15  16
ENDBRANCH  14  15
ENDBRANCH  13  14
ENDBRANCH   2  13
TORSDOF 15
ENDMDL
MODEL 3
REMARK VINA RESULT:    -4.355      1.165      1.905
REMARK INTER + INTRA:          -9.342
REMARK INTER:                  -7.733
REMARK INTRA:                  -1.608
REMARK UNBOUND:                -1.168
REMARK SMILES CCCCCCCCC=CCCCCCCCC(=O)[O-]
REMARK SMILES IDX 10 1 9 2 11 3 12 4 13 5 14 6 15 7 16 8 17 9 18 10 19 11
REMARK SMILES IDX 20 12 8 13 7 14 6 15 5 16 4 17 3 18 2 19 1 20
REMARK H PARENT
REMARK Flexibility Score: inf
ROOT
ATOM      1  C   UNL     1      -0.556  12.491  -4.276  1.00  0.00    -0.031 C 
ATOM      2  C   UNL     1       0.636  12.294  -3.687  1.00  0.00    -0.031 C 
ENDROOT
BRANCH   1   3
ATOM      3  C   UNL     1      -1.612  11.415  -4.381  1.00  0.00     0.027 C 
BRANCH   3   4
ATOM      4  C   UNL     1      -3.015  11.993  -4.637  1.00  0.00     0.004 C 
BRANCH   4   5
ATOM      5  C   UNL     1      -3.096  12.910  -5.874  1.00  0.00     0.000 C 
BRANCH   5   6
ATOM      6  C   UNL     1      -3.380  14.378  -5.506  1.00  0.00     0.000 C 
BRANCH   6   7
ATOM      7  C   UNL     1      -2.221  15.319  -5.884  1.00  0.00     0.000 C 
BRANCH   7   8
ATOM      8  C   UNL     1      -1.880  16.384  -4.824  1.00  0.00     0.006 C 
BRANCH   8   9
ATOM      9  C   UNL     1      -1.795  15.809  -3.404  1.00  0.00     0.053 C 
BRANCH   9  10
ATOM     10  C   UNL     1      -0.424  16.012  -2.840  1.00  0.00     0.041 C 
ATOM     11  O   UNL     1       0.483  16.525  -3.548  1.00  0.00    -0.550 OA
ATOM     12  O   UNL     1      -0.159  15.677  -1.519  1.00  0.00    -0.550 OA
ENDBRANCH   9  10
ENDBRANCH   8   9
ENDBRANCH   7   8
ENDBRANCH   6   7
ENDBRANCH   5   6
ENDBRANCH   4   5
ENDBRANCH   3   4
ENDBRANCH   1   3
BRANCH   2  13
ATOM     13  C   UNL     1       1.026  10.991  -3.028  1.00  0.00     0.027 C 
BRANCH  13  14
ATOM     14  C   UNL     1       2.428  10.519  -3.450  1.00  0.00     0.004 C 
BRANCH  14  15
ATOM     15  C   UNL     1       2.944   9.283  -2.678  1.00  0.00     0.000 C 
BRANCH  15  16
ATOM     16  C   UNL     1       3.876   9.594  -1.488  1.00  0.00     0.000 C 
BRANCH  16  17
ATOM     17  C   UNL     1       3.669   8.697  -0.251  1.00  0.00    -0.000 C 
BRANCH  17  18
ATOM     18  C   UNL     1       2.531   7.660  -0.380  1.00  0.00    -0.000 C 
BRANCH  18  19
ATOM     19  C   UNL     1       1.313   7.915   0.527  1.00  0.00    -0.003 C 
ATOM     20  C   UNL     1       0.565   9.203   0.176  1.00  0.00     0.004 C 
ENDBRANCH  18  19
ENDBRANCH  17  18
ENDBRANCH  16  17
ENDBRANCH  15  16
ENDBRANCH  14  15
ENDBRANCH  13  14
ENDBRANCH   2  13
TORSDOF 15
ENDMDL
MODEL 4
REMARK VINA RESULT:    -4.128      1.883      2.640
REMARK INTER + INTRA:          -8.916
REMARK INTER:                  -7.417
REMARK INTRA:                  -1.499
REMARK UNBOUND:                -1.168
REMARK SMILES CCCCCCCCC=CCCCCCCCC(=O)[O-]
REMARK SMILES IDX 10 1 9 2 11 3 12 4 13 5 14 6 15 7 16 8 17 9 18 10 19 11
REMARK SMILES IDX 20 12 8 13 7 14 6 15 5 16 4 17 3 18 2 19 1 20
REMARK H PARENT
REMARK Flexibility Score: inf
ROOT
ATOM      1  C   UNL     1      -2.987  11.741  -4.742  1.00  0.00    -0.031 C 
ATOM      2  C   UNL     1      -1.908  11.423  -4.005  1.00  0.00    -0.031 C 
ENDROOT
BRANCH   1   3
ATOM      3  C   UNL     1      -2.968  12.805  -5.815  1.00  0.00     0.027 C 
BRANCH   3   4
ATOM      4  C   UNL     1      -3.428  14.176  -5.290  1.00  0.00     0.004 C 
BRANCH   4   5
ATOM      5  C   UNL     1      -2.720  15.371  -5.958  1.00  0.00     0.000 C 
BRANCH   5   6
ATOM      6  C   UNL     1      -2.260  16.432  -4.943  1.00  0.00     0.000 C 
BRANCH   6   7
ATOM      7  C   UNL     1      -1.857  15.821  -3.587  1.00  0.00     0.000 C 
BRANCH   7   8
ATOM      8  C   UNL     1      -0.348  15.859  -3.282  1.00  0.00     0.006 C 
BRANCH   8   9
ATOM      9  C   UNL     1       0.407  16.900  -4.120  1.00  0.00     0.053 C 
BRANCH   9  10
ATOM     10  C   UNL     1       1.402  16.228  -5.013  1.00  0.00     0.041 C 
ATOM     11  O   UNL     1       2.601  16.610  -5.025  1.00  0.00    -0.550 OA
ATOM     12  O   UNL     1       1.015  15.151  -5.799  1.00  0.00    -0.550 OA
ENDBRANCH   9  10
ENDBRANCH   8   9
ENDBRANCH   7   8
ENDBRANCH   6   7
ENDBRANCH   5   6
ENDBRANCH   4   5
ENDBRANCH   3   4
ENDBRANCH   1   3
BRANCH   2  13
ATOM     13  C   UNL     1      -0.554  12.063  -4.206  1.00  0.00     0.027 C 
BRANCH  13  14
ATOM     14  C   UNL     1       0.394  11.807  -3.022  1.00  0.00     0.004 C 
BRANCH  14  15
ATOM     15  C   UNL     1       1.628  10.943  -3.367  1.00  0.00     0.000 C 
BRANCH  15  16
ATOM     16  C   UNL     1       2.047   9.931  -2.280  1.00  0.00     0.000 C 
BRANCH  16  17
ATOM     17  C   UNL     1       1.140   9.905  -1.034  1.00  0.00    -0.000 C 
BRANCH  17  18
ATOM     18  C   UNL     1       1.724   9.151   0.182  1.00  0.00    -0.000 C 
BRANCH  18  19
ATOM     19  C   UNL     1       1.568   7.619   0.132  1.00  0.00    -0.003 C 
ATOM     20  C   UNL     1       2.150   6.918   1.361  1.00  0.00     0.004 C 
ENDBRANCH  18  19
ENDBRANCH  17  18
ENDBRANCH  16  17
ENDBRANCH  15  16
ENDBRANCH  14  15
ENDBRANCH  13  14
ENDBRANCH   2  13
TORSDOF 15
ENDMDL
MODEL 5
REMARK VINA RESULT:    -3.996      2.973      7.647
REMARK INTER + INTRA:          -8.668
REMARK INTER:                  -6.666
REMARK INTRA:                  -2.002
REMARK UNBOUND:                -1.168
REMARK SMILES CCCCCCCCC=CCCCCCCCC(=O)[O-]
REMARK SMILES IDX 10 1 9 2 11 3 12 4 13 5 14 6 15 7 16 8 17 9 18 10 19 11
REMARK SMILES IDX 20 12 8 13 7 14 6 15 5 16 4 17 3 18 2 19 1 20
REMARK H PARENT
REMARK Flexibility Score: inf
ROOT
ATOM      1  C   UNL     1      -3.270  13.209  -4.505  1.00  0.00    -0.031 C 
ATOM      2  C   UNL     1      -3.679  14.420  -4.924  1.00  0.00    -0.031 C 
ENDROOT
BRANCH   1   3
ATOM      3  C   UNL     1      -2.210  12.403  -5.219  1.00  0.00     0.027 C 
BRANCH   3   4
ATOM      4  C   UNL     1      -1.393  11.524  -4.255  1.00  0.00     0.004 C 
BRANCH   4   5
ATOM      5  C   UNL     1      -0.047  12.145  -3.834  1.00  0.00     0.000 C 
BRANCH   5   6
ATOM      6  C   UNL     1       0.671  11.325  -2.747  1.00  0.00     0.000 C 
BRANCH   6   7
ATOM      7  C   UNL     1       1.987  10.699  -3.247  1.00  0.00     0.000 C 
BRANCH   7   8
ATOM      8  C   UNL     1       2.582   9.618  -2.325  1.00  0.00     0.006 C 
BRANCH   8   9
ATOM      9  C   UNL     1       1.911   9.573  -0.945  1.00  0.00     0.053 C 
BRANCH   9  10
ATOM     10  C   UNL     1       2.027   8.204  -0.354  1.00  0.00     0.041 C 
ATOM     11  O   UNL     1       2.855   7.379  -0.821  1.00  0.00    -0.550 OA
ATOM     12  O   UNL     1       1.252   7.853   0.744  1.00  0.00    -0.550 OA
ENDBRANCH   9  10
ENDBRANCH   8   9
ENDBRANCH   7   8
ENDBRANCH   6   7
ENDBRANCH   5   6
ENDBRANCH   4   5
ENDBRANCH   3   4
ENDBRANCH   1   3
BRANCH   2  13
ATOM     13  C   UNL     1      -3.086  15.120  -6.125  1.00  0.00     0.027 C 
BRANCH  13  14
ATOM     14  C   UNL     1      -2.773  16.599  -5.842  1.00  0.00     0.004 C 
BRANCH  14  15
ATOM     15  C   UNL     1      -1.266  16.946  -5.853  1.00  0.00     0.000 C 
BRANCH  15  16
ATOM     16  C   UNL     1      -0.313  15.734  -5.906  1.00  0.00     0.000 C 
BRANCH  16  17
ATOM     17  C   UNL     1       0.564  15.543  -4.653  1.00  0.00    -0.000 C 
BRANCH  17  18
ATOM     18  C   UNL     1       0.286  16.538  -3.505  1.00  0.00    -0.000 C 
BRANCH  18  19
ATOM     19  C   UNL     1      -0.358  15.919  -2.250  1.00  0.00    -0.003 C 
ATOM     20  C   UNL     1      -1.887  15.892  -2.314  1.00  0.00     0.004 C 
ENDBRANCH  18  19
ENDBRANCH  17  18
ENDBRANCH  16  17
ENDBRANCH  15  16
ENDBRANCH  14  15
ENDBRANCH  13  14
ENDBRANCH   2  13
TORSDOF 15
ENDMDL
MODEL 6
REMARK VINA RESULT:    -3.836      0.893      1.952
REMARK INTER + INTRA:          -8.367
REMARK INTER:                  -7.049
REMARK INTRA:                  -1.318
REMARK UNBOUND:                -1.168
REMARK SMILES CCCCCCCCC=CCCCCCCCC(=O)[O-]
REMARK SMILES IDX 10 1 9 2 11 3 12 4 13 5 14 6 15 7 16 8 17 9 18 10 19 11
REMARK SMILES IDX 20 12 8 13 7 14 6 15 5 16 4 17 3 18 2 19 1 20
REMARK H PARENT
REMARK Flexibility Score: inf
ROOT
ATOM      1  C   UNL     1      -2.607  12.029  -5.000  1.00  0.00    -0.031 C 
ATOM      2  C   UNL     1      -1.528  11.718  -4.261  1.00  0.00    -0.031 C 
ENDROOT
BRANCH   1   3
ATOM      3  C   UNL     1      -2.667  13.236  -5.907  1.00  0.00     0.027 C 
BRANCH   3   4
ATOM      4  C   UNL     1      -2.997  14.529  -5.141  1.00  0.00     0.004 C 
BRANCH   4   5
ATOM      5  C   UNL     1      -2.754  15.816  -5.954  1.00  0.00     0.000 C 
BRANCH   5   6
ATOM      6  C   UNL     1      -2.025  16.902  -5.141  1.00  0.00     0.000 C 
BRANCH   6   7
ATOM      7  C   UNL     1      -0.530  16.587  -4.938  1.00  0.00     0.000 C 
BRANCH   7   8
ATOM      8  C   UNL     1      -0.056  16.618  -3.472  1.00  0.00     0.006 C 
BRANCH   8   9
ATOM      9  C   UNL     1      -0.689  15.513  -2.615  1.00  0.00     0.053 C 
BRANCH   9  10
ATOM     10  C   UNL     1      -0.622  15.875  -1.165  1.00  0.00     0.041 C 
ATOM     11  O   UNL     1      -1.658  16.252  -0.558  1.00  0.00    -0.550 OA
ATOM     12  O   UNL     1       0.575  15.754  -0.473  1.00  0.00    -0.550 OA
ENDBRANCH   9  10
ENDBRANCH   8   9
ENDBRANCH   7   8
ENDBRANCH   6   7
ENDBRANCH   5   6
ENDBRANCH   4   5
ENDBRANCH   3   4
ENDBRANCH   1   3
BRANCH   2  13
ATOM     13  C   UNL     1      -0.246  12.517  -4.296  1.00  0.00     0.027 C 
BRANCH  13  14
ATOM     14  C   UNL     1       0.706  12.145  -3.147  1.00  0.00     0.004 C 
BRANCH  14  15
ATOM     15  C   UNL     1       1.303  10.723  -3.248  1.00  0.00     0.000 C 
BRANCH  15  16
ATOM     16  C   UNL     1       1.640  10.054  -1.900  1.00  0.00     0.000 C 
BRANCH  16  17
ATOM     17  C   UNL     1       0.433   9.824  -0.970  1.00  0.00    -0.000 C 
BRANCH  17  18
ATOM     18  C   UNL     1       0.747   9.045   0.327  1.00  0.00    -0.000 C 
BRANCH  18  19
ATOM     19  C   UNL     1       2.148   8.404   0.377  1.00  0.00    -0.003 C 
ATOM     20  C   UNL     1       2.190   7.124   1.213  1.00  0.00     0.004 C 
ENDBRANCH  18  19
ENDBRANCH  17  18
ENDBRANCH  16  17
ENDBRANCH  15  16
ENDBRANCH  14  15
ENDBRANCH  13  14
ENDBRANCH   2  13
TORSDOF 15
ENDMDL
MODEL 7
REMARK VINA RESULT:    -3.795      3.328      8.502
REMARK INTER + INTRA:          -8.290
REMARK INTER:                  -7.241
REMARK INTRA:                  -1.049
REMARK UNBOUND:                -1.168
REMARK SMILES CCCCCCCCC=CCCCCCCCC(=O)[O-]
REMARK SMILES IDX 10 1 9 2 11 3 12 4 13 5 14 6 15 7 16 8 17 9 18 10 19 11
REMARK SMILES IDX 20 12 8 13 7 14 6 15 5 16 4 17 3 18 2 19 1 20
REMARK H PARENT
REMARK Flexibility Score: inf
ROOT
ATOM      1  C   UNL     1      -1.722  11.350  -4.105  1.00  0.00    -0.031 C 
ATOM      2  C   UNL     1      -2.768  11.841  -4.793  1.00  0.00    -0.031 C 
ENDROOT
BRANCH   1   3
ATOM      3  C   UNL     1      -0.362  12.007  -4.094  1.00  0.00     0.027 C 
BRANCH   3   4
ATOM      4  C   UNL     1       0.588  11.370  -3.063  1.00  0.00     0.004 C 
BRANCH   4   5
ATOM      5  C   UNL     1       2.023  11.159  -3.584  1.00  0.00     0.000 C 
BRANCH   5   6
ATOM      6  C   UNL     1       2.643   9.837  -3.096  1.00  0.00     0.000 C 
BRANCH   6   7
ATOM      7  C   UNL     1       2.268   9.507  -1.639  1.00  0.00     0.000 C 
BRANCH   7   8
ATOM      8  C   UNL     1       3.175   8.468  -0.955  1.00  0.00     0.006 C 
BRANCH   8   9
ATOM      9  C   UNL     1       3.122   8.541   0.577  1.00  0.00     0.053 C 
BRANCH   9  10
ATOM     10  C   UNL     1       2.364   7.376   1.129  1.00  0.00     0.041 C 
ATOM     11  O   UNL     1       1.107   7.354   1.075  1.00  0.00    -0.550 OA
ATOM     12  O   UNL     1       3.048   6.292   1.663  1.00  0.00    -0.550 OA
ENDBRANCH   9  10
ENDBRANCH   8   9
ENDBRANCH   7   8
ENDBRANCH   6   7
ENDBRANCH   5   6
ENDBRANCH   4   5
ENDBRANCH   3   4
ENDBRANCH   1   3
BRANCH   2  13
ATOM     13  C   UNL     1      -2.704  13.125  -5.586  1.00  0.00     0.027 C 
BRANCH  13  14
ATOM     14  C   UNL     1      -3.084  14.354  -4.741  1.00  0.00     0.004 C 
BRANCH  14  15
ATOM     15  C   UNL     1      -2.031  15.485  -4.749  1.00  0.00     0.000 C 
BRANCH  15  16
ATOM     16  C   UNL     1      -1.110  15.534  -3.512  1.00  0.00     0.000 C 
BRANCH  16  17
ATOM     17  C   UNL     1      -0.228  16.795  -3.410  1.00  0.00    -0.000 C 
BRANCH  17  18
ATOM     18  C   UNL     1      -0.291  17.736  -4.634  1.00  0.00    -0.000 C 
BRANCH  18  19
ATOM     19  C   UNL     1       0.925  17.660  -5.576  1.00  0.00    -0.003 C 
ATOM     20  C   UNL     1       2.231  18.087  -4.903  1.00  0.00     0.004 C 
ENDBRANCH  18  19
ENDBRANCH  17  18
ENDBRANCH  16  17
ENDBRANCH  15  16
ENDBRANCH  14  15
ENDBRANCH  13  14
ENDBRANCH   2  13
TORSDOF 15
ENDMDL
MODEL 8
REMARK VINA RESULT:    -3.776      2.131      2.599
REMARK INTER + INTRA:          -8.255
REMARK INTER:                  -6.798
REMARK INTRA:                  -1.457
REMARK UNBOUND:                -1.168
REMARK SMILES CCCCCCCCC=CCCCCCCCC(=O)[O-]
REMARK SMILES IDX 10 1 9 2 11 3 12 4 13 5 14 6 15 7 16 8 17 9 18 10 19 11
REMARK SMILES IDX 20 12 8 13 7 14 6 15 5 16 4 17 3 18 2 19 1 20
REMARK H PARENT
REMARK Flexibility Score: inf
ROOT
ATOM      1  C   UNL     1      -0.405  12.354  -4.147  1.00  0.00    -0.031 C 
ATOM      2  C   UNL     1       0.642  11.889  -3.444  1.00  0.00    -0.031 C 
ENDROOT
BRANCH   1   3
ATOM      3  C   UNL     1      -1.647  11.537  -4.415  1.00  0.00     0.027 C 
BRANCH   3   4
ATOM      4  C   UNL     1      -2.901  12.413  -4.590  1.00  0.00     0.004 C 
BRANCH   4   5
ATOM      5  C   UNL     1      -2.983  13.120  -5.957  1.00  0.00     0.000 C 
BRANCH   5   6
ATOM      6  C   UNL     1      -2.975  14.655  -5.833  1.00  0.00     0.000 C 
BRANCH   6   7
ATOM      7  C   UNL     1      -1.552  15.233  -5.717  1.00  0.00     0.000 C 
BRANCH   7   8
ATOM      8  C   UNL     1      -1.161  15.712  -4.306  1.00  0.00     0.006 C 
BRANCH   8   9
ATOM      9  C   UNL     1       0.306  16.154  -4.209  1.00  0.00     0.053 C 
BRANCH   9  10
ATOM     10  C   UNL     1       0.530  17.398  -5.009  1.00  0.00     0.041 C 
ATOM     11  O   UNL     1       1.379  17.409  -5.938  1.00  0.00    -0.550 OA
ATOM     12  O   UNL     1      -0.230  18.532  -4.759  1.00  0.00    -0.550 OA
ENDBRANCH   9  10
ENDBRANCH   8   9
ENDBRANCH   7   8
ENDBRANCH   6   7
ENDBRANCH   5   6
ENDBRANCH   4   5
ENDBRANCH   3   4
ENDBRANCH   1   3
BRANCH   2  13
ATOM     13  C   UNL     1       0.666  10.518  -2.809  1.00  0.00     0.027 C 
BRANCH  13  14
ATOM     14  C   UNL     1       1.085  10.567  -1.330  1.00  0.00     0.004 C 
BRANCH  14  15
ATOM     15  C   UNL     1       0.463   9.457  -0.453  1.00  0.00     0.000 C 
BRANCH  15  16
ATOM     16  C   UNL     1       1.400   8.276  -0.125  1.00  0.00     0.000 C 
BRANCH  16  17
ATOM     17  C   UNL     1       2.823   8.677   0.311  1.00  0.00    -0.000 C 
BRANCH  17  18
ATOM     18  C   UNL     1       3.955   7.802  -0.271  1.00  0.00    -0.000 C 
BRANCH  18  19
ATOM     19  C   UNL     1       3.877   7.564  -1.791  1.00  0.00    -0.003 C 
ATOM     20  C   UNL     1       4.124   8.834  -2.608  1.00  0.00     0.004 C 
ENDBRANCH  18  19
ENDBRANCH  17  18
ENDBRANCH  16  17
ENDBRANCH  15  16
ENDBRANCH  14  15
ENDBRANCH  13  14
ENDBRANCH   2  13
TORSDOF 15
ENDMDL
MODEL 9
REMARK VINA RESULT:    -3.769      2.993      7.246
REMARK INTER + INTRA:          -8.242
REMARK INTER:                  -6.784
REMARK INTRA:                  -1.458
REMARK UNBOUND:                -1.168
REMARK SMILES CCCCCCCCC=CCCCCCCCC(=O)[O-]
REMARK SMILES IDX 10 1 9 2 11 3 12 4 13 5 14 6 15 7 16 8 17 9 18 10 19 11
REMARK SMILES IDX 20 12 8 13 7 14 6 15 5 16 4 17 3 18 2 19 1 20
REMARK H PARENT
REMARK Flexibility Score: inf
ROOT
ATOM      1  C   UNL     1      -3.195  13.392  -4.457  1.00  0.00    -0.031 C 
ATOM      2  C   UNL     1      -3.265  14.636  -4.962  1.00  0.00    -0.031 C 
ENDROOT
BRANCH   1   3
ATOM      3  C   UNL     1      -2.298  12.319  -5.029  1.00  0.00     0.027 C 
BRANCH   3   4
ATOM      4  C   UNL     1      -1.364  11.708  -3.969  1.00  0.00     0.004 C 
BRANCH   4   5
ATOM      5  C   UNL     1       0.030  12.363  -3.914  1.00  0.00     0.000 C 
BRANCH   5   6
ATOM      6  C   UNL     1       1.092  11.445  -3.281  1.00  0.00     0.000 C 
BRANCH   6   7
ATOM      7  C   UNL     1       0.550  10.655  -2.074  1.00  0.00     0.000 C 
BRANCH   7   8
ATOM      8  C   UNL     1       1.603   9.820  -1.321  1.00  0.00     0.006 C 
BRANCH   8   9
ATOM      9  C   UNL     1       1.132   9.374   0.070  1.00  0.00     0.053 C 
BRANCH   9  10
ATOM     10  C   UNL     1       2.009   8.280   0.592  1.00  0.00     0.041 C 
ATOM     11  O   UNL     1       1.500   7.222   1.046  1.00  0.00    -0.550 OA
ATOM     12  O   UNL     1       3.390   8.410   0.535  1.00  0.00    -0.550 OA
ENDBRANCH   9  10
ENDBRANCH   8   9
ENDBRANCH   7   8
ENDBRANCH   6   7
ENDBRANCH   5   6
ENDBRANCH   4   5
ENDBRANCH   3   4
ENDBRANCH   1   3
BRANCH   2  13
ATOM     13  C   UNL     1      -2.419  15.104  -6.123  1.00  0.00     0.027 C 
BRANCH  13  14
ATOM     14  C   UNL     1      -0.971  15.412  -5.705  1.00  0.00     0.004 C 
BRANCH  14  15
ATOM     15  C   UNL     1      -0.797  16.741  -4.936  1.00  0.00     0.000 C 
BRANCH  15  16
ATOM     16  C   UNL     1      -0.060  16.628  -3.586  1.00  0.00     0.000 C 
BRANCH  16  17
ATOM     17  C   UNL     1      -0.832  15.874  -2.485  1.00  0.00    -0.000 C 
BRANCH  17  18
ATOM     18  C   UNL     1       0.005  15.495  -1.244  1.00  0.00    -0.000 C 
BRANCH  18  19
ATOM     19  C   UNL     1       0.004  16.543  -0.114  1.00  0.00    -0.003 C 
ATOM     20  C   UNL     1       1.135  16.336   0.894  1.00  0.00     0.004 C 
ENDBRANCH  18  19
ENDBRANCH  17  18
ENDBRANCH  16  17
ENDBRANCH  15  16
ENDBRANCH  14  15
ENDBRANCH  13  14
ENDBRANCH   2  13
TORSDOF 15
ENDMDL
