MODEL 1
REMARK VINA RESULT:    -4.031      0.000      0.000
REMARK INTER + INTRA:          -5.066
REMARK INTER:                  -6.152
REMARK INTRA:                   1.085
REMARK UNBOUND:                 1.085
REMARK SMILES CC1=CCC[C@H](C)C(=O)C[C@@H](C(C)C)C(=O)C1
REMARK SMILES IDX 8 1 9 2 6 3 7 4 5 5 4 6 3 7 2 8 1 9 10 11 11 12 15 13 16 14
REMARK SMILES IDX 17 15 12 17 13 18 14 19
REMARK H PARENT
REMARK Flexibility Score: 70.00
ROOT
ATOM      1  C   UNL     1      -3.722  29.670  27.415  1.00  0.00     0.136 C 
ATOM      2  O   UNL     1      -4.223  29.233  26.387  1.00  0.00    -0.299 OA
ENDROOT
BRANCH   1   3
ATOM      3  C   UNL     1      -4.443  30.736  28.222  1.00  0.00     0.053 C 
ATOM      4  C   UNL     1      -4.526  32.078  27.480  1.00  0.00     0.016 C 
BRANCH   3   5
ATOM      5  C   UNL     1      -5.835  30.252  28.678  1.00  0.00     0.015 C 
BRANCH   5   6
ATOM      6  C   UNL     1      -5.800  29.340  29.920  1.00  0.00     0.028 C 
BRANCH   6   7
ATOM      7  C   UNL     1      -4.782  29.832  30.917  1.00  0.00    -0.028 C 
ATOM      8  C   UNL     1      -3.702  29.126  31.328  1.00  0.00    -0.070 CG0
ATOM      9  C   UNL     1      -2.747  29.789  32.287  1.00  0.00     0.039 C 
ATOM     10  G   UNL     1      -3.424  27.699  30.879  1.00  0.00     0.000 G0
ENDBRANCH   6   7
ENDBRANCH   5   6
ENDBRANCH   3   5
ENDBRANCH   1   3
BRANCH   1  11
ATOM     11  C   UNL     1      -2.386  29.129  27.864  1.00  0.00     0.087 C 
BRANCH  11  12
ATOM     12  C   UNL     1      -2.495  27.679  28.407  1.00  0.00     0.066 C 
BRANCH  12  13
ATOM     13  C   UNL     1      -2.253  27.634  29.908  1.00  0.00     0.140 C 
ATOM     14  O   UNL     1      -1.119  27.471  30.337  1.00  0.00    -0.299 OA
BRANCH  13  15
ATOM     15  C   UNL     1      -3.405  27.697  30.881  1.00  0.00     0.106 CG0
ATOM     16  G   UNL     1      -3.701  29.118  31.340  1.00  0.00     0.000 G0
ENDBRANCH  13  15
ENDBRANCH  12  13
BRANCH  12  17
ATOM     17  C   UNL     1      -1.565  26.666  27.663  1.00  0.00    -0.006 C 
ATOM     18  C   UNL     1      -2.188  25.272  27.465  1.00  0.00     0.008 C 
ATOM     19  C   UNL     1      -0.201  26.534  28.361  1.00  0.00     0.008 C 
ENDBRANCH  12  17
ENDBRANCH  11  12
ENDBRANCH   1  11
TORSDOF 1
ENDMDL
MODEL 2
REMARK VINA RESULT:    -3.137      1.856      3.441
REMARK INTER + INTRA:          -3.702
REMARK INTER:                  -5.677
REMARK INTRA:                   1.975
REMARK UNBOUND:                 1.085
REMARK SMILES CC1=CCC[C@H](C)C(=O)C[C@@H](C(C)C)C(=O)C1
REMARK SMILES IDX 8 1 9 2 6 3 7 4 5 5 4 6 3 7 2 8 1 9 10 11 11 12 15 13 16 14
REMARK SMILES IDX 17 15 12 17 13 18 14 19
REMARK H PARENT
REMARK Flexibility Score: 70.00
ROOT
ATOM      1  C   UNL     1      -4.266  27.139  30.053  1.00  0.00     0.136 C 
ATOM      2  O   UNL     1      -5.411  26.720  30.155  1.00  0.00    -0.299 OA
ENDROOT
BRANCH   1   3
ATOM      3  C   UNL     1      -3.669  28.006  31.149  1.00  0.00     0.053 C 
ATOM      4  C   UNL     1      -2.134  27.960  31.164  1.00  0.00     0.016 C 
BRANCH   3   5
ATOM      5  C   UNL     1      -4.192  29.455  31.067  1.00  0.00     0.015 C 
BRANCH   5   6
ATOM      6  C   UNL     1      -5.441  29.616  30.177  1.00  0.00     0.028 C 
BRANCH   6   7
ATOM      7  C   UNL     1      -5.241  30.718  29.168  1.00  0.00    -0.028 C 
ATOM      8  C   UNL     1      -4.696  30.550  27.940  1.00  0.00    -0.070 CG0
ATOM      9  C   UNL     1      -4.623  31.748  27.028  1.00  0.00     0.039 C 
ATOM     10  G   UNL     1      -4.143  29.218  27.454  1.00  0.00     0.000 G0
ENDBRANCH   6   7
ENDBRANCH   5   6
ENDBRANCH   3   5
ENDBRANCH   1   3
BRANCH   1  11
ATOM     11  C   UNL     1      -3.461  26.776  28.829  1.00  0.00     0.087 C 
BRANCH  11  12
ATOM     12  C   UNL     1      -2.269  27.743  28.605  1.00  0.00     0.066 C 
BRANCH  12  13
ATOM     13  C   UNL     1      -2.697  28.972  27.816  1.00  0.00     0.140 C 
ATOM     14  O   UNL     1      -1.874  29.834  27.540  1.00  0.00    -0.299 OA
BRANCH  13  15
ATOM     15  C   UNL     1      -4.143  29.189  27.443  1.00  0.00     0.106 CG0
ATOM     16  G   UNL     1      -4.682  30.519  27.950  1.00  0.00     0.000 G0
ENDBRANCH  13  15
ENDBRANCH  12  13
BRANCH  12  17
ATOM     17  C   UNL     1      -1.030  27.060  27.939  1.00  0.00    -0.006 C 
ATOM     18  C   UNL     1      -1.343  25.708  27.273  1.00  0.00     0.008 C 
ATOM     19  C   UNL     1       0.127  26.894  28.938  1.00  0.00     0.008 C 
ENDBRANCH  12  17
ENDBRANCH  11  12
ENDBRANCH   1  11
TORSDOF 1
ENDMDL
MODEL 3
REMARK VINA RESULT:    -2.549      1.465      4.089
REMARK INTER + INTRA:          -2.805
REMARK INTER:                  -4.326
REMARK INTRA:                   1.521
REMARK UNBOUND:                 1.085
REMARK SMILES CC1=CCC[C@H](C)C(=O)C[C@@H](C(C)C)C(=O)C1
REMARK SMILES IDX 8 1 9 2 6 3 7 4 5 5 4 6 3 7 2 8 1 9 10 11 11 12 15 13 16 14
REMARK SMILES IDX 17 15 12 17 13 18 14 19
REMARK H PARENT
REMARK Flexibility Score: 70.00
ROOT
ATOM      1  C   UNL     1      -2.600  28.273  27.498  1.00  0.00     0.136 C 
ATOM      2  O   UNL     1      -3.143  28.177  26.406  1.00  0.00    -0.299 OA
ENDROOT
BRANCH   1   3
ATOM      3  C   UNL     1      -1.970  27.053  28.148  1.00  0.00     0.053 C 
ATOM      4  C   UNL     1      -1.600  25.968  27.126  1.00  0.00     0.016 C 
BRANCH   3   5
ATOM      5  C   UNL     1      -0.761  27.442  29.025  1.00  0.00     0.015 C 
BRANCH   5   6
ATOM      6  C   UNL     1      -0.974  27.179  30.528  1.00  0.00     0.028 C 
BRANCH   6   7
ATOM      7  C   UNL     1      -1.458  28.424  31.227  1.00  0.00    -0.028 C 
ATOM      8  C   UNL     1      -2.757  28.786  31.347  1.00  0.00    -0.070 CG0
ATOM      9  C   UNL     1      -3.075  30.034  32.129  1.00  0.00     0.039 C 
ATOM     10  G   UNL     1      -3.898  28.002  30.714  1.00  0.00     0.000 G0
ENDBRANCH   6   7
ENDBRANCH   5   6
ENDBRANCH   3   5
ENDBRANCH   1   3
BRANCH   1  11
ATOM     11  C   UNL     1      -2.565  29.619  28.181  1.00  0.00     0.087 C 
BRANCH  11  12
ATOM     12  C   UNL     1      -3.889  29.931  28.926  1.00  0.00     0.066 C 
BRANCH  12  13
ATOM     13  C   UNL     1      -4.504  28.668  29.511  1.00  0.00     0.140 C 
ATOM     14  O   UNL     1      -5.546  28.227  29.047  1.00  0.00    -0.299 OA
BRANCH  13  15
ATOM     15  C   UNL     1      -3.893  27.995  30.717  1.00  0.00     0.106 CG0
ATOM     16  G   UNL     1      -2.764  28.812  31.329  1.00  0.00     0.000 G0
ENDBRANCH  13  15
ENDBRANCH  12  13
BRANCH  12  17
ATOM     17  C   UNL     1      -4.930  30.700  28.049  1.00  0.00    -0.006 C 
ATOM     18  C   UNL     1      -4.323  31.837  27.208  1.00  0.00     0.008 C 
ATOM     19  C   UNL     1      -6.094  31.240  28.897  1.00  0.00     0.008 C 
ENDBRANCH  12  17
ENDBRANCH  11  12
ENDBRANCH   1  11
TORSDOF 1
ENDMDL
MODEL 4
REMARK VINA RESULT:    -2.058      1.985      3.663
REMARK INTER + INTRA:          -2.056
REMARK INTER:                  -3.725
REMARK INTRA:                   1.670
REMARK UNBOUND:                 1.085
REMARK SMILES CC1=CCC[C@H](C)C(=O)C[C@@H](C(C)C)C(=O)C1
REMARK SMILES IDX 8 1 9 2 6 3 7 4 5 5 4 6 3 7 2 8 1 9 10 11 11 12 15 13 16 14
REMARK SMILES IDX 17 15 12 17 13 18 14 19
REMARK H PARENT
REMARK Flexibility Score: 70.00
ROOT
ATOM      1  C   UNL     1      -5.622  30.382  29.280  1.00  0.00     0.136 C 
ATOM      2  O   UNL     1      -6.125  31.237  29.996  1.00  0.00    -0.299 OA
ENDROOT
BRANCH   1   3
ATOM      3  C   UNL     1      -5.053  30.759  27.922  1.00  0.00     0.053 C 
ATOM      4  C   UNL     1      -5.573  32.116  27.424  1.00  0.00     0.016 C 
BRANCH   3   5
ATOM      5  C   UNL     1      -3.512  30.708  27.924  1.00  0.00     0.015 C 
BRANCH   5   6
ATOM      6  C   UNL     1      -2.928  29.520  27.133  1.00  0.00     0.028 C 
BRANCH   6   7
ATOM      7  C   UNL     1      -1.761  28.910  27.867  1.00  0.00    -0.028 C 
ATOM      8  C   UNL     1      -1.736  27.650  28.363  1.00  0.00    -0.070 CG0
ATOM      9  C   UNL     1      -0.465  27.174  29.019  1.00  0.00     0.039 C 
ATOM     10  G   UNL     1      -2.932  26.711  28.302  1.00  0.00     0.000 G0
ENDBRANCH   6   7
ENDBRANCH   5   6
ENDBRANCH   3   5
ENDBRANCH   1   3
BRANCH   1  11
ATOM     11  C   UNL     1      -5.575  28.955  29.769  1.00  0.00     0.087 C 
BRANCH  11  12
ATOM     12  C   UNL     1      -4.121  28.432  29.910  1.00  0.00     0.066 C 
BRANCH  12  13
ATOM     13  C   UNL     1      -3.981  27.031  29.335  1.00  0.00     0.140 C 
ATOM     14  O   UNL     1      -4.682  26.124  29.763  1.00  0.00    -0.299 OA
BRANCH  13  15
ATOM     15  C   UNL     1      -2.925  26.719  28.301  1.00  0.00     0.106 CG0
ATOM     16  G   UNL     1      -1.740  27.669  28.375  1.00  0.00     0.000 G0
ENDBRANCH  13  15
ENDBRANCH  12  13
BRANCH  12  17
ATOM     17  C   UNL     1      -3.579  28.488  31.375  1.00  0.00    -0.006 C 
ATOM     18  C   UNL     1      -2.774  29.760  31.698  1.00  0.00     0.008 C 
ATOM     19  C   UNL     1      -2.745  27.243  31.716  1.00  0.00     0.008 C 
ENDBRANCH  12  17
ENDBRANCH  11  12
ENDBRANCH   1  11
TORSDOF 1
ENDMDL
MODEL 5
REMARK VINA RESULT:    -1.920      1.901      4.625
REMARK INTER + INTRA:          -1.846
REMARK INTER:                  -2.535
REMARK INTRA:                   0.689
REMARK UNBOUND:                 1.085
REMARK SMILES CC1=CCC[C@H](C)C(=O)C[C@@H](C(C)C)C(=O)C1
REMARK SMILES IDX 8 1 9 2 6 3 7 4 5 5 4 6 3 7 2 8 1 9 10 11 11 12 15 13 16 14
REMARK SMILES IDX 17 15 12 17 13 18 14 19
REMARK H PARENT
REMARK Flexibility Score: 70.00
ROOT
ATOM      1  C   UNL     1      -4.894  29.774  30.192  1.00  0.00     0.136 C 
ATOM      2  O   UNL     1      -6.048  29.494  30.486  1.00  0.00    -0.299 OA
ENDROOT
BRANCH   1   3
ATOM      3  C   UNL     1      -3.745  28.938  30.730  1.00  0.00     0.053 C 
ATOM      4  C   UNL     1      -3.114  29.548  31.991  1.00  0.00     0.016 C 
BRANCH   3   5
ATOM      5  C   UNL     1      -4.174  27.474  30.962  1.00  0.00     0.015 C 
BRANCH   5   6
ATOM      6  C   UNL     1      -4.274  26.644  29.667  1.00  0.00     0.028 C 
BRANCH   6   7
ATOM      7  C   UNL     1      -2.911  26.433  29.059  1.00  0.00    -0.028 C 
ATOM      8  C   UNL     1      -2.419  27.133  28.008  1.00  0.00    -0.070 CG0
ATOM      9  C   UNL     1      -1.011  26.838  27.559  1.00  0.00     0.039 C 
ATOM     10  G   UNL     1      -3.228  28.181  27.258  1.00  0.00     0.000 G0
ENDBRANCH   6   7
ENDBRANCH   5   6
ENDBRANCH   3   5
ENDBRANCH   1   3
BRANCH   1  11
ATOM     11  C   UNL     1      -4.635  30.955  29.288  1.00  0.00     0.087 C 
BRANCH  11  12
ATOM     12  C   UNL     1      -4.322  30.519  27.832  1.00  0.00     0.066 C 
BRANCH  12  13
ATOM     13  C   UNL     1      -3.122  29.586  27.783  1.00  0.00     0.140 C 
ATOM     14  O   UNL     1      -2.019  29.994  28.120  1.00  0.00    -0.299 OA
BRANCH  13  15
ATOM     15  C   UNL     1      -3.252  28.183  27.239  1.00  0.00     0.106 CG0
ATOM     16  G   UNL     1      -2.433  27.174  28.030  1.00  0.00     0.000 G0
ENDBRANCH  13  15
ENDBRANCH  12  13
BRANCH  12  17
ATOM     17  C   UNL     1      -4.131  31.722  26.851  1.00  0.00    -0.006 C 
ATOM     18  C   UNL     1      -3.502  32.967  27.500  1.00  0.00     0.008 C 
ATOM     19  C   UNL     1      -5.452  32.103  26.163  1.00  0.00     0.008 C 
ENDBRANCH  12  17
ENDBRANCH  11  12
ENDBRANCH   1  11
TORSDOF 1
ENDMDL
MODEL 6
REMARK VINA RESULT:    -1.578      1.047      1.584
REMARK INTER + INTRA:          -1.323
REMARK INTER:                  -3.641
REMARK INTRA:                   2.318
REMARK UNBOUND:                 1.085
REMARK SMILES CC1=CCC[C@H](C)C(=O)C[C@@H](C(C)C)C(=O)C1
REMARK SMILES IDX 8 1 9 2 6 3 7 4 5 5 4 6 3 7 2 8 1 9 10 11 11 12 15 13 16 14
REMARK SMILES IDX 17 15 12 17 13 18 14 19
REMARK H PARENT
REMARK Flexibility Score: 70.00
ROOT
ATOM      1  C   UNL     1      -3.353  29.560  27.950  1.00  0.00     0.136 C 
ATOM      2  O   UNL     1      -3.168  30.768  27.877  1.00  0.00    -0.299 OA
ENDROOT
BRANCH   1   3
ATOM      3  C   UNL     1      -4.761  29.010  28.105  1.00  0.00     0.053 C 
ATOM      4  C   UNL     1      -4.773  27.563  28.618  1.00  0.00     0.016 C 
BRANCH   3   5
ATOM      5  C   UNL     1      -5.631  29.931  28.985  1.00  0.00     0.015 C 
BRANCH   5   6
ATOM      6  C   UNL     1      -5.728  29.475  30.454  1.00  0.00     0.028 C 
BRANCH   6   7
ATOM      7  C   UNL     1      -4.610  30.067  31.274  1.00  0.00    -0.028 C 
ATOM      8  C   UNL     1      -3.467  29.419  31.600  1.00  0.00    -0.070 CG0
ATOM      9  C   UNL     1      -2.421  30.176  32.378  1.00  0.00     0.039 C 
ATOM     10  G   UNL     1      -3.204  27.965  31.233  1.00  0.00     0.000 G0
ENDBRANCH   6   7
ENDBRANCH   5   6
ENDBRANCH   3   5
ENDBRANCH   1   3
BRANCH   1  11
ATOM     11  C   UNL     1      -2.163  28.633  27.878  1.00  0.00     0.087 C 
BRANCH  11  12
ATOM     12  C   UNL     1      -2.319  27.409  28.819  1.00  0.00     0.066 C 
BRANCH  12  13
ATOM     13  C   UNL     1      -2.051  27.789  30.267  1.00  0.00     0.140 C 
ATOM     14  O   UNL     1      -0.899  27.894  30.666  1.00  0.00    -0.299 OA
BRANCH  13  15
ATOM     15  C   UNL     1      -3.187  27.953  31.249  1.00  0.00     0.106 CG0
ATOM     16  G   UNL     1      -3.455  29.412  31.589  1.00  0.00     0.000 G0
ENDBRANCH  13  15
ENDBRANCH  12  13
BRANCH  12  17
ATOM     17  C   UNL     1      -1.444  26.184  28.395  1.00  0.00    -0.006 C 
ATOM     18  C   UNL     1       0.047  26.514  28.208  1.00  0.00     0.008 C 
ATOM     19  C   UNL     1      -1.993  25.511  27.126  1.00  0.00     0.008 C 
ENDBRANCH  12  17
ENDBRANCH  11  12
ENDBRANCH   1  11
TORSDOF 1
ENDMDL
MODEL 7
REMARK VINA RESULT:    -1.356      1.787      4.266
REMARK INTER + INTRA:          -0.984
REMARK INTER:                  -1.822
REMARK INTRA:                   0.838
REMARK UNBOUND:                 1.085
REMARK SMILES CC1=CCC[C@H](C)C(=O)C[C@@H](C(C)C)C(=O)C1
REMARK SMILES IDX 8 1 9 2 6 3 7 4 5 5 4 6 3 7 2 8 1 9 10 11 11 12 15 13 16 14
REMARK SMILES IDX 17 15 12 17 13 18 14 19
REMARK H PARENT
REMARK Flexibility Score: 70.00
ROOT
ATOM      1  C   UNL     1      -3.745  27.131  29.043  1.00  0.00     0.136 C 
ATOM      2  O   UNL     1      -4.769  27.172  28.375  1.00  0.00    -0.299 OA
ENDROOT
BRANCH   1   3
ATOM      3  C   UNL     1      -2.387  27.151  28.362  1.00  0.00     0.053 C 
ATOM      4  C   UNL     1      -2.007  25.786  27.769  1.00  0.00     0.016 C 
BRANCH   3   5
ATOM      5  C   UNL     1      -2.304  28.272  27.306  1.00  0.00     0.015 C 
BRANCH   5   6
ATOM      6  C   UNL     1      -2.518  29.686  27.882  1.00  0.00     0.028 C 
BRANCH   6   7
ATOM      7  C   UNL     1      -3.876  30.219  27.501  1.00  0.00    -0.028 C 
ATOM      8  C   UNL     1      -4.797  30.682  28.379  1.00  0.00    -0.070 CG0
ATOM      9  C   UNL     1      -6.085  31.236  27.827  1.00  0.00     0.039 C 
ATOM     10  G   UNL     1      -4.594  30.648  29.887  1.00  0.00     0.000 G0
ENDBRANCH   6   7
ENDBRANCH   5   6
ENDBRANCH   3   5
ENDBRANCH   1   3
BRANCH   1  11
ATOM     11  C   UNL     1      -3.857  27.064  30.547  1.00  0.00     0.087 C 
BRANCH  11  12
ATOM     12  C   UNL     1      -3.908  28.474  31.193  1.00  0.00     0.066 C 
BRANCH  12  13
ATOM     13  C   UNL     1      -4.963  29.346  30.529  1.00  0.00     0.140 C 
ATOM     14  O   UNL     1      -6.117  28.949  30.448  1.00  0.00    -0.299 OA
BRANCH  13  15
ATOM     15  C   UNL     1      -4.591  30.662  29.889  1.00  0.00     0.106 CG0
ATOM     16  G   UNL     1      -4.806  30.657  28.383  1.00  0.00     0.000 G0
ENDBRANCH  13  15
ENDBRANCH  12  13
BRANCH  12  17
ATOM     17  C   UNL     1      -2.522  29.198  31.215  1.00  0.00    -0.006 C 
ATOM     18  C   UNL     1      -1.316  28.246  31.134  1.00  0.00     0.008 C 
ATOM     19  C   UNL     1      -2.384  30.113  32.443  1.00  0.00     0.008 C 
ENDBRANCH  12  17
ENDBRANCH  11  12
ENDBRANCH   1  11
TORSDOF 1
ENDMDL
