MODEL 1
REMARK VINA RESULT:    -4.792      0.000      0.000
REMARK INTER + INTRA:          -6.239
REMARK INTER:                  -6.753
REMARK INTRA:                   0.514
REMARK UNBOUND:                 0.514
REMARK SMILES CC1=CCC(=C(C)C)C(=O)CC(C)=CCC1
REMARK SMILES IDX 12 1 14 2 13 3 15 4 16 5 2 6 1 7 3 8 11 10 9 11 10 12 5 13
REMARK SMILES IDX 6 14 7 15 8 16 4 17
REMARK H PARENT
REMARK Flexibility Score: 60.00
ROOT
ATOM      1  C   UNL     1     -13.132 -15.439  28.754  1.00  0.00    -0.070 C 
ATOM      2  C   UNL     1     -14.004 -15.250  29.775  1.00  0.00    -0.027 C 
ATOM      3  C   UNL     1     -13.680 -15.425  27.349  1.00  0.00     0.039 C 
ENDROOT
BRANCH   2   4
ATOM      4  C   UNL     1     -13.633 -15.210  31.236  1.00  0.00     0.032 C 
BRANCH   4   5
ATOM      5  C   UNL     1     -13.108 -16.575  31.712  1.00  0.00     0.034 C 
BRANCH   5   6
ATOM      6  C   UNL     1     -11.754 -16.496  32.393  1.00  0.00    -0.077 C 
ATOM      7  C   UNL     1     -11.567 -15.500  33.510  1.00  0.00     0.039 C 
ATOM      8  C   UNL     1     -10.671 -17.211  32.001  1.00  0.00    -0.023 CG0
ATOM      9  G   UNL     1     -10.641 -18.333  30.984  1.00  0.00     0.000 G0
ENDBRANCH   5   6
ENDBRANCH   4   5
ENDBRANCH   2   4
BRANCH   1  10
ATOM     10  C   UNL     1     -11.642 -15.674  28.960  1.00  0.00     0.111 C 
BRANCH  10  11
ATOM     11  C   UNL     1     -11.279 -17.128  28.770  1.00  0.00     0.163 C 
ATOM     12  O   UNL     1     -10.706 -17.431  27.688  1.00  0.00    -0.294 OA
BRANCH  11  13
ATOM     13  C   UNL     1     -11.548 -18.204  29.792  1.00  0.00    -0.002 C 
ATOM     14  C   UNL     1     -12.612 -19.058  29.659  1.00  0.00    -0.069 C 
ATOM     15  C   UNL     1     -13.641 -18.894  28.562  1.00  0.00     0.039 C 
ATOM     16  C   UNL     1     -12.848 -20.187  30.641  1.00  0.00     0.039 C 
BRANCH  13  17
ATOM     17  C   UNL     1     -10.608 -18.345  30.987  1.00  0.00     0.066 CG0
ATOM     18  G   UNL     1     -10.680 -17.206  31.981  1.00  0.00     0.000 G0
ENDBRANCH  13  17
ENDBRANCH  11  13
ENDBRANCH  10  11
ENDBRANCH   1  10
TORSDOF 0
ENDMDL
MODEL 2
REMARK VINA RESULT:    -4.490      1.663      3.300
REMARK INTER + INTRA:          -5.814
REMARK INTER:                  -5.925
REMARK INTRA:                   0.111
REMARK UNBOUND:                 0.514
REMARK SMILES CC1=CCC(=C(C)C)C(=O)CC(C)=CCC1
REMARK SMILES IDX 12 1 14 2 13 3 15 4 16 5 2 6 1 7 3 8 11 10 9 11 10 12 5 13
REMARK SMILES IDX 6 14 7 15 8 16 4 17
REMARK H PARENT
REMARK Flexibility Score: 60.00
ROOT
ATOM      1  C   UNL     1     -12.627 -19.463  29.897  1.00  0.00    -0.070 C 
ATOM      2  C   UNL     1     -13.386 -19.333  31.013  1.00  0.00    -0.027 C 
ATOM      3  C   UNL     1     -13.249 -20.133  28.698  1.00  0.00     0.039 C 
ENDROOT
BRANCH   2   4
ATOM      4  C   UNL     1     -12.940 -18.672  32.293  1.00  0.00     0.032 C 
BRANCH   4   5
ATOM      5  C   UNL     1     -13.640 -17.317  32.491  1.00  0.00     0.034 C 
BRANCH   5   6
ATOM      6  C   UNL     1     -12.747 -16.128  32.192  1.00  0.00    -0.077 C 
ATOM      7  C   UNL     1     -11.970 -15.507  33.326  1.00  0.00     0.039 C 
ATOM      8  C   UNL     1     -12.666 -15.534  30.976  1.00  0.00    -0.023 CG0
ATOM      9  G   UNL     1     -13.264 -16.033  29.678  1.00  0.00     0.000 G0
ENDBRANCH   5   6
ENDBRANCH   4   5
ENDBRANCH   2   4
BRANCH   1  10
ATOM     10  C   UNL     1     -11.186 -18.979  29.805  1.00  0.00     0.111 C 
BRANCH  10  11
ATOM     11  C   UNL     1     -11.116 -17.523  29.410  1.00  0.00     0.163 C 
ATOM     12  O   UNL     1     -10.024 -16.930  29.627  1.00  0.00    -0.294 OA
BRANCH  11  13
ATOM     13  C   UNL     1     -12.254 -16.767  28.771  1.00  0.00    -0.002 C 
ATOM     14  C   UNL     1     -12.413 -16.742  27.410  1.00  0.00    -0.069 C 
ATOM     15  C   UNL     1     -11.397 -17.355  26.472  1.00  0.00     0.039 C 
ATOM     16  C   UNL     1     -13.594 -16.047  26.763  1.00  0.00     0.039 C 
BRANCH  13  17
ATOM     17  C   UNL     1     -13.250 -16.030  29.664  1.00  0.00     0.066 CG0
ATOM     18  G   UNL     1     -12.672 -15.530  30.971  1.00  0.00     0.000 G0
ENDBRANCH  13  17
ENDBRANCH  11  13
ENDBRANCH  10  11
ENDBRANCH   1  10
TORSDOF 0
ENDMDL
MODEL 3
REMARK VINA RESULT:    -4.471      1.870      3.992
REMARK INTER + INTRA:          -5.787
REMARK INTER:                  -6.357
REMARK INTRA:                   0.570
REMARK UNBOUND:                 0.514
REMARK SMILES CC1=CCC(=C(C)C)C(=O)CC(C)=CCC1
REMARK SMILES IDX 12 1 14 2 13 3 15 4 16 5 2 6 1 7 3 8 11 10 9 11 10 12 5 13
REMARK SMILES IDX 6 14 7 15 8 16 4 17
REMARK H PARENT
REMARK Flexibility Score: 60.00
ROOT
ATOM      1  C   UNL     1     -12.842 -16.630  31.485  1.00  0.00    -0.070 C 
ATOM      2  C   UNL     1     -13.293 -17.865  31.817  1.00  0.00    -0.027 C 
ATOM      3  C   UNL     1     -13.835 -15.495  31.487  1.00  0.00     0.039 C 
ENDROOT
BRANCH   2   4
ATOM      4  C   UNL     1     -12.442 -19.108  31.890  1.00  0.00     0.032 C 
BRANCH   4   5
ATOM      5  C   UNL     1     -11.788 -19.413  30.532  1.00  0.00     0.034 C 
BRANCH   5   6
ATOM      6  C   UNL     1     -12.782 -19.491  29.388  1.00  0.00    -0.077 C 
ATOM      7  C   UNL     1     -13.920 -20.476  29.489  1.00  0.00     0.039 C 
ATOM      8  C   UNL     1     -12.663 -18.784  28.237  1.00  0.00    -0.023 CG0
ATOM      9  G   UNL     1     -11.676 -17.673  27.950  1.00  0.00     0.000 G0
ENDBRANCH   5   6
ENDBRANCH   4   5
ENDBRANCH   2   4
BRANCH   1  10
ATOM     10  C   UNL     1     -11.396 -16.342  31.104  1.00  0.00     0.111 C 
BRANCH  10  11
ATOM     11  C   UNL     1     -11.293 -15.776  29.707  1.00  0.00     0.163 C 
ATOM     12  O   UNL     1     -10.502 -14.808  29.546  1.00  0.00    -0.294 OA
BRANCH  11  13
ATOM     13  C   UNL     1     -12.061 -16.310  28.524  1.00  0.00    -0.002 C 
ATOM     14  C   UNL     1     -13.087 -15.595  27.963  1.00  0.00    -0.069 C 
ATOM     15  C   UNL     1     -13.589 -14.303  28.569  1.00  0.00     0.039 C 
ATOM     16  C   UNL     1     -13.816 -16.090  26.731  1.00  0.00     0.039 C 
BRANCH  13  17
ATOM     17  C   UNL     1     -11.675 -17.667  27.939  1.00  0.00     0.066 CG0
ATOM     18  G   UNL     1     -12.655 -18.782  28.237  1.00  0.00     0.000 G0
ENDBRANCH  13  17
ENDBRANCH  11  13
ENDBRANCH  10  11
ENDBRANCH   1  10
TORSDOF 0
ENDMDL
MODEL 4
REMARK VINA RESULT:    -4.360      2.067      4.667
REMARK INTER + INTRA:          -5.631
REMARK INTER:                  -6.079
REMARK INTRA:                   0.448
REMARK UNBOUND:                 0.514
REMARK SMILES CC1=CCC(=C(C)C)C(=O)CC(C)=CCC1
REMARK SMILES IDX 12 1 14 2 13 3 15 4 16 5 2 6 1 7 3 8 11 10 9 11 10 12 5 13
REMARK SMILES IDX 6 14 7 15 8 16 4 17
REMARK H PARENT
REMARK Flexibility Score: 60.00
ROOT
ATOM      1  C   UNL     1     -12.535 -18.864  30.807  1.00  0.00    -0.070 C 
ATOM      2  C   UNL     1     -13.275 -19.420  29.817  1.00  0.00    -0.027 C 
ATOM      3  C   UNL     1     -12.960 -19.120  32.232  1.00  0.00     0.039 C 
ENDROOT
BRANCH   2   4
ATOM      4  C   UNL     1     -12.987 -19.291  28.342  1.00  0.00     0.032 C 
BRANCH   4   5
ATOM      5  C   UNL     1     -13.622 -18.015  27.764  1.00  0.00     0.034 C 
BRANCH   5   6
ATOM      6  C   UNL     1     -12.622 -16.896  27.536  1.00  0.00    -0.077 C 
ATOM      7  C   UNL     1     -11.671 -17.005  26.371  1.00  0.00     0.039 C 
ATOM      8  C   UNL     1     -12.476 -15.836  28.369  1.00  0.00    -0.023 CG0
ATOM      9  G   UNL     1     -13.372 -15.461  29.531  1.00  0.00     0.000 G0
ENDBRANCH   5   6
ENDBRANCH   4   5
ENDBRANCH   2   4
BRANCH   1  10
ATOM     10  C   UNL     1     -11.314 -17.992  30.549  1.00  0.00     0.111 C 
BRANCH  10  11
ATOM     11  C   UNL     1     -11.533 -16.576  31.028  1.00  0.00     0.163 C 
ATOM     12  O   UNL     1     -10.539 -15.990  31.538  1.00  0.00    -0.294 OA
BRANCH  11  13
ATOM     13  C   UNL     1     -12.846 -15.843  30.915  1.00  0.00    -0.002 C 
ATOM     14  C   UNL     1     -13.561 -15.491  32.031  1.00  0.00    -0.069 C 
ATOM     15  C   UNL     1     -13.145 -15.925  33.420  1.00  0.00     0.039 C 
ATOM     16  C   UNL     1     -14.844 -14.692  31.931  1.00  0.00     0.039 C 
BRANCH  13  17
ATOM     17  C   UNL     1     -13.377 -15.479  29.530  1.00  0.00     0.066 CG0
ATOM     18  G   UNL     1     -12.453 -15.843  28.388  1.00  0.00     0.000 G0
ENDBRANCH  13  17
ENDBRANCH  11  13
ENDBRANCH  10  11
ENDBRANCH   1  10
TORSDOF 0
ENDMDL
MODEL 5
REMARK VINA RESULT:    -4.346      1.797      3.795
REMARK INTER + INTRA:          -5.611
REMARK INTER:                  -6.382
REMARK INTRA:                   0.771
REMARK UNBOUND:                 0.514
REMARK SMILES CC1=CCC(=C(C)C)C(=O)CC(C)=CCC1
REMARK SMILES IDX 12 1 14 2 13 3 15 4 16 5 2 6 1 7 3 8 11 10 9 11 10 12 5 13
REMARK SMILES IDX 6 14 7 15 8 16 4 17
REMARK H PARENT
REMARK Flexibility Score: 60.00
ROOT
ATOM      1  C   UNL     1     -11.115 -16.807  28.531  1.00  0.00    -0.070 C 
ATOM      2  C   UNL     1     -10.447 -17.666  29.338  1.00  0.00    -0.027 C 
ATOM      3  C   UNL     1     -11.363 -17.230  27.104  1.00  0.00     0.039 C 
ENDROOT
BRANCH   2   4
ATOM      4  C   UNL     1     -10.131 -17.423  30.792  1.00  0.00     0.032 C 
BRANCH   4   5
ATOM      5  C   UNL     1     -10.631 -18.582  31.670  1.00  0.00     0.034 C 
BRANCH   5   6
ATOM      6  C   UNL     1     -12.103 -18.895  31.474  1.00  0.00    -0.077 C 
ATOM      7  C   UNL     1     -12.506 -20.321  31.196  1.00  0.00     0.039 C 
ATOM      8  C   UNL     1     -13.077 -17.951  31.452  1.00  0.00    -0.023 CG0
ATOM      9  G   UNL     1     -12.932 -16.485  31.803  1.00  0.00     0.000 G0
ENDBRANCH   5   6
ENDBRANCH   4   5
ENDBRANCH   2   4
BRANCH   1  10
ATOM     10  C   UNL     1     -11.613 -15.443  28.991  1.00  0.00     0.111 C 
BRANCH  10  11
ATOM     11  C   UNL     1     -13.075 -15.487  29.371  1.00  0.00     0.163 C 
ATOM     12  O   UNL     1     -13.905 -15.515  28.422  1.00  0.00    -0.294 OA
BRANCH  11  13
ATOM     13  C   UNL     1     -13.575 -15.514  30.793  1.00  0.00    -0.002 C 
ATOM     14  C   UNL     1     -14.601 -14.700  31.199  1.00  0.00    -0.069 C 
ATOM     15  C   UNL     1     -15.200 -13.649  30.291  1.00  0.00     0.039 C 
ATOM     16  C   UNL     1     -15.158 -14.771  32.606  1.00  0.00     0.039 C 
BRANCH  13  17
ATOM     17  C   UNL     1     -12.930 -16.474  31.789  1.00  0.00     0.066 CG0
ATOM     18  G   UNL     1     -13.099 -17.940  31.449  1.00  0.00     0.000 G0
ENDBRANCH  13  17
ENDBRANCH  11  13
ENDBRANCH  10  11
ENDBRANCH   1  10
TORSDOF 0
ENDMDL
MODEL 6
REMARK VINA RESULT:    -4.251      2.143      4.177
REMARK INTER + INTRA:          -5.476
REMARK INTER:                  -6.986
REMARK INTRA:                   1.510
REMARK UNBOUND:                 0.514
REMARK SMILES CC1=CCC(=C(C)C)C(=O)CC(C)=CCC1
REMARK SMILES IDX 12 1 14 2 13 3 15 4 16 5 2 6 1 7 3 8 11 10 9 11 10 12 5 13
REMARK SMILES IDX 6 14 7 15 8 16 4 17
REMARK H PARENT
REMARK Flexibility Score: 60.00
ROOT
ATOM      1  C   UNL     1     -10.596 -15.782  31.865  1.00  0.00    -0.070 C 
ATOM      2  C   UNL     1      -9.905 -15.424  30.755  1.00  0.00    -0.027 C 
ATOM      3  C   UNL     1      -9.890 -15.688  33.194  1.00  0.00     0.039 C 
ENDROOT
BRANCH   2   4
ATOM      4  C   UNL     1     -10.454 -15.432  29.351  1.00  0.00     0.032 C 
BRANCH   4   5
ATOM      5  C   UNL     1     -10.383 -16.840  28.736  1.00  0.00     0.034 C 
BRANCH   5   6
ATOM      6  C   UNL     1     -11.415 -17.075  27.648  1.00  0.00    -0.077 C 
ATOM      7  C   UNL     1     -10.947 -17.163  26.217  1.00  0.00     0.039 C 
ATOM      8  C   UNL     1     -12.751 -17.128  27.877  1.00  0.00    -0.023 CG0
ATOM      9  G   UNL     1     -13.443 -17.167  29.222  1.00  0.00     0.000 G0
ENDBRANCH   5   6
ENDBRANCH   4   5
ENDBRANCH   2   4
BRANCH   1  10
ATOM     10  C   UNL     1     -12.035 -16.280  31.829  1.00  0.00     0.111 C 
BRANCH  10  11
ATOM     11  C   UNL     1     -12.110 -17.726  31.397  1.00  0.00     0.163 C 
ATOM     12  O   UNL     1     -11.477 -18.560  32.100  1.00  0.00    -0.294 OA
BRANCH  11  13
ATOM     13  C   UNL     1     -12.897 -18.209  30.205  1.00  0.00    -0.002 C 
ATOM     14  C   UNL     1     -13.125 -19.545  30.000  1.00  0.00    -0.069 C 
ATOM     15  C   UNL     1     -12.500 -20.610  30.875  1.00  0.00     0.039 C 
ATOM     16  C   UNL     1     -13.975 -20.036  28.846  1.00  0.00     0.039 C 
BRANCH  13  17
ATOM     17  C   UNL     1     -13.456 -17.186  29.220  1.00  0.00     0.066 CG0
ATOM     18  G   UNL     1     -12.747 -17.148  27.883  1.00  0.00     0.000 G0
ENDBRANCH  13  17
ENDBRANCH  11  13
ENDBRANCH  10  11
ENDBRANCH   1  10
TORSDOF 0
ENDMDL
MODEL 7
REMARK VINA RESULT:    -4.236      1.583      3.733
REMARK INTER + INTRA:          -5.455
REMARK INTER:                  -5.961
REMARK INTRA:                   0.506
REMARK UNBOUND:                 0.514
REMARK SMILES CC1=CCC(=C(C)C)C(=O)CC(C)=CCC1
REMARK SMILES IDX 12 1 14 2 13 3 15 4 16 5 2 6 1 7 3 8 11 10 9 11 10 12 5 13
REMARK SMILES IDX 6 14 7 15 8 16 4 17
REMARK H PARENT
REMARK Flexibility Score: 60.00
ROOT
ATOM      1  C   UNL     1     -12.268 -16.301  28.767  1.00  0.00    -0.070 C 
ATOM      2  C   UNL     1     -12.991 -17.418  28.506  1.00  0.00    -0.027 C 
ATOM      3  C   UNL     1     -12.916 -14.965  28.501  1.00  0.00     0.039 C 
ENDROOT
BRANCH   2   4
ATOM      4  C   UNL     1     -12.516 -18.831  28.732  1.00  0.00     0.032 C 
BRANCH   4   5
ATOM      5  C   UNL     1     -13.494 -19.608  29.631  1.00  0.00     0.034 C 
BRANCH   5   6
ATOM      6  C   UNL     1     -12.906 -19.981  30.978  1.00  0.00    -0.077 C 
ATOM      7  C   UNL     1     -12.545 -21.424  31.232  1.00  0.00     0.039 C 
ATOM      8  C   UNL     1     -12.760 -19.107  32.005  1.00  0.00    -0.023 CG0
ATOM      9  G   UNL     1     -12.954 -17.607  31.957  1.00  0.00     0.000 G0
ENDBRANCH   5   6
ENDBRANCH   4   5
ENDBRANCH   2   4
BRANCH   1  10
ATOM     10  C   UNL     1     -10.843 -16.334  29.302  1.00  0.00     0.111 C 
BRANCH  10  11
ATOM     11  C   UNL     1     -10.756 -17.102  30.601  1.00  0.00     0.163 C 
ATOM     12  O   UNL     1      -9.889 -18.016  30.660  1.00  0.00    -0.294 OA
BRANCH  11  13
ATOM     13  C   UNL     1     -11.624 -16.825  31.802  1.00  0.00    -0.002 C 
ATOM     14  C   UNL     1     -11.261 -15.891  32.738  1.00  0.00    -0.069 C 
ATOM     15  C   UNL     1      -9.925 -15.184  32.691  1.00  0.00     0.039 C 
ATOM     16  C   UNL     1     -12.160 -15.554  33.910  1.00  0.00     0.039 C 
BRANCH  13  17
ATOM     17  C   UNL     1     -12.933 -17.593  31.966  1.00  0.00     0.066 CG0
ATOM     18  G   UNL     1     -12.779 -19.099  31.991  1.00  0.00     0.000 G0
ENDBRANCH  13  17
ENDBRANCH  11  13
ENDBRANCH  10  11
ENDBRANCH   1  10
TORSDOF 0
ENDMDL
MODEL 8
REMARK VINA RESULT:    -4.143      2.021      3.254
REMARK INTER + INTRA:          -5.325
REMARK INTER:                  -5.831
REMARK INTRA:                   0.507
REMARK UNBOUND:                 0.514
REMARK SMILES CC1=CCC(=C(C)C)C(=O)CC(C)=CCC1
REMARK SMILES IDX 12 1 14 2 13 3 15 4 16 5 2 6 1 7 3 8 11 10 9 11 10 12 5 13
REMARK SMILES IDX 6 14 7 15 8 16 4 17
REMARK H PARENT
REMARK Flexibility Score: 60.00
ROOT
ATOM      1  C   UNL     1     -13.903 -15.379  31.717  1.00  0.00    -0.070 C 
ATOM      2  C   UNL     1     -13.139 -15.378  32.837  1.00  0.00    -0.027 C 
ATOM      3  C   UNL     1     -15.049 -14.401  31.647  1.00  0.00     0.039 C 
ENDROOT
BRANCH   2   4
ATOM      4  C   UNL     1     -11.943 -16.266  33.072  1.00  0.00     0.032 C 
BRANCH   4   5
ATOM      5  C   UNL     1     -10.787 -15.901  32.125  1.00  0.00     0.034 C 
BRANCH   5   6
ATOM      6  C   UNL     1     -10.295 -17.072  31.296  1.00  0.00    -0.077 C 
ATOM      7  C   UNL     1      -9.885 -18.337  32.007  1.00  0.00     0.039 C 
ATOM      8  C   UNL     1     -10.121 -17.022  29.951  1.00  0.00    -0.023 CG0
ATOM      9  G   UNL     1     -10.554 -15.911  29.018  1.00  0.00     0.000 G0
ENDBRANCH   5   6
ENDBRANCH   4   5
ENDBRANCH   2   4
BRANCH   1  10
ATOM     10  C   UNL     1     -13.664 -16.319  30.543  1.00  0.00     0.111 C 
BRANCH  10  11
ATOM     11  C   UNL     1     -13.149 -15.575  29.333  1.00  0.00     0.163 C 
ATOM     12  O   UNL     1     -13.726 -14.489  29.050  1.00  0.00    -0.294 OA
BRANCH  11  13
ATOM     13  C   UNL     1     -11.999 -16.047  28.480  1.00  0.00    -0.002 C 
ATOM     14  C   UNL     1     -12.213 -16.588  27.239  1.00  0.00    -0.069 C 
ATOM     15  C   UNL     1     -13.604 -16.859  26.709  1.00  0.00     0.039 C 
ATOM     16  C   UNL     1     -11.061 -16.999  26.345  1.00  0.00     0.039 C 
BRANCH  13  17
ATOM     17  C   UNL     1     -10.574 -15.907  29.011  1.00  0.00     0.066 CG0
ATOM     18  G   UNL     1     -10.145 -17.008  29.957  1.00  0.00     0.000 G0
ENDBRANCH  13  17
ENDBRANCH  11  13
ENDBRANCH  10  11
ENDBRANCH   1  10
TORSDOF 0
ENDMDL
MODEL 9
REMARK VINA RESULT:    -4.138      1.803      3.687
REMARK INTER + INTRA:          -5.317
REMARK INTER:                  -5.426
REMARK INTRA:                   0.109
REMARK UNBOUND:                 0.514
REMARK SMILES CC1=CCC(=C(C)C)C(=O)CC(C)=CCC1
REMARK SMILES IDX 12 1 14 2 13 3 15 4 16 5 2 6 1 7 3 8 11 10 9 11 10 12 5 13
REMARK SMILES IDX 6 14 7 15 8 16 4 17
REMARK H PARENT
REMARK Flexibility Score: 60.00
ROOT
ATOM      1  C   UNL     1     -12.997 -15.725  30.728  1.00  0.00    -0.070 C 
ATOM      2  C   UNL     1     -13.769 -15.254  29.718  1.00  0.00    -0.027 C 
ATOM      3  C   UNL     1     -13.683 -16.118  32.013  1.00  0.00     0.039 C 
ENDROOT
BRANCH   2   4
ATOM      4  C   UNL     1     -13.261 -14.837  28.361  1.00  0.00     0.032 C 
BRANCH   4   5
ATOM      5  C   UNL     1     -13.602 -15.891  27.293  1.00  0.00     0.034 C 
BRANCH   5   6
ATOM      6  C   UNL     1     -12.418 -16.755  26.901  1.00  0.00    -0.077 C 
ATOM      7  C   UNL     1     -11.543 -16.304  25.759  1.00  0.00     0.039 C 
ATOM      8  C   UNL     1     -12.145 -17.959  27.464  1.00  0.00    -0.023 CG0
ATOM      9  G   UNL     1     -12.812 -18.566  28.680  1.00  0.00     0.000 G0
ENDBRANCH   5   6
ENDBRANCH   4   5
ENDBRANCH   2   4
BRANCH   1  10
ATOM     10  C   UNL     1     -11.484 -15.864  30.629  1.00  0.00     0.111 C 
BRANCH  10  11
ATOM     11  C   UNL     1     -11.086 -17.229  30.118  1.00  0.00     0.163 C 
ATOM     12  O   UNL     1      -9.875 -17.382  29.799  1.00  0.00    -0.294 OA
BRANCH  11  13
ATOM     13  C   UNL     1     -12.039 -18.390  29.988  1.00  0.00    -0.002 C 
ATOM     14  C   UNL     1     -12.229 -19.271  31.021  1.00  0.00    -0.069 C 
ATOM     15  C   UNL     1     -11.410 -19.206  32.291  1.00  0.00     0.039 C 
ATOM     16  C   UNL     1     -13.236 -20.398  30.926  1.00  0.00     0.039 C 
BRANCH  13  17
ATOM     17  C   UNL     1     -12.810 -18.576  28.683  1.00  0.00     0.066 CG0
ATOM     18  G   UNL     1     -12.137 -17.979  27.465  1.00  0.00     0.000 G0
ENDBRANCH  13  17
ENDBRANCH  11  13
ENDBRANCH  10  11
ENDBRANCH   1  10
TORSDOF 0
ENDMDL
