MODEL 1
REMARK VINA RESULT:    -4.120      0.000      0.000
REMARK INTER + INTRA:          -4.394
REMARK INTER:                  -4.361
REMARK INTRA:                  -0.033
REMARK UNBOUND:                -0.033
REMARK SMILES COc1ccc2ccc(=O)oc2c1
REMARK SMILES IDX 3 1 13 2 12 3 6 4 5 5 4 6 7 7 8 8 9 9 10 10 11 11 2 12 1 13
REMARK H PARENT
REMARK Flexibility Score: inf
ROOT
ATOM      1  C   UNL     1      74.709  41.148  22.440  1.00  0.00     0.122 A 
ATOM      2  C   UNL     1      74.816  40.127  21.487  1.00  0.00     0.094 A 
ATOM      3  C   UNL     1      73.683  39.420  21.071  1.00  0.00     0.142 A 
ATOM      4  C   UNL     1      72.419  39.739  21.615  1.00  0.00     0.018 A 
ATOM      5  C   UNL     1      72.307  40.759  22.568  1.00  0.00     0.016 A 
ATOM      6  C   UNL     1      73.445  41.460  22.978  1.00  0.00     0.047 A 
ATOM      7  C   UNL     1      71.305  39.015  21.180  1.00  0.00     0.019 A 
ATOM      8  C   UNL     1      71.471  38.009  20.229  1.00  0.00     0.094 A 
ATOM      9  C   UNL     1      72.754  37.749  19.734  1.00  0.00     0.336 A 
ATOM     10  O   UNL     1      72.924  36.844  18.875  1.00  0.00    -0.246 OA
ATOM     11  O   UNL     1      73.798  38.452  20.165  1.00  0.00    -0.423 OA
ENDROOT
BRANCH   1  12
ATOM     12  O   UNL     1      75.876  41.826  22.822  1.00  0.00    -0.497 OA
ATOM     13  C   UNL     1      76.275  43.093  22.310  1.00  0.00     0.278 C 
ENDBRANCH   1  12
TORSDOF 1
ENDMDL
MODEL 2
REMARK VINA RESULT:    -4.102      1.635      4.809
REMARK INTER + INTRA:          -4.374
REMARK INTER:                  -4.336
REMARK INTRA:                  -0.038
REMARK UNBOUND:                -0.033
REMARK SMILES COc1ccc2ccc(=O)oc2c1
REMARK SMILES IDX 3 1 13 2 12 3 6 4 5 5 4 6 7 7 8 8 9 9 10 10 11 11 2 12 1 13
REMARK H PARENT
REMARK Flexibility Score: inf
ROOT
ATOM      1  C   UNL     1      73.424  39.051  21.137  1.00  0.00     0.122 A 
ATOM      2  C   UNL     1      74.512  39.542  20.406  1.00  0.00     0.094 A 
ATOM      3  C   UNL     1      75.122  40.750  20.761  1.00  0.00     0.142 A 
ATOM      4  C   UNL     1      74.636  41.480  21.868  1.00  0.00     0.018 A 
ATOM      5  C   UNL     1      73.549  40.993  22.603  1.00  0.00     0.016 A 
ATOM      6  C   UNL     1      72.945  39.785  22.241  1.00  0.00     0.047 A 
ATOM      7  C   UNL     1      75.265  42.684  22.200  1.00  0.00     0.019 A 
ATOM      8  C   UNL     1      76.345  43.125  21.435  1.00  0.00     0.094 A 
ATOM      9  C   UNL     1      76.772  42.348  20.352  1.00  0.00     0.336 A 
ATOM     10  O   UNL     1      77.744  42.730  19.650  1.00  0.00    -0.246 OA
ATOM     11  O   UNL     1      76.155  41.206  20.059  1.00  0.00    -0.423 OA
ENDROOT
BRANCH   1  12
ATOM     12  O   UNL     1      72.850  37.834  20.739  1.00  0.00    -0.497 OA
ATOM     13  C   UNL     1      72.540  37.493  19.391  1.00  0.00     0.278 C 
ENDBRANCH   1  12
TORSDOF 1
ENDMDL
MODEL 3
REMARK VINA RESULT:    -4.007      1.648      2.360
REMARK INTER + INTRA:          -4.274
REMARK INTER:                  -4.239
REMARK INTRA:                  -0.036
REMARK UNBOUND:                -0.033
REMARK SMILES COc1ccc2ccc(=O)oc2c1
REMARK SMILES IDX 3 1 13 2 12 3 6 4 5 5 4 6 7 7 8 8 9 9 10 10 11 11 2 12 1 13
REMARK H PARENT
REMARK Flexibility Score: inf
ROOT
ATOM      1  C   UNL     1      75.311  40.951  22.462  1.00  0.00     0.122 A 
ATOM      2  C   UNL     1      74.112  40.231  22.526  1.00  0.00     0.094 A 
ATOM      3  C   UNL     1      73.530  39.713  21.365  1.00  0.00     0.142 A 
ATOM      4  C   UNL     1      74.156  39.917  20.116  1.00  0.00     0.018 A 
ATOM      5  C   UNL     1      75.356  40.635  20.046  1.00  0.00     0.016 A 
ATOM      6  C   UNL     1      75.931  41.150  21.212  1.00  0.00     0.047 A 
ATOM      7  C   UNL     1      73.552  39.387  18.972  1.00  0.00     0.019 A 
ATOM      8  C   UNL     1      72.356  38.679  19.096  1.00  0.00     0.094 A 
ATOM      9  C   UNL     1      71.793  38.517  20.366  1.00  0.00     0.336 A 
ATOM     10  O   UNL     1      70.714  37.881  20.498  1.00  0.00    -0.246 OA
ATOM     11  O   UNL     1      72.390  39.031  21.438  1.00  0.00    -0.423 OA
ENDROOT
BRANCH   1  12
ATOM     12  O   UNL     1      75.853  41.448  23.657  1.00  0.00    -0.497 OA
ATOM     13  C   UNL     1      76.289  40.636  24.742  1.00  0.00     0.278 C 
ENDBRANCH   1  12
TORSDOF 1
ENDMDL
MODEL 4
REMARK VINA RESULT:    -3.929      2.186      4.744
REMARK INTER + INTRA:          -4.192
REMARK INTER:                  -4.149
REMARK INTRA:                  -0.043
REMARK UNBOUND:                -0.033
REMARK SMILES COc1ccc2ccc(=O)oc2c1
REMARK SMILES IDX 3 1 13 2 12 3 6 4 5 5 4 6 7 7 8 8 9 9 10 10 11 11 2 12 1 13
REMARK H PARENT
REMARK Flexibility Score: inf
ROOT
ATOM      1  C   UNL     1      73.645  38.914  19.862  1.00  0.00     0.122 A 
ATOM      2  C   UNL     1      72.482  39.262  20.561  1.00  0.00     0.094 A 
ATOM      3  C   UNL     1      72.489  40.328  21.466  1.00  0.00     0.142 A 
ATOM      4  C   UNL     1      73.678  41.061  21.678  1.00  0.00     0.018 A 
ATOM      5  C   UNL     1      74.842  40.717  20.980  1.00  0.00     0.016 A 
ATOM      6  C   UNL     1      74.827  39.650  20.077  1.00  0.00     0.047 A 
ATOM      7  C   UNL     1      73.654  42.121  22.588  1.00  0.00     0.019 A 
ATOM      8  C   UNL     1      72.467  42.423  23.257  1.00  0.00     0.094 A 
ATOM      9  C   UNL     1      71.328  41.653  22.997  1.00  0.00     0.336 A 
ATOM     10  O   UNL     1      70.248  41.909  23.591  1.00  0.00    -0.246 OA
ATOM     11  O   UNL     1      71.378  40.649  22.125  1.00  0.00    -0.423 OA
ENDROOT
BRANCH   1  12
ATOM     12  O   UNL     1      73.584  37.836  18.965  1.00  0.00    -0.497 OA
ATOM     13  C   UNL     1      72.493  36.925  18.875  1.00  0.00     0.278 C 
ENDBRANCH   1  12
TORSDOF 1
ENDMDL
MODEL 5
REMARK VINA RESULT:    -3.910      1.929      2.902
REMARK INTER + INTRA:          -4.171
REMARK INTER:                  -4.129
REMARK INTRA:                  -0.042
REMARK UNBOUND:                -0.033
REMARK SMILES COc1ccc2ccc(=O)oc2c1
REMARK SMILES IDX 3 1 13 2 12 3 6 4 5 5 4 6 7 7 8 8 9 9 10 10 11 11 2 12 1 13
REMARK H PARENT
REMARK Flexibility Score: inf
ROOT
ATOM      1  C   UNL     1      72.334  42.054  22.871  1.00  0.00     0.122 A 
ATOM      2  C   UNL     1      71.555  41.285  21.998  1.00  0.00     0.094 A 
ATOM      3  C   UNL     1      72.134  40.261  21.243  1.00  0.00     0.142 A 
ATOM      4  C   UNL     1      73.517  39.998  21.361  1.00  0.00     0.018 A 
ATOM      5  C   UNL     1      74.300  40.764  22.233  1.00  0.00     0.016 A 
ATOM      6  C   UNL     1      73.713  41.787  22.985  1.00  0.00     0.047 A 
ATOM      7  C   UNL     1      74.068  38.968  20.594  1.00  0.00     0.019 A 
ATOM      8  C   UNL     1      73.243  38.234  19.740  1.00  0.00     0.094 A 
ATOM      9  C   UNL     1      71.882  38.551  19.675  1.00  0.00     0.336 A 
ATOM     10  O   UNL     1      71.122  37.901  18.910  1.00  0.00    -0.246 OA
ATOM     11  O   UNL     1      71.383  39.537  20.416  1.00  0.00    -0.423 OA
ENDROOT
BRANCH   1  12
ATOM     12  O   UNL     1      71.703  43.070  23.606  1.00  0.00    -0.497 OA
ATOM     13  C   UNL     1      70.304  43.125  23.866  1.00  0.00     0.278 C 
ENDBRANCH   1  12
TORSDOF 1
ENDMDL
MODEL 6
REMARK VINA RESULT:    -3.730      2.358      4.200
REMARK INTER + INTRA:          -3.981
REMARK INTER:                  -3.947
REMARK INTRA:                  -0.034
REMARK UNBOUND:                -0.033
REMARK SMILES COc1ccc2ccc(=O)oc2c1
REMARK SMILES IDX 3 1 13 2 12 3 6 4 5 5 4 6 7 7 8 8 9 9 10 10 11 11 2 12 1 13
REMARK H PARENT
REMARK Flexibility Score: inf
ROOT
ATOM      1  C   UNL     1      71.964  40.583  22.244  1.00  0.00     0.122 A 
ATOM      2  C   UNL     1      73.141  41.330  22.118  1.00  0.00     0.094 A 
ATOM      3  C   UNL     1      74.036  41.078  21.074  1.00  0.00     0.142 A 
ATOM      4  C   UNL     1      73.751  40.060  20.137  1.00  0.00     0.018 A 
ATOM      5  C   UNL     1      72.574  39.311  20.257  1.00  0.00     0.016 A 
ATOM      6  C   UNL     1      71.685  39.570  21.305  1.00  0.00     0.047 A 
ATOM      7  C   UNL     1      74.664  39.831  19.103  1.00  0.00     0.019 A 
ATOM      8  C   UNL     1      75.821  40.606  19.028  1.00  0.00     0.094 A 
ATOM      9  C   UNL     1      76.038  41.596  19.992  1.00  0.00     0.336 A 
ATOM     10  O   UNL     1      77.077  42.306  19.941  1.00  0.00    -0.246 OA
ATOM     11  O   UNL     1      75.152  41.794  20.965  1.00  0.00    -0.423 OA
ENDROOT
BRANCH   1  12
ATOM     12  O   UNL     1      71.100  40.878  23.310  1.00  0.00    -0.497 OA
ATOM     13  C   UNL     1      70.295  42.049  23.393  1.00  0.00     0.278 C 
ENDBRANCH   1  12
TORSDOF 1
ENDMDL
MODEL 7
REMARK VINA RESULT:    -3.697      1.504      4.783
REMARK INTER + INTRA:          -3.946
REMARK INTER:                  -3.906
REMARK INTRA:                  -0.040
REMARK UNBOUND:                -0.033
REMARK SMILES COc1ccc2ccc(=O)oc2c1
REMARK SMILES IDX 3 1 13 2 12 3 6 4 5 5 4 6 7 7 8 8 9 9 10 10 11 11 2 12 1 13
REMARK H PARENT
REMARK Flexibility Score: inf
ROOT
ATOM      1  C   UNL     1      71.971  38.945  19.869  1.00  0.00     0.122 A 
ATOM      2  C   UNL     1      73.034  38.901  20.780  1.00  0.00     0.094 A 
ATOM      3  C   UNL     1      73.450  40.060  21.444  1.00  0.00     0.142 A 
ATOM      4  C   UNL     1      72.792  41.284  21.195  1.00  0.00     0.018 A 
ATOM      5  C   UNL     1      71.728  41.333  20.286  1.00  0.00     0.016 A 
ATOM      6  C   UNL     1      71.319  40.170  19.627  1.00  0.00     0.047 A 
ATOM      7  C   UNL     1      73.229  42.426  21.874  1.00  0.00     0.019 A 
ATOM      8  C   UNL     1      74.293  42.324  22.770  1.00  0.00     0.094 A 
ATOM      9  C   UNL     1      74.897  41.077  22.966  1.00  0.00     0.336 A 
ATOM     10  O   UNL     1      75.860  40.965  23.770  1.00  0.00    -0.246 OA
ATOM     11  O   UNL     1      74.461  40.006  22.307  1.00  0.00    -0.423 OA
ENDROOT
BRANCH   1  12
ATOM     12  O   UNL     1      71.594  37.753  19.231  1.00  0.00    -0.497 OA
ATOM     13  C   UNL     1      72.495  36.710  18.876  1.00  0.00     0.278 C 
ENDBRANCH   1  12
TORSDOF 1
ENDMDL
MODEL 8
REMARK VINA RESULT:    -3.592      2.866      3.782
REMARK INTER + INTRA:          -3.835
REMARK INTER:                  -3.802
REMARK INTRA:                  -0.033
REMARK UNBOUND:                -0.033
REMARK SMILES COc1ccc2ccc(=O)oc2c1
REMARK SMILES IDX 3 1 13 2 12 3 6 4 5 5 4 6 7 7 8 8 9 9 10 10 11 11 2 12 1 13
REMARK H PARENT
REMARK Flexibility Score: inf
ROOT
ATOM      1  C   UNL     1      75.902  42.273  21.075  1.00  0.00     0.122 A 
ATOM      2  C   UNL     1      74.834  42.790  21.819  1.00  0.00     0.094 A 
ATOM      3  C   UNL     1      73.707  42.005  22.085  1.00  0.00     0.142 A 
ATOM      4  C   UNL     1      73.645  40.680  21.601  1.00  0.00     0.018 A 
ATOM      5  C   UNL     1      74.711  40.158  20.858  1.00  0.00     0.016 A 
ATOM      6  C   UNL     1      75.834  40.949  20.596  1.00  0.00     0.047 A 
ATOM      7  C   UNL     1      72.506  39.920  21.883  1.00  0.00     0.019 A 
ATOM      8  C   UNL     1      71.472  40.487  22.628  1.00  0.00     0.094 A 
ATOM      9  C   UNL     1      71.603  41.806  23.074  1.00  0.00     0.336 A 
ATOM     10  O   UNL     1      70.680  42.336  23.747  1.00  0.00    -0.246 OA
ATOM     11  O   UNL     1      72.698  42.508  22.792  1.00  0.00    -0.423 OA
ENDROOT
BRANCH   1  12
ATOM     12  O   UNL     1      77.009  43.102  20.838  1.00  0.00    -0.497 OA
ATOM     13  C   UNL     1      77.755  43.120  19.625  1.00  0.00     0.278 C 
ENDBRANCH   1  12
TORSDOF 1
ENDMDL
