MODEL 1
REMARK VINA RESULT:    -5.819      0.000      0.000
REMARK INTER + INTRA:         -10.361
REMARK INTER:                  -9.051
REMARK INTRA:                  -1.311
REMARK UNBOUND:                -1.311
REMARK SMILES COc1cc(CNC(=O)CCCCC=CC(C)C)ccc1O
REMARK SMILES IDX 11 1 12 2 13 3 14 4 15 5 16 6 17 7 18 8 10 9 8 10 9 11 7 12
REMARK SMILES IDX 6 14 5 15 4 16 19 17 3 18 20 19 21 20 2 21 1 22 22 23
REMARK H PARENT 7 13 22 24
REMARK Flexibility Score: inf
ROOT
ATOM      1  C   UNL     1     181.915 -24.064  39.819  1.00  0.00     0.010 C 
ENDROOT
BRANCH   1   2
ATOM      2  C   UNL     1     181.982 -25.161  40.903  1.00  0.00     0.005 C 
BRANCH   2   3
ATOM      3  C   UNL     1     182.417 -26.543  40.387  1.00  0.00     0.027 C 
BRANCH   3   4
ATOM      4  C   UNL     1     182.378 -26.623  38.881  1.00  0.00    -0.031 C 
ATOM      5  C   UNL     1     181.415 -27.190  38.122  1.00  0.00    -0.028 C 
BRANCH   5   6
ATOM      6  C   UNL     1     180.098 -27.798  38.571  1.00  0.00     0.005 C 
ATOM      7  C   UNL     1     178.914 -26.825  38.512  1.00  0.00     0.012 C 
ATOM      8  C   UNL     1     179.799 -29.132  37.875  1.00  0.00     0.012 C 
ENDBRANCH   5   6
ENDBRANCH   3   4
ENDBRANCH   2   3
ENDBRANCH   1   2
BRANCH   1   9
ATOM      9  C   UNL     1     182.891 -22.897  40.033  1.00  0.00     0.100 C 
BRANCH   9  10
ATOM     10  C   UNL     1     183.480 -22.414  38.740  1.00  0.00     0.220 C 
ATOM     11  O   UNL     1     183.667 -21.178  38.570  1.00  0.00    -0.275 OA
ATOM     12  N   UNL     1     183.792 -23.344  37.694  1.00  0.00    -0.352 N 
ATOM     13  H   UNL     1     183.593 -24.360  37.839  1.00  0.00     0.163 HD
BRANCH  12  14
ATOM     14  C   UNL     1     184.365 -22.925  36.417  1.00  0.00     0.151 C 
BRANCH  14  15
ATOM     15  C   UNL     1     184.372 -24.076  35.448  1.00  0.00    -0.025 A 
ATOM     16  C   UNL     1     184.242 -23.834  34.071  1.00  0.00     0.056 A 
ATOM     17  C   UNL     1     184.479 -25.396  35.909  1.00  0.00     0.009 A 
ATOM     18  C   UNL     1     184.226 -24.904  33.154  1.00  0.00     0.160 A 
ATOM     19  C   UNL     1     184.464 -26.460  35.006  1.00  0.00     0.050 A 
ATOM     20  C   UNL     1     184.338 -26.218  33.630  1.00  0.00     0.157 A 
BRANCH  18  21
ATOM     21  O   UNL     1     184.098 -24.702  31.772  1.00  0.00    -0.493 OA
ATOM     22  C   UNL     1     183.422 -23.598  31.178  1.00  0.00     0.278 C 
ENDBRANCH  18  21
BRANCH  20  23
ATOM     23  O   UNL     1     184.324 -27.281  32.730  1.00  0.00    -0.504 OA
ATOM     24  H   UNL     1     185.091 -27.941  32.675  1.00  0.00     0.293 HD
ENDBRANCH  20  23
ENDBRANCH  14  15
ENDBRANCH  12  14
ENDBRANCH   9  10
ENDBRANCH   1   9
TORSDOF 10
ENDMDL
MODEL 2
REMARK VINA RESULT:    -5.732      2.150      4.809
REMARK INTER + INTRA:         -10.227
REMARK INTER:                  -8.365
REMARK INTRA:                  -1.861
REMARK UNBOUND:                -1.311
REMARK SMILES COc1cc(CNC(=O)CCCCC=CC(C)C)ccc1O
REMARK SMILES IDX 11 1 12 2 13 3 14 4 15 5 16 6 17 7 18 8 10 9 8 10 9 11 7 12
REMARK SMILES IDX 6 14 5 15 4 16 19 17 3 18 20 19 21 20 2 21 1 22 22 23
REMARK H PARENT 7 13 22 24
REMARK Flexibility Score: inf
ROOT
ATOM      1  C   UNL     1     182.434 -21.400  39.167  1.00  0.00     0.010 C 
ENDROOT
BRANCH   1   2
ATOM      2  C   UNL     1     183.545 -21.074  38.148  1.00  0.00     0.005 C 
BRANCH   2   3
ATOM      3  C   UNL     1     183.416 -21.810  36.803  1.00  0.00     0.027 C 
BRANCH   3   4
ATOM      4  C   UNL     1     184.626 -22.662  36.506  1.00  0.00    -0.031 C 
ATOM      5  C   UNL     1     185.314 -22.718  35.346  1.00  0.00    -0.028 C 
BRANCH   5   6
ATOM      6  C   UNL     1     185.116 -21.886  34.092  1.00  0.00     0.005 C 
ATOM      7  C   UNL     1     186.218 -20.847  33.856  1.00  0.00     0.012 C 
ATOM      8  C   UNL     1     184.846 -22.748  32.851  1.00  0.00     0.012 C 
ENDBRANCH   5   6
ENDBRANCH   3   4
ENDBRANCH   2   3
ENDBRANCH   1   2
BRANCH   1   9
ATOM      9  C   UNL     1     182.722 -22.620  40.055  1.00  0.00     0.100 C 
BRANCH   9  10
ATOM     10  C   UNL     1     182.279 -23.901  39.411  1.00  0.00     0.220 C 
ATOM     11  O   UNL     1     181.046 -24.125  39.266  1.00  0.00    -0.275 OA
ATOM     12  N   UNL     1     183.245 -24.876  38.997  1.00  0.00    -0.352 N 
ATOM     13  H   UNL     1     184.261 -24.689  39.161  1.00  0.00     0.163 HD
BRANCH  12  14
ATOM     14  C   UNL     1     182.867 -26.137  38.366  1.00  0.00     0.151 C 
BRANCH  14  15
ATOM     15  C   UNL     1     183.272 -26.136  36.917  1.00  0.00    -0.025 A 
ATOM     16  C   UNL     1     182.319 -25.865  35.923  1.00  0.00     0.056 A 
ATOM     17  C   UNL     1     184.591 -26.433  36.546  1.00  0.00     0.009 A 
ATOM     18  C   UNL     1     182.681 -25.881  34.561  1.00  0.00     0.160 A 
ATOM     19  C   UNL     1     184.956 -26.450  35.199  1.00  0.00     0.050 A 
ATOM     20  C   UNL     1     184.005 -26.175  34.206  1.00  0.00     0.157 A 
BRANCH  18  21
ATOM     21  O   UNL     1     181.757 -25.615  33.539  1.00  0.00    -0.493 OA
ATOM     22  C   UNL     1     181.407 -24.311  33.087  1.00  0.00     0.278 C 
ENDBRANCH  18  21
BRANCH  20  23
ATOM     23  O   UNL     1     184.370 -26.193  32.861  1.00  0.00    -0.504 OA
ATOM     24  H   UNL     1     184.705 -25.360  32.390  1.00  0.00     0.293 HD
ENDBRANCH  20  23
ENDBRANCH  14  15
ENDBRANCH  12  14
ENDBRANCH   9  10
ENDBRANCH   1   9
TORSDOF 10
ENDMDL
MODEL 3
REMARK VINA RESULT:    -5.721      2.478      5.937
REMARK INTER + INTRA:         -10.209
REMARK INTER:                  -8.594
REMARK INTRA:                  -1.616
REMARK UNBOUND:                -1.311
REMARK SMILES COc1cc(CNC(=O)CCCCC=CC(C)C)ccc1O
REMARK SMILES IDX 11 1 12 2 13 3 14 4 15 5 16 6 17 7 18 8 10 9 8 10 9 11 7 12
REMARK SMILES IDX 6 14 5 15 4 16 19 17 3 18 20 19 21 20 2 21 1 22 22 23
REMARK H PARENT 7 13 22 24
REMARK Flexibility Score: inf
ROOT
ATOM      1  C   UNL     1     184.409 -21.646  35.403  1.00  0.00     0.010 C 
ENDROOT
BRANCH   1   2
ATOM      2  C   UNL     1     185.297 -22.015  34.196  1.00  0.00     0.005 C 
BRANCH   2   3
ATOM      3  C   UNL     1     184.660 -23.016  33.216  1.00  0.00     0.027 C 
BRANCH   3   4
ATOM      4  C   UNL     1     183.387 -23.612  33.764  1.00  0.00    -0.031 C 
ATOM      5  C   UNL     1     183.262 -24.766  34.455  1.00  0.00    -0.028 C 
BRANCH   5   6
ATOM      6  C   UNL     1     184.359 -25.699  34.936  1.00  0.00     0.005 C 
ATOM      7  C   UNL     1     184.216 -26.119  36.404  1.00  0.00     0.012 C 
ATOM      8  C   UNL     1     184.565 -26.896  33.999  1.00  0.00     0.012 C 
ENDBRANCH   5   6
ENDBRANCH   3   4
ENDBRANCH   2   3
ENDBRANCH   1   2
BRANCH   1   9
ATOM      9  C   UNL     1     185.001 -22.027  36.769  1.00  0.00     0.100 C 
BRANCH   9  10
ATOM     10  C   UNL     1     183.935 -22.233  37.805  1.00  0.00     0.220 C 
ATOM     11  O   UNL     1     184.097 -21.758  38.961  1.00  0.00    -0.275 OA
ATOM     12  N   UNL     1     182.760 -22.994  37.493  1.00  0.00    -0.352 N 
ATOM     13  H   UNL     1     182.661 -23.412  36.540  1.00  0.00     0.163 HD
BRANCH  12  14
ATOM     14  C   UNL     1     181.694 -23.224  38.464  1.00  0.00     0.151 C 
BRANCH  14  15
ATOM     15  C   UNL     1     181.703 -24.659  38.917  1.00  0.00    -0.025 A 
ATOM     16  C   UNL     1     181.038 -25.636  38.160  1.00  0.00     0.056 A 
ATOM     17  C   UNL     1     182.347 -25.027  40.106  1.00  0.00     0.009 A 
ATOM     18  C   UNL     1     181.021 -26.980  38.582  1.00  0.00     0.160 A 
ATOM     19  C   UNL     1     182.334 -26.357  40.530  1.00  0.00     0.050 A 
ATOM     20  C   UNL     1     181.673 -27.334  39.772  1.00  0.00     0.157 A 
BRANCH  18  21
ATOM     21  O   UNL     1     180.367 -27.985  37.853  1.00  0.00    -0.493 OA
ATOM     22  C   UNL     1     178.955 -28.157  37.805  1.00  0.00     0.278 C 
ENDBRANCH  18  21
BRANCH  20  23
ATOM     23  O   UNL     1     181.661 -28.661  40.196  1.00  0.00    -0.504 OA
ATOM     24  H   UNL     1     181.804 -29.428  39.549  1.00  0.00     0.293 HD
ENDBRANCH  20  23
ENDBRANCH  14  15
ENDBRANCH  12  14
ENDBRANCH   9  10
ENDBRANCH   1   9
TORSDOF 10
ENDMDL
MODEL 4
REMARK VINA RESULT:    -5.691      2.695      6.048
REMARK INTER + INTRA:         -10.162
REMARK INTER:                  -8.659
REMARK INTRA:                  -1.503
REMARK UNBOUND:                -1.311
REMARK SMILES COc1cc(CNC(=O)CCCCC=CC(C)C)ccc1O
REMARK SMILES IDX 11 1 12 2 13 3 14 4 15 5 16 6 17 7 18 8 10 9 8 10 9 11 7 12
REMARK SMILES IDX 6 14 5 15 4 16 19 17 3 18 20 19 21 20 2 21 1 22 22 23
REMARK H PARENT 7 13 22 24
REMARK Flexibility Score: inf
ROOT
ATOM      1  C   UNL     1     184.136 -23.004  35.243  1.00  0.00     0.010 C 
ENDROOT
BRANCH   1   2
ATOM      2  C   UNL     1     184.973 -24.136  35.875  1.00  0.00     0.005 C 
BRANCH   2   3
ATOM      3  C   UNL     1     184.222 -25.467  36.047  1.00  0.00     0.027 C 
BRANCH   3   4
ATOM      4  C   UNL     1     184.758 -26.541  35.131  1.00  0.00    -0.031 C 
ATOM      5  C   UNL     1     184.348 -26.814  33.874  1.00  0.00    -0.028 C 
BRANCH   5   6
ATOM      6  C   UNL     1     183.329 -26.067  33.032  1.00  0.00     0.005 C 
ATOM      7  C   UNL     1     183.877 -25.575  31.687  1.00  0.00     0.012 C 
ATOM      8  C   UNL     1     182.012 -26.839  32.883  1.00  0.00     0.012 C 
ENDBRANCH   5   6
ENDBRANCH   3   4
ENDBRANCH   2   3
ENDBRANCH   1   2
BRANCH   1   9
ATOM      9  C   UNL     1     184.064 -21.720  36.084  1.00  0.00     0.100 C 
BRANCH   9  10
ATOM     10  C   UNL     1     183.421 -21.958  37.420  1.00  0.00     0.220 C 
ATOM     11  O   UNL     1     183.998 -21.552  38.464  1.00  0.00    -0.275 OA
ATOM     12  N   UNL     1     182.182 -22.674  37.509  1.00  0.00    -0.352 N 
ATOM     13  H   UNL     1     181.738 -23.037  36.635  1.00  0.00     0.163 HD
BRANCH  12  14
ATOM     14  C   UNL     1     181.516 -22.934  38.783  1.00  0.00     0.151 C 
BRANCH  14  15
ATOM     15  C   UNL     1     181.559 -24.403  39.103  1.00  0.00    -0.025 A 
ATOM     16  C   UNL     1     180.375 -25.158  39.093  1.00  0.00     0.056 A 
ATOM     17  C   UNL     1     182.770 -25.025  39.440  1.00  0.00     0.009 A 
ATOM     18  C   UNL     1     180.398 -26.530  39.411  1.00  0.00     0.160 A 
ATOM     19  C   UNL     1     182.799 -26.384  39.755  1.00  0.00     0.050 A 
ATOM     20  C   UNL     1     181.617 -27.138  39.741  1.00  0.00     0.157 A 
BRANCH  18  21
ATOM     21  O   UNL     1     179.236 -27.317  39.412  1.00  0.00    -0.493 OA
ATOM     22  C   UNL     1     178.244 -27.288  40.433  1.00  0.00     0.278 C 
ENDBRANCH  18  21
BRANCH  20  23
ATOM     23  O   UNL     1     181.648 -28.495  40.056  1.00  0.00    -0.504 OA
ATOM     24  H   UNL     1     182.306 -29.128  39.617  1.00  0.00     0.293 HD
ENDBRANCH  20  23
ENDBRANCH  14  15
ENDBRANCH  12  14
ENDBRANCH   9  10
ENDBRANCH   1   9
TORSDOF 10
ENDMDL
MODEL 5
REMARK VINA RESULT:    -5.646      2.227      5.580
REMARK INTER + INTRA:         -10.093
REMARK INTER:                  -8.211
REMARK INTRA:                  -1.882
REMARK UNBOUND:                -1.311
REMARK SMILES COc1cc(CNC(=O)CCCCC=CC(C)C)ccc1O
REMARK SMILES IDX 11 1 12 2 13 3 14 4 15 5 16 6 17 7 18 8 10 9 8 10 9 11 7 12
REMARK SMILES IDX 6 14 5 15 4 16 19 17 3 18 20 19 21 20 2 21 1 22 22 23
REMARK H PARENT 7 13 22 24
REMARK Flexibility Score: inf
ROOT
ATOM      1  C   UNL     1     183.289 -26.495  33.014  1.00  0.00     0.010 C 
ENDROOT
BRANCH   1   2
ATOM      2  C   UNL     1     184.502 -26.862  33.895  1.00  0.00     0.005 C 
BRANCH   2   3
ATOM      3  C   UNL     1     184.464 -26.268  35.314  1.00  0.00     0.027 C 
BRANCH   3   4
ATOM      4  C   UNL     1     183.189 -25.505  35.574  1.00  0.00    -0.031 C 
ATOM      5  C   UNL     1     182.552 -25.368  36.757  1.00  0.00    -0.028 C 
BRANCH   5   6
ATOM      6  C   UNL     1     182.994 -25.852  38.126  1.00  0.00     0.005 C 
ATOM      7  C   UNL     1     183.199 -24.726  39.146  1.00  0.00     0.012 C 
ATOM      8  C   UNL     1     182.104 -26.979  38.667  1.00  0.00     0.012 C 
ENDBRANCH   5   6
ENDBRANCH   3   4
ENDBRANCH   2   3
ENDBRANCH   1   2
BRANCH   1   9
ATOM      9  C   UNL     1     183.623 -25.598  31.812  1.00  0.00     0.100 C 
BRANCH   9  10
ATOM     10  C   UNL     1     183.642 -24.144  32.185  1.00  0.00     0.220 C 
ATOM     11  O   UNL     1     182.558 -23.501  32.218  1.00  0.00    -0.275 OA
ATOM     12  N   UNL     1     184.884 -23.485  32.465  1.00  0.00    -0.352 N 
ATOM     13  H   UNL     1     185.776 -24.025  32.395  1.00  0.00     0.163 HD
BRANCH  12  14
ATOM     14  C   UNL     1     184.957 -22.073  32.832  1.00  0.00     0.151 C 
BRANCH  14  15
ATOM     15  C   UNL     1     184.722 -21.906  34.308  1.00  0.00    -0.025 A 
ATOM     16  C   UNL     1     183.798 -20.954  34.768  1.00  0.00     0.056 A 
ATOM     17  C   UNL     1     185.439 -22.675  35.236  1.00  0.00     0.009 A 
ATOM     18  C   UNL     1     183.583 -20.773  36.149  1.00  0.00     0.160 A 
ATOM     19  C   UNL     1     185.230 -22.501  36.605  1.00  0.00     0.050 A 
ATOM     20  C   UNL     1     184.304 -21.553  37.064  1.00  0.00     0.157 A 
BRANCH  18  21
ATOM     21  O   UNL     1     182.669 -19.832  36.646  1.00  0.00    -0.493 OA
ATOM     22  C   UNL     1     182.034 -18.830  35.858  1.00  0.00     0.278 C 
ENDBRANCH  18  21
BRANCH  20  23
ATOM     23  O   UNL     1     184.097 -21.380  38.431  1.00  0.00    -0.504 OA
ATOM     24  H   UNL     1     184.036 -22.170  39.063  1.00  0.00     0.293 HD
ENDBRANCH  20  23
ENDBRANCH  14  15
ENDBRANCH  12  14
ENDBRANCH   9  10
ENDBRANCH   1   9
TORSDOF 10
ENDMDL
MODEL 6
REMARK VINA RESULT:    -5.625      3.137      6.050
REMARK INTER + INTRA:         -10.061
REMARK INTER:                  -8.901
REMARK INTRA:                  -1.159
REMARK UNBOUND:                -1.311
REMARK SMILES COc1cc(CNC(=O)CCCCC=CC(C)C)ccc1O
REMARK SMILES IDX 11 1 12 2 13 3 14 4 15 5 16 6 17 7 18 8 10 9 8 10 9 11 7 12
REMARK SMILES IDX 6 14 5 15 4 16 19 17 3 18 20 19 21 20 2 21 1 22 22 23
REMARK H PARENT 7 13 22 24
REMARK Flexibility Score: inf
ROOT
ATOM      1  C   UNL     1     178.577 -28.502  37.339  1.00  0.00     0.010 C 
ENDROOT
BRANCH   1   2
ATOM      2  C   UNL     1     177.897 -29.541  36.424  1.00  0.00     0.005 C 
BRANCH   2   3
ATOM      3  C   UNL     1     178.847 -30.246  35.440  1.00  0.00     0.027 C 
BRANCH   3   4
ATOM      4  C   UNL     1     178.507 -29.934  34.004  1.00  0.00    -0.031 C 
ATOM      5  C   UNL     1     178.823 -28.814  33.320  1.00  0.00    -0.028 C 
BRANCH   5   6
ATOM      6  C   UNL     1     179.669 -27.639  33.776  1.00  0.00     0.005 C 
ATOM      7  C   UNL     1     180.870 -27.349  32.867  1.00  0.00     0.012 C 
ATOM      8  C   UNL     1     178.831 -26.385  34.059  1.00  0.00     0.012 C 
ENDBRANCH   5   6
ENDBRANCH   3   4
ENDBRANCH   2   3
ENDBRANCH   1   2
BRANCH   1   9
ATOM      9  C   UNL     1     179.899 -28.974  37.966  1.00  0.00     0.100 C 
BRANCH   9  10
ATOM     10  C   UNL     1     180.339 -28.079  39.088  1.00  0.00     0.220 C 
ATOM     11  O   UNL     1     179.480 -27.636  39.898  1.00  0.00    -0.275 OA
ATOM     12  N   UNL     1     181.716 -27.701  39.216  1.00  0.00    -0.352 N 
ATOM     13  H   UNL     1     182.407 -28.047  38.512  1.00  0.00     0.163 HD
BRANCH  12  14
ATOM     14  C   UNL     1     182.196 -26.833  40.288  1.00  0.00     0.151 C 
BRANCH  14  15
ATOM     15  C   UNL     1     182.566 -25.483  39.738  1.00  0.00    -0.025 A 
ATOM     16  C   UNL     1     183.023 -25.365  38.416  1.00  0.00     0.056 A 
ATOM     17  C   UNL     1     182.487 -24.338  40.544  1.00  0.00     0.009 A 
ATOM     18  C   UNL     1     183.393 -24.110  37.895  1.00  0.00     0.160 A 
ATOM     19  C   UNL     1     182.851 -23.091  40.034  1.00  0.00     0.050 A 
ATOM     20  C   UNL     1     183.304 -22.974  38.712  1.00  0.00     0.157 A 
BRANCH  18  21
ATOM     21  O   UNL     1     183.854 -23.953  36.579  1.00  0.00    -0.493 OA
ATOM     22  C   UNL     1     184.584 -24.940  35.857  1.00  0.00     0.278 C 
ENDBRANCH  18  21
BRANCH  20  23
ATOM     23  O   UNL     1     183.668 -21.729  38.203  1.00  0.00    -0.504 OA
ATOM     24  H   UNL     1     183.701 -21.551  37.206  1.00  0.00     0.293 HD
ENDBRANCH  20  23
ENDBRANCH  14  15
ENDBRANCH  12  14
ENDBRANCH   9  10
ENDBRANCH   1   9
TORSDOF 10
ENDMDL
MODEL 7
REMARK VINA RESULT:    -5.596     11.500     14.453
REMARK INTER + INTRA:         -10.014
REMARK INTER:                  -8.621
REMARK INTRA:                  -1.393
REMARK UNBOUND:                -1.311
REMARK SMILES COc1cc(CNC(=O)CCCCC=CC(C)C)ccc1O
REMARK SMILES IDX 11 1 12 2 13 3 14 4 15 5 16 6 17 7 18 8 10 9 8 10 9 11 7 12
REMARK SMILES IDX 6 14 5 15 4 16 19 17 3 18 20 19 21 20 2 21 1 22 22 23
REMARK H PARENT 7 13 22 24
REMARK Flexibility Score: inf
ROOT
ATOM      1  C   UNL     1     182.474 -21.323  24.127  1.00  0.00     0.010 C 
ENDROOT
BRANCH   1   2
ATOM      2  C   UNL     1     181.375 -22.341  23.758  1.00  0.00     0.005 C 
BRANCH   2   3
ATOM      3  C   UNL     1     180.435 -22.716  24.917  1.00  0.00     0.027 C 
BRANCH   3   4
ATOM      4  C   UNL     1     179.174 -21.887  24.912  1.00  0.00    -0.031 C 
ATOM      5  C   UNL     1     178.930 -20.776  25.639  1.00  0.00    -0.028 C 
BRANCH   5   6
ATOM      6  C   UNL     1     179.875 -20.028  26.562  1.00  0.00     0.005 C 
ATOM      7  C   UNL     1     179.821 -18.504  26.402  1.00  0.00     0.012 C 
ATOM      8  C   UNL     1     179.741 -20.470  28.025  1.00  0.00     0.012 C 
ENDBRANCH   5   6
ENDBRANCH   3   4
ENDBRANCH   2   3
ENDBRANCH   1   2
BRANCH   1   9
ATOM      9  C   UNL     1     182.147 -19.869  23.751  1.00  0.00     0.100 C 
BRANCH   9  10
ATOM     10  C   UNL     1     183.275 -18.936  24.083  1.00  0.00     0.220 C 
ATOM     11  O   UNL     1     184.425 -19.407  24.295  1.00  0.00    -0.275 OA
ATOM     12  N   UNL     1     183.038 -17.526  24.196  1.00  0.00    -0.352 N 
ATOM     13  H   UNL     1     182.070 -17.158  24.055  1.00  0.00     0.163 HD
BRANCH  12  14
ATOM     14  C   UNL     1     184.100 -16.576  24.517  1.00  0.00     0.151 C 
BRANCH  14  15
ATOM     15  C   UNL     1     183.575 -15.495  25.422  1.00  0.00    -0.025 A 
ATOM     16  C   UNL     1     182.275 -15.588  25.944  1.00  0.00     0.056 A 
ATOM     17  C   UNL     1     184.362 -14.376  25.728  1.00  0.00     0.009 A 
ATOM     18  C   UNL     1     181.763 -14.572  26.776  1.00  0.00     0.160 A 
ATOM     19  C   UNL     1     183.861 -13.367  26.552  1.00  0.00     0.050 A 
ATOM     20  C   UNL     1     182.564 -13.462  27.076  1.00  0.00     0.157 A 
BRANCH  18  21
ATOM     21  O   UNL     1     180.469 -14.630  27.316  1.00  0.00    -0.493 OA
ATOM     22  C   UNL     1     179.274 -14.418  26.571  1.00  0.00     0.278 C 
ENDBRANCH  18  21
BRANCH  20  23
ATOM     23  O   UNL     1     182.065 -12.454  27.898  1.00  0.00    -0.504 OA
ATOM     24  H   UNL     1     181.997 -12.572  28.902  1.00  0.00     0.293 HD
ENDBRANCH  20  23
ENDBRANCH  14  15
ENDBRANCH  12  14
ENDBRANCH   9  10
ENDBRANCH   1   9
TORSDOF 10
ENDMDL
MODEL 8
REMARK VINA RESULT:    -5.561      2.067      2.937
REMARK INTER + INTRA:          -9.961
REMARK INTER:                  -8.181
REMARK INTRA:                  -1.779
REMARK UNBOUND:                -1.311
REMARK SMILES COc1cc(CNC(=O)CCCCC=CC(C)C)ccc1O
REMARK SMILES IDX 11 1 12 2 13 3 14 4 15 5 16 6 17 7 18 8 10 9 8 10 9 11 7 12
REMARK SMILES IDX 6 14 5 15 4 16 19 17 3 18 20 19 21 20 2 21 1 22 22 23
REMARK H PARENT 7 13 22 24
REMARK Flexibility Score: inf
ROOT
ATOM      1  C   UNL     1     183.247 -21.066  38.331  1.00  0.00     0.010 C 
ENDROOT
BRANCH   1   2
ATOM      2  C   UNL     1     182.724 -21.602  39.679  1.00  0.00     0.005 C 
BRANCH   2   3
ATOM      3  C   UNL     1     183.441 -22.864  40.188  1.00  0.00     0.027 C 
BRANCH   3   4
ATOM      4  C   UNL     1     182.483 -24.009  40.407  1.00  0.00    -0.031 C 
ATOM      5  C   UNL     1     182.067 -24.908  39.489  1.00  0.00    -0.028 C 
BRANCH   5   6
ATOM      6  C   UNL     1     182.519 -25.058  38.047  1.00  0.00     0.005 C 
ATOM      7  C   UNL     1     182.917 -26.489  37.668  1.00  0.00     0.012 C 
ATOM      8  C   UNL     1     181.525 -24.442  37.053  1.00  0.00     0.012 C 
ENDBRANCH   5   6
ENDBRANCH   3   4
ENDBRANCH   2   3
ENDBRANCH   1   2
BRANCH   1   9
ATOM      9  C   UNL     1     184.304 -21.957  37.658  1.00  0.00     0.100 C 
BRANCH   9  10
ATOM     10  C   UNL     1     184.164 -21.963  36.164  1.00  0.00     0.220 C 
ATOM     11  O   UNL     1     183.279 -21.246  35.623  1.00  0.00    -0.275 OA
ATOM     12  N   UNL     1     185.005 -22.803  35.361  1.00  0.00    -0.352 N 
ATOM     13  H   UNL     1     185.707 -23.420  35.831  1.00  0.00     0.163 HD
BRANCH  12  14
ATOM     14  C   UNL     1     184.909 -22.846  33.905  1.00  0.00     0.151 C 
BRANCH  14  15
ATOM     15  C   UNL     1     184.174 -24.084  33.468  1.00  0.00    -0.025 A 
ATOM     16  C   UNL     1     183.634 -24.159  32.174  1.00  0.00     0.056 A 
ATOM     17  C   UNL     1     183.997 -25.158  34.352  1.00  0.00     0.009 A 
ATOM     18  C   UNL     1     182.926 -25.304  31.759  1.00  0.00     0.160 A 
ATOM     19  C   UNL     1     183.296 -26.295  33.946  1.00  0.00     0.050 A 
ATOM     20  C   UNL     1     182.761 -26.371  32.653  1.00  0.00     0.157 A 
BRANCH  18  21
ATOM     21  O   UNL     1     182.372 -25.416  30.474  1.00  0.00    -0.493 OA
ATOM     22  C   UNL     1     181.872 -24.320  29.714  1.00  0.00     0.278 C 
ENDBRANCH  18  21
BRANCH  20  23
ATOM     23  O   UNL     1     182.062 -27.507  32.250  1.00  0.00    -0.504 OA
ATOM     24  H   UNL     1     182.134 -28.383  32.754  1.00  0.00     0.293 HD
ENDBRANCH  20  23
ENDBRANCH  14  15
ENDBRANCH  12  14
ENDBRANCH   9  10
ENDBRANCH   1   9
TORSDOF 10
ENDMDL
MODEL 9
REMARK VINA RESULT:    -5.453     12.184     15.336
REMARK INTER + INTRA:          -9.793
REMARK INTER:                  -8.649
REMARK INTRA:                  -1.144
REMARK UNBOUND:                -1.311
REMARK SMILES COc1cc(CNC(=O)CCCCC=CC(C)C)ccc1O
REMARK SMILES IDX 11 1 12 2 13 3 14 4 15 5 16 6 17 7 18 8 10 9 8 10 9 11 7 12
REMARK SMILES IDX 6 14 5 15 4 16 19 17 3 18 20 19 21 20 2 21 1 22 22 23
REMARK H PARENT 7 13 22 24
REMARK Flexibility Score: inf
ROOT
ATOM      1  C   UNL     1     183.380 -19.376  24.804  1.00  0.00     0.010 C 
ENDROOT
BRANCH   1   2
ATOM      2  C   UNL     1     183.630 -20.263  23.566  1.00  0.00     0.005 C 
BRANCH   2   3
ATOM      3  C   UNL     1     182.380 -20.536  22.711  1.00  0.00     0.027 C 
BRANCH   3   4
ATOM      4  C   UNL     1     182.033 -22.003  22.669  1.00  0.00    -0.031 C 
ATOM      5  C   UNL     1     181.341 -22.701  23.595  1.00  0.00    -0.028 C 
BRANCH   5   6
ATOM      6  C   UNL     1     180.659 -22.183  24.849  1.00  0.00     0.005 C 
ATOM      7  C   UNL     1     179.154 -22.472  24.901  1.00  0.00     0.012 C 
ATOM      8  C   UNL     1     181.384 -22.610  26.131  1.00  0.00     0.012 C 
ENDBRANCH   5   6
ENDBRANCH   3   4
ENDBRANCH   2   3
ENDBRANCH   1   2
BRANCH   1   9
ATOM      9  C   UNL     1     182.212 -18.389  24.654  1.00  0.00     0.100 C 
BRANCH   9  10
ATOM     10  C   UNL     1     182.599 -16.996  25.057  1.00  0.00     0.220 C 
ATOM     11  O   UNL     1     181.700 -16.178  25.393  1.00  0.00    -0.275 OA
ATOM     12  N   UNL     1     183.973 -16.588  25.022  1.00  0.00    -0.352 N 
ATOM     13  H   UNL     1     184.699 -17.269  24.703  1.00  0.00     0.163 HD
BRANCH  12  14
ATOM     14  C   UNL     1     184.403 -15.245  25.403  1.00  0.00     0.151 C 
BRANCH  14  15
ATOM     15  C   UNL     1     185.628 -14.850  24.625  1.00  0.00    -0.025 A 
ATOM     16  C   UNL     1     186.044 -15.625  23.531  1.00  0.00     0.056 A 
ATOM     17  C   UNL     1     186.379 -13.726  24.998  1.00  0.00     0.009 A 
ATOM     18  C   UNL     1     187.201 -15.279  22.805  1.00  0.00     0.160 A 
ATOM     19  C   UNL     1     187.526 -13.378  24.284  1.00  0.00     0.050 A 
ATOM     20  C   UNL     1     187.939 -14.150  23.189  1.00  0.00     0.157 A 
BRANCH  18  21
ATOM     21  O   UNL     1     187.647 -16.029  21.707  1.00  0.00    -0.493 OA
ATOM     22  C   UNL     1     187.313 -17.393  21.473  1.00  0.00     0.278 C 
ENDBRANCH  18  21
BRANCH  20  23
ATOM     23  O   UNL     1     189.084 -13.801  22.476  1.00  0.00    -0.504 OA
ATOM     24  H   UNL     1     189.542 -14.455  21.852  1.00  0.00     0.293 HD
ENDBRANCH  20  23
ENDBRANCH  14  15
ENDBRANCH  12  14
ENDBRANCH   9  10
ENDBRANCH   1   9
TORSDOF 10
ENDMDL
