MODEL 1
REMARK VINA RESULT:    -7.598      0.000      0.000
REMARK INTER + INTRA:          -9.154
REMARK INTER:                  -8.931
REMARK INTRA:                  -0.224
REMARK UNBOUND:                -0.224
REMARK SMILES O=c1c(O)c(-c2ccc(O)cc2)oc2cc(O)cc(O)c12
REMARK SMILES IDX 5 1 3 2 2 3 1 4 21 5 19 6 18 7 16 8 15 9 14 10 13 11 6 12
REMARK SMILES IDX 7 13 8 14 9 15 12 16 11 17 10 18 4 20 20 22 17 24
REMARK H PARENT 10 19 4 21 20 23 17 25
REMARK Flexibility Score: inf
ROOT
ATOM      1  C   UNL     1     -11.197 -66.171 -32.802  1.00  0.00     0.180 A 
ATOM      2  C   UNL     1     -10.556 -66.883 -31.770  1.00  0.00     0.208 A 
ATOM      3  C   UNL     1      -9.179 -66.697 -31.570  1.00  0.00     0.238 A 
ATOM      4  O   UNL     1      -8.596 -67.320 -30.641  1.00  0.00    -0.285 OA
ATOM      5  C   UNL     1      -8.464 -65.823 -32.415  1.00  0.00     0.111 A 
ATOM      6  C   UNL     1      -7.075 -65.583 -32.285  1.00  0.00     0.134 A 
ATOM      7  C   UNL     1      -6.434 -64.705 -33.172  1.00  0.00     0.093 A 
ATOM      8  C   UNL     1      -7.152 -64.065 -34.185  1.00  0.00     0.123 A 
ATOM      9  C   UNL     1      -8.524 -64.298 -34.318  1.00  0.00     0.094 A 
ATOM     10  C   UNL     1      -9.182 -65.168 -33.443  1.00  0.00     0.146 A 
ATOM     11  O   UNL     1     -10.487 -65.367 -33.589  1.00  0.00    -0.452 OA
ENDROOT
BRANCH   1  12
ATOM     12  C   UNL     1     -12.648 -66.299 -33.063  1.00  0.00     0.021 A 
ATOM     13  C   UNL     1     -13.602 -65.746 -32.189  1.00  0.00     0.016 A 
ATOM     14  C   UNL     1     -14.967 -65.858 -32.469  1.00  0.00     0.047 A 
ATOM     15  C   UNL     1     -15.397 -66.511 -33.628  1.00  0.00     0.115 A 
ATOM     16  C   UNL     1     -13.086 -66.936 -34.236  1.00  0.00     0.016 A 
ATOM     17  C   UNL     1     -14.452 -67.047 -34.513  1.00  0.00     0.047 A 
BRANCH  15  18
ATOM     18  O   UNL     1     -16.760 -66.617 -33.894  1.00  0.00    -0.508 OA
ATOM     19  H   UNL     1     -17.279 -67.458 -33.671  1.00  0.00     0.293 HD
ENDBRANCH  15  18
ENDBRANCH   1  12
BRANCH   2  20
ATOM     20  O   UNL     1     -11.277 -67.780 -30.978  1.00  0.00    -0.502 OA
ATOM     21  H   UNL     1     -11.017 -68.755 -30.888  1.00  0.00     0.293 HD
ENDBRANCH   2  20
BRANCH   6  22
ATOM     22  O   UNL     1      -6.329 -66.207 -31.284  1.00  0.00    -0.507 OA
ATOM     23  H   UNL     1      -5.485 -65.789 -30.909  1.00  0.00     0.293 HD
ENDBRANCH   6  22
BRANCH   8  24
ATOM     24  O   UNL     1      -6.491 -63.199 -35.052  1.00  0.00    -0.508 OA
ATOM     25  H   UNL     1      -6.943 -62.837 -35.885  1.00  0.00     0.293 HD
ENDBRANCH   8  24
TORSDOF 5
ENDMDL
MODEL 2
REMARK VINA RESULT:    -7.319      1.626      3.624
REMARK INTER + INTRA:          -8.826
REMARK INTER:                  -8.631
REMARK INTRA:                  -0.195
REMARK UNBOUND:                -0.224
REMARK SMILES O=c1c(O)c(-c2ccc(O)cc2)oc2cc(O)cc(O)c12
REMARK SMILES IDX 5 1 3 2 2 3 1 4 21 5 19 6 18 7 16 8 15 9 14 10 13 11 6 12
REMARK SMILES IDX 7 13 8 14 9 15 12 16 11 17 10 18 4 20 20 22 17 24
REMARK H PARENT 10 19 4 21 20 23 17 25
REMARK Flexibility Score: inf
ROOT
ATOM      1  C   UNL     1     -11.004 -66.573 -33.271  1.00  0.00     0.180 A 
ATOM      2  C   UNL     1     -10.041 -65.647 -33.715  1.00  0.00     0.208 A 
ATOM      3  C   UNL     1      -8.871 -65.470 -32.961  1.00  0.00     0.238 A 
ATOM      4  O   UNL     1      -7.996 -64.651 -33.355  1.00  0.00    -0.285 OA
ATOM      5  C   UNL     1      -8.692 -66.202 -31.769  1.00  0.00     0.111 A 
ATOM      6  C   UNL     1      -7.545 -66.079 -30.949  1.00  0.00     0.134 A 
ATOM      7  C   UNL     1      -7.446 -66.837 -29.772  1.00  0.00     0.093 A 
ATOM      8  C   UNL     1      -8.469 -67.712 -29.400  1.00  0.00     0.123 A 
ATOM      9  C   UNL     1      -9.605 -67.837 -30.206  1.00  0.00     0.094 A 
ATOM     10  C   UNL     1      -9.722 -67.092 -31.384  1.00  0.00     0.146 A 
ATOM     11  O   UNL     1     -10.809 -67.235 -32.134  1.00  0.00    -0.452 OA
ENDROOT
BRANCH   1  12
ATOM     12  C   UNL     1     -12.254 -66.830 -34.021  1.00  0.00     0.021 A 
ATOM     13  C   UNL     1     -12.240 -67.471 -35.274  1.00  0.00     0.016 A 
ATOM     14  C   UNL     1     -13.436 -67.725 -35.951  1.00  0.00     0.047 A 
ATOM     15  C   UNL     1     -14.660 -67.355 -35.385  1.00  0.00     0.115 A 
ATOM     16  C   UNL     1     -13.489 -66.480 -33.448  1.00  0.00     0.016 A 
ATOM     17  C   UNL     1     -14.682 -66.734 -34.129  1.00  0.00     0.047 A 
BRANCH  15  18
ATOM     18  O   UNL     1     -15.843 -67.612 -36.073  1.00  0.00    -0.508 OA
ATOM     19  H   UNL     1     -16.712 -67.790 -35.583  1.00  0.00     0.293 HD
ENDBRANCH  15  18
ENDBRANCH   1  12
BRANCH   2  20
ATOM     20  O   UNL     1     -10.264 -64.898 -34.873  1.00  0.00    -0.502 OA
ATOM     21  H   UNL     1      -9.760 -65.068 -35.735  1.00  0.00     0.293 HD
ENDBRANCH   2  20
BRANCH   6  22
ATOM     22  O   UNL     1      -6.505 -65.214 -31.293  1.00  0.00    -0.507 OA
ATOM     23  H   UNL     1      -5.587 -65.558 -31.547  1.00  0.00     0.293 HD
ENDBRANCH   6  22
BRANCH   8  24
ATOM     24  O   UNL     1      -8.347 -68.451 -28.226  1.00  0.00    -0.508 OA
ATOM     25  H   UNL     1      -7.937 -69.378 -28.225  1.00  0.00     0.293 HD
ENDBRANCH   8  24
TORSDOF 5
ENDMDL
MODEL 3
REMARK VINA RESULT:    -7.201      3.677      6.553
REMARK INTER + INTRA:          -8.688
REMARK INTER:                  -8.633
REMARK INTRA:                  -0.055
REMARK UNBOUND:                -0.224
REMARK SMILES O=c1c(O)c(-c2ccc(O)cc2)oc2cc(O)cc(O)c12
REMARK SMILES IDX 5 1 3 2 2 3 1 4 21 5 19 6 18 7 16 8 15 9 14 10 13 11 6 12
REMARK SMILES IDX 7 13 8 14 9 15 12 16 11 17 10 18 4 20 20 22 17 24
REMARK H PARENT 10 19 4 21 20 23 17 25
REMARK Flexibility Score: inf
ROOT
ATOM      1  C   UNL     1      -7.055 -65.424 -32.131  1.00  0.00     0.180 A 
ATOM      2  C   UNL     1      -6.167 -65.217 -31.058  1.00  0.00     0.208 A 
ATOM      3  C   UNL     1      -6.416 -65.859 -29.836  1.00  0.00     0.238 A 
ATOM      4  O   UNL     1      -5.621 -65.690 -28.871  1.00  0.00    -0.285 OA
ATOM      5  C   UNL     1      -7.555 -66.679 -29.699  1.00  0.00     0.111 A 
ATOM      6  C   UNL     1      -7.882 -67.358 -28.500  1.00  0.00     0.134 A 
ATOM      7  C   UNL     1      -9.040 -68.148 -28.441  1.00  0.00     0.093 A 
ATOM      8  C   UNL     1      -9.876 -68.271 -29.553  1.00  0.00     0.123 A 
ATOM      9  C   UNL     1      -9.559 -67.602 -30.739  1.00  0.00     0.094 A 
ATOM     10  C   UNL     1      -8.408 -66.811 -30.819  1.00  0.00     0.146 A 
ATOM     11  O   UNL     1      -8.128 -66.192 -31.960  1.00  0.00    -0.452 OA
ENDROOT
BRANCH   1  12
ATOM     12  C   UNL     1      -6.850 -64.797 -33.456  1.00  0.00     0.021 A 
ATOM     13  C   UNL     1      -5.647 -64.963 -34.168  1.00  0.00     0.016 A 
ATOM     14  C   UNL     1      -5.486 -64.382 -35.429  1.00  0.00     0.047 A 
ATOM     15  C   UNL     1      -6.524 -63.640 -36.000  1.00  0.00     0.115 A 
ATOM     16  C   UNL     1      -7.896 -64.068 -34.045  1.00  0.00     0.016 A 
ATOM     17  C   UNL     1      -7.731 -63.487 -35.306  1.00  0.00     0.047 A 
BRANCH  15  18
ATOM     18  O   UNL     1      -6.349 -63.065 -37.257  1.00  0.00    -0.508 OA
ATOM     19  H   UNL     1      -5.553 -63.298 -37.839  1.00  0.00     0.293 HD
ENDBRANCH  15  18
ENDBRANCH   1  12
BRANCH   2  20
ATOM     20  O   UNL     1      -5.072 -64.361 -31.204  1.00  0.00    -0.502 OA
ATOM     21  H   UNL     1      -4.131 -64.704 -31.361  1.00  0.00     0.293 HD
ENDBRANCH   2  20
BRANCH   6  22
ATOM     22  O   UNL     1      -7.067 -67.255 -27.371  1.00  0.00    -0.507 OA
ATOM     23  H   UNL     1      -7.456 -67.163 -26.440  1.00  0.00     0.293 HD
ENDBRANCH   6  22
BRANCH   8  24
ATOM     24  O   UNL     1     -11.020 -69.060 -29.467  1.00  0.00    -0.508 OA
ATOM     25  H   UNL     1     -11.308 -69.482 -28.591  1.00  0.00     0.293 HD
ENDBRANCH   8  24
TORSDOF 5
ENDMDL
MODEL 4
REMARK VINA RESULT:    -6.986      1.561      1.949
REMARK INTER + INTRA:          -8.435
REMARK INTER:                  -8.288
REMARK INTRA:                  -0.147
REMARK UNBOUND:                -0.224
REMARK SMILES O=c1c(O)c(-c2ccc(O)cc2)oc2cc(O)cc(O)c12
REMARK SMILES IDX 5 1 3 2 2 3 1 4 21 5 19 6 18 7 16 8 15 9 14 10 13 11 6 12
REMARK SMILES IDX 7 13 8 14 9 15 12 16 11 17 10 18 4 20 20 22 17 24
REMARK H PARENT 10 19 4 21 20 23 17 25
REMARK Flexibility Score: inf
ROOT
ATOM      1  C   UNL     1     -10.144 -66.663 -32.191  1.00  0.00     0.180 A 
ATOM      2  C   UNL     1     -10.001 -67.283 -30.934  1.00  0.00     0.208 A 
ATOM      3  C   UNL     1      -8.786 -67.149 -30.245  1.00  0.00     0.238 A 
ATOM      4  O   UNL     1      -8.650 -67.691 -29.114  1.00  0.00    -0.285 OA
ATOM      5  C   UNL     1      -7.730 -66.420 -30.829  1.00  0.00     0.111 A 
ATOM      6  C   UNL     1      -6.472 -66.242 -30.204  1.00  0.00     0.134 A 
ATOM      7  C   UNL     1      -5.469 -65.509 -30.856  1.00  0.00     0.093 A 
ATOM      8  C   UNL     1      -5.696 -64.954 -32.117  1.00  0.00     0.123 A 
ATOM      9  C   UNL     1      -6.937 -65.127 -32.740  1.00  0.00     0.094 A 
ATOM     10  C   UNL     1      -7.951 -65.852 -32.106  1.00  0.00     0.146 A 
ATOM     11  O   UNL     1      -9.121 -65.996 -32.718  1.00  0.00    -0.452 OA
ENDROOT
BRANCH   1  12
ATOM     12  C   UNL     1     -11.400 -66.743 -32.969  1.00  0.00     0.021 A 
ATOM     13  C   UNL     1     -12.599 -66.186 -32.486  1.00  0.00     0.016 A 
ATOM     14  C   UNL     1     -13.767 -66.252 -33.251  1.00  0.00     0.047 A 
ATOM     15  C   UNL     1     -13.753 -66.860 -34.510  1.00  0.00     0.115 A 
ATOM     16  C   UNL     1     -11.388 -67.334 -34.244  1.00  0.00     0.016 A 
ATOM     17  C   UNL     1     -12.558 -67.399 -35.005  1.00  0.00     0.047 A 
BRANCH  15  18
ATOM     18  O   UNL     1     -14.925 -66.919 -35.259  1.00  0.00    -0.508 OA
ATOM     19  H   UNL     1     -15.105 -66.266 -36.014  1.00  0.00     0.293 HD
ENDBRANCH  15  18
ENDBRANCH   1  12
BRANCH   2  20
ATOM     20  O   UNL     1     -11.045 -68.042 -30.399  1.00  0.00    -0.502 OA
ATOM     21  H   UNL     1     -11.053 -68.350 -29.434  1.00  0.00     0.293 HD
ENDBRANCH   2  20
BRANCH   6  22
ATOM     22  O   UNL     1      -6.213 -66.784 -28.945  1.00  0.00    -0.507 OA
ATOM     23  H   UNL     1      -5.273 -66.833 -28.569  1.00  0.00     0.293 HD
ENDBRANCH   6  22
BRANCH   8  24
ATOM     24  O   UNL     1      -4.683 -64.232 -32.743  1.00  0.00    -0.508 OA
ATOM     25  H   UNL     1      -3.959 -64.694 -33.281  1.00  0.00     0.293 HD
ENDBRANCH   8  24
TORSDOF 5
ENDMDL
MODEL 5
REMARK VINA RESULT:    -6.930      3.927      7.015
REMARK INTER + INTRA:          -8.369
REMARK INTER:                  -8.337
REMARK INTRA:                  -0.032
REMARK UNBOUND:                -0.224
REMARK SMILES O=c1c(O)c(-c2ccc(O)cc2)oc2cc(O)cc(O)c12
REMARK SMILES IDX 5 1 3 2 2 3 1 4 21 5 19 6 18 7 16 8 15 9 14 10 13 11 6 12
REMARK SMILES IDX 7 13 8 14 9 15 12 16 11 17 10 18 4 20 20 22 17 24
REMARK H PARENT 10 19 4 21 20 23 17 25
REMARK Flexibility Score: inf
ROOT
ATOM      1  C   UNL     1      -7.963 -66.608 -30.362  1.00  0.00     0.180 A 
ATOM      2  C   UNL     1      -9.004 -67.552 -30.449  1.00  0.00     0.208 A 
ATOM      3  C   UNL     1      -9.501 -68.125 -29.268  1.00  0.00     0.238 A 
ATOM      4  O   UNL     1     -10.441 -68.964 -29.332  1.00  0.00    -0.285 OA
ATOM      5  C   UNL     1      -8.939 -67.763 -28.027  1.00  0.00     0.111 A 
ATOM      6  C   UNL     1      -9.378 -68.297 -26.791  1.00  0.00     0.134 A 
ATOM      7  C   UNL     1      -8.759 -67.893 -25.599  1.00  0.00     0.093 A 
ATOM      8  C   UNL     1      -7.713 -66.968 -25.617  1.00  0.00     0.123 A 
ATOM      9  C   UNL     1      -7.275 -66.437 -26.834  1.00  0.00     0.094 A 
ATOM     10  C   UNL     1      -7.879 -66.826 -28.034  1.00  0.00     0.146 A 
ATOM     11  O   UNL     1      -7.447 -66.302 -29.175  1.00  0.00    -0.452 OA
ENDROOT
BRANCH   1  12
ATOM     12  C   UNL     1      -7.399 -65.946 -31.559  1.00  0.00     0.021 A 
ATOM     13  C   UNL     1      -8.222 -65.274 -32.483  1.00  0.00     0.016 A 
ATOM     14  C   UNL     1      -7.663 -64.635 -33.593  1.00  0.00     0.047 A 
ATOM     15  C   UNL     1      -6.280 -64.646 -33.790  1.00  0.00     0.115 A 
ATOM     16  C   UNL     1      -6.008 -65.935 -31.753  1.00  0.00     0.016 A 
ATOM     17  C   UNL     1      -5.452 -65.296 -32.865  1.00  0.00     0.047 A 
BRANCH  15  18
ATOM     18  O   UNL     1      -5.737 -64.006 -34.903  1.00  0.00    -0.508 OA
ATOM     19  H   UNL     1      -4.774 -64.155 -35.182  1.00  0.00     0.293 HD
ENDBRANCH  15  18
ENDBRANCH   1  12
BRANCH   2  20
ATOM     20  O   UNL     1      -9.511 -67.931 -31.694  1.00  0.00    -0.502 OA
ATOM     21  H   UNL     1     -10.030 -67.294 -32.286  1.00  0.00     0.293 HD
ENDBRANCH   2  20
BRANCH   6  22
ATOM     22  O   UNL     1     -10.421 -69.224 -26.739  1.00  0.00    -0.507 OA
ATOM     23  H   UNL     1     -11.285 -69.026 -26.248  1.00  0.00     0.293 HD
ENDBRANCH   6  22
BRANCH   8  24
ATOM     24  O   UNL     1      -7.116 -66.584 -24.419  1.00  0.00    -0.508 OA
ATOM     25  H   UNL     1      -6.342 -65.930 -24.399  1.00  0.00     0.293 HD
ENDBRANCH   8  24
TORSDOF 5
ENDMDL
MODEL 6
REMARK VINA RESULT:    -6.738      4.383      8.739
REMARK INTER + INTRA:          -8.144
REMARK INTER:                  -7.896
REMARK INTRA:                  -0.248
REMARK UNBOUND:                -0.224
REMARK SMILES O=c1c(O)c(-c2ccc(O)cc2)oc2cc(O)cc(O)c12
REMARK SMILES IDX 5 1 3 2 2 3 1 4 21 5 19 6 18 7 16 8 15 9 14 10 13 11 6 12
REMARK SMILES IDX 7 13 8 14 9 15 12 16 11 17 10 18 4 20 20 22 17 24
REMARK H PARENT 10 19 4 21 20 23 17 25
REMARK Flexibility Score: inf
ROOT
ATOM      1  C   UNL     1      -5.206 -63.988 -36.391  1.00  0.00     0.180 A 
ATOM      2  C   UNL     1      -6.551 -63.613 -36.568  1.00  0.00     0.208 A 
ATOM      3  C   UNL     1      -7.456 -63.811 -35.513  1.00  0.00     0.238 A 
ATOM      4  O   UNL     1      -8.661 -63.468 -35.656  1.00  0.00    -0.285 OA
ATOM      5  C   UNL     1      -7.008 -64.396 -34.312  1.00  0.00     0.111 A 
ATOM      6  C   UNL     1      -7.855 -64.635 -33.203  1.00  0.00     0.134 A 
ATOM      7  C   UNL     1      -7.334 -65.231 -32.045  1.00  0.00     0.093 A 
ATOM      8  C   UNL     1      -5.988 -65.595 -31.974  1.00  0.00     0.123 A 
ATOM      9  C   UNL     1      -5.146 -65.362 -33.066  1.00  0.00     0.094 A 
ATOM     10  C   UNL     1      -5.645 -64.767 -34.229  1.00  0.00     0.146 A 
ATOM     11  O   UNL     1      -4.822 -64.552 -35.249  1.00  0.00    -0.452 OA
ENDROOT
BRANCH   1  12
ATOM     12  C   UNL     1      -4.189 -63.794 -37.449  1.00  0.00     0.021 A 
ATOM     13  C   UNL     1      -3.243 -62.755 -37.376  1.00  0.00     0.016 A 
ATOM     14  C   UNL     1      -2.276 -62.607 -38.375  1.00  0.00     0.047 A 
ATOM     15  C   UNL     1      -2.232 -63.499 -39.450  1.00  0.00     0.115 A 
ATOM     16  C   UNL     1      -4.126 -64.699 -38.522  1.00  0.00     0.016 A 
ATOM     17  C   UNL     1      -3.159 -64.548 -39.520  1.00  0.00     0.047 A 
BRANCH  15  18
ATOM     18  O   UNL     1      -1.264 -63.338 -40.439  1.00  0.00    -0.508 OA
ATOM     19  H   UNL     1      -1.046 -62.426 -40.823  1.00  0.00     0.293 HD
ENDBRANCH  15  18
ENDBRANCH   1  12
BRANCH   2  20
ATOM     20  O   UNL     1      -6.981 -63.080 -37.786  1.00  0.00    -0.502 OA
ATOM     21  H   UNL     1      -7.761 -62.437 -37.853  1.00  0.00     0.293 HD
ENDBRANCH   2  20
BRANCH   6  22
ATOM     22  O   UNL     1      -9.206 -64.284 -33.242  1.00  0.00    -0.507 OA
ATOM     23  H   UNL     1      -9.860 -64.607 -32.540  1.00  0.00     0.293 HD
ENDBRANCH   6  22
BRANCH   8  24
ATOM     24  O   UNL     1      -5.497 -66.186 -30.812  1.00  0.00    -0.508 OA
ATOM     25  H   UNL     1      -5.723 -67.144 -30.570  1.00  0.00     0.293 HD
ENDBRANCH   8  24
TORSDOF 5
ENDMDL
MODEL 7
REMARK VINA RESULT:    -6.712      2.205      6.634
REMARK INTER + INTRA:          -8.113
REMARK INTER:                  -8.015
REMARK INTRA:                  -0.098
REMARK UNBOUND:                -0.224
REMARK SMILES O=c1c(O)c(-c2ccc(O)cc2)oc2cc(O)cc(O)c12
REMARK SMILES IDX 5 1 3 2 2 3 1 4 21 5 19 6 18 7 16 8 15 9 14 10 13 11 6 12
REMARK SMILES IDX 7 13 8 14 9 15 12 16 11 17 10 18 4 20 20 22 17 24
REMARK H PARENT 10 19 4 21 20 23 17 25
REMARK Flexibility Score: inf
ROOT
ATOM      1  C   UNL     1     -11.890 -66.816 -33.357  1.00  0.00     0.180 A 
ATOM      2  C   UNL     1     -13.174 -66.520 -32.860  1.00  0.00     0.208 A 
ATOM      3  C   UNL     1     -14.272 -66.587 -33.732  1.00  0.00     0.238 A 
ATOM      4  O   UNL     1     -15.428 -66.335 -33.296  1.00  0.00    -0.285 OA
ATOM      5  C   UNL     1     -14.067 -66.926 -35.085  1.00  0.00     0.111 A 
ATOM      6  C   UNL     1     -15.118 -67.011 -36.030  1.00  0.00     0.134 A 
ATOM      7  C   UNL     1     -14.831 -67.346 -37.362  1.00  0.00     0.093 A 
ATOM      8  C   UNL     1     -13.518 -67.597 -37.767  1.00  0.00     0.123 A 
ATOM      9  C   UNL     1     -12.476 -67.514 -36.838  1.00  0.00     0.094 A 
ATOM     10  C   UNL     1     -12.741 -67.183 -35.506  1.00  0.00     0.146 A 
ATOM     11  O   UNL     1     -11.733 -67.117 -34.644  1.00  0.00    -0.452 OA
ENDROOT
BRANCH   1  12
ATOM     12  C   UNL     1     -10.687 -66.786 -32.496  1.00  0.00     0.021 A 
ATOM     13  C   UNL     1     -10.583 -67.598 -31.352  1.00  0.00     0.016 A 
ATOM     14  C   UNL     1      -9.426 -67.569 -30.568  1.00  0.00     0.047 A 
ATOM     15  C   UNL     1      -8.355 -66.744 -30.921  1.00  0.00     0.115 A 
ATOM     16  C   UNL     1      -9.599 -65.973 -32.857  1.00  0.00     0.016 A 
ATOM     17  C   UNL     1      -8.443 -65.947 -32.071  1.00  0.00     0.047 A 
BRANCH  15  18
ATOM     18  O   UNL     1      -7.209 -66.725 -30.130  1.00  0.00    -0.508 OA
ATOM     19  H   UNL     1      -6.283 -66.686 -30.540  1.00  0.00     0.293 HD
ENDBRANCH  15  18
ENDBRANCH   1  12
BRANCH   2  20
ATOM     20  O   UNL     1     -13.344 -66.138 -31.527  1.00  0.00    -0.502 OA
ATOM     21  H   UNL     1     -13.397 -66.811 -30.772  1.00  0.00     0.293 HD
ENDBRANCH   2  20
BRANCH   6  22
ATOM     22  O   UNL     1     -16.441 -66.767 -35.658  1.00  0.00    -0.507 OA
ATOM     23  H   UNL     1     -16.726 -65.882 -35.255  1.00  0.00     0.293 HD
ENDBRANCH   6  22
BRANCH   8  24
ATOM     24  O   UNL     1     -13.261 -67.927 -39.095  1.00  0.00    -0.508 OA
ATOM     25  H   UNL     1     -13.008 -68.870 -39.367  1.00  0.00     0.293 HD
ENDBRANCH   8  24
TORSDOF 5
ENDMDL
MODEL 8
REMARK VINA RESULT:    -6.669      4.323      5.982
REMARK INTER + INTRA:          -8.062
REMARK INTER:                  -7.989
REMARK INTRA:                  -0.073
REMARK UNBOUND:                -0.224
REMARK SMILES O=c1c(O)c(-c2ccc(O)cc2)oc2cc(O)cc(O)c12
REMARK SMILES IDX 5 1 3 2 2 3 1 4 21 5 19 6 18 7 16 8 15 9 14 10 13 11 6 12
REMARK SMILES IDX 7 13 8 14 9 15 12 16 11 17 10 18 4 20 20 22 17 24
REMARK H PARENT 10 19 4 21 20 23 17 25
REMARK Flexibility Score: inf
ROOT
ATOM      1  C   UNL     1      -6.717 -65.589 -31.746  1.00  0.00     0.180 A 
ATOM      2  C   UNL     1      -5.373 -65.576 -32.166  1.00  0.00     0.208 A 
ATOM      3  C   UNL     1      -5.061 -65.046 -33.428  1.00  0.00     0.238 A 
ATOM      4  O   UNL     1      -3.859 -65.019 -33.810  1.00  0.00    -0.285 OA
ATOM      5  C   UNL     1      -6.094 -64.559 -34.254  1.00  0.00     0.111 A 
ATOM      6  C   UNL     1      -5.866 -64.013 -35.540  1.00  0.00     0.134 A 
ATOM      7  C   UNL     1      -6.950 -63.558 -36.306  1.00  0.00     0.093 A 
ATOM      8  C   UNL     1      -8.254 -63.638 -35.813  1.00  0.00     0.123 A 
ATOM      9  C   UNL     1      -8.486 -64.176 -34.543  1.00  0.00     0.094 A 
ATOM     10  C   UNL     1      -7.419 -64.634 -33.763  1.00  0.00     0.146 A 
ATOM     11  O   UNL     1      -7.668 -65.135 -32.559  1.00  0.00    -0.452 OA
ENDROOT
BRANCH   1  12
ATOM     12  C   UNL     1      -7.123 -66.113 -30.423  1.00  0.00     0.021 A 
ATOM     13  C   UNL     1      -6.580 -65.598 -29.231  1.00  0.00     0.016 A 
ATOM     14  C   UNL     1      -6.998 -66.093 -27.992  1.00  0.00     0.047 A 
ATOM     15  C   UNL     1      -7.970 -67.095 -27.925  1.00  0.00     0.115 A 
ATOM     16  C   UNL     1      -8.115 -67.106 -30.347  1.00  0.00     0.016 A 
ATOM     17  C   UNL     1      -8.529 -67.599 -29.107  1.00  0.00     0.047 A 
BRANCH  15  18
ATOM     18  O   UNL     1      -8.375 -67.579 -26.683  1.00  0.00    -0.508 OA
ATOM     19  H   UNL     1      -8.374 -68.571 -26.476  1.00  0.00     0.293 HD
ENDBRANCH  15  18
ENDBRANCH   1  12
BRANCH   2  20
ATOM     20  O   UNL     1      -4.373 -66.110 -31.349  1.00  0.00    -0.502 OA
ATOM     21  H   UNL     1      -4.577 -66.552 -30.460  1.00  0.00     0.293 HD
ENDBRANCH   2  20
BRANCH   6  22
ATOM     22  O   UNL     1      -4.575 -63.920 -36.062  1.00  0.00    -0.507 OA
ATOM     23  H   UNL     1      -3.970 -64.730 -36.135  1.00  0.00     0.293 HD
ENDBRANCH   6  22
BRANCH   8  24
ATOM     24  O   UNL     1      -9.312 -63.179 -36.594  1.00  0.00    -0.508 OA
ATOM     25  H   UNL     1      -9.197 -62.989 -37.582  1.00  0.00     0.293 HD
ENDBRANCH   8  24
TORSDOF 5
ENDMDL
MODEL 9
REMARK VINA RESULT:    -6.562      4.320      6.311
REMARK INTER + INTRA:          -7.937
REMARK INTER:                  -7.868
REMARK INTRA:                  -0.069
REMARK UNBOUND:                -0.224
REMARK SMILES O=c1c(O)c(-c2ccc(O)cc2)oc2cc(O)cc(O)c12
REMARK SMILES IDX 5 1 3 2 2 3 1 4 21 5 19 6 18 7 16 8 15 9 14 10 13 11 6 12
REMARK SMILES IDX 7 13 8 14 9 15 12 16 11 17 10 18 4 20 20 22 17 24
REMARK H PARENT 10 19 4 21 20 23 17 25
REMARK Flexibility Score: inf
ROOT
ATOM      1  C   UNL     1      -6.817 -64.927 -33.025  1.00  0.00     0.180 A 
ATOM      2  C   UNL     1      -7.880 -64.343 -33.741  1.00  0.00     0.208 A 
ATOM      3  C   UNL     1      -7.634 -63.836 -35.027  1.00  0.00     0.238 A 
ATOM      4  O   UNL     1      -8.580 -63.321 -35.683  1.00  0.00    -0.285 OA
ATOM      5  C   UNL     1      -6.332 -63.902 -35.565  1.00  0.00     0.111 A 
ATOM      6  C   UNL     1      -5.999 -63.411 -36.850  1.00  0.00     0.134 A 
ATOM      7  C   UNL     1      -4.677 -63.505 -37.310  1.00  0.00     0.093 A 
ATOM      8  C   UNL     1      -3.684 -64.078 -36.513  1.00  0.00     0.123 A 
ATOM      9  C   UNL     1      -4.007 -64.566 -35.243  1.00  0.00     0.094 A 
ATOM     10  C   UNL     1      -5.319 -64.482 -34.766  1.00  0.00     0.146 A 
ATOM     11  O   UNL     1      -5.599 -64.958 -33.558  1.00  0.00    -0.452 OA
ENDROOT
BRANCH   1  12
ATOM     12  C   UNL     1      -7.002 -65.500 -31.673  1.00  0.00     0.021 A 
ATOM     13  C   UNL     1      -7.953 -66.507 -31.426  1.00  0.00     0.016 A 
ATOM     14  C   UNL     1      -8.091 -67.050 -30.145  1.00  0.00     0.047 A 
ATOM     15  C   UNL     1      -7.276 -66.607 -29.100  1.00  0.00     0.115 A 
ATOM     16  C   UNL     1      -6.171 -65.074 -30.622  1.00  0.00     0.016 A 
ATOM     17  C   UNL     1      -6.313 -65.619 -29.343  1.00  0.00     0.047 A 
BRANCH  15  18
ATOM     18  O   UNL     1      -7.426 -67.156 -27.829  1.00  0.00    -0.508 OA
ATOM     19  H   UNL     1      -7.664 -68.133 -27.699  1.00  0.00     0.293 HD
ENDBRANCH  15  18
ENDBRANCH   1  12
BRANCH   2  20
ATOM     20  O   UNL     1      -9.149 -64.245 -33.167  1.00  0.00    -0.502 OA
ATOM     21  H   UNL     1      -9.424 -63.462 -32.585  1.00  0.00     0.293 HD
ENDBRANCH   2  20
BRANCH   6  22
ATOM     22  O   UNL     1      -6.968 -62.831 -37.672  1.00  0.00    -0.507 OA
ATOM     23  H   UNL     1      -7.709 -63.381 -38.091  1.00  0.00     0.293 HD
ENDBRANCH   6  22
BRANCH   8  24
ATOM     24  O   UNL     1      -2.379 -64.159 -36.994  1.00  0.00    -0.508 OA
ATOM     25  H   UNL     1      -1.581 -64.076 -36.375  1.00  0.00     0.293 HD
ENDBRANCH   8  24
TORSDOF 5
ENDMDL
