MODEL 1
REMARK VINA RESULT:    -6.005      0.000      0.000
REMARK INTER + INTRA:          -6.455
REMARK INTER:                  -6.357
REMARK INTRA:                  -0.099
REMARK UNBOUND:                -0.099
REMARK SMILES C=C(C)[C@@H]1CC=C(C)C(=O)C1
REMARK SMILES IDX 8 1 7 2 6 3 5 4 4 5 11 6 9 7 10 8 2 9 1 10 3 11
REMARK H PARENT
REMARK Flexibility Score: inf
ROOT
ATOM      1  C   UNL     1      -8.257  35.281  26.021  1.00  0.00     0.048 C 
ATOM      2  C   UNL     1      -8.139  34.539  24.719  1.00  0.00    -0.012 C 
ATOM      3  C   UNL     1      -8.009  35.222  23.568  1.00  0.00    -0.019 C 
ATOM      4  C   UNL     1      -7.869  34.528  22.239  1.00  0.00     0.036 C 
ATOM      5  C   UNL     1      -8.651  33.201  22.221  1.00  0.00     0.025 C 
ATOM      6  C   UNL     1      -8.212  32.306  23.394  1.00  0.00     0.089 C 
ATOM      7  C   UNL     1      -8.289  33.062  24.693  1.00  0.00     0.158 C 
ATOM      8  O   UNL     1      -8.445  32.422  25.767  1.00  0.00    -0.295 OA
ENDROOT
BRANCH   5   9
ATOM      9  C   UNL     1      -8.499  32.483  20.888  1.00  0.00    -0.077 C 
ATOM     10  C   UNL     1      -7.480  32.791  20.069  1.00  0.00     0.008 C 
ATOM     11  C   UNL     1      -9.477  31.419  20.452  1.00  0.00     0.039 C 
ENDBRANCH   5   9
TORSDOF 1
ENDMDL
MODEL 2
REMARK VINA RESULT:    -5.884      1.578      4.271
REMARK INTER + INTRA:          -6.327
REMARK INTER:                  -6.229
REMARK INTRA:                  -0.098
REMARK UNBOUND:                -0.099
REMARK SMILES C=C(C)[C@@H]1CC=C(C)C(=O)C1
REMARK SMILES IDX 8 1 7 2 6 3 5 4 4 5 11 6 9 7 10 8 2 9 1 10 3 11
REMARK H PARENT
REMARK Flexibility Score: inf
ROOT
ATOM      1  C   UNL     1      -7.432  32.684  19.983  1.00  0.00     0.048 C 
ATOM      2  C   UNL     1      -7.817  33.113  21.371  1.00  0.00    -0.012 C 
ATOM      3  C   UNL     1      -7.851  34.421  21.682  1.00  0.00    -0.019 C 
ATOM      4  C   UNL     1      -8.249  34.907  23.051  1.00  0.00     0.036 C 
ATOM      5  C   UNL     1      -7.823  33.904  24.139  1.00  0.00     0.025 C 
ATOM      6  C   UNL     1      -8.388  32.506  23.831  1.00  0.00     0.089 C 
ATOM      7  C   UNL     1      -8.039  32.093  22.426  1.00  0.00     0.158 C 
ATOM      8  O   UNL     1      -7.973  30.866  22.146  1.00  0.00    -0.295 OA
ENDROOT
BRANCH   5   9
ATOM      9  C   UNL     1      -8.237  34.378  25.525  1.00  0.00    -0.077 C 
ATOM     10  C   UNL     1      -8.603  35.655  25.720  1.00  0.00     0.008 C 
ATOM     11  C   UNL     1      -8.247  33.439  26.707  1.00  0.00     0.039 C 
ENDBRANCH   5   9
TORSDOF 1
ENDMDL
MODEL 3
REMARK VINA RESULT:    -5.767      2.117      3.281
REMARK INTER + INTRA:          -6.203
REMARK INTER:                  -6.106
REMARK INTRA:                  -0.096
REMARK UNBOUND:                -0.099
REMARK SMILES C=C(C)[C@@H]1CC=C(C)C(=O)C1
REMARK SMILES IDX 8 1 7 2 6 3 5 4 4 5 11 6 9 7 10 8 2 9 1 10 3 11
REMARK H PARENT
REMARK Flexibility Score: inf
ROOT
ATOM      1  C   UNL     1      -7.526  29.753  26.370  1.00  0.00     0.048 C 
ATOM      2  C   UNL     1      -7.899  30.280  25.012  1.00  0.00    -0.012 C 
ATOM      3  C   UNL     1      -7.324  29.763  23.913  1.00  0.00    -0.019 C 
ATOM      4  C   UNL     1      -7.675  30.240  22.528  1.00  0.00     0.036 C 
ATOM      5  C   UNL     1      -8.036  31.738  22.534  1.00  0.00     0.025 C 
ATOM      6  C   UNL     1      -9.161  32.013  23.548  1.00  0.00     0.089 C 
ATOM      7  C   UNL     1      -8.807  31.448  24.896  1.00  0.00     0.158 C 
ATOM      8  O   UNL     1      -9.320  31.957  25.929  1.00  0.00    -0.295 OA
ENDROOT
BRANCH   5   9
ATOM      9  C   UNL     1      -8.411  32.225  21.141  1.00  0.00    -0.077 C 
ATOM     10  C   UNL     1      -9.483  31.715  20.515  1.00  0.00     0.008 C 
ATOM     11  C   UNL     1      -7.599  33.282  20.433  1.00  0.00     0.039 C 
ENDBRANCH   5   9
TORSDOF 1
ENDMDL
MODEL 4
REMARK VINA RESULT:    -5.705      1.561      2.191
REMARK INTER + INTRA:          -6.137
REMARK INTER:                  -6.049
REMARK INTRA:                  -0.087
REMARK UNBOUND:                -0.099
REMARK SMILES C=C(C)[C@@H]1CC=C(C)C(=O)C1
REMARK SMILES IDX 8 1 7 2 6 3 5 4 4 5 11 6 9 7 10 8 2 9 1 10 3 11
REMARK H PARENT
REMARK Flexibility Score: inf
ROOT
ATOM      1  C   UNL     1      -8.635  35.626  25.551  1.00  0.00     0.048 C 
ATOM      2  C   UNL     1      -8.308  34.303  24.917  1.00  0.00    -0.012 C 
ATOM      3  C   UNL     1      -7.900  34.258  23.636  1.00  0.00    -0.019 C 
ATOM      4  C   UNL     1      -7.541  32.962  22.957  1.00  0.00     0.036 C 
ATOM      5  C   UNL     1      -8.393  31.799  23.499  1.00  0.00     0.025 C 
ATOM      6  C   UNL     1      -8.266  31.709  25.030  1.00  0.00     0.089 C 
ATOM      7  C   UNL     1      -8.551  33.044  25.664  1.00  0.00     0.158 C 
ATOM      8  O   UNL     1      -8.967  33.083  26.853  1.00  0.00    -0.295 OA
ENDROOT
BRANCH   5   9
ATOM      9  C   UNL     1      -8.024  30.481  22.832  1.00  0.00    -0.077 C 
ATOM     10  C   UNL     1      -8.771  30.005  21.822  1.00  0.00     0.008 C 
ATOM     11  C   UNL     1      -6.826  29.681  23.281  1.00  0.00     0.039 C 
ENDBRANCH   5   9
TORSDOF 1
ENDMDL
MODEL 5
REMARK VINA RESULT:    -5.685      2.032      2.839
REMARK INTER + INTRA:          -6.116
REMARK INTER:                  -6.028
REMARK INTRA:                  -0.088
REMARK UNBOUND:                -0.099
REMARK SMILES C=C(C)[C@@H]1CC=C(C)C(=O)C1
REMARK SMILES IDX 8 1 7 2 6 3 5 4 4 5 11 6 9 7 10 8 2 9 1 10 3 11
REMARK H PARENT
REMARK Flexibility Score: inf
ROOT
ATOM      1  C   UNL     1      -8.615  35.877  24.864  1.00  0.00     0.048 C 
ATOM      2  C   UNL     1      -8.543  34.476  24.323  1.00  0.00    -0.012 C 
ATOM      3  C   UNL     1      -8.651  33.429  25.160  1.00  0.00    -0.019 C 
ATOM      4  C   UNL     1      -8.604  32.006  24.670  1.00  0.00     0.036 C 
ATOM      5  C   UNL     1      -7.683  31.873  23.443  1.00  0.00     0.025 C 
ATOM      6  C   UNL     1      -8.116  32.856  22.339  1.00  0.00     0.089 C 
ATOM      7  C   UNL     1      -8.230  34.251  22.890  1.00  0.00     0.158 C 
ATOM      8  O   UNL     1      -8.093  35.231  22.109  1.00  0.00    -0.295 OA
ENDROOT
BRANCH   5   9
ATOM      9  C   UNL     1      -7.644  30.441  22.928  1.00  0.00    -0.077 C 
ATOM     10  C   UNL     1      -6.712  29.587  23.380  1.00  0.00     0.008 C 
ATOM     11  C   UNL     1      -8.639  29.946  21.906  1.00  0.00     0.039 C 
ENDBRANCH   5   9
TORSDOF 1
ENDMDL
MODEL 6
REMARK VINA RESULT:    -5.616      1.367      2.376
REMARK INTER + INTRA:          -6.043
REMARK INTER:                  -5.944
REMARK INTRA:                  -0.098
REMARK UNBOUND:                -0.099
REMARK SMILES C=C(C)[C@@H]1CC=C(C)C(=O)C1
REMARK SMILES IDX 8 1 7 2 6 3 5 4 4 5 11 6 9 7 10 8 2 9 1 10 3 11
REMARK H PARENT
REMARK Flexibility Score: inf
ROOT
ATOM      1  C   UNL     1      -8.180  32.901  27.041  1.00  0.00     0.048 C 
ATOM      2  C   UNL     1      -8.394  32.860  25.553  1.00  0.00    -0.012 C 
ATOM      3  C   UNL     1      -8.632  31.685  24.944  1.00  0.00    -0.019 C 
ATOM      4  C   UNL     1      -8.872  31.589  23.460  1.00  0.00     0.036 C 
ATOM      5  C   UNL     1      -8.070  32.662  22.699  1.00  0.00     0.025 C 
ATOM      6  C   UNL     1      -8.391  34.063  23.252  1.00  0.00     0.089 C 
ATOM      7  C   UNL     1      -8.220  34.094  24.746  1.00  0.00     0.158 C 
ATOM      8  O   UNL     1      -7.961  35.190  25.312  1.00  0.00    -0.295 OA
ENDROOT
BRANCH   5   9
ATOM      9  C   UNL     1      -8.320  32.585  21.200  1.00  0.00    -0.077 C 
ATOM     10  C   UNL     1      -9.352  31.869  20.724  1.00  0.00     0.008 C 
ATOM     11  C   UNL     1      -7.427  33.301  20.216  1.00  0.00     0.039 C 
ENDBRANCH   5   9
TORSDOF 1
ENDMDL
MODEL 7
REMARK VINA RESULT:    -5.406      2.065      4.591
REMARK INTER + INTRA:          -5.820
REMARK INTER:                  -5.724
REMARK INTRA:                  -0.096
REMARK UNBOUND:                -0.099
REMARK SMILES C=C(C)[C@@H]1CC=C(C)C(=O)C1
REMARK SMILES IDX 8 1 7 2 6 3 5 4 4 5 11 6 9 7 10 8 2 9 1 10 3 11
REMARK H PARENT
REMARK Flexibility Score: inf
ROOT
ATOM      1  C   UNL     1      -7.883  32.657  20.036  1.00  0.00     0.048 C 
ATOM      2  C   UNL     1      -7.867  32.388  21.514  1.00  0.00    -0.012 C 
ATOM      3  C   UNL     1      -7.871  31.121  21.964  1.00  0.00    -0.019 C 
ATOM      4  C   UNL     1      -7.836  30.794  23.434  1.00  0.00     0.036 C 
ATOM      5  C   UNL     1      -8.572  31.869  24.257  1.00  0.00     0.025 C 
ATOM      6  C   UNL     1      -7.994  33.263  23.956  1.00  0.00     0.089 C 
ATOM      7  C   UNL     1      -7.970  33.517  22.473  1.00  0.00     0.158 C 
ATOM      8  O   UNL     1      -8.001  34.704  22.053  1.00  0.00    -0.295 OA
ENDROOT
BRANCH   5   9
ATOM      9  C   UNL     1      -8.526  31.557  25.746  1.00  0.00    -0.077 C 
ATOM     10  C   UNL     1      -9.038  32.426  26.633  1.00  0.00     0.008 C 
ATOM     11  C   UNL     1      -7.909  30.281  26.264  1.00  0.00     0.039 C 
ENDBRANCH   5   9
TORSDOF 1
ENDMDL
MODEL 8
REMARK VINA RESULT:    -5.405      2.511      4.014
REMARK INTER + INTRA:          -5.820
REMARK INTER:                  -5.721
REMARK INTRA:                  -0.099
REMARK UNBOUND:                -0.099
REMARK SMILES C=C(C)[C@@H]1CC=C(C)C(=O)C1
REMARK SMILES IDX 8 1 7 2 6 3 5 4 4 5 11 6 9 7 10 8 2 9 1 10 3 11
REMARK H PARENT
REMARK Flexibility Score: inf
ROOT
ATOM      1  C   UNL     1      -7.544  34.873  21.646  1.00  0.00     0.048 C 
ATOM      2  C   UNL     1      -7.923  33.636  22.410  1.00  0.00    -0.012 C 
ATOM      3  C   UNL     1      -7.875  33.638  23.754  1.00  0.00    -0.019 C 
ATOM      4  C   UNL     1      -8.261  32.432  24.569  1.00  0.00     0.036 C 
ATOM      5  C   UNL     1      -7.921  31.128  23.824  1.00  0.00     0.025 C 
ATOM      6  C   UNL     1      -8.573  31.122  22.430  1.00  0.00     0.089 C 
ATOM      7  C   UNL     1      -8.229  32.380  21.680  1.00  0.00     0.158 C 
ATOM      8  O   UNL     1      -8.241  32.366  20.420  1.00  0.00    -0.295 OA
ENDROOT
BRANCH   5   9
ATOM      9  C   UNL     1      -8.325  29.903  24.632  1.00  0.00    -0.077 C 
ATOM     10  C   UNL     1      -8.970  28.886  24.037  1.00  0.00     0.008 C 
ATOM     11  C   UNL     1      -8.019  29.797  26.106  1.00  0.00     0.039 C 
ENDBRANCH   5   9
TORSDOF 1
ENDMDL
MODEL 9
REMARK VINA RESULT:    -5.181      1.597      2.298
REMARK INTER + INTRA:          -5.583
REMARK INTER:                  -5.490
REMARK INTRA:                  -0.092
REMARK UNBOUND:                -0.099
REMARK SMILES C=C(C)[C@@H]1CC=C(C)C(=O)C1
REMARK SMILES IDX 8 1 7 2 6 3 5 4 4 5 11 6 9 7 10 8 2 9 1 10 3 11
REMARK H PARENT
REMARK Flexibility Score: inf
ROOT
ATOM      1  C   UNL     1      -8.513  31.986  27.369  1.00  0.00     0.048 C 
ATOM      2  C   UNL     1      -8.386  32.169  25.883  1.00  0.00    -0.012 C 
ATOM      3  C   UNL     1      -8.570  33.386  25.340  1.00  0.00    -0.019 C 
ATOM      4  C   UNL     1      -8.436  33.629  23.860  1.00  0.00     0.036 C 
ATOM      5  C   UNL     1      -8.872  32.391  23.054  1.00  0.00     0.025 C 
ATOM      6  C   UNL     1      -8.088  31.149  23.513  1.00  0.00     0.089 C 
ATOM      7  C   UNL     1      -8.179  30.989  25.007  1.00  0.00     0.158 C 
ATOM      8  O   UNL     1      -8.041  29.842  25.510  1.00  0.00    -0.295 OA
ENDROOT
BRANCH   5   9
ATOM      9  C   UNL     1      -8.722  32.621  21.557  1.00  0.00    -0.077 C 
ATOM     10  C   UNL     1      -9.356  31.820  20.685  1.00  0.00     0.008 C 
ATOM     11  C   UNL     1      -7.866  33.740  21.014  1.00  0.00     0.039 C 
ENDBRANCH   5   9
TORSDOF 1
ENDMDL
