MODEL 1
REMARK VINA RESULT:    -4.208      0.000      0.000
REMARK INTER + INTRA:          -8.846
REMARK INTER:                  -7.406
REMARK INTRA:                  -1.440
REMARK UNBOUND:                -1.440
REMARK SMILES CCCCCCCCCCCCCCC(=O)[O-]
REMARK SMILES IDX 9 1 10 2 11 3 12 4 13 5 14 6 15 7 16 8 17 9 8 10 7 11 6 12
REMARK SMILES IDX 5 13 4 14 3 15 2 16 1 17
REMARK H PARENT
REMARK Flexibility Score: inf
ROOT
ATOM      1  C   UNL     1      17.223   2.911  -3.985  1.00  0.00     0.000 C 
ENDROOT
BRANCH   1   2
ATOM      2  C   UNL     1      18.691   3.328  -3.814  1.00  0.00     0.000 C 
BRANCH   2   3
ATOM      3  C   UNL     1      19.283   2.743  -2.524  1.00  0.00     0.000 C 
BRANCH   3   4
ATOM      4  C   UNL     1      19.706   3.825  -1.516  1.00  0.00     0.000 C 
BRANCH   4   5
ATOM      5  C   UNL     1      18.707   4.014  -0.355  1.00  0.00     0.006 C 
BRANCH   5   6
ATOM      6  C   UNL     1      17.760   2.816  -0.204  1.00  0.00     0.053 C 
BRANCH   6   7
ATOM      7  C   UNL     1      16.335   3.269  -0.219  1.00  0.00     0.041 C 
ATOM      8  O   UNL     1      15.480   2.693   0.503  1.00  0.00    -0.550 OA
ATOM      9  O   UNL     1      15.940   4.296  -1.067  1.00  0.00    -0.550 OA
ENDBRANCH   6   7
ENDBRANCH   5   6
ENDBRANCH   4   5
ENDBRANCH   3   4
ENDBRANCH   2   3
ENDBRANCH   1   2
BRANCH   1  10
ATOM     10  C   UNL     1      17.062   1.655  -4.856  1.00  0.00     0.000 C 
BRANCH  10  11
ATOM     11  C   UNL     1      16.635   1.987  -6.298  1.00  0.00    -0.000 C 
BRANCH  11  12
ATOM     12  C   UNL     1      17.815   2.426  -7.180  1.00  0.00    -0.000 C 
BRANCH  12  13
ATOM     13  C   UNL     1      17.526   3.729  -7.944  1.00  0.00    -0.000 C 
BRANCH  13  14
ATOM     14  C   UNL     1      17.513   4.970  -7.031  1.00  0.00    -0.000 C 
BRANCH  14  15
ATOM     15  C   UNL     1      16.252   5.846  -7.134  1.00  0.00    -0.000 C 
BRANCH  15  16
ATOM     16  C   UNL     1      15.034   5.228  -6.432  1.00  0.00    -0.003 C 
ATOM     17  C   UNL     1      13.759   5.996  -6.766  1.00  0.00     0.004 C 
ENDBRANCH  15  16
ENDBRANCH  14  15
ENDBRANCH  13  14
ENDBRANCH  12  13
ENDBRANCH  11  12
ENDBRANCH  10  11
ENDBRANCH   1  10
TORSDOF 13
ENDMDL
MODEL 2
REMARK VINA RESULT:    -4.001      1.539      2.813
REMARK INTER + INTRA:          -8.481
REMARK INTER:                  -7.385
REMARK INTRA:                  -1.096
REMARK UNBOUND:                -1.440
REMARK SMILES CCCCCCCCCCCCCCC(=O)[O-]
REMARK SMILES IDX 9 1 10 2 11 3 12 4 13 5 14 6 15 7 16 8 17 9 8 10 7 11 6 12
REMARK SMILES IDX 5 13 4 14 3 15 2 16 1 17
REMARK H PARENT
REMARK Flexibility Score: inf
ROOT
ATOM      1  C   UNL     1      19.352   4.147  -2.397  1.00  0.00     0.000 C 
ENDROOT
BRANCH   1   2
ATOM      2  C   UNL     1      18.971   5.442  -1.664  1.00  0.00     0.000 C 
BRANCH   2   3
ATOM      3  C   UNL     1      17.866   5.185  -0.631  1.00  0.00     0.000 C 
BRANCH   3   4
ATOM      4  C   UNL     1      16.807   4.185  -1.123  1.00  0.00     0.000 C 
BRANCH   4   5
ATOM      5  C   UNL     1      16.811   2.848  -0.351  1.00  0.00     0.006 C 
BRANCH   5   6
ATOM      6  C   UNL     1      15.772   2.828   0.778  1.00  0.00     0.053 C 
BRANCH   6   7
ATOM      7  C   UNL     1      16.447   2.722   2.109  1.00  0.00     0.041 C 
ATOM      8  O   UNL     1      17.184   3.656   2.521  1.00  0.00    -0.550 OA
ATOM      9  O   UNL     1      16.302   1.571   2.872  1.00  0.00    -0.550 OA
ENDBRANCH   6   7
ENDBRANCH   5   6
ENDBRANCH   4   5
ENDBRANCH   3   4
ENDBRANCH   2   3
ENDBRANCH   1   2
BRANCH   1  10
ATOM     10  C   UNL     1      19.066   4.216  -3.906  1.00  0.00     0.000 C 
BRANCH  10  11
ATOM     11  C   UNL     1      18.870   2.824  -4.534  1.00  0.00    -0.000 C 
BRANCH  11  12
ATOM     12  C   UNL     1      17.465   2.253  -4.283  1.00  0.00    -0.000 C 
BRANCH  12  13
ATOM     13  C   UNL     1      16.669   2.053  -5.584  1.00  0.00    -0.000 C 
BRANCH  13  14
ATOM     14  C   UNL     1      15.907   3.318  -6.021  1.00  0.00    -0.000 C 
BRANCH  14  15
ATOM     15  C   UNL     1      16.655   4.222  -7.018  1.00  0.00    -0.000 C 
BRANCH  15  16
ATOM     16  C   UNL     1      16.191   5.685  -6.966  1.00  0.00    -0.003 C 
ATOM     17  C   UNL     1      14.718   5.780  -6.577  1.00  0.00     0.004 C 
ENDBRANCH  15  16
ENDBRANCH  14  15
ENDBRANCH  13  14
ENDBRANCH  12  13
ENDBRANCH  11  12
ENDBRANCH  10  11
ENDBRANCH   1  10
TORSDOF 13
ENDMDL
MODEL 3
REMARK VINA RESULT:    -3.994      1.926      3.485
REMARK INTER + INTRA:          -8.468
REMARK INTER:                  -7.490
REMARK INTRA:                  -0.978
REMARK UNBOUND:                -1.440
REMARK SMILES CCCCCCCCCCCCCCC(=O)[O-]
REMARK SMILES IDX 9 1 10 2 11 3 12 4 13 5 14 6 15 7 16 8 17 9 8 10 7 11 6 12
REMARK SMILES IDX 5 13 4 14 3 15 2 16 1 17
REMARK H PARENT
REMARK Flexibility Score: inf
ROOT
ATOM      1  C   UNL     1      19.044   5.445  -1.384  1.00  0.00     0.000 C 
ENDROOT
BRANCH   1   2
ATOM      2  C   UNL     1      17.896   5.455  -0.364  1.00  0.00     0.000 C 
BRANCH   2   3
ATOM      3  C   UNL     1      18.353   6.052   0.973  1.00  0.00     0.000 C 
BRANCH   3   4
ATOM      4  C   UNL     1      18.743   4.981   2.006  1.00  0.00     0.000 C 
BRANCH   4   5
ATOM      5  C   UNL     1      17.588   4.581   2.949  1.00  0.00     0.006 C 
BRANCH   5   6
ATOM      6  C   UNL     1      17.383   3.062   3.003  1.00  0.00     0.053 C 
BRANCH   6   7
ATOM      7  C   UNL     1      17.041   2.531   1.647  1.00  0.00     0.041 C 
ATOM      8  O   UNL     1      15.906   2.752   1.148  1.00  0.00    -0.550 OA
ATOM      9  O   UNL     1      17.957   1.749   0.955  1.00  0.00    -0.550 OA
ENDBRANCH   6   7
ENDBRANCH   5   6
ENDBRANCH   4   5
ENDBRANCH   3   4
ENDBRANCH   2   3
ENDBRANCH   1   2
BRANCH   1  10
ATOM     10  C   UNL     1      19.058   4.173  -2.246  1.00  0.00     0.000 C 
BRANCH  10  11
ATOM     11  C   UNL     1      17.767   3.347  -2.101  1.00  0.00    -0.000 C 
BRANCH  11  12
ATOM     12  C   UNL     1      17.613   2.289  -3.206  1.00  0.00    -0.000 C 
BRANCH  12  13
ATOM     13  C   UNL     1      17.391   2.913  -4.594  1.00  0.00    -0.000 C 
BRANCH  13  14
ATOM     14  C   UNL     1      16.512   2.042  -5.511  1.00  0.00    -0.000 C 
BRANCH  14  15
ATOM     15  C   UNL     1      15.631   2.819  -6.505  1.00  0.00    -0.000 C 
BRANCH  15  16
ATOM     16  C   UNL     1      16.065   4.283  -6.673  1.00  0.00    -0.003 C 
ATOM     17  C   UNL     1      14.890   5.232  -6.459  1.00  0.00     0.004 C 
ENDBRANCH  15  16
ENDBRANCH  14  15
ENDBRANCH  13  14
ENDBRANCH  12  13
ENDBRANCH  11  12
ENDBRANCH  10  11
ENDBRANCH   1  10
TORSDOF 13
ENDMDL
MODEL 4
REMARK VINA RESULT:    -3.943      1.866      3.272
REMARK INTER + INTRA:          -8.378
REMARK INTER:                  -7.319
REMARK INTRA:                  -1.060
REMARK UNBOUND:                -1.440
REMARK SMILES CCCCCCCCCCCCCCC(=O)[O-]
REMARK SMILES IDX 9 1 10 2 11 3 12 4 13 5 14 6 15 7 16 8 17 9 8 10 7 11 6 12
REMARK SMILES IDX 5 13 4 14 3 15 2 16 1 17
REMARK H PARENT
REMARK Flexibility Score: inf
ROOT
ATOM      1  C   UNL     1      16.880   4.085  -1.126  1.00  0.00     0.000 C 
ENDROOT
BRANCH   1   2
ATOM      2  C   UNL     1      17.889   5.185  -0.763  1.00  0.00     0.000 C 
BRANCH   2   3
ATOM      3  C   UNL     1      18.686   4.806   0.493  1.00  0.00     0.000 C 
BRANCH   3   4
ATOM      4  C   UNL     1      18.112   5.429   1.777  1.00  0.00     0.000 C 
BRANCH   4   5
ATOM      5  C   UNL     1      17.610   4.388   2.799  1.00  0.00     0.006 C 
BRANCH   5   6
ATOM      6  C   UNL     1      17.873   2.949   2.337  1.00  0.00     0.053 C 
BRANCH   6   7
ATOM      7  C   UNL     1      16.610   2.149   2.366  1.00  0.00     0.041 C 
ATOM      8  O   UNL     1      15.709   2.358   1.512  1.00  0.00    -0.550 OA
ATOM      9  O   UNL     1      16.405   1.208   3.367  1.00  0.00    -0.550 OA
ENDBRANCH   6   7
ENDBRANCH   5   6
ENDBRANCH   4   5
ENDBRANCH   3   4
ENDBRANCH   2   3
ENDBRANCH   1   2
BRANCH   1  10
ATOM     10  C   UNL     1      17.503   2.970  -1.981  1.00  0.00     0.000 C 
BRANCH  10  11
ATOM     11  C   UNL     1      18.539   3.506  -2.986  1.00  0.00    -0.000 C 
BRANCH  11  12
ATOM     12  C   UNL     1      18.529   2.735  -4.316  1.00  0.00    -0.000 C 
BRANCH  12  13
ATOM     13  C   UNL     1      17.189   2.026  -4.576  1.00  0.00    -0.000 C 
BRANCH  13  14
ATOM     14  C   UNL     1      16.784   2.034  -6.063  1.00  0.00    -0.000 C 
BRANCH  14  15
ATOM     15  C   UNL     1      15.622   2.978  -6.419  1.00  0.00    -0.000 C 
BRANCH  15  16
ATOM     16  C   UNL     1      16.063   4.441  -6.575  1.00  0.00    -0.003 C 
ATOM     17  C   UNL     1      14.872   5.388  -6.476  1.00  0.00     0.004 C 
ENDBRANCH  15  16
ENDBRANCH  14  15
ENDBRANCH  13  14
ENDBRANCH  12  13
ENDBRANCH  11  12
ENDBRANCH  10  11
ENDBRANCH   1  10
TORSDOF 13
ENDMDL
MODEL 5
REMARK VINA RESULT:    -3.942      9.153     11.157
REMARK INTER + INTRA:          -8.378
REMARK INTER:                  -6.313
REMARK INTRA:                  -2.065
REMARK UNBOUND:                -1.440
REMARK SMILES CCCCCCCCCCCCCCC(=O)[O-]
REMARK SMILES IDX 9 1 10 2 11 3 12 4 13 5 14 6 15 7 16 8 17 9 8 10 7 11 6 12
REMARK SMILES IDX 5 13 4 14 3 15 2 16 1 17
REMARK H PARENT
REMARK Flexibility Score: inf
ROOT
ATOM      1  C   UNL     1      19.228  14.163  -3.751  1.00  0.00     0.000 C 
ENDROOT
BRANCH   1   2
ATOM      2  C   UNL     1      19.070  15.136  -4.929  1.00  0.00     0.000 C 
BRANCH   2   3
ATOM      3  C   UNL     1      17.690  15.807  -4.907  1.00  0.00     0.000 C 
BRANCH   3   4
ATOM      4  C   UNL     1      16.544  14.831  -5.224  1.00  0.00     0.000 C 
BRANCH   4   5
ATOM      5  C   UNL     1      16.610  14.241  -6.649  1.00  0.00     0.006 C 
BRANCH   5   6
ATOM      6  C   UNL     1      15.716  13.004  -6.806  1.00  0.00     0.053 C 
BRANCH   6   7
ATOM      7  C   UNL     1      14.787  13.173  -7.966  1.00  0.00     0.041 C 
ATOM      8  O   UNL     1      13.613  13.590  -7.781  1.00  0.00    -0.550 OA
ATOM      9  O   UNL     1      15.200  12.822  -9.245  1.00  0.00    -0.550 OA
ENDBRANCH   6   7
ENDBRANCH   5   6
ENDBRANCH   4   5
ENDBRANCH   3   4
ENDBRANCH   2   3
ENDBRANCH   1   2
BRANCH   1  10
ATOM     10  C   UNL     1      19.959  12.870  -4.145  1.00  0.00     0.000 C 
BRANCH  10  11
ATOM     11  C   UNL     1      19.836  12.557  -5.648  1.00  0.00    -0.000 C 
BRANCH  11  12
ATOM     12  C   UNL     1      18.952  11.331  -5.928  1.00  0.00    -0.000 C 
BRANCH  12  13
ATOM     13  C   UNL     1      18.725  11.100  -7.432  1.00  0.00    -0.000 C 
BRANCH  13  14
ATOM     14  C   UNL     1      19.511  12.086  -8.316  1.00  0.00    -0.000 C 
BRANCH  14  15
ATOM     15  C   UNL     1      18.670  12.842  -9.360  1.00  0.00    -0.000 C 
BRANCH  15  16
ATOM     16  C   UNL     1      18.968  14.348  -9.394  1.00  0.00    -0.003 C 
ATOM     17  C   UNL     1      17.827  15.119 -10.052  1.00  0.00     0.004 C 
ENDBRANCH  15  16
ENDBRANCH  14  15
ENDBRANCH  13  14
ENDBRANCH  12  13
ENDBRANCH  11  12
ENDBRANCH  10  11
ENDBRANCH   1  10
TORSDOF 13
ENDMDL
MODEL 6
REMARK VINA RESULT:    -3.941      9.007     10.460
REMARK INTER + INTRA:          -8.376
REMARK INTER:                  -6.856
REMARK INTRA:                  -1.519
REMARK UNBOUND:                -1.440
REMARK SMILES CCCCCCCCCCCCCCC(=O)[O-]
REMARK SMILES IDX 9 1 10 2 11 3 12 4 13 5 14 6 15 7 16 8 17 9 8 10 7 11 6 12
REMARK SMILES IDX 5 13 4 14 3 15 2 16 1 17
REMARK H PARENT
REMARK Flexibility Score: inf
ROOT
ATOM      1  C   UNL     1      18.195  11.526  -5.708  1.00  0.00     0.000 C 
ENDROOT
BRANCH   1   2
ATOM      2  C   UNL     1      19.648  11.375  -5.234  1.00  0.00     0.000 C 
BRANCH   2   3
ATOM      3  C   UNL     1      20.124  12.640  -4.508  1.00  0.00     0.000 C 
BRANCH   3   4
ATOM      4  C   UNL     1      20.125  13.885  -5.413  1.00  0.00     0.000 C 
BRANCH   4   5
ATOM      5  C   UNL     1      19.510  15.134  -4.747  1.00  0.00     0.006 C 
BRANCH   5   6
ATOM      6  C   UNL     1      18.116  14.856  -4.169  1.00  0.00     0.053 C 
BRANCH   6   7
ATOM      7  C   UNL     1      17.055  15.302  -5.123  1.00  0.00     0.041 C 
ATOM      8  O   UNL     1      16.765  14.595  -6.124  1.00  0.00    -0.550 OA
ATOM      9  O   UNL     1      16.420  16.524  -4.936  1.00  0.00    -0.550 OA
ENDBRANCH   6   7
ENDBRANCH   5   6
ENDBRANCH   4   5
ENDBRANCH   3   4
ENDBRANCH   2   3
ENDBRANCH   1   2
BRANCH   1  10
ATOM     10  C   UNL     1      18.020  11.183  -7.196  1.00  0.00     0.000 C 
BRANCH  10  11
ATOM     11  C   UNL     1      19.339  11.283  -7.984  1.00  0.00    -0.000 C 
BRANCH  11  12
ATOM     12  C   UNL     1      19.485  12.619  -8.731  1.00  0.00    -0.000 C 
BRANCH  12  13
ATOM     13  C   UNL     1      18.346  12.859  -9.736  1.00  0.00    -0.000 C 
BRANCH  13  14
ATOM     14  C   UNL     1      17.468  14.070  -9.370  1.00  0.00    -0.000 C 
BRANCH  14  15
ATOM     15  C   UNL     1      15.990  13.955  -9.784  1.00  0.00    -0.000 C 
BRANCH  15  16
ATOM     16  C   UNL     1      15.275  12.763  -9.129  1.00  0.00    -0.003 C 
ATOM     17  C   UNL     1      14.447  13.211  -7.928  1.00  0.00     0.004 C 
ENDBRANCH  15  16
ENDBRANCH  14  15
ENDBRANCH  13  14
ENDBRANCH  12  13
ENDBRANCH  11  12
ENDBRANCH  10  11
ENDBRANCH   1  10
TORSDOF 13
ENDMDL
MODEL 7
REMARK VINA RESULT:    -3.934      2.880      7.236
REMARK INTER + INTRA:          -8.363
REMARK INTER:                  -6.536
REMARK INTRA:                  -1.827
REMARK UNBOUND:                -1.440
REMARK SMILES CCCCCCCCCCCCCCC(=O)[O-]
REMARK SMILES IDX 9 1 10 2 11 3 12 4 13 5 14 6 15 7 16 8 17 9 8 10 7 11 6 12
REMARK SMILES IDX 5 13 4 14 3 15 2 16 1 17
REMARK H PARENT
REMARK Flexibility Score: inf
ROOT
ATOM      1  C   UNL     1      18.232   5.646  -0.272  1.00  0.00     0.000 C 
ENDROOT
BRANCH   1   2
ATOM      2  C   UNL     1      19.197   4.469  -0.478  1.00  0.00     0.000 C 
BRANCH   2   3
ATOM      3  C   UNL     1      19.203   4.013  -1.944  1.00  0.00     0.000 C 
BRANCH   3   4
ATOM      4  C   UNL     1      18.264   2.823  -2.204  1.00  0.00     0.000 C 
BRANCH   4   5
ATOM      5  C   UNL     1      17.153   3.125  -3.232  1.00  0.00     0.006 C 
BRANCH   5   6
ATOM      6  C   UNL     1      17.247   2.223  -4.470  1.00  0.00     0.053 C 
BRANCH   6   7
ATOM      7  C   UNL     1      16.575   2.866  -5.640  1.00  0.00     0.041 C 
ATOM      8  O   UNL     1      15.635   2.275  -6.235  1.00  0.00    -0.550 OA
ATOM      9  O   UNL     1      17.019   4.097  -6.107  1.00  0.00    -0.550 OA
ENDBRANCH   6   7
ENDBRANCH   5   6
ENDBRANCH   4   5
ENDBRANCH   3   4
ENDBRANCH   2   3
ENDBRANCH   1   2
BRANCH   1  10
ATOM     10  C   UNL     1      18.225   6.158   1.177  1.00  0.00     0.000 C 
BRANCH  10  11
ATOM     11  C   UNL     1      19.364   5.557   2.021  1.00  0.00    -0.000 C 
BRANCH  11  12
ATOM     12  C   UNL     1      18.882   5.036   3.384  1.00  0.00    -0.000 C 
BRANCH  12  13
ATOM     13  C   UNL     1      17.716   4.041   3.256  1.00  0.00    -0.000 C 
BRANCH  13  14
ATOM     14  C   UNL     1      18.166   2.650   2.769  1.00  0.00    -0.000 C 
BRANCH  14  15
ATOM     15  C   UNL     1      17.422   2.118   1.531  1.00  0.00    -0.000 C 
BRANCH  15  16
ATOM     16  C   UNL     1      15.920   2.439   1.550  1.00  0.00    -0.003 C 
ATOM     17  C   UNL     1      15.493   3.147   0.267  1.00  0.00     0.004 C 
ENDBRANCH  15  16
ENDBRANCH  14  15
ENDBRANCH  13  14
ENDBRANCH  12  13
ENDBRANCH  11  12
ENDBRANCH  10  11
ENDBRANCH   1  10
TORSDOF 13
ENDMDL
MODEL 8
REMARK VINA RESULT:    -3.922      1.101      2.302
REMARK INTER + INTRA:          -8.342
REMARK INTER:                  -6.580
REMARK INTRA:                  -1.762
REMARK UNBOUND:                -1.440
REMARK SMILES CCCCCCCCCCCCCCC(=O)[O-]
REMARK SMILES IDX 9 1 10 2 11 3 12 4 13 5 14 6 15 7 16 8 17 9 8 10 7 11 6 12
REMARK SMILES IDX 5 13 4 14 3 15 2 16 1 17
REMARK H PARENT
REMARK Flexibility Score: inf
ROOT
ATOM      1  C   UNL     1      17.977   2.383  -3.322  1.00  0.00     0.000 C 
ENDROOT
BRANCH   1   2
ATOM      2  C   UNL     1      19.422   2.897  -3.404  1.00  0.00     0.000 C 
BRANCH   2   3
ATOM      3  C   UNL     1      19.814   3.645  -2.123  1.00  0.00     0.000 C 
BRANCH   3   4
ATOM      4  C   UNL     1      19.354   5.113  -2.123  1.00  0.00     0.000 C 
BRANCH   4   5
ATOM      5  C   UNL     1      18.324   5.439  -1.020  1.00  0.00     0.006 C 
BRANCH   5   6
ATOM      6  C   UNL     1      18.036   4.230  -0.121  1.00  0.00     0.053 C 
BRANCH   6   7
ATOM      7  C   UNL     1      16.625   3.768  -0.298  1.00  0.00     0.041 C 
ATOM      8  O   UNL     1      15.881   4.321  -1.150  1.00  0.00    -0.550 OA
ATOM      9  O   UNL     1      16.116   2.761   0.512  1.00  0.00    -0.550 OA
ENDBRANCH   6   7
ENDBRANCH   5   6
ENDBRANCH   4   5
ENDBRANCH   3   4
ENDBRANCH   2   3
ENDBRANCH   1   2
BRANCH   1  10
ATOM     10  C   UNL     1      17.046   3.075  -4.331  1.00  0.00     0.000 C 
BRANCH  10  11
ATOM     11  C   UNL     1      16.672   2.160  -5.512  1.00  0.00    -0.000 C 
BRANCH  11  12
ATOM     12  C   UNL     1      15.888   2.899  -6.609  1.00  0.00    -0.000 C 
BRANCH  12  13
ATOM     13  C   UNL     1      15.413   4.290  -6.159  1.00  0.00    -0.000 C 
BRANCH  13  14
ATOM     14  C   UNL     1      16.001   5.430  -7.011  1.00  0.00    -0.000 C 
BRANCH  14  15
ATOM     15  C   UNL     1      17.314   5.092  -7.740  1.00  0.00    -0.000 C 
BRANCH  15  16
ATOM     16  C   UNL     1      18.563   5.423  -6.910  1.00  0.00    -0.003 C 
ATOM     17  C   UNL     1      19.550   4.260  -6.914  1.00  0.00     0.004 C 
ENDBRANCH  15  16
ENDBRANCH  14  15
ENDBRANCH  13  14
ENDBRANCH  12  13
ENDBRANCH  11  12
ENDBRANCH  10  11
ENDBRANCH   1  10
TORSDOF 13
ENDMDL
MODEL 9
REMARK VINA RESULT:    -3.562      9.433     11.883
REMARK INTER + INTRA:          -7.709
REMARK INTER:                  -6.034
REMARK INTRA:                  -1.674
REMARK UNBOUND:                -1.440
REMARK SMILES CCCCCCCCCCCCCCC(=O)[O-]
REMARK SMILES IDX 9 1 10 2 11 3 12 4 13 5 14 6 15 7 16 8 17 9 8 10 7 11 6 12
REMARK SMILES IDX 5 13 4 14 3 15 2 16 1 17
REMARK H PARENT
REMARK Flexibility Score: inf
ROOT
ATOM      1  C   UNL     1      17.123  11.905  -5.982  1.00  0.00     0.000 C 
ENDROOT
BRANCH   1   2
ATOM      2  C   UNL     1      16.020  12.805  -6.556  1.00  0.00     0.000 C 
BRANCH   2   3
ATOM      3  C   UNL     1      15.794  12.516  -8.047  1.00  0.00     0.000 C 
BRANCH   3   4
ATOM      4  C   UNL     1      15.323  13.752  -8.832  1.00  0.00     0.000 C 
BRANCH   4   5
ATOM      5  C   UNL     1      16.126  14.007 -10.125  1.00  0.00     0.006 C 
BRANCH   5   6
ATOM      6  C   UNL     1      17.594  13.581  -9.989  1.00  0.00     0.053 C 
BRANCH   6   7
ATOM      7  C   UNL     1      18.406  14.684  -9.389  1.00  0.00     0.041 C 
ATOM      8  O   UNL     1      19.164  14.452  -8.411  1.00  0.00    -0.550 OA
ATOM      9  O   UNL     1      18.289  15.980  -9.877  1.00  0.00    -0.550 OA
ENDBRANCH   6   7
ENDBRANCH   5   6
ENDBRANCH   4   5
ENDBRANCH   3   4
ENDBRANCH   2   3
ENDBRANCH   1   2
BRANCH   1  10
ATOM     10  C   UNL     1      18.054  11.343  -7.069  1.00  0.00     0.000 C 
BRANCH  10  11
ATOM     11  C   UNL     1      19.535  11.377  -6.653  1.00  0.00    -0.000 C 
BRANCH  11  12
ATOM     12  C   UNL     1      19.727  11.723  -5.168  1.00  0.00    -0.000 C 
BRANCH  12  13
ATOM     13  C   UNL     1      20.125  13.193  -4.952  1.00  0.00    -0.000 C 
BRANCH  13  14
ATOM     14  C   UNL     1      19.555  13.783  -3.649  1.00  0.00    -0.000 C 
BRANCH  14  15
ATOM     15  C   UNL     1      18.836  15.135  -3.802  1.00  0.00    -0.000 C 
BRANCH  15  16
ATOM     16  C   UNL     1      18.251  15.347  -5.206  1.00  0.00    -0.003 C 
ATOM     17  C   UNL     1      16.843  15.931  -5.132  1.00  0.00     0.004 C 
ENDBRANCH  15  16
ENDBRANCH  14  15
ENDBRANCH  13  14
ENDBRANCH  12  13
ENDBRANCH  11  12
ENDBRANCH  10  11
ENDBRANCH   1  10
TORSDOF 13
ENDMDL
