MODEL 1
REMARK VINA RESULT:    -4.014      0.000      0.000
REMARK INTER + INTRA:          -5.481
REMARK INTER:                  -4.952
REMARK INTRA:                  -0.529
REMARK UNBOUND:                -0.529
REMARK SMILES CCCCC(=O)c1ccccc1
REMARK SMILES IDX 4 1 3 2 2 3 1 4 5 5 6 6 7 7 8 8 12 9 9 10 11 11 10 12
REMARK H PARENT
REMARK Flexibility Score: inf
ROOT
ATOM      1  C   UNL     1      51.015 -27.250 -31.751  1.00  0.00     0.081 C 
ENDROOT
BRANCH   1   2
ATOM      2  C   UNL     1      52.348 -27.920 -32.116  1.00  0.00     0.008 C 
BRANCH   2   3
ATOM      3  C   UNL     1      52.331 -29.410 -31.755  1.00  0.00    -0.003 C 
ATOM      4  C   UNL     1      52.500 -29.615 -30.252  1.00  0.00     0.004 C 
ENDBRANCH   2   3
ENDBRANCH   1   2
BRANCH   1   5
ATOM      5  C   UNL     1      49.830 -27.849 -32.475  1.00  0.00     0.162 C 
ATOM      6  O   UNL     1      49.833 -27.897 -33.737  1.00  0.00    -0.294 OA
BRANCH   5   7
ATOM      7  C   UNL     1      48.659 -28.387 -31.731  1.00  0.00     0.017 A 
ATOM      8  C   UNL     1      48.856 -29.142 -30.556  1.00  0.00     0.012 A 
ATOM      9  C   UNL     1      47.338 -28.162 -32.172  1.00  0.00     0.012 A 
ATOM     10  C   UNL     1      47.765 -29.653 -29.847  1.00  0.00     0.001 A 
ATOM     11  C   UNL     1      46.252 -28.677 -31.458  1.00  0.00     0.001 A 
ATOM     12  C   UNL     1      46.464 -29.421 -30.297  1.00  0.00     0.000 A 
ENDBRANCH   5   7
ENDBRANCH   1   5
TORSDOF 4
ENDMDL
MODEL 2
REMARK VINA RESULT:    -3.998      2.351      4.762
REMARK INTER + INTRA:          -5.462
REMARK INTER:                  -5.176
REMARK INTRA:                  -0.286
REMARK UNBOUND:                -0.529
REMARK SMILES CCCCC(=O)c1ccccc1
REMARK SMILES IDX 4 1 3 2 2 3 1 4 5 5 6 6 7 7 8 8 12 9 9 10 11 11 10 12
REMARK H PARENT
REMARK Flexibility Score: inf
ROOT
ATOM      1  C   UNL     1      47.067 -30.164 -29.286  1.00  0.00     0.081 C 
ENDROOT
BRANCH   1   2
ATOM      2  C   UNL     1      46.361 -31.509 -29.509  1.00  0.00     0.008 C 
BRANCH   2   3
ATOM      3  C   UNL     1      47.273 -32.679 -29.124  1.00  0.00    -0.003 C 
ATOM      4  C   UNL     1      46.659 -34.016 -29.532  1.00  0.00     0.004 C 
ENDBRANCH   2   3
ENDBRANCH   1   2
BRANCH   1   5
ATOM      5  C   UNL     1      47.040 -29.269 -30.505  1.00  0.00     0.162 C 
ATOM      6  O   UNL     1      45.932 -28.847 -30.941  1.00  0.00    -0.294 OA
BRANCH   5   7
ATOM      7  C   UNL     1      48.294 -28.872 -31.202  1.00  0.00     0.017 A 
ATOM      8  C   UNL     1      49.540 -29.048 -30.568  1.00  0.00     0.012 A 
ATOM      9  C   UNL     1      48.271 -28.315 -32.498  1.00  0.00     0.012 A 
ATOM     10  C   UNL     1      50.725 -28.680 -31.210  1.00  0.00     0.001 A 
ATOM     11  C   UNL     1      49.461 -27.948 -33.135  1.00  0.00     0.001 A 
ATOM     12  C   UNL     1      50.686 -28.130 -32.493  1.00  0.00     0.000 A 
ENDBRANCH   5   7
ENDBRANCH   1   5
TORSDOF 4
ENDMDL
MODEL 3
REMARK VINA RESULT:    -3.987      2.555      5.046
REMARK INTER + INTRA:          -5.448
REMARK INTER:                  -5.193
REMARK INTRA:                  -0.255
REMARK UNBOUND:                -0.529
REMARK SMILES CCCCC(=O)c1ccccc1
REMARK SMILES IDX 4 1 3 2 2 3 1 4 5 5 6 6 7 7 8 8 12 9 9 10 11 11 10 12
REMARK H PARENT
REMARK Flexibility Score: inf
ROOT
ATOM      1  C   UNL     1      47.265 -30.590 -29.188  1.00  0.00     0.081 C 
ENDROOT
BRANCH   1   2
ATOM      2  C   UNL     1      46.490 -31.893 -29.428  1.00  0.00     0.008 C 
BRANCH   2   3
ATOM      3  C   UNL     1      47.388 -33.116 -29.202  1.00  0.00    -0.003 C 
ATOM      4  C   UNL     1      46.572 -34.406 -29.196  1.00  0.00     0.004 C 
ENDBRANCH   2   3
ENDBRANCH   1   2
BRANCH   1   5
ATOM      5  C   UNL     1      47.052 -29.562 -30.276  1.00  0.00     0.162 C 
ATOM      6  O   UNL     1      45.884 -29.144 -30.516  1.00  0.00    -0.294 OA
BRANCH   5   7
ATOM      7  C   UNL     1      48.191 -29.028 -31.072  1.00  0.00     0.017 A 
ATOM      8  C   UNL     1      47.961 -28.468 -32.345  1.00  0.00     0.012 A 
ATOM      9  C   UNL     1      49.514 -29.065 -30.582  1.00  0.00     0.012 A 
ATOM     10  C   UNL     1      49.021 -27.962 -33.103  1.00  0.00     0.001 A 
ATOM     11  C   UNL     1      50.569 -28.558 -31.346  1.00  0.00     0.001 A 
ATOM     12  C   UNL     1      50.325 -28.007 -32.604  1.00  0.00     0.000 A 
ENDBRANCH   5   7
ENDBRANCH   1   5
TORSDOF 4
ENDMDL
MODEL 4
REMARK VINA RESULT:    -3.840     12.863     13.614
REMARK INTER + INTRA:          -5.267
REMARK INTER:                  -5.074
REMARK INTRA:                  -0.193
REMARK UNBOUND:                -0.529
REMARK SMILES CCCCC(=O)c1ccccc1
REMARK SMILES IDX 4 1 3 2 2 3 1 4 5 5 6 6 7 7 8 8 12 9 9 10 11 11 10 12
REMARK H PARENT
REMARK Flexibility Score: inf
ROOT
ATOM      1  C   UNL     1      53.286 -40.945 -31.753  1.00  0.00     0.081 C 
ENDROOT
BRANCH   1   2
ATOM      2  C   UNL     1      54.804 -40.741 -31.871  1.00  0.00     0.008 C 
BRANCH   2   3
ATOM      3  C   UNL     1      55.156 -39.962 -33.144  1.00  0.00    -0.003 C 
ATOM      4  C   UNL     1      54.783 -40.753 -34.395  1.00  0.00     0.004 C 
ENDBRANCH   2   3
ENDBRANCH   1   2
BRANCH   1   5
ATOM      5  C   UNL     1      52.901 -41.919 -30.662  1.00  0.00     0.162 C 
ATOM      6  O   UNL     1      53.801 -42.583 -30.075  1.00  0.00    -0.294 OA
BRANCH   5   7
ATOM      7  C   UNL     1      51.481 -42.110 -30.260  1.00  0.00     0.017 A 
ATOM      8  C   UNL     1      50.761 -43.230 -30.725  1.00  0.00     0.012 A 
ATOM      9  C   UNL     1      50.823 -41.191 -29.416  1.00  0.00     0.012 A 
ATOM     10  C   UNL     1      49.426 -43.422 -30.356  1.00  0.00     0.001 A 
ATOM     11  C   UNL     1      49.488 -41.389 -29.051  1.00  0.00     0.001 A 
ATOM     12  C   UNL     1      48.790 -42.503 -29.519  1.00  0.00     0.000 A 
ENDBRANCH   5   7
ENDBRANCH   1   5
TORSDOF 4
ENDMDL
MODEL 5
REMARK VINA RESULT:    -3.821     14.838     15.817
REMARK INTER + INTRA:          -5.244
REMARK INTER:                  -4.822
REMARK INTRA:                  -0.422
REMARK UNBOUND:                -0.529
REMARK SMILES CCCCC(=O)c1ccccc1
REMARK SMILES IDX 4 1 3 2 2 3 1 4 5 5 6 6 7 7 8 8 12 9 9 10 11 11 10 12
REMARK H PARENT
REMARK Flexibility Score: inf
ROOT
ATOM      1  C   UNL     1      51.586 -40.994 -23.774  1.00  0.00     0.081 C 
ENDROOT
BRANCH   1   2
ATOM      2  C   UNL     1      50.948 -42.348 -23.433  1.00  0.00     0.008 C 
BRANCH   2   3
ATOM      3  C   UNL     1      50.901 -43.259 -24.664  1.00  0.00    -0.003 C 
ATOM      4  C   UNL     1      52.119 -43.041 -25.558  1.00  0.00     0.004 C 
ENDBRANCH   2   3
ENDBRANCH   1   2
BRANCH   1   5
ATOM      5  C   UNL     1      52.537 -40.499 -22.707  1.00  0.00     0.162 C 
ATOM      6  O   UNL     1      52.146 -40.435 -21.508  1.00  0.00    -0.294 OA
BRANCH   5   7
ATOM      7  C   UNL     1      53.928 -40.088 -23.040  1.00  0.00     0.017 A 
ATOM      8  C   UNL     1      54.645 -40.771 -24.043  1.00  0.00     0.012 A 
ATOM      9  C   UNL     1      54.560 -39.018 -22.372  1.00  0.00     0.012 A 
ATOM     10  C   UNL     1      55.952 -40.396 -24.366  1.00  0.00     0.001 A 
ATOM     11  C   UNL     1      55.868 -38.648 -22.700  1.00  0.00     0.001 A 
ATOM     12  C   UNL     1      56.563 -39.335 -23.695  1.00  0.00     0.000 A 
ENDBRANCH   5   7
ENDBRANCH   1   5
TORSDOF 4
ENDMDL
MODEL 6
REMARK VINA RESULT:    -3.792      0.994      4.579
REMARK INTER + INTRA:          -5.208
REMARK INTER:                  -4.850
REMARK INTRA:                  -0.358
REMARK UNBOUND:                -0.529
REMARK SMILES CCCCC(=O)c1ccccc1
REMARK SMILES IDX 4 1 3 2 2 3 1 4 5 5 6 6 7 7 8 8 12 9 9 10 11 11 10 12
REMARK H PARENT
REMARK Flexibility Score: inf
ROOT
ATOM      1  C   UNL     1      48.288 -27.639 -32.011  1.00  0.00     0.081 C 
ENDROOT
BRANCH   1   2
ATOM      2  C   UNL     1      47.297 -28.808 -32.119  1.00  0.00     0.008 C 
BRANCH   2   3
ATOM      3  C   UNL     1      46.375 -28.861 -30.897  1.00  0.00    -0.003 C 
ATOM      4  C   UNL     1      46.650 -30.102 -30.052  1.00  0.00     0.004 C 
ENDBRANCH   2   3
ENDBRANCH   1   2
BRANCH   1   5
ATOM      5  C   UNL     1      49.629 -27.935 -32.643  1.00  0.00     0.162 C 
ATOM      6  O   UNL     1      49.749 -27.882 -33.900  1.00  0.00    -0.294 OA
BRANCH   5   7
ATOM      7  C   UNL     1      50.816 -28.285 -31.816  1.00  0.00     0.017 A 
ATOM      8  C   UNL     1      52.067 -27.699 -32.094  1.00  0.00     0.012 A 
ATOM      9  C   UNL     1      50.724 -29.199 -30.745  1.00  0.00     0.012 A 
ATOM     10  C   UNL     1      53.190 -28.019 -31.325  1.00  0.00     0.001 A 
ATOM     11  C   UNL     1      51.851 -29.514 -29.980  1.00  0.00     0.001 A 
ATOM     12  C   UNL     1      53.082 -28.925 -30.269  1.00  0.00     0.000 A 
ENDBRANCH   5   7
ENDBRANCH   1   5
TORSDOF 4
ENDMDL
MODEL 7
REMARK VINA RESULT:    -3.786     15.034     15.806
REMARK INTER + INTRA:          -5.200
REMARK INTER:                  -4.794
REMARK INTRA:                  -0.406
REMARK UNBOUND:                -0.529
REMARK SMILES CCCCC(=O)c1ccccc1
REMARK SMILES IDX 4 1 3 2 2 3 1 4 5 5 6 6 7 7 8 8 12 9 9 10 11 11 10 12
REMARK H PARENT
REMARK Flexibility Score: inf
ROOT
ATOM      1  C   UNL     1      52.788 -41.921 -25.766  1.00  0.00     0.081 C 
ENDROOT
BRANCH   1   2
ATOM      2  C   UNL     1      52.263 -43.362 -25.847  1.00  0.00     0.008 C 
BRANCH   2   3
ATOM      3  C   UNL     1      50.981 -43.526 -25.023  1.00  0.00    -0.003 C 
ATOM      4  C   UNL     1      50.968 -42.577 -23.828  1.00  0.00     0.004 C 
ENDBRANCH   2   3
ENDBRANCH   1   2
BRANCH   1   5
ATOM      5  C   UNL     1      54.251 -41.842 -25.389  1.00  0.00     0.162 C 
ATOM      6  O   UNL     1      55.069 -42.658 -25.899  1.00  0.00    -0.294 OA
BRANCH   5   7
ATOM      7  C   UNL     1      54.749 -40.819 -24.429  1.00  0.00     0.017 A 
ATOM      8  C   UNL     1      53.902 -40.335 -23.411  1.00  0.00     0.012 A 
ATOM      9  C   UNL     1      56.063 -40.312 -24.509  1.00  0.00     0.012 A 
ATOM     10  C   UNL     1      54.356 -39.375 -22.503  1.00  0.00     0.001 A 
ATOM     11  C   UNL     1      56.511 -39.351 -23.597  1.00  0.00     0.001 A 
ATOM     12  C   UNL     1      55.660 -38.884 -22.595  1.00  0.00     0.000 A 
ENDBRANCH   5   7
ENDBRANCH   1   5
TORSDOF 4
ENDMDL
MODEL 8
REMARK VINA RESULT:    -3.747     12.587     13.713
REMARK INTER + INTRA:          -5.152
REMARK INTER:                  -4.364
REMARK INTRA:                  -0.788
REMARK UNBOUND:                -0.529
REMARK SMILES CCCCC(=O)c1ccccc1
REMARK SMILES IDX 4 1 3 2 2 3 1 4 5 5 6 6 7 7 8 8 12 9 9 10 11 11 10 12
REMARK H PARENT
REMARK Flexibility Score: inf
ROOT
ATOM      1  C   UNL     1      54.503 -41.799 -30.759  1.00  0.00     0.081 C 
ENDROOT
BRANCH   1   2
ATOM      2  C   UNL     1      54.656 -41.358 -29.296  1.00  0.00     0.008 C 
BRANCH   2   3
ATOM      3  C   UNL     1      54.383 -42.524 -28.339  1.00  0.00    -0.003 C 
ATOM      4  C   UNL     1      53.215 -42.211 -27.408  1.00  0.00     0.004 C 
ENDBRANCH   2   3
ENDBRANCH   1   2
BRANCH   1   5
ATOM      5  C   UNL     1      53.217 -41.317 -31.393  1.00  0.00     0.162 C 
ATOM      6  O   UNL     1      53.268 -40.565 -32.407  1.00  0.00    -0.294 OA
BRANCH   5   7
ATOM      7  C   UNL     1      51.889 -41.713 -30.850  1.00  0.00     0.017 A 
ATOM      8  C   UNL     1      51.058 -40.748 -30.246  1.00  0.00     0.012 A 
ATOM      9  C   UNL     1      51.431 -43.045 -30.921  1.00  0.00     0.012 A 
ATOM     10  C   UNL     1      49.808 -41.105 -29.732  1.00  0.00     0.001 A 
ATOM     11  C   UNL     1      50.180 -43.396 -30.404  1.00  0.00     0.001 A 
ATOM     12  C   UNL     1      49.369 -42.428 -29.811  1.00  0.00     0.000 A 
ENDBRANCH   5   7
ENDBRANCH   1   5
TORSDOF 4
ENDMDL
MODEL 9
REMARK VINA RESULT:    -3.743      2.862      6.135
REMARK INTER + INTRA:          -5.148
REMARK INTER:                  -4.791
REMARK INTRA:                  -0.356
REMARK UNBOUND:                -0.529
REMARK SMILES CCCCC(=O)c1ccccc1
REMARK SMILES IDX 4 1 3 2 2 3 1 4 5 5 6 6 7 7 8 8 12 9 9 10 11 11 10 12
REMARK H PARENT
REMARK Flexibility Score: inf
ROOT
ATOM      1  C   UNL     1      44.218 -28.614 -30.265  1.00  0.00     0.081 C 
ENDROOT
BRANCH   1   2
ATOM      2  C   UNL     1      42.895 -29.386 -30.158  1.00  0.00     0.008 C 
BRANCH   2   3
ATOM      3  C   UNL     1      42.009 -29.129 -31.383  1.00  0.00    -0.003 C 
ATOM      4  C   UNL     1      42.784 -28.407 -32.482  1.00  0.00     0.004 C 
ENDBRANCH   2   3
ENDBRANCH   1   2
BRANCH   1   5
ATOM      5  C   UNL     1      45.436 -29.500 -30.124  1.00  0.00     0.162 C 
ATOM      6  O   UNL     1      45.346 -30.583 -29.480  1.00  0.00    -0.294 OA
BRANCH   5   7
ATOM      7  C   UNL     1      46.742 -29.124 -30.732  1.00  0.00     0.017 A 
ATOM      8  C   UNL     1      47.944 -29.403 -30.050  1.00  0.00     0.012 A 
ATOM      9  C   UNL     1      46.814 -28.488 -31.989  1.00  0.00     0.012 A 
ATOM     10  C   UNL     1      49.177 -29.057 -30.608  1.00  0.00     0.001 A 
ATOM     11  C   UNL     1      48.051 -28.143 -32.542  1.00  0.00     0.001 A 
ATOM     12  C   UNL     1      49.231 -28.427 -31.854  1.00  0.00     0.000 A 
ENDBRANCH   5   7
ENDBRANCH   1   5
TORSDOF 4
ENDMDL
