MODEL 1
REMARK VINA RESULT:    -6.904      0.000      0.000
REMARK INTER + INTRA:          -7.500
REMARK INTER:                  -7.307
REMARK INTRA:                  -0.193
REMARK UNBOUND:                -0.193
REMARK SMILES C=C1CC=C(C(C)C)CC1
REMARK SMILES IDX 5 1 4 2 3 3 2 4 1 5 10 6 9 7 6 8 7 9 8 10
REMARK H PARENT
REMARK Flexibility Score: inf
ROOT
ATOM      1  C   UNL     1       2.426 -18.346  15.614  1.00  0.00    -0.071 C 
ATOM      2  C   UNL     1       2.335 -18.556  14.285  1.00  0.00    -0.023 C 
ATOM      3  C   UNL     1       1.009 -18.849  13.629  1.00  0.00     0.057 C 
ATOM      4  C   UNL     1      -0.103 -18.061  14.288  1.00  0.00    -0.073 C 
ATOM      5  C   UNL     1      -1.201 -17.736  13.592  1.00  0.00     0.008 C 
ATOM      6  C   UNL     1       0.008 -17.670  15.747  1.00  0.00     0.035 C 
ATOM      7  C   UNL     1       1.157 -18.412  16.443  1.00  0.00     0.035 C 
ENDROOT
BRANCH   1   8
ATOM      8  C   UNL     1       3.761 -17.982  16.243  1.00  0.00     0.008 C 
ATOM      9  C   UNL     1       3.603 -16.847  17.262  1.00  0.00     0.012 C 
ATOM     10  C   UNL     1       4.789 -17.617  15.166  1.00  0.00     0.012 C 
ENDBRANCH   1   8
TORSDOF 1
ENDMDL
MODEL 2
REMARK VINA RESULT:    -6.194      6.856      8.713
REMARK INTER + INTRA:          -6.749
REMARK INTER:                  -6.575
REMARK INTRA:                  -0.174
REMARK UNBOUND:                -0.193
REMARK SMILES C=C1CC=C(C(C)C)CC1
REMARK SMILES IDX 5 1 4 2 3 3 2 4 1 5 10 6 9 7 6 8 7 9 8 10
REMARK H PARENT
REMARK Flexibility Score: inf
ROOT
ATOM      1  C   UNL     1      -3.024 -16.704   9.422  1.00  0.00    -0.071 C 
ATOM      2  C   UNL     1      -3.247 -16.158  10.636  1.00  0.00    -0.023 C 
ATOM      3  C   UNL     1      -2.348 -15.080  11.184  1.00  0.00     0.057 C 
ATOM      4  C   UNL     1      -1.879 -14.156  10.080  1.00  0.00    -0.073 C 
ATOM      5  C   UNL     1      -1.550 -12.887  10.359  1.00  0.00     0.008 C 
ATOM      6  C   UNL     1      -1.746 -14.675   8.664  1.00  0.00     0.035 C 
ATOM      7  C   UNL     1      -1.840 -16.207   8.615  1.00  0.00     0.035 C 
ENDROOT
BRANCH   1   8
ATOM      8  C   UNL     1      -3.985 -17.738   8.859  1.00  0.00     0.008 C 
ATOM      9  C   UNL     1      -3.242 -18.788   8.024  1.00  0.00     0.012 C 
ATOM     10  C   UNL     1      -5.092 -17.065   8.040  1.00  0.00     0.012 C 
ENDBRANCH   1   8
TORSDOF 1
ENDMDL
MODEL 3
REMARK VINA RESULT:    -6.044      6.156      8.830
REMARK INTER + INTRA:          -6.590
REMARK INTER:                  -6.453
REMARK INTRA:                  -0.137
REMARK UNBOUND:                -0.193
REMARK SMILES C=C1CC=C(C(C)C)CC1
REMARK SMILES IDX 5 1 4 2 3 3 2 4 1 5 10 6 9 7 6 8 7 9 8 10
REMARK H PARENT
REMARK Flexibility Score: inf
ROOT
ATOM      1  C   UNL     1      -3.259 -15.460   9.564  1.00  0.00    -0.071 C 
ATOM      2  C   UNL     1      -2.748 -14.767   8.524  1.00  0.00    -0.023 C 
ATOM      3  C   UNL     1      -3.096 -15.126   7.102  1.00  0.00     0.057 C 
ATOM      4  C   UNL     1      -4.537 -15.580   6.998  1.00  0.00    -0.073 C 
ATOM      5  C   UNL     1      -5.207 -15.432   5.847  1.00  0.00     0.008 C 
ATOM      6  C   UNL     1      -5.211 -16.237   8.184  1.00  0.00     0.035 C 
ATOM      7  C   UNL     1      -4.195 -16.616   9.271  1.00  0.00     0.035 C 
ENDROOT
BRANCH   1   8
ATOM      8  C   UNL     1      -2.951 -15.036  10.991  1.00  0.00     0.008 C 
ATOM      9  C   UNL     1      -2.039 -13.804  11.019  1.00  0.00     0.012 C 
ATOM     10  C   UNL     1      -2.336 -16.195  11.783  1.00  0.00     0.012 C 
ENDBRANCH   1   8
TORSDOF 1
ENDMDL
MODEL 4
REMARK VINA RESULT:    -6.031      6.214      9.575
REMARK INTER + INTRA:          -6.576
REMARK INTER:                  -6.406
REMARK INTRA:                  -0.170
REMARK UNBOUND:                -0.193
REMARK SMILES C=C1CC=C(C(C)C)CC1
REMARK SMILES IDX 5 1 4 2 3 3 2 4 1 5 10 6 9 7 6 8 7 9 8 10
REMARK H PARENT
REMARK Flexibility Score: inf
ROOT
ATOM      1  C   UNL     1      -3.591 -15.374   8.091  1.00  0.00    -0.071 C 
ATOM      2  C   UNL     1      -4.372 -16.052   8.957  1.00  0.00    -0.023 C 
ATOM      3  C   UNL     1      -3.810 -16.620  10.235  1.00  0.00     0.057 C 
ATOM      4  C   UNL     1      -2.759 -15.698  10.818  1.00  0.00    -0.073 C 
ATOM      5  C   UNL     1      -2.523 -15.694  12.137  1.00  0.00     0.008 C 
ATOM      6  C   UNL     1      -1.946 -14.804   9.904  1.00  0.00     0.035 C 
ATOM      7  C   UNL     1      -2.125 -15.194   8.430  1.00  0.00     0.035 C 
ENDROOT
BRANCH   1   8
ATOM      8  C   UNL     1      -4.195 -14.749   6.843  1.00  0.00     0.008 C 
ATOM      9  C   UNL     1      -4.945 -13.455   7.179  1.00  0.00     0.012 C 
ATOM     10  C   UNL     1      -5.109 -15.747   6.123  1.00  0.00     0.012 C 
ENDBRANCH   1   8
TORSDOF 1
ENDMDL
MODEL 5
REMARK VINA RESULT:    -5.966      6.812      8.784
REMARK INTER + INTRA:          -6.508
REMARK INTER:                  -6.316
REMARK INTRA:                  -0.192
REMARK UNBOUND:                -0.193
REMARK SMILES C=C1CC=C(C(C)C)CC1
REMARK SMILES IDX 5 1 4 2 3 3 2 4 1 5 10 6 9 7 6 8 7 9 8 10
REMARK H PARENT
REMARK Flexibility Score: inf
ROOT
ATOM      1  C   UNL     1      -2.789 -15.532   9.356  1.00  0.00    -0.071 C 
ATOM      2  C   UNL     1      -2.419 -14.955   8.194  1.00  0.00    -0.023 C 
ATOM      3  C   UNL     1      -3.039 -15.371   6.884  1.00  0.00     0.057 C 
ATOM      4  C   UNL     1      -4.506 -15.702   7.063  1.00  0.00    -0.073 C 
ATOM      5  C   UNL     1      -5.356 -15.569   6.036  1.00  0.00     0.008 C 
ATOM      6  C   UNL     1      -5.009 -16.219   8.395  1.00  0.00     0.035 C 
ATOM      7  C   UNL     1      -3.848 -16.617   9.319  1.00  0.00     0.035 C 
ENDROOT
BRANCH   1   8
ATOM      8  C   UNL     1      -2.203 -15.047  10.672  1.00  0.00     0.008 C 
ATOM      9  C   UNL     1      -3.087 -15.455  11.856  1.00  0.00     0.012 C 
ATOM     10  C   UNL     1      -1.983 -13.530  10.645  1.00  0.00     0.012 C 
ENDBRANCH   1   8
TORSDOF 1
ENDMDL
MODEL 6
REMARK VINA RESULT:    -5.943      6.068      8.221
REMARK INTER + INTRA:          -6.484
REMARK INTER:                  -6.322
REMARK INTRA:                  -0.162
REMARK UNBOUND:                -0.193
REMARK SMILES C=C1CC=C(C(C)C)CC1
REMARK SMILES IDX 5 1 4 2 3 3 2 4 1 5 10 6 9 7 6 8 7 9 8 10
REMARK H PARENT
REMARK Flexibility Score: inf
ROOT
ATOM      1  C   UNL     1      -2.814 -16.590   9.422  1.00  0.00    -0.071 C 
ATOM      2  C   UNL     1      -3.080 -17.036  10.668  1.00  0.00    -0.023 C 
ATOM      3  C   UNL     1      -2.474 -16.373  11.879  1.00  0.00     0.057 C 
ATOM      4  C   UNL     1      -2.372 -14.876  11.681  1.00  0.00    -0.073 C 
ATOM      5  C   UNL     1      -2.388 -14.054  12.739  1.00  0.00     0.008 C 
ATOM      6  C   UNL     1      -2.217 -14.305  10.286  1.00  0.00     0.035 C 
ATOM      7  C   UNL     1      -1.885 -15.402   9.264  1.00  0.00     0.035 C 
ENDROOT
BRANCH   1   8
ATOM      8  C   UNL     1      -3.492 -17.227   8.220  1.00  0.00     0.008 C 
ATOM      9  C   UNL     1      -5.004 -16.968   8.235  1.00  0.00     0.012 C 
ATOM     10  C   UNL     1      -3.190 -18.728   8.157  1.00  0.00     0.012 C 
ENDBRANCH   1   8
TORSDOF 1
ENDMDL
MODEL 7
REMARK VINA RESULT:    -5.672      5.047      7.322
REMARK INTER + INTRA:          -6.196
REMARK INTER:                  -6.025
REMARK INTRA:                  -0.171
REMARK UNBOUND:                -0.193
REMARK SMILES C=C1CC=C(C(C)C)CC1
REMARK SMILES IDX 5 1 4 2 3 3 2 4 1 5 10 6 9 7 6 8 7 9 8 10
REMARK H PARENT
REMARK Flexibility Score: inf
ROOT
ATOM      1  C   UNL     1      -3.324 -15.745  11.360  1.00  0.00    -0.071 C 
ATOM      2  C   UNL     1      -4.450 -16.447  11.112  1.00  0.00    -0.023 C 
ATOM      3  C   UNL     1      -4.786 -16.915   9.719  1.00  0.00     0.057 C 
ATOM      4  C   UNL     1      -3.534 -17.316   8.967  1.00  0.00    -0.073 C 
ATOM      5  C   UNL     1      -3.601 -18.224   7.984  1.00  0.00     0.008 C 
ATOM      6  C   UNL     1      -2.209 -16.663   9.302  1.00  0.00     0.035 C 
ATOM      7  C   UNL     1      -2.399 -15.433  10.201  1.00  0.00     0.035 C 
ENDROOT
BRANCH   1   8
ATOM      8  C   UNL     1      -2.970 -15.346  12.783  1.00  0.00     0.008 C 
ATOM      9  C   UNL     1      -2.365 -13.938  12.828  1.00  0.00     0.012 C 
ATOM     10  C   UNL     1      -2.025 -16.373  13.418  1.00  0.00     0.012 C 
ENDBRANCH   1   8
TORSDOF 1
ENDMDL
MODEL 8
REMARK VINA RESULT:    -5.647      6.621      9.138
REMARK INTER + INTRA:          -6.170
REMARK INTER:                  -6.017
REMARK INTRA:                  -0.153
REMARK UNBOUND:                -0.193
REMARK SMILES C=C1CC=C(C(C)C)CC1
REMARK SMILES IDX 5 1 4 2 3 3 2 4 1 5 10 6 9 7 6 8 7 9 8 10
REMARK H PARENT
REMARK Flexibility Score: inf
ROOT
ATOM      1  C   UNL     1      -3.293 -15.537   9.142  1.00  0.00    -0.071 C 
ATOM      2  C   UNL     1      -4.142 -16.562   8.918  1.00  0.00    -0.023 C 
ATOM      3  C   UNL     1      -5.287 -16.429   7.947  1.00  0.00     0.057 C 
ATOM      4  C   UNL     1      -4.891 -15.578   6.758  1.00  0.00    -0.073 C 
ATOM      5  C   UNL     1      -5.494 -15.754   5.574  1.00  0.00     0.008 C 
ATOM      6  C   UNL     1      -3.836 -14.503   6.915  1.00  0.00     0.035 C 
ATOM      7  C   UNL     1      -3.518 -14.237   8.393  1.00  0.00     0.035 C 
ENDROOT
BRANCH   1   8
ATOM      8  C   UNL     1      -2.103 -15.717  10.070  1.00  0.00     0.008 C 
ATOM      9  C   UNL     1      -2.473 -15.370  11.518  1.00  0.00     0.012 C 
ATOM     10  C   UNL     1      -0.908 -14.885   9.592  1.00  0.00     0.012 C 
ENDBRANCH   1   8
TORSDOF 1
ENDMDL
MODEL 9
REMARK VINA RESULT:    -5.615      3.327      5.369
REMARK INTER + INTRA:          -6.136
REMARK INTER:                  -5.943
REMARK INTRA:                  -0.193
REMARK UNBOUND:                -0.193
REMARK SMILES C=C1CC=C(C(C)C)CC1
REMARK SMILES IDX 5 1 4 2 3 3 2 4 1 5 10 6 9 7 6 8 7 9 8 10
REMARK H PARENT
REMARK Flexibility Score: inf
ROOT
ATOM      1  C   UNL     1      -2.084 -16.600  13.155  1.00  0.00    -0.071 C 
ATOM      2  C   UNL     1      -1.965 -16.865  11.837  1.00  0.00    -0.023 C 
ATOM      3  C   UNL     1      -2.469 -15.895  10.798  1.00  0.00     0.057 C 
ATOM      4  C   UNL     1      -2.253 -14.465  11.245  1.00  0.00    -0.073 C 
ATOM      5  C   UNL     1      -2.111 -13.490  10.336  1.00  0.00     0.008 C 
ATOM      6  C   UNL     1      -2.232 -14.128  12.722  1.00  0.00     0.035 C 
ATOM      7  C   UNL     1      -2.742 -15.300  13.573  1.00  0.00     0.035 C 
ENDROOT
BRANCH   1   8
ATOM      8  C   UNL     1      -1.505 -17.558  14.183  1.00  0.00     0.008 C 
ATOM      9  C   UNL     1      -1.131 -16.823  15.476  1.00  0.00     0.012 C 
ATOM     10  C   UNL     1      -0.300 -18.311  13.608  1.00  0.00     0.012 C 
ENDBRANCH   1   8
TORSDOF 1
ENDMDL
