MODEL 1
REMARK VINA RESULT:    -1.766      0.000      0.000
REMARK INTER + INTRA:          -3.154
REMARK INTER:                  -2.695
REMARK INTRA:                  -0.458
REMARK UNBOUND:                -0.458
REMARK SMILES C=CCCCCCCCCCC
REMARK SMILES IDX 7 1 8 2 9 3 10 4 11 5 12 6 6 7 5 8 4 9 3 10 2 11 1 12
REMARK H PARENT
REMARK Flexibility Score: inf
ROOT
ATOM      1  C   UNL     1     135.631 140.067 164.064  1.00  0.00     0.000 C 
ENDROOT
BRANCH   1   2
ATOM      2  C   UNL     1     136.188 138.651 163.832  1.00  0.00    -0.000 C 
BRANCH   2   3
ATOM      3  C   UNL     1     135.403 137.867 162.767  1.00  0.00    -0.000 C 
BRANCH   3   4
ATOM      4  C   UNL     1     136.288 137.422 161.592  1.00  0.00    -0.000 C 
BRANCH   4   5
ATOM      5  C   UNL     1     137.132 136.182 161.921  1.00  0.00    -0.003 C 
ATOM      6  C   UNL     1     136.368 134.899 161.607  1.00  0.00     0.004 C 
ENDBRANCH   4   5
ENDBRANCH   3   4
ENDBRANCH   2   3
ENDBRANCH   1   2
BRANCH   1   7
ATOM      7  C   UNL     1     135.421 140.907 162.787  1.00  0.00     0.000 C 
BRANCH   7   8
ATOM      8  C   UNL     1     136.694 141.181 161.963  1.00  0.00     0.000 C 
BRANCH   8   9
ATOM      9  C   UNL     1     136.738 142.552 161.260  1.00  0.00     0.004 C 
BRANCH   9  10
ATOM     10  C   UNL     1     138.003 142.775 160.413  1.00  0.00     0.027 C 
BRANCH  10  11
ATOM     11  C   UNL     1     137.852 143.939 159.470  1.00  0.00    -0.035 C 
ATOM     12  C   UNL     1     137.017 143.899 158.428  1.00  0.00     0.004 C 
ENDBRANCH  10  11
ENDBRANCH   9  10
ENDBRANCH   8   9
ENDBRANCH   7   8
ENDBRANCH   1   7
TORSDOF 9
ENDMDL
MODEL 2
REMARK VINA RESULT:    -1.143      2.745      5.665
REMARK INTER + INTRA:          -2.202
REMARK INTER:                  -1.798
REMARK INTRA:                  -0.404
REMARK UNBOUND:                -0.458
REMARK SMILES C=CCCCCCCCCCC
REMARK SMILES IDX 7 1 8 2 9 3 10 4 11 5 12 6 6 7 5 8 4 9 3 10 2 11 1 12
REMARK H PARENT
REMARK Flexibility Score: inf
ROOT
ATOM      1  C   UNL     1     135.746 140.392 162.650  1.00  0.00     0.000 C 
ENDROOT
BRANCH   1   2
ATOM      2  C   UNL     1     135.652 140.449 164.185  1.00  0.00    -0.000 C 
BRANCH   2   3
ATOM      3  C   UNL     1     136.804 139.705 164.882  1.00  0.00    -0.000 C 
BRANCH   3   4
ATOM      4  C   UNL     1     136.319 138.825 166.045  1.00  0.00    -0.000 C 
BRANCH   4   5
ATOM      5  C   UNL     1     137.475 138.263 166.885  1.00  0.00    -0.003 C 
ATOM      6  C   UNL     1     137.031 137.037 167.679  1.00  0.00     0.004 C 
ENDBRANCH   4   5
ENDBRANCH   3   4
ENDBRANCH   2   3
ENDBRANCH   1   2
BRANCH   1   7
ATOM      7  C   UNL     1     134.919 139.274 161.982  1.00  0.00     0.000 C 
BRANCH   7   8
ATOM      8  C   UNL     1     134.917 137.924 162.725  1.00  0.00     0.000 C 
BRANCH   8   9
ATOM      9  C   UNL     1     135.015 136.678 161.823  1.00  0.00     0.004 C 
BRANCH   9  10
ATOM     10  C   UNL     1     136.359 136.550 161.085  1.00  0.00     0.027 C 
BRANCH  10  11
ATOM     11  C   UNL     1     137.051 135.249 161.393  1.00  0.00    -0.035 C 
ATOM     12  C   UNL     1     137.328 134.877 162.645  1.00  0.00     0.004 C 
ENDBRANCH  10  11
ENDBRANCH   9  10
ENDBRANCH   8   9
ENDBRANCH   7   8
ENDBRANCH   1   7
TORSDOF 9
ENDMDL
MODEL 3
REMARK VINA RESULT:    -0.962     17.978     21.027
REMARK INTER + INTRA:          -1.927
REMARK INTER:                  -1.672
REMARK INTRA:                  -0.255
REMARK UNBOUND:                -0.458
REMARK SMILES C=CCCCCCCCCCC
REMARK SMILES IDX 7 1 8 2 9 3 10 4 11 5 12 6 6 7 5 8 4 9 3 10 2 11 1 12
REMARK H PARENT
REMARK Flexibility Score: inf
ROOT
ATOM      1  C   UNL     1     155.073 150.032 162.617  1.00  0.00     0.000 C 
ENDROOT
BRANCH   1   2
ATOM      2  C   UNL     1     154.930 151.033 163.777  1.00  0.00    -0.000 C 
BRANCH   2   3
ATOM      3  C   UNL     1     155.124 152.493 163.334  1.00  0.00    -0.000 C 
BRANCH   3   4
ATOM      4  C   UNL     1     154.871 152.691 161.831  1.00  0.00    -0.000 C 
BRANCH   4   5
ATOM      5  C   UNL     1     153.712 153.658 161.548  1.00  0.00    -0.003 C 
ATOM      6  C   UNL     1     154.148 155.108 161.740  1.00  0.00     0.004 C 
ENDBRANCH   4   5
ENDBRANCH   3   4
ENDBRANCH   2   3
ENDBRANCH   1   2
BRANCH   1   7
ATOM      7  C   UNL     1     153.744 149.546 162.002  1.00  0.00     0.000 C 
BRANCH   7   8
ATOM      8  C   UNL     1     153.832 148.236 161.196  1.00  0.00     0.000 C 
BRANCH   8   9
ATOM      9  C   UNL     1     152.626 147.946 160.281  1.00  0.00     0.004 C 
BRANCH   9  10
ATOM     10  C   UNL     1     152.771 146.658 159.452  1.00  0.00     0.027 C 
BRANCH  10  11
ATOM     11  C   UNL     1     153.997 146.682 158.579  1.00  0.00    -0.035 C 
ATOM     12  C   UNL     1     153.974 146.240 157.319  1.00  0.00     0.004 C 
ENDBRANCH  10  11
ENDBRANCH   9  10
ENDBRANCH   8   9
ENDBRANCH   7   8
ENDBRANCH   1   7
TORSDOF 9
ENDMDL
MODEL 4
REMARK VINA RESULT:    -0.143      2.896      5.400
REMARK INTER + INTRA:          -0.676
REMARK INTER:                  -0.022
REMARK INTRA:                  -0.654
REMARK UNBOUND:                -0.458
REMARK SMILES C=CCCCCCCCCCC
REMARK SMILES IDX 7 1 8 2 9 3 10 4 11 5 12 6 6 7 5 8 4 9 3 10 2 11 1 12
REMARK H PARENT
REMARK Flexibility Score: inf
ROOT
ATOM      1  C   UNL     1     135.960 139.825 162.579  1.00  0.00     0.000 C 
ENDROOT
BRANCH   1   2
ATOM      2  C   UNL     1     134.879 138.904 161.984  1.00  0.00    -0.000 C 
BRANCH   2   3
ATOM      3  C   UNL     1     135.317 137.431 161.924  1.00  0.00    -0.000 C 
BRANCH   3   4
ATOM      4  C   UNL     1     136.844 137.272 161.856  1.00  0.00    -0.000 C 
BRANCH   4   5
ATOM      5  C   UNL     1     137.289 135.802 161.879  1.00  0.00    -0.003 C 
ATOM      6  C   UNL     1     136.143 134.875 161.485  1.00  0.00     0.004 C 
ENDBRANCH   4   5
ENDBRANCH   3   4
ENDBRANCH   2   3
ENDBRANCH   1   2
BRANCH   1   7
ATOM      7  C   UNL     1     135.480 140.750 163.716  1.00  0.00     0.000 C 
BRANCH   7   8
ATOM      8  C   UNL     1     136.041 140.421 165.113  1.00  0.00     0.000 C 
BRANCH   8   9
ATOM      9  C   UNL     1     136.475 138.957 165.319  1.00  0.00     0.004 C 
BRANCH   9  10
ATOM     10  C   UNL     1     137.409 138.749 166.524  1.00  0.00     0.027 C 
BRANCH  10  11
ATOM     11  C   UNL     1     137.310 137.354 167.081  1.00  0.00    -0.035 C 
ATOM     12  C   UNL     1     136.916 137.123 168.336  1.00  0.00     0.004 C 
ENDBRANCH  10  11
ENDBRANCH   9  10
ENDBRANCH   8   9
ENDBRANCH   7   8
ENDBRANCH   1   7
TORSDOF 9
ENDMDL
MODEL 5
REMARK VINA RESULT:     0.391     14.593     15.785
REMARK INTER + INTRA:           0.137
REMARK INTER:                   0.596
REMARK INTRA:                  -0.458
REMARK UNBOUND:                -0.458
REMARK SMILES C=CCCCCCCCCCC
REMARK SMILES IDX 7 1 8 2 9 3 10 4 11 5 12 6 6 7 5 8 4 9 3 10 2 11 1 12
REMARK H PARENT
REMARK Flexibility Score: inf
ROOT
ATOM      1  C   UNL     1     149.964 136.007 158.815  1.00  0.00     0.000 C 
ENDROOT
BRANCH   1   2
ATOM      2  C   UNL     1     148.837 135.274 159.563  1.00  0.00    -0.000 C 
BRANCH   2   3
ATOM      3  C   UNL     1     149.232 134.875 160.995  1.00  0.00    -0.000 C 
BRANCH   3   4
ATOM      4  C   UNL     1     150.740 135.021 161.253  1.00  0.00    -0.000 C 
BRANCH   4   5
ATOM      5  C   UNL     1     151.064 136.121 162.274  1.00  0.00    -0.003 C 
ATOM      6  C   UNL     1     150.760 135.658 163.695  1.00  0.00     0.004 C 
ENDBRANCH   4   5
ENDBRANCH   3   4
ENDBRANCH   2   3
ENDBRANCH   1   2
BRANCH   1   7
ATOM      7  C   UNL     1     150.061 135.696 157.307  1.00  0.00     0.000 C 
BRANCH   7   8
ATOM      8  C   UNL     1     151.370 136.139 156.626  1.00  0.00     0.000 C 
BRANCH   8   9
ATOM      9  C   UNL     1     151.298 137.483 155.875  1.00  0.00     0.004 C 
BRANCH   9  10
ATOM     10  C   UNL     1     152.556 138.354 156.038  1.00  0.00     0.027 C 
BRANCH  10  11
ATOM     11  C   UNL     1     153.814 137.528 156.072  1.00  0.00    -0.035 C 
ATOM     12  C   UNL     1     154.988 138.047 156.442  1.00  0.00     0.004 C 
ENDBRANCH  10  11
ENDBRANCH   9  10
ENDBRANCH   8   9
ENDBRANCH   7   8
ENDBRANCH   1   7
TORSDOF 9
ENDMDL
