MODEL 1
REMARK VINA RESULT:     8.089      0.000      0.000
REMARK INTER + INTRA:          13.544
REMARK INTER:                  12.345
REMARK INTRA:                   1.199
REMARK UNBOUND:                 1.199
REMARK SMILES CC1=CCC[C@@H](C)C(=O)C[C@H](C(C)C)C(=O)C1
REMARK SMILES IDX 8 1 9 2 6 3 7 4 5 5 4 6 3 7 2 8 1 9 10 11 11 12 15 13 16 14
REMARK SMILES IDX 17 15 12 17 13 18 14 19
REMARK H PARENT
REMARK Flexibility Score: 70.00
ROOT
ATOM      1  C   UNL     1      -3.319   5.158   6.097  1.00  0.00     0.136 C 
ATOM      2  O   UNL     1      -2.630   6.045   5.612  1.00  0.00    -0.299 OA
ENDROOT
BRANCH   1   3
ATOM      3  C   UNL     1      -2.990   3.696   5.824  1.00  0.00     0.053 C 
ATOM      4  C   UNL     1      -2.678   3.436   4.340  1.00  0.00     0.016 C 
BRANCH   3   5
ATOM      5  C   UNL     1      -4.094   2.745   6.334  1.00  0.00     0.015 C 
BRANCH   5   6
ATOM      6  C   UNL     1      -4.081   2.562   7.863  1.00  0.00     0.028 C 
BRANCH   6   7
ATOM      7  C   UNL     1      -5.451   2.688   8.477  1.00  0.00    -0.028 C 
ATOM      8  C   UNL     1      -5.825   3.595   9.414  1.00  0.00    -0.070 CG0
ATOM      9  C   UNL     1      -7.282   3.606   9.815  1.00  0.00     0.039 C 
ATOM     10  G   UNL     1      -4.870   4.552  10.124  1.00  0.00     0.000 G0
ENDBRANCH   6   7
ENDBRANCH   5   6
ENDBRANCH   3   5
ENDBRANCH   1   3
BRANCH   1  11
ATOM     11  C   UNL     1      -4.471   5.539   6.997  1.00  0.00     0.087 C 
BRANCH  11  12
ATOM     12  C   UNL     1      -4.015   6.279   8.284  1.00  0.00     0.066 C 
BRANCH  12  13
ATOM     13  C   UNL     1      -4.842   5.939   9.524  1.00  0.00     0.140 C 
ATOM     14  O   UNL     1      -5.403   6.849  10.118  1.00  0.00    -0.299 OA
BRANCH  13  15
ATOM     15  C   UNL     1      -4.886   4.553  10.125  1.00  0.00     0.106 CG0
ATOM     16  G   UNL     1      -5.816   3.579   9.404  1.00  0.00     0.000 G0
ENDBRANCH  13  15
ENDBRANCH  12  13
BRANCH  12  17
ATOM     17  C   UNL     1      -2.475   6.166   8.514  1.00  0.00    -0.006 C 
ATOM     18  C   UNL     1      -2.029   4.904   9.272  1.00  0.00     0.008 C 
ATOM     19  C   UNL     1      -1.906   7.420   9.194  1.00  0.00     0.008 C 
ENDBRANCH  12  17
ENDBRANCH  11  12
ENDBRANCH   1  11
TORSDOF 1
ENDMDL
MODEL 2
REMARK VINA RESULT:     8.286      1.807      3.506
REMARK INTER + INTRA:          13.845
REMARK INTER:                  12.983
REMARK INTRA:                   0.862
REMARK UNBOUND:                 1.199
REMARK SMILES CC1=CCC[C@@H](C)C(=O)C[C@H](C(C)C)C(=O)C1
REMARK SMILES IDX 8 1 9 2 6 3 7 4 5 5 4 6 3 7 2 8 1 9 10 11 11 12 15 13 16 14
REMARK SMILES IDX 17 15 12 17 13 18 14 19
REMARK H PARENT
REMARK Flexibility Score: 70.00
ROOT
ATOM      1  C   UNL     1      -3.374   4.332   6.216  1.00  0.00     0.136 C 
ATOM      2  O   UNL     1      -2.607   4.441   5.269  1.00  0.00    -0.299 OA
ENDROOT
BRANCH   1   3
ATOM      3  C   UNL     1      -3.787   5.563   7.012  1.00  0.00     0.053 C 
ATOM      4  C   UNL     1      -3.986   6.798   6.116  1.00  0.00     0.016 C 
BRANCH   3   5
ATOM      5  C   UNL     1      -2.808   5.866   8.166  1.00  0.00     0.015 C 
BRANCH   5   6
ATOM      6  C   UNL     1      -3.264   5.291   9.519  1.00  0.00     0.028 C 
BRANCH   6   7
ATOM      7  C   UNL     1      -4.714   5.578   9.815  1.00  0.00    -0.028 C 
ATOM      8  C   UNL     1      -5.751   4.724   9.625  1.00  0.00    -0.070 CG0
ATOM      9  C   UNL     1      -7.113   5.185  10.088  1.00  0.00     0.039 C 
ATOM     10  G   UNL     1      -5.641   3.369   8.928  1.00  0.00     0.000 G0
ENDBRANCH   6   7
ENDBRANCH   5   6
ENDBRANCH   3   5
ENDBRANCH   1   3
BRANCH   1  11
ATOM     11  C   UNL     1      -3.929   2.968   6.552  1.00  0.00     0.087 C 
BRANCH  11  12
ATOM     12  C   UNL     1      -3.413   2.422   7.912  1.00  0.00     0.066 C 
BRANCH  12  13
ATOM     13  C   UNL     1      -4.392   2.611   9.070  1.00  0.00     0.140 C 
ATOM     14  O   UNL     1      -4.164   2.036  10.125  1.00  0.00    -0.299 OA
BRANCH  13  15
ATOM     15  C   UNL     1      -5.695   3.363   8.928  1.00  0.00     0.106 CG0
ATOM     16  G   UNL     1      -5.719   4.723   9.622  1.00  0.00     0.000 G0
ENDBRANCH  13  15
ENDBRANCH  12  13
BRANCH  12  17
ATOM     17  C   UNL     1      -2.866   0.965   7.791  1.00  0.00    -0.006 C 
ATOM     18  C   UNL     1      -1.679   0.645   8.717  1.00  0.00     0.008 C 
ATOM     19  C   UNL     1      -2.515   0.607   6.339  1.00  0.00     0.008 C 
ENDBRANCH  12  17
ENDBRANCH  11  12
ENDBRANCH   1  11
TORSDOF 1
ENDMDL
