MODEL 1
REMARK VINA RESULT:    -4.411      0.000      0.000
REMARK INTER + INTRA:          -7.191
REMARK INTER:                  -6.474
REMARK INTRA:                  -0.717
REMARK UNBOUND:                -0.717
REMARK SMILES O=C([O-])CCCCCCCC(=O)[O-]
REMARK SMILES IDX 7 1 6 2 5 3 4 4 2 5 1 6 3 7 8 8 9 9 10 10 11 11 12 12 13 13
REMARK H PARENT
REMARK Flexibility Score: inf
ROOT
ATOM      1  C   UNL     1      63.386  30.281  13.585  1.00  0.00     0.000 C 
ENDROOT
BRANCH   1   2
ATOM      2  C   UNL     1      62.652  28.996  13.175  1.00  0.00     0.000 C 
BRANCH   2   3
ATOM      3  C   UNL     1      61.180  29.045  13.604  1.00  0.00     0.006 C 
BRANCH   3   4
ATOM      4  C   UNL     1      60.280  28.381  12.557  1.00  0.00     0.053 C 
BRANCH   4   5
ATOM      5  C   UNL     1      60.468  29.026  11.221  1.00  0.00     0.041 C 
ATOM      6  O   UNL     1      60.079  30.209  11.027  1.00  0.00    -0.550 OA
ATOM      7  O   UNL     1      61.031  28.307  10.175  1.00  0.00    -0.550 OA
ENDBRANCH   4   5
ENDBRANCH   3   4
ENDBRANCH   2   3
ENDBRANCH   1   2
BRANCH   1   8
ATOM      8  C   UNL     1      63.269  31.393  12.530  1.00  0.00     0.000 C 
BRANCH   8   9
ATOM      9  C   UNL     1      62.709  32.701  13.106  1.00  0.00     0.006 C 
BRANCH   9  10
ATOM     10  C   UNL     1      61.186  32.757  12.958  1.00  0.00     0.053 C 
BRANCH  10  11
ATOM     11  C   UNL     1      60.530  32.808  14.301  1.00  0.00     0.041 C 
ATOM     12  O   UNL     1      59.522  32.091  14.542  1.00  0.00    -0.550 OA
ATOM     13  O   UNL     1      61.059  33.610  15.304  1.00  0.00    -0.550 OA
ENDBRANCH  10  11
ENDBRANCH   9  10
ENDBRANCH   8   9
ENDBRANCH   1   8
TORSDOF 8
ENDMDL
MODEL 2
REMARK VINA RESULT:    -4.396      1.342      4.537
REMARK INTER + INTRA:          -7.168
REMARK INTER:                  -6.378
REMARK INTRA:                  -0.790
REMARK UNBOUND:                -0.717
REMARK SMILES O=C([O-])CCCCCCCC(=O)[O-]
REMARK SMILES IDX 7 1 6 2 5 3 4 4 2 5 1 6 3 7 8 8 9 9 10 10 11 11 12 12 13 13
REMARK H PARENT
REMARK Flexibility Score: inf
ROOT
ATOM      1  C   UNL     1      62.649  29.323  13.311  1.00  0.00     0.000 C 
ENDROOT
BRANCH   1   2
ATOM      2  C   UNL     1      63.161  30.375  14.305  1.00  0.00     0.000 C 
BRANCH   2   3
ATOM      3  C   UNL     1      62.057  30.782  15.290  1.00  0.00     0.006 C 
BRANCH   3   4
ATOM      4  C   UNL     1      61.698  32.263  15.133  1.00  0.00     0.053 C 
BRANCH   4   5
ATOM      5  C   UNL     1      60.646  32.437  14.085  1.00  0.00     0.041 C 
ATOM      6  O   UNL     1      59.477  32.013  14.282  1.00  0.00    -0.550 OA
ATOM      7  O   UNL     1      60.968  33.026  12.869  1.00  0.00    -0.550 OA
ENDBRANCH   4   5
ENDBRANCH   3   4
ENDBRANCH   2   3
ENDBRANCH   1   2
BRANCH   1   8
ATOM      8  C   UNL     1      61.232  28.830  13.647  1.00  0.00     0.000 C 
BRANCH   8   9
ATOM      9  C   UNL     1      60.374  28.593  12.396  1.00  0.00     0.006 C 
BRANCH   9  10
ATOM     10  C   UNL     1      60.419  29.806  11.462  1.00  0.00     0.053 C 
BRANCH  10  11
ATOM     11  C   UNL     1      60.708  29.377  10.059  1.00  0.00     0.041 C 
ATOM     12  O   UNL     1      61.372  28.328   9.841  1.00  0.00    -0.550 OA
ATOM     13  O   UNL     1      60.205  30.106   8.990  1.00  0.00    -0.550 OA
ENDBRANCH  10  11
ENDBRANCH   9  10
ENDBRANCH   8   9
ENDBRANCH   1   8
TORSDOF 8
ENDMDL
MODEL 3
REMARK VINA RESULT:    -4.384      2.032      3.142
REMARK INTER + INTRA:          -7.151
REMARK INTER:                  -6.478
REMARK INTRA:                  -0.672
REMARK UNBOUND:                -0.717
REMARK SMILES O=C([O-])CCCCCCCC(=O)[O-]
REMARK SMILES IDX 7 1 6 2 5 3 4 4 2 5 1 6 3 7 8 8 9 9 10 10 11 11 12 12 13 13
REMARK H PARENT
REMARK Flexibility Score: inf
ROOT
ATOM      1  C   UNL     1      60.083  28.644  12.541  1.00  0.00     0.000 C 
ENDROOT
BRANCH   1   2
ATOM      2  C   UNL     1      60.112  29.322  11.164  1.00  0.00     0.000 C 
BRANCH   2   3
ATOM      3  C   UNL     1      61.146  28.655  10.247  1.00  0.00     0.006 C 
BRANCH   3   4
ATOM      4  C   UNL     1      62.058  29.700   9.595  1.00  0.00     0.053 C 
BRANCH   4   5
ATOM      5  C   UNL     1      63.490  29.422   9.924  1.00  0.00     0.041 C 
ATOM      6  O   UNL     1      63.937  29.672  11.075  1.00  0.00    -0.550 OA
ATOM      7  O   UNL     1      64.344  28.929   8.946  1.00  0.00    -0.550 OA
ENDBRANCH   4   5
ENDBRANCH   3   4
ENDBRANCH   2   3
ENDBRANCH   1   2
BRANCH   1   8
ATOM      8  C   UNL     1      61.436  28.716  13.267  1.00  0.00     0.000 C 
BRANCH   8   9
ATOM      9  C   UNL     1      61.483  29.827  14.326  1.00  0.00     0.006 C 
BRANCH   9  10
ATOM     10  C   UNL     1      62.010  31.134  13.728  1.00  0.00     0.053 C 
BRANCH  10  11
ATOM     11  C   UNL     1      60.904  32.131  13.591  1.00  0.00     0.041 C 
ATOM     12  O   UNL     1      61.002  33.077  12.764  1.00  0.00    -0.550 OA
ATOM     13  O   UNL     1      59.744  31.991  14.340  1.00  0.00    -0.550 OA
ENDBRANCH  10  11
ENDBRANCH   9  10
ENDBRANCH   8   9
ENDBRANCH   1   8
TORSDOF 8
ENDMDL
MODEL 4
REMARK VINA RESULT:    -4.299      1.993      4.843
REMARK INTER + INTRA:          -7.026
REMARK INTER:                  -6.351
REMARK INTRA:                  -0.675
REMARK UNBOUND:                -0.717
REMARK SMILES O=C([O-])CCCCCCCC(=O)[O-]
REMARK SMILES IDX 7 1 6 2 5 3 4 4 2 5 1 6 3 7 8 8 9 9 10 10 11 11 12 12 13 13
REMARK H PARENT
REMARK Flexibility Score: inf
ROOT
ATOM      1  C   UNL     1      60.179  28.614  12.572  1.00  0.00     0.000 C 
ENDROOT
BRANCH   1   2
ATOM      2  C   UNL     1      61.563  28.767  13.219  1.00  0.00     0.000 C 
BRANCH   2   3
ATOM      3  C   UNL     1      61.568  29.911  14.241  1.00  0.00     0.006 C 
BRANCH   3   4
ATOM      4  C   UNL     1      61.870  31.252  13.564  1.00  0.00     0.053 C 
BRANCH   4   5
ATOM      5  C   UNL     1      60.751  32.217  13.793  1.00  0.00     0.041 C 
ATOM      6  O   UNL     1      59.602  31.797  14.095  1.00  0.00    -0.550 OA
ATOM      7  O   UNL     1      60.963  33.579  13.627  1.00  0.00    -0.550 OA
ENDBRANCH   4   5
ENDBRANCH   3   4
ENDBRANCH   2   3
ENDBRANCH   1   2
BRANCH   1   8
ATOM      8  C   UNL     1      60.138  29.143  11.129  1.00  0.00     0.000 C 
BRANCH   8   9
ATOM      9  C   UNL     1      61.227  28.525  10.240  1.00  0.00     0.006 C 
BRANCH   9  10
ATOM     10  C   UNL     1      62.000  29.611   9.486  1.00  0.00     0.053 C 
BRANCH  10  11
ATOM     11  C   UNL     1      63.456  29.547   9.822  1.00  0.00     0.041 C 
ATOM     12  O   UNL     1      64.249  28.904   9.083  1.00  0.00    -0.550 OA
ATOM     13  O   UNL     1      63.948  30.235  10.924  1.00  0.00    -0.550 OA
ENDBRANCH  10  11
ENDBRANCH   9  10
ENDBRANCH   8   9
ENDBRANCH   1   8
TORSDOF 8
ENDMDL
MODEL 5
REMARK VINA RESULT:    -4.285     12.201     13.228
REMARK INTER + INTRA:          -7.006
REMARK INTER:                  -6.244
REMARK INTRA:                  -0.763
REMARK UNBOUND:                -0.717
REMARK SMILES O=C([O-])CCCCCCCC(=O)[O-]
REMARK SMILES IDX 7 1 6 2 5 3 4 4 2 5 1 6 3 7 8 8 9 9 10 10 11 11 12 12 13 13
REMARK H PARENT
REMARK Flexibility Score: inf
ROOT
ATOM      1  C   UNL     1      63.970  29.528  24.725  1.00  0.00     0.000 C 
ENDROOT
BRANCH   1   2
ATOM      2  C   UNL     1      64.762  28.882  25.871  1.00  0.00     0.000 C 
BRANCH   2   3
ATOM      3  C   UNL     1      65.741  27.828  25.336  1.00  0.00     0.006 C 
BRANCH   3   4
ATOM      4  C   UNL     1      65.033  26.491  25.098  1.00  0.00     0.053 C 
BRANCH   4   5
ATOM      5  C   UNL     1      65.112  26.107  23.655  1.00  0.00     0.041 C 
ATOM      6  O   UNL     1      66.169  25.604  23.189  1.00  0.00    -0.550 OA
ATOM      7  O   UNL     1      64.034  26.346  22.812  1.00  0.00    -0.550 OA
ENDBRANCH   4   5
ENDBRANCH   3   4
ENDBRANCH   2   3
ENDBRANCH   1   2
BRANCH   1   8
ATOM      8  C   UNL     1      62.457  29.565  24.998  1.00  0.00     0.000 C 
BRANCH   8   9
ATOM      9  C   UNL     1      61.762  28.236  24.670  1.00  0.00     0.006 C 
BRANCH   9  10
ATOM     10  C   UNL     1      60.738  27.872  25.749  1.00  0.00     0.053 C 
BRANCH  10  11
ATOM     11  C   UNL     1      61.408  27.714  27.076  1.00  0.00     0.041 C 
ATOM     12  O   UNL     1      62.226  26.774  27.265  1.00  0.00    -0.550 OA
ATOM     13  O   UNL     1      61.168  28.631  28.091  1.00  0.00    -0.550 OA
ENDBRANCH  10  11
ENDBRANCH   9  10
ENDBRANCH   8   9
ENDBRANCH   1   8
TORSDOF 8
ENDMDL
MODEL 6
REMARK VINA RESULT:    -4.285      1.804      2.706
REMARK INTER + INTRA:          -7.005
REMARK INTER:                  -6.368
REMARK INTRA:                  -0.638
REMARK UNBOUND:                -0.717
REMARK SMILES O=C([O-])CCCCCCCC(=O)[O-]
REMARK SMILES IDX 7 1 6 2 5 3 4 4 2 5 1 6 3 7 8 8 9 9 10 10 11 11 12 12 13 13
REMARK H PARENT
REMARK Flexibility Score: inf
ROOT
ATOM      1  C   UNL     1      63.827  29.866  12.561  1.00  0.00     0.000 C 
ENDROOT
BRANCH   1   2
ATOM      2  C   UNL     1      63.852  30.393  11.119  1.00  0.00     0.000 C 
BRANCH   2   3
ATOM      3  C   UNL     1      63.472  29.288  10.125  1.00  0.00     0.006 C 
BRANCH   3   4
ATOM      4  C   UNL     1      62.434  29.789   9.116  1.00  0.00     0.053 C 
BRANCH   4   5
ATOM      5  C   UNL     1      61.142  29.056   9.288  1.00  0.00     0.041 C 
ATOM      6  O   UNL     1      61.086  27.813   9.095  1.00  0.00    -0.550 OA
ATOM      7  O   UNL     1      59.986  29.754   9.617  1.00  0.00    -0.550 OA
ENDBRANCH   4   5
ENDBRANCH   3   4
ENDBRANCH   2   3
ENDBRANCH   1   2
BRANCH   1   8
ATOM      8  C   UNL     1      62.612  28.967  12.843  1.00  0.00     0.000 C 
BRANCH   8   9
ATOM      9  C   UNL     1      61.596  29.623  13.789  1.00  0.00     0.006 C 
BRANCH   9  10
ATOM     10  C   UNL     1      60.501  30.347  13.000  1.00  0.00     0.053 C 
BRANCH  10  11
ATOM     11  C   UNL     1      60.368  31.762  13.467  1.00  0.00     0.041 C 
ATOM     12  O   UNL     1      59.546  32.055  14.376  1.00  0.00    -0.550 OA
ATOM     13  O   UNL     1      61.184  32.750  12.933  1.00  0.00    -0.550 OA
ENDBRANCH  10  11
ENDBRANCH   9  10
ENDBRANCH   8   9
ENDBRANCH   1   8
TORSDOF 8
ENDMDL
MODEL 7
REMARK VINA RESULT:    -4.257      1.885      4.329
REMARK INTER + INTRA:          -6.964
REMARK INTER:                  -6.224
REMARK INTRA:                  -0.740
REMARK UNBOUND:                -0.717
REMARK SMILES O=C([O-])CCCCCCCC(=O)[O-]
REMARK SMILES IDX 7 1 6 2 5 3 4 4 2 5 1 6 3 7 8 8 9 9 10 10 11 11 12 12 13 13
REMARK H PARENT
REMARK Flexibility Score: inf
ROOT
ATOM      1  C   UNL     1      63.678  30.108  12.600  1.00  0.00     0.000 C 
ENDROOT
BRANCH   1   2
ATOM      2  C   UNL     1      62.644  28.991  12.804  1.00  0.00     0.000 C 
BRANCH   2   3
ATOM      3  C   UNL     1      61.433  29.503  13.596  1.00  0.00     0.006 C 
BRANCH   3   4
ATOM      4  C   UNL     1      60.524  30.363  12.713  1.00  0.00     0.053 C 
BRANCH   4   5
ATOM      5  C   UNL     1      60.399  31.742  13.279  1.00  0.00     0.041 C 
ATOM      6  O   UNL     1      59.635  31.960  14.256  1.00  0.00    -0.550 OA
ATOM      7  O   UNL     1      61.090  32.796  12.697  1.00  0.00    -0.550 OA
ENDBRANCH   4   5
ENDBRANCH   3   4
ENDBRANCH   2   3
ENDBRANCH   1   2
BRANCH   1   8
ATOM      8  C   UNL     1      63.810  30.531  11.128  1.00  0.00     0.000 C 
BRANCH   8   9
ATOM      9  C   UNL     1      63.628  29.358  10.155  1.00  0.00     0.006 C 
BRANCH   9  10
ATOM     10  C   UNL     1      62.741  29.759   8.973  1.00  0.00     0.053 C 
BRANCH  10  11
ATOM     11  C   UNL     1      61.340  29.279   9.183  1.00  0.00     0.041 C 
ATOM     12  O   UNL     1      61.127  28.131   9.656  1.00  0.00    -0.550 OA
ATOM     13  O   UNL     1      60.268  30.117   8.902  1.00  0.00    -0.550 OA
ENDBRANCH  10  11
ENDBRANCH   9  10
ENDBRANCH   8   9
ENDBRANCH   1   8
TORSDOF 8
ENDMDL
MODEL 8
REMARK VINA RESULT:    -4.225     12.667     13.859
REMARK INTER + INTRA:          -6.918
REMARK INTER:                  -6.183
REMARK INTRA:                  -0.734
REMARK UNBOUND:                -0.717
REMARK SMILES O=C([O-])CCCCCCCC(=O)[O-]
REMARK SMILES IDX 7 1 6 2 5 3 4 4 2 5 1 6 3 7 8 8 9 9 10 10 11 11 12 12 13 13
REMARK H PARENT
REMARK Flexibility Score: inf
ROOT
ATOM      1  C   UNL     1      63.483  29.821  26.893  1.00  0.00     0.000 C 
ENDROOT
BRANCH   1   2
ATOM      2  C   UNL     1      62.852  29.088  28.085  1.00  0.00     0.000 C 
BRANCH   2   3
ATOM      3  C   UNL     1      61.457  28.557  27.727  1.00  0.00     0.006 C 
BRANCH   3   4
ATOM      4  C   UNL     1      61.554  27.265  26.910  1.00  0.00     0.053 C 
BRANCH   4   5
ATOM      5  C   UNL     1      60.815  27.408  25.617  1.00  0.00     0.041 C 
ATOM      6  O   UNL     1      61.227  28.207  24.735  1.00  0.00    -0.550 OA
ATOM      7  O   UNL     1      59.643  26.693  25.405  1.00  0.00    -0.550 OA
ENDBRANCH   4   5
ENDBRANCH   3   4
ENDBRANCH   2   3
ENDBRANCH   1   2
BRANCH   1   8
ATOM      8  C   UNL     1      64.827  29.208  26.466  1.00  0.00     0.000 C 
BRANCH   8   9
ATOM      9  C   UNL     1      64.715  28.367  25.186  1.00  0.00     0.006 C 
BRANCH   9  10
ATOM     10  C   UNL     1      65.292  26.965  25.400  1.00  0.00     0.053 C 
BRANCH  10  11
ATOM     11  C   UNL     1      64.863  26.048  24.298  1.00  0.00     0.041 C 
ATOM     12  O   UNL     1      65.696  25.659  23.437  1.00  0.00    -0.550 OA
ATOM     13  O   UNL     1      63.555  25.585  24.248  1.00  0.00    -0.550 OA
ENDBRANCH  10  11
ENDBRANCH   9  10
ENDBRANCH   8   9
ENDBRANCH   1   8
TORSDOF 8
ENDMDL
MODEL 9
REMARK VINA RESULT:    -4.178      1.708      4.584
REMARK INTER + INTRA:          -6.848
REMARK INTER:                  -6.112
REMARK INTRA:                  -0.736
REMARK UNBOUND:                -0.717
REMARK SMILES O=C([O-])CCCCCCCC(=O)[O-]
REMARK SMILES IDX 7 1 6 2 5 3 4 4 2 5 1 6 3 7 8 8 9 9 10 10 11 11 12 12 13 13
REMARK H PARENT
REMARK Flexibility Score: inf
ROOT
ATOM      1  C   UNL     1      64.216  30.944  11.727  1.00  0.00     0.000 C 
ENDROOT
BRANCH   1   2
ATOM      2  C   UNL     1      64.009  32.427  12.068  1.00  0.00     0.000 C 
BRANCH   2   3
ATOM      3  C   UNL     1      62.974  32.592  13.188  1.00  0.00     0.006 C 
BRANCH   3   4
ATOM      4  C   UNL     1      61.566  32.254  12.689  1.00  0.00     0.053 C 
BRANCH   4   5
ATOM      5  C   UNL     1      60.826  31.454  13.714  1.00  0.00     0.041 C 
ATOM      6  O   UNL     1      61.210  30.291  14.009  1.00  0.00    -0.550 OA
ATOM      7  O   UNL     1      59.685  31.973  14.310  1.00  0.00    -0.550 OA
ENDBRANCH   4   5
ENDBRANCH   3   4
ENDBRANCH   2   3
ENDBRANCH   1   2
BRANCH   1   8
ATOM      8  C   UNL     1      64.269  30.687  10.212  1.00  0.00     0.000 C 
BRANCH   8   9
ATOM      9  C   UNL     1      63.444  29.462   9.790  1.00  0.00     0.006 C 
BRANCH   9  10
ATOM     10  C   UNL     1      62.467  29.052  10.896  1.00  0.00     0.053 C 
BRANCH  10  11
ATOM     11  C   UNL     1      61.117  28.761  10.321  1.00  0.00     0.041 C 
ATOM     12  O   UNL     1      61.004  28.003   9.321  1.00  0.00    -0.550 OA
ATOM     13  O   UNL     1      59.979  29.288  10.917  1.00  0.00    -0.550 OA
ENDBRANCH  10  11
ENDBRANCH   9  10
ENDBRANCH   8   9
ENDBRANCH   1   8
TORSDOF 8
ENDMDL
