MODEL 1
REMARK VINA RESULT:    -2.013      0.000      0.000
REMARK INTER + INTRA:          -2.401
REMARK INTER:                  -2.189
REMARK INTRA:                  -0.212
REMARK UNBOUND:                -0.212
REMARK SMILES CC(=O)[C@H]1CC[C@@H]2[C@@H]3CC=C4C[C@H](O)CC[C@@]4(C)[C@H]3CC[C@@]12C
REMARK SMILES IDX 4 1 5 2 6 3 7 4 22 5 21 6 20 7 19 8 8 9 9 10 10 11 11 12
REMARK SMILES IDX 17 13 16 14 15 15 13 16 12 17 18 18 23 19 2 20 1 21 3 22
REMARK SMILES IDX 14 23
REMARK H PARENT 14 24
REMARK Flexibility Score: inf
ROOT
ATOM      1  C   UNL     1      86.932  33.258  65.913  1.00  0.00     0.062 C 
ATOM      2  C   UNL     1      85.527  33.309  65.252  1.00  0.00     0.012 C 
ATOM      3  C   UNL     1      85.270  31.932  64.616  1.00  0.00     0.005 C 
ATOM      4  C   UNL     1      86.603  31.203  64.731  1.00  0.00    -0.001 C 
ATOM      5  C   UNL     1      87.276  31.735  66.003  1.00  0.00    -0.020 C 
ATOM      6  C   UNL     1      88.799  31.336  65.998  1.00  0.00     0.008 C 
ATOM      7  C   UNL     1      89.124  30.070  65.147  1.00  0.00     0.005 C 
ATOM      8  C   UNL     1      87.956  29.050  65.144  1.00  0.00     0.003 C 
ATOM      9  C   UNL     1      86.684  29.668  64.500  1.00  0.00     0.000 C 
ATOM     10  C   UNL     1      85.483  28.826  64.934  1.00  0.00     0.031 C 
ATOM     11  C   UNL     1      85.706  27.392  64.514  1.00  0.00    -0.027 C 
ATOM     12  C   UNL     1      86.938  26.849  64.314  1.00  0.00    -0.065 C 
ATOM     13  C   UNL     1      88.254  27.628  64.543  1.00  0.00    -0.008 C 
ATOM     14  C   UNL     1      89.004  27.728  63.180  1.00  0.00     0.014 C 
ATOM     15  C   UNL     1      89.125  26.377  62.444  1.00  0.00     0.033 C 
ATOM     16  C   UNL     1      87.755  25.690  62.273  1.00  0.00     0.118 C 
ATOM     17  C   UNL     1      87.039  25.508  63.622  1.00  0.00     0.063 C 
ATOM     18  C   UNL     1      89.124  26.840  65.561  1.00  0.00     0.016 C 
ATOM     19  C   UNL     1      86.600  31.207  67.311  1.00  0.00     0.012 C 
ENDROOT
BRANCH   1  20
ATOM     20  C   UNL     1      87.960  34.123  65.188  1.00  0.00     0.133 C 
ATOM     21  C   UNL     1      89.083  34.851  65.878  1.00  0.00     0.088 C 
ATOM     22  O   UNL     1      87.847  34.266  63.980  1.00  0.00    -0.300 OA
ENDBRANCH   1  20
BRANCH  16  23
ATOM     23  O   UNL     1      87.899  24.455  61.618  1.00  0.00    -0.393 OA
ATOM     24  H   UNL     1      88.765  24.062  61.904  1.00  0.00     0.210 HD
ENDBRANCH  16  23
TORSDOF 2
ENDMDL
