MODEL 1
REMARK VINA RESULT:    -3.892      0.000      0.000
REMARK INTER + INTRA:          -8.171
REMARK INTER:                  -6.623
REMARK INTRA:                  -1.549
REMARK UNBOUND:                -1.549
REMARK SMILES CCCCCCCCCCCCCC(=O)[O-]
REMARK SMILES IDX 8 1 9 2 10 3 11 4 12 5 13 6 14 7 15 8 16 9 7 10 6 11 5 12
REMARK SMILES IDX 4 13 3 14 2 15 1 16
REMARK H PARENT
REMARK Flexibility Score: inf
ROOT
ATOM      1  C   UNL     1       1.977  -2.044  -6.467  1.00  0.00     0.000 C 
ENDROOT
BRANCH   1   2
ATOM      2  C   UNL     1       1.124  -0.767  -6.426  1.00  0.00     0.000 C 
BRANCH   2   3
ATOM      3  C   UNL     1       0.027  -0.753  -7.501  1.00  0.00     0.000 C 
BRANCH   3   4
ATOM      4  C   UNL     1       0.170  -1.903  -8.510  1.00  0.00     0.000 C 
BRANCH   4   5
ATOM      5  C   UNL     1       0.671  -1.386  -9.864  1.00  0.00     0.006 C 
BRANCH   5   6
ATOM      6  C   UNL     1       2.112  -1.834 -10.125  1.00  0.00     0.053 C 
BRANCH   6   7
ATOM      7  C   UNL     1       3.073  -0.751  -9.748  1.00  0.00     0.041 C 
ATOM      8  O   UNL     1       4.265  -1.034  -9.459  1.00  0.00    -0.550 OA
ATOM      9  O   UNL     1       2.664   0.576  -9.764  1.00  0.00    -0.550 OA
ENDBRANCH   6   7
ENDBRANCH   5   6
ENDBRANCH   4   5
ENDBRANCH   3   4
ENDBRANCH   2   3
ENDBRANCH   1   2
BRANCH   1  10
ATOM     10  C   UNL     1       1.337  -3.158  -5.628  1.00  0.00     0.000 C 
BRANCH  10  11
ATOM     11  C   UNL     1       1.763  -4.542  -6.134  1.00  0.00    -0.000 C 
BRANCH  11  12
ATOM     12  C   UNL     1       2.580  -4.427  -7.427  1.00  0.00    -0.000 C 
BRANCH  12  13
ATOM     13  C   UNL     1       1.916  -5.210  -8.570  1.00  0.00    -0.000 C 
BRANCH  13  14
ATOM     14  C   UNL     1       0.445  -5.557  -8.261  1.00  0.00    -0.000 C 
BRANCH  14  15
ATOM     15  C   UNL     1      -0.117  -6.694  -9.132  1.00  0.00    -0.003 C 
ATOM     16  C   UNL     1      -1.522  -7.126  -8.720  1.00  0.00     0.004 C 
ENDBRANCH  14  15
ENDBRANCH  13  14
ENDBRANCH  12  13
ENDBRANCH  11  12
ENDBRANCH  10  11
ENDBRANCH   1  10
TORSDOF 12
ENDMDL
MODEL 2
REMARK VINA RESULT:    -3.887      3.152      4.518
REMARK INTER + INTRA:          -8.163
REMARK INTER:                  -6.501
REMARK INTRA:                  -1.662
REMARK UNBOUND:                -1.549
REMARK SMILES CCCCCCCCCCCCCC(=O)[O-]
REMARK SMILES IDX 8 1 9 2 10 3 11 4 12 5 13 6 14 7 15 8 16 9 7 10 6 11 5 12
REMARK SMILES IDX 4 13 3 14 2 15 1 16
REMARK H PARENT
REMARK Flexibility Score: inf
ROOT
ATOM      1  C   UNL     1       1.813  -1.952  -6.302  1.00  0.00     0.000 C 
ENDROOT
BRANCH   1   2
ATOM      2  C   UNL     1       0.736  -0.961  -6.769  1.00  0.00     0.000 C 
BRANCH   2   3
ATOM      3  C   UNL     1       0.660  -0.847  -8.300  1.00  0.00     0.000 C 
BRANCH   3   4
ATOM      4  C   UNL     1      -0.677  -1.348  -8.866  1.00  0.00     0.000 C 
BRANCH   4   5
ATOM      5  C   UNL     1      -1.661  -0.188  -9.062  1.00  0.00     0.006 C 
BRANCH   5   6
ATOM      6  C   UNL     1      -3.065  -0.706  -9.387  1.00  0.00     0.053 C 
BRANCH   6   7
ATOM      7  C   UNL     1      -4.099   0.294  -8.978  1.00  0.00     0.041 C 
ATOM      8  O   UNL     1      -5.307  -0.047  -8.881  1.00  0.00    -0.550 OA
ATOM      9  O   UNL     1      -3.722   1.592  -8.657  1.00  0.00    -0.550 OA
ENDBRANCH   6   7
ENDBRANCH   5   6
ENDBRANCH   4   5
ENDBRANCH   3   4
ENDBRANCH   2   3
ENDBRANCH   1   2
BRANCH   1  10
ATOM     10  C   UNL     1       1.181  -3.271  -5.840  1.00  0.00     0.000 C 
BRANCH  10  11
ATOM     11  C   UNL     1       1.744  -4.458  -6.632  1.00  0.00    -0.000 C 
BRANCH  11  12
ATOM     12  C   UNL     1       0.792  -4.866  -7.763  1.00  0.00    -0.000 C 
BRANCH  12  13
ATOM     13  C   UNL     1       1.357  -4.457  -9.133  1.00  0.00    -0.000 C 
BRANCH  13  14
ATOM     14  C   UNL     1       2.868  -4.152  -9.073  1.00  0.00    -0.000 C 
BRANCH  14  15
ATOM     15  C   UNL     1       3.284  -2.935  -9.918  1.00  0.00    -0.003 C 
ATOM     16  C   UNL     1       4.104  -1.914  -9.132  1.00  0.00     0.004 C 
ENDBRANCH  14  15
ENDBRANCH  13  14
ENDBRANCH  12  13
ENDBRANCH  11  12
ENDBRANCH  10  11
ENDBRANCH   1  10
TORSDOF 12
ENDMDL
MODEL 3
REMARK VINA RESULT:    -3.865     16.874     18.899
REMARK INTER + INTRA:          -8.126
REMARK INTER:                  -7.391
REMARK INTRA:                  -0.735
REMARK UNBOUND:                -1.549
REMARK SMILES CCCCCCCCCCCCCC(=O)[O-]
REMARK SMILES IDX 8 1 9 2 10 3 11 4 12 5 13 6 14 7 15 8 16 9 7 10 6 11 5 12
REMARK SMILES IDX 4 13 3 14 2 15 1 16
REMARK H PARENT
REMARK Flexibility Score: inf
ROOT
ATOM      1  C   UNL     1       8.262   4.072   4.840  1.00  0.00     0.000 C 
ENDROOT
BRANCH   1   2
ATOM      2  C   UNL     1       8.427   3.061   5.984  1.00  0.00     0.000 C 
BRANCH   2   3
ATOM      3  C   UNL     1       9.689   3.317   6.823  1.00  0.00     0.000 C 
BRANCH   3   4
ATOM      4  C   UNL     1       9.625   2.654   8.208  1.00  0.00     0.000 C 
BRANCH   4   5
ATOM      5  C   UNL     1       8.324   1.861   8.378  1.00  0.00     0.006 C 
BRANCH   5   6
ATOM      6  C   UNL     1       8.491   0.748   9.417  1.00  0.00     0.053 C 
BRANCH   6   7
ATOM      7  C   UNL     1       7.187   0.054   9.654  1.00  0.00     0.041 C 
ATOM      8  O   UNL     1       6.157   0.719   9.937  1.00  0.00    -0.550 OA
ATOM      9  O   UNL     1       7.100  -1.326   9.515  1.00  0.00    -0.550 OA
ENDBRANCH   6   7
ENDBRANCH   5   6
ENDBRANCH   4   5
ENDBRANCH   3   4
ENDBRANCH   2   3
ENDBRANCH   1   2
BRANCH   1  10
ATOM     10  C   UNL     1       9.419   3.961   3.839  1.00  0.00     0.000 C 
BRANCH  10  11
ATOM     11  C   UNL     1      10.038   5.336   3.559  1.00  0.00    -0.000 C 
BRANCH  11  12
ATOM     12  C   UNL     1       9.574   6.369   4.593  1.00  0.00    -0.000 C 
BRANCH  12  13
ATOM     13  C   UNL     1       9.288   7.724   3.928  1.00  0.00    -0.000 C 
BRANCH  13  14
ATOM     14  C   UNL     1       8.183   8.512   4.662  1.00  0.00    -0.000 C 
BRANCH  14  15
ATOM     15  C   UNL     1       7.684   9.743   3.886  1.00  0.00    -0.003 C 
ATOM     16  C   UNL     1       8.119   9.744   2.422  1.00  0.00     0.004 C 
ENDBRANCH  14  15
ENDBRANCH  13  14
ENDBRANCH  12  13
ENDBRANCH  11  12
ENDBRANCH  10  11
ENDBRANCH   1  10
TORSDOF 12
ENDMDL
MODEL 4
REMARK VINA RESULT:    -3.833      2.955      3.673
REMARK INTER + INTRA:          -8.071
REMARK INTER:                  -6.811
REMARK INTRA:                  -1.260
REMARK UNBOUND:                -1.549
REMARK SMILES CCCCCCCCCCCCCC(=O)[O-]
REMARK SMILES IDX 8 1 9 2 10 3 11 4 12 5 13 6 14 7 15 8 16 9 7 10 6 11 5 12
REMARK SMILES IDX 4 13 3 14 2 15 1 16
REMARK H PARENT
REMARK Flexibility Score: inf
ROOT
ATOM      1  C   UNL     1       1.887  -1.987  -6.447  1.00  0.00     0.000 C 
ENDROOT
BRANCH   1   2
ATOM      2  C   UNL     1       0.821  -1.101  -7.108  1.00  0.00     0.000 C 
BRANCH   2   3
ATOM      3  C   UNL     1       0.784  -1.258  -8.636  1.00  0.00     0.000 C 
BRANCH   3   4
ATOM      4  C   UNL     1      -0.549  -1.831  -9.142  1.00  0.00     0.000 C 
BRANCH   4   5
ATOM      5  C   UNL     1      -1.438  -0.724  -9.722  1.00  0.00     0.006 C 
BRANCH   5   6
ATOM      6  C   UNL     1      -2.365  -0.144  -8.650  1.00  0.00     0.053 C 
BRANCH   6   7
ATOM      7  C   UNL     1      -3.796  -0.405  -8.999  1.00  0.00     0.041 C 
ATOM      8  O   UNL     1      -4.627   0.540  -9.012  1.00  0.00    -0.550 OA
ATOM      9  O   UNL     1      -4.201  -1.685  -9.357  1.00  0.00    -0.550 OA
ENDBRANCH   6   7
ENDBRANCH   5   6
ENDBRANCH   4   5
ENDBRANCH   3   4
ENDBRANCH   2   3
ENDBRANCH   1   2
BRANCH   1  10
ATOM     10  C   UNL     1       1.237  -3.140  -5.672  1.00  0.00     0.000 C 
BRANCH  10  11
ATOM     11  C   UNL     1       1.740  -4.497  -6.180  1.00  0.00    -0.000 C 
BRANCH  11  12
ATOM     12  C   UNL     1       2.597  -4.329  -7.441  1.00  0.00    -0.000 C 
BRANCH  12  13
ATOM     13  C   UNL     1       1.934  -5.003  -8.652  1.00  0.00    -0.000 C 
BRANCH  13  14
ATOM     14  C   UNL     1       0.483  -5.436  -8.356  1.00  0.00    -0.000 C 
BRANCH  14  15
ATOM     15  C   UNL     1      -0.018  -6.574  -9.263  1.00  0.00    -0.003 C 
ATOM     16  C   UNL     1      -1.356  -7.154  -8.811  1.00  0.00     0.004 C 
ENDBRANCH  14  15
ENDBRANCH  13  14
ENDBRANCH  12  13
ENDBRANCH  11  12
ENDBRANCH  10  11
ENDBRANCH   1  10
TORSDOF 12
ENDMDL
MODEL 5
REMARK VINA RESULT:    -3.786      1.624      3.888
REMARK INTER + INTRA:          -7.991
REMARK INTER:                  -6.852
REMARK INTRA:                  -1.139
REMARK UNBOUND:                -1.549
REMARK SMILES CCCCCCCCCCCCCC(=O)[O-]
REMARK SMILES IDX 8 1 9 2 10 3 11 4 12 5 13 6 14 7 15 8 16 9 7 10 6 11 5 12
REMARK SMILES IDX 4 13 3 14 2 15 1 16
REMARK H PARENT
REMARK Flexibility Score: inf
ROOT
ATOM      1  C   UNL     1       0.502  -5.095  -7.755  1.00  0.00     0.000 C 
ENDROOT
BRANCH   1   2
ATOM      2  C   UNL     1       1.992  -4.822  -7.500  1.00  0.00     0.000 C 
BRANCH   2   3
ATOM      3  C   UNL     1       2.275  -4.385  -6.054  1.00  0.00     0.000 C 
BRANCH   3   4
ATOM      4  C   UNL     1       1.445  -3.163  -5.631  1.00  0.00     0.000 C 
BRANCH   4   5
ATOM      5  C   UNL     1       1.910  -1.901  -6.367  1.00  0.00     0.006 C 
BRANCH   5   6
ATOM      6  C   UNL     1       0.754  -1.258  -7.140  1.00  0.00     0.053 C 
BRANCH   6   7
ATOM      7  C   UNL     1       1.197  -0.867  -8.514  1.00  0.00     0.041 C 
ATOM      8  O   UNL     1       0.829   0.229  -9.010  1.00  0.00    -0.550 OA
ATOM      9  O   UNL     1       2.055  -1.694  -9.228  1.00  0.00    -0.550 OA
ENDBRANCH   6   7
ENDBRANCH   5   6
ENDBRANCH   4   5
ENDBRANCH   3   4
ENDBRANCH   2   3
ENDBRANCH   1   2
BRANCH   1  10
ATOM     10  C   UNL     1       0.104  -4.676  -9.176  1.00  0.00     0.000 C 
BRANCH  10  11
ATOM     11  C   UNL     1      -0.856  -5.695  -9.802  1.00  0.00    -0.000 C 
BRANCH  11  12
ATOM     12  C   UNL     1      -0.697  -7.074  -9.147  1.00  0.00    -0.000 C 
BRANCH  12  13
ATOM     13  C   UNL     1      -2.044  -7.809  -9.076  1.00  0.00    -0.000 C 
BRANCH  13  14
ATOM     14  C   UNL     1      -3.230  -6.891  -9.442  1.00  0.00    -0.000 C 
BRANCH  14  15
ATOM     15  C   UNL     1      -4.542  -7.267  -8.732  1.00  0.00    -0.003 C 
ATOM     16  C   UNL     1      -4.370  -8.389  -7.711  1.00  0.00     0.004 C 
ENDBRANCH  14  15
ENDBRANCH  13  14
ENDBRANCH  12  13
ENDBRANCH  11  12
ENDBRANCH  10  11
ENDBRANCH   1  10
TORSDOF 12
ENDMDL
MODEL 6
REMARK VINA RESULT:    -3.765      4.099      6.638
REMARK INTER + INTRA:          -7.954
REMARK INTER:                  -6.753
REMARK INTRA:                  -1.201
REMARK UNBOUND:                -1.549
REMARK SMILES CCCCCCCCCCCCCC(=O)[O-]
REMARK SMILES IDX 8 1 9 2 10 3 11 4 12 5 13 6 14 7 15 8 16 9 7 10 6 11 5 12
REMARK SMILES IDX 4 13 3 14 2 15 1 16
REMARK H PARENT
REMARK Flexibility Score: inf
ROOT
ATOM      1  C   UNL     1      -0.093  -4.042  -9.147  1.00  0.00     0.000 C 
ENDROOT
BRANCH   1   2
ATOM      2  C   UNL     1       0.986  -5.072  -9.517  1.00  0.00     0.000 C 
BRANCH   2   3
ATOM      3  C   UNL     1       0.458  -6.515  -9.502  1.00  0.00     0.000 C 
BRANCH   3   4
ATOM      4  C   UNL     1      -0.837  -6.664  -8.690  1.00  0.00     0.000 C 
BRANCH   4   5
ATOM      5  C   UNL     1      -2.009  -7.066  -9.594  1.00  0.00     0.006 C 
BRANCH   5   6
ATOM      6  C   UNL     1      -2.746  -8.283  -9.030  1.00  0.00     0.053 C 
BRANCH   6   7
ATOM      7  C   UNL     1      -3.970  -7.855  -8.283  1.00  0.00     0.041 C 
ATOM      8  O   UNL     1      -4.599  -6.824  -8.635  1.00  0.00    -0.550 OA
ATOM      9  O   UNL     1      -4.442  -8.623  -7.226  1.00  0.00    -0.550 OA
ENDBRANCH   6   7
ENDBRANCH   5   6
ENDBRANCH   4   5
ENDBRANCH   3   4
ENDBRANCH   2   3
ENDBRANCH   1   2
BRANCH   1  10
ATOM     10  C   UNL     1       0.164  -2.704  -9.851  1.00  0.00     0.000 C 
BRANCH  10  11
ATOM     11  C   UNL     1       1.060  -1.797  -8.998  1.00  0.00    -0.000 C 
BRANCH  11  12
ATOM     12  C   UNL     1       0.300  -1.263  -7.777  1.00  0.00    -0.000 C 
BRANCH  12  13
ATOM     13  C   UNL     1       1.219  -1.184  -6.548  1.00  0.00    -0.000 C 
BRANCH  13  14
ATOM     14  C   UNL     1       2.118  -2.430  -6.411  1.00  0.00    -0.000 C 
BRANCH  14  15
ATOM     15  C   UNL     1       1.383  -3.663  -5.857  1.00  0.00    -0.003 C 
ATOM     16  C   UNL     1       2.270  -4.904  -5.780  1.00  0.00     0.004 C 
ENDBRANCH  14  15
ENDBRANCH  13  14
ENDBRANCH  12  13
ENDBRANCH  11  12
ENDBRANCH  10  11
ENDBRANCH   1  10
TORSDOF 12
ENDMDL
MODEL 7
REMARK VINA RESULT:    -3.680      3.859      4.724
REMARK INTER + INTRA:          -7.811
REMARK INTER:                  -6.945
REMARK INTRA:                  -0.866
REMARK UNBOUND:                -1.549
REMARK SMILES CCCCCCCCCCCCCC(=O)[O-]
REMARK SMILES IDX 8 1 9 2 10 3 11 4 12 5 13 6 14 7 15 8 16 9 7 10 6 11 5 12
REMARK SMILES IDX 4 13 3 14 2 15 1 16
REMARK H PARENT
REMARK Flexibility Score: inf
ROOT
ATOM      1  C   UNL     1       0.744  -1.073  -6.999  1.00  0.00     0.000 C 
ENDROOT
BRANCH   1   2
ATOM      2  C   UNL     1       0.396  -1.545  -8.419  1.00  0.00     0.000 C 
BRANCH   2   3
ATOM      3  C   UNL     1      -0.608  -0.617  -9.121  1.00  0.00     0.000 C 
BRANCH   3   4
ATOM      4  C   UNL     1      -1.809  -1.377  -9.706  1.00  0.00     0.000 C 
BRANCH   4   5
ATOM      5  C   UNL     1      -3.130  -0.721  -9.288  1.00  0.00     0.006 C 
BRANCH   5   6
ATOM      6  C   UNL     1      -4.306  -1.684  -9.474  1.00  0.00     0.053 C 
BRANCH   6   7
ATOM      7  C   UNL     1      -5.468  -1.260  -8.634  1.00  0.00     0.041 C 
ATOM      8  O   UNL     1      -5.868  -0.067  -8.659  1.00  0.00    -0.550 OA
ATOM      9  O   UNL     1      -6.142  -2.196  -7.858  1.00  0.00    -0.550 OA
ENDBRANCH   6   7
ENDBRANCH   5   6
ENDBRANCH   4   5
ENDBRANCH   3   4
ENDBRANCH   2   3
ENDBRANCH   1   2
BRANCH   1  10
ATOM     10  C   UNL     1       1.792  -1.992  -6.358  1.00  0.00     0.000 C 
BRANCH  10  11
ATOM     11  C   UNL     1       1.137  -3.251  -5.775  1.00  0.00    -0.000 C 
BRANCH  11  12
ATOM     12  C   UNL     1       1.942  -4.506  -6.134  1.00  0.00    -0.000 C 
BRANCH  12  13
ATOM     13  C   UNL     1       2.620  -4.353  -7.504  1.00  0.00    -0.000 C 
BRANCH  13  14
ATOM     14  C   UNL     1       1.906  -5.167  -8.603  1.00  0.00    -0.000 C 
BRANCH  14  15
ATOM     15  C   UNL     1       0.397  -5.345  -8.356  1.00  0.00    -0.003 C 
ATOM     16  C   UNL     1      -0.201  -6.519  -9.128  1.00  0.00     0.004 C 
ENDBRANCH  14  15
ENDBRANCH  13  14
ENDBRANCH  12  13
ENDBRANCH  11  12
ENDBRANCH  10  11
ENDBRANCH   1  10
TORSDOF 12
ENDMDL
MODEL 8
REMARK VINA RESULT:    -3.545     12.389     14.004
REMARK INTER + INTRA:          -7.580
REMARK INTER:                  -5.738
REMARK INTRA:                  -1.842
REMARK UNBOUND:                -1.549
REMARK SMILES CCCCCCCCCCCCCC(=O)[O-]
REMARK SMILES IDX 8 1 9 2 10 3 11 4 12 5 13 6 14 7 15 8 16 9 7 10 6 11 5 12
REMARK SMILES IDX 4 13 3 14 2 15 1 16
REMARK H PARENT
REMARK Flexibility Score: inf
ROOT
ATOM      1  C   UNL     1      -7.084  -6.177   0.523  1.00  0.00     0.000 C 
ENDROOT
BRANCH   1   2
ATOM      2  C   UNL     1      -8.368  -5.625   1.161  1.00  0.00     0.000 C 
BRANCH   2   3
ATOM      3  C   UNL     1      -8.229  -5.402   2.674  1.00  0.00     0.000 C 
BRANCH   3   4
ATOM      4  C   UNL     1      -6.998  -4.557   3.038  1.00  0.00     0.000 C 
BRANCH   4   5
ATOM      5  C   UNL     1      -7.410  -3.151   3.490  1.00  0.00     0.006 C 
BRANCH   5   6
ATOM      6  C   UNL     1      -6.617  -2.078   2.738  1.00  0.00     0.053 C 
BRANCH   6   7
ATOM      7  C   UNL     1      -6.846  -2.193   1.265  1.00  0.00     0.041 C 
ATOM      8  O   UNL     1      -8.002  -2.041   0.789  1.00  0.00    -0.550 OA
ATOM      9  O   UNL     1      -5.774  -2.421   0.411  1.00  0.00    -0.550 OA
ENDBRANCH   6   7
ENDBRANCH   5   6
ENDBRANCH   4   5
ENDBRANCH   3   4
ENDBRANCH   2   3
ENDBRANCH   1   2
BRANCH   1  10
ATOM     10  C   UNL     1      -7.374  -7.453  -0.277  1.00  0.00     0.000 C 
BRANCH  10  11
ATOM     11  C   UNL     1      -6.788  -8.685   0.422  1.00  0.00    -0.000 C 
BRANCH  11  12
ATOM     12  C   UNL     1      -7.778  -9.264   1.440  1.00  0.00    -0.000 C 
BRANCH  12  13
ATOM     13  C   UNL     1      -7.179  -9.261   2.855  1.00  0.00    -0.000 C 
BRANCH  13  14
ATOM     14  C   UNL     1      -5.699  -8.823   2.861  1.00  0.00    -0.000 C 
BRANCH  14  15
ATOM     15  C   UNL     1      -5.367  -7.787   3.948  1.00  0.00    -0.003 C 
ATOM     16  C   UNL     1      -6.295  -7.871   5.158  1.00  0.00     0.004 C 
ENDBRANCH  14  15
ENDBRANCH  13  14
ENDBRANCH  12  13
ENDBRANCH  11  12
ENDBRANCH  10  11
ENDBRANCH   1  10
TORSDOF 12
ENDMDL
MODEL 9
REMARK VINA RESULT:    -3.533      3.833      6.029
REMARK INTER + INTRA:          -7.560
REMARK INTER:                  -6.633
REMARK INTRA:                  -0.927
REMARK UNBOUND:                -1.549
REMARK SMILES CCCCCCCCCCCCCC(=O)[O-]
REMARK SMILES IDX 8 1 9 2 10 3 11 4 12 5 13 6 14 7 15 8 16 9 7 10 6 11 5 12
REMARK SMILES IDX 4 13 3 14 2 15 1 16
REMARK H PARENT
REMARK Flexibility Score: inf
ROOT
ATOM      1  C   UNL     1       2.071  -4.477  -6.013  1.00  0.00     0.000 C 
ENDROOT
BRANCH   1   2
ATOM      2  C   UNL     1       0.782  -4.710  -6.817  1.00  0.00     0.000 C 
BRANCH   2   3
ATOM      3  C   UNL     1       1.022  -4.710  -8.334  1.00  0.00     0.000 C 
BRANCH   3   4
ATOM      4  C   UNL     1       0.714  -6.068  -8.984  1.00  0.00     0.000 C 
BRANCH   4   5
ATOM      5  C   UNL     1      -0.783  -6.208  -9.282  1.00  0.00     0.006 C 
BRANCH   5   6
ATOM      6  C   UNL     1      -1.287  -7.608  -8.923  1.00  0.00     0.053 C 
BRANCH   6   7
ATOM      7  C   UNL     1      -2.782  -7.651  -8.953  1.00  0.00     0.041 C 
ATOM      8  O   UNL     1      -3.442  -6.599  -9.156  1.00  0.00    -0.550 OA
ATOM      9  O   UNL     1      -3.445  -8.863  -8.805  1.00  0.00    -0.550 OA
ENDBRANCH   6   7
ENDBRANCH   5   6
ENDBRANCH   4   5
ENDBRANCH   3   4
ENDBRANCH   2   3
ENDBRANCH   1   2
BRANCH   1  10
ATOM     10  C   UNL     1       2.707  -3.129  -6.377  1.00  0.00     0.000 C 
BRANCH  10  11
ATOM     11  C   UNL     1       1.715  -1.979  -6.167  1.00  0.00    -0.000 C 
BRANCH  11  12
ATOM     12  C   UNL     1       1.550  -1.153  -7.449  1.00  0.00    -0.000 C 
BRANCH  12  13
ATOM     13  C   UNL     1       0.069  -0.846  -7.722  1.00  0.00    -0.000 C 
BRANCH  13  14
ATOM     14  C   UNL     1      -0.404  -1.411  -9.077  1.00  0.00    -0.000 C 
BRANCH  14  15
ATOM     15  C   UNL     1      -1.582  -0.636  -9.691  1.00  0.00    -0.003 C 
ATOM     16  C   UNL     1      -2.560  -0.106  -8.644  1.00  0.00     0.004 C 
ENDBRANCH  14  15
ENDBRANCH  13  14
ENDBRANCH  12  13
ENDBRANCH  11  12
ENDBRANCH  10  11
ENDBRANCH   1  10
TORSDOF 12
ENDMDL
