MODEL 1
REMARK VINA RESULT:    -4.916      0.000      0.000
REMARK INTER + INTRA:          -9.046
REMARK INTER:                  -7.215
REMARK INTRA:                  -1.831
REMARK UNBOUND:                -1.831
REMARK SMILES O=c1c(O[C@H]2O[C@@H](CO)[C@H](O)[C@@H](O)[C@H]2O)c(-c2ccc(O)c(O)c2)oc2cc(O)cc(O)c12
REMARK SMILES IDX 4 1 3 2 16 3 25 4 2 5 26 6 1 7 33 8 27 9 31 10 28 11 30 12
REMARK SMILES IDX 17 13 18 14 19 15 20 16 24 17 22 18 21 19 23 21 32 23 29 25
REMARK SMILES IDX 5 27 14 28 6 29 12 30 7 31 10 32 15 33 13 35 8 37 9 38 11 40
REMARK H PARENT 21 20 23 22 32 24 29 26 15 34 13 36 9 39 11 41
REMARK Flexibility Score: inf
ROOT
ATOM      1  O   UNL     1      -1.731  14.787  60.307  1.00  0.00    -0.454 OA
ENDROOT
BRANCH   1   2
ATOM      2  C   UNL     1      -1.455  13.431  60.561  1.00  0.00     0.214 A 
ATOM      3  C   UNL     1      -0.504  13.102  61.547  1.00  0.00     0.180 A 
ATOM      4  O   UNL     1      -0.184  11.831  61.772  1.00  0.00    -0.452 OA
ATOM      5  C   UNL     1      -2.077  12.382  59.855  1.00  0.00     0.239 A 
ATOM      6  C   UNL     1      -0.737  10.816  61.121  1.00  0.00     0.146 A 
ATOM      7  O   UNL     1      -2.960  12.638  58.994  1.00  0.00    -0.285 OA
ATOM      8  C   UNL     1      -1.718  11.045  60.129  1.00  0.00     0.111 A 
ATOM      9  C   UNL     1      -0.337   9.513  61.431  1.00  0.00     0.094 A 
ATOM     10  C   UNL     1      -2.290   9.936  59.459  1.00  0.00     0.134 A 
ATOM     11  C   UNL     1      -0.902   8.423  60.767  1.00  0.00     0.123 A 
ATOM     12  C   UNL     1      -1.877   8.636  59.785  1.00  0.00     0.093 A 
BRANCH   3  13
ATOM     13  C   UNL     1       0.202  14.142  62.326  1.00  0.00     0.025 A 
ATOM     14  C   UNL     1      -0.316  14.621  63.539  1.00  0.00     0.016 A 
ATOM     15  C   UNL     1       0.368  15.601  64.262  1.00  0.00     0.051 A 
ATOM     16  C   UNL     1       1.583  16.106  63.792  1.00  0.00     0.157 A 
ATOM     17  C   UNL     1       1.434  14.633  61.866  1.00  0.00     0.062 A 
ATOM     18  C   UNL     1       2.124  15.617  62.590  1.00  0.00     0.158 A 
BRANCH  16  19
ATOM     19  O   UNL     1       2.242  17.087  64.533  1.00  0.00    -0.504 OA
ATOM     20  H   UNL     1       1.758  17.667  65.208  1.00  0.00     0.293 HD
ENDBRANCH  16  19
BRANCH  18  21
ATOM     21  O   UNL     1       3.340  16.110  62.119  1.00  0.00    -0.504 OA
ATOM     22  H   UNL     1       4.176  15.537  62.108  1.00  0.00     0.293 HD
ENDBRANCH  18  21
ENDBRANCH   3  13
BRANCH  10  23
ATOM     23  O   UNL     1      -3.262  10.115  58.474  1.00  0.00    -0.507 OA
ATOM     24  H   UNL     1      -3.260   9.573  57.617  1.00  0.00     0.293 HD
ENDBRANCH  10  23
BRANCH  11  25
ATOM     25  O   UNL     1      -0.491   7.132  61.091  1.00  0.00    -0.508 OA
ATOM     26  H   UNL     1       0.489   6.877  61.107  1.00  0.00     0.293 HD
ENDBRANCH  11  25
ENDBRANCH   1   2
BRANCH   1  27
ATOM     27  C   UNL     1      -2.722  15.566  60.983  1.00  0.00     0.339 C 
ATOM     28  C   UNL     1      -3.826  16.009  60.010  1.00  0.00     0.214 C 
ATOM     29  O   UNL     1      -2.154  16.661  61.685  1.00  0.00    -0.332 OA
ATOM     30  C   UNL     1      -3.288  17.025  58.997  1.00  0.00     0.180 C 
ATOM     31  C   UNL     1      -1.631  17.696  60.862  1.00  0.00     0.179 C 
ATOM     32  C   UNL     1      -2.582  18.180  59.729  1.00  0.00     0.177 C 
BRANCH  28  33
ATOM     33  O   UNL     1      -4.356  14.897  59.332  1.00  0.00    -0.384 OA
ATOM     34  H   UNL     1      -3.950  14.893  58.426  1.00  0.00     0.211 HD
ENDBRANCH  28  33
BRANCH  30  35
ATOM     35  O   UNL     1      -2.409  16.418  58.086  1.00  0.00    -0.387 OA
ATOM     36  H   UNL     1      -2.928  15.733  57.589  1.00  0.00     0.211 HD
ENDBRANCH  30  35
BRANCH  31  37
ATOM     37  C   UNL     1      -0.166  17.446  60.444  1.00  0.00     0.191 C 
BRANCH  37  38
ATOM     38  O   UNL     1      -0.036  17.251  59.067  1.00  0.00    -0.394 OA
ATOM     39  H   UNL     1       0.444  16.389  58.953  1.00  0.00     0.210 HD
ENDBRANCH  37  38
ENDBRANCH  31  37
BRANCH  32  40
ATOM     40  O   UNL     1      -3.552  19.028  60.294  1.00  0.00    -0.387 OA
ATOM     41  H   UNL     1      -3.881  19.620  59.567  1.00  0.00     0.211 HD
ENDBRANCH  32  40
ENDBRANCH   1  27
TORSDOF 12
ENDMDL
MODEL 2
REMARK VINA RESULT:    -4.822     12.520     14.314
REMARK INTER + INTRA:          -8.908
REMARK INTER:                  -7.372
REMARK INTRA:                  -1.536
REMARK UNBOUND:                -1.831
REMARK SMILES O=c1c(O[C@H]2O[C@@H](CO)[C@H](O)[C@@H](O)[C@H]2O)c(-c2ccc(O)c(O)c2)oc2cc(O)cc(O)c12
REMARK SMILES IDX 4 1 3 2 16 3 25 4 2 5 26 6 1 7 33 8 27 9 31 10 28 11 30 12
REMARK SMILES IDX 17 13 18 14 19 15 20 16 24 17 22 18 21 19 23 21 32 23 29 25
REMARK SMILES IDX 5 27 14 28 6 29 12 30 7 31 10 32 15 33 13 35 8 37 9 38 11 40
REMARK H PARENT 21 20 23 22 32 24 29 26 15 34 13 36 9 39 11 41
REMARK Flexibility Score: inf
ROOT
ATOM      1  O   UNL     1       4.663  11.448  73.219  1.00  0.00    -0.454 OA
ENDROOT
BRANCH   1   2
ATOM      2  C   UNL     1       3.282  11.191  73.297  1.00  0.00     0.214 A 
ATOM      3  C   UNL     1       2.385  12.278  73.271  1.00  0.00     0.180 A 
ATOM      4  O   UNL     1       1.078  12.069  73.396  1.00  0.00    -0.452 OA
ATOM      5  C   UNL     1       2.755   9.890  73.420  1.00  0.00     0.239 A 
ATOM      6  C   UNL     1       0.542  10.862  73.527  1.00  0.00     0.146 A 
ATOM      7  O   UNL     1       3.526   8.894  73.407  1.00  0.00    -0.285 OA
ATOM      8  C   UNL     1       1.361   9.709  73.541  1.00  0.00     0.111 A 
ATOM      9  C   UNL     1      -0.845  10.745  73.649  1.00  0.00     0.094 A 
ATOM     10  C   UNL     1       0.753   8.436  73.676  1.00  0.00     0.134 A 
ATOM     11  C   UNL     1      -1.439   9.489  73.783  1.00  0.00     0.123 A 
ATOM     12  C   UNL     1      -0.641   8.339  73.796  1.00  0.00     0.093 A 
BRANCH   3  13
ATOM     13  C   UNL     1       2.856  13.674  73.155  1.00  0.00     0.025 A 
ATOM     14  C   UNL     1       2.984  14.297  71.904  1.00  0.00     0.016 A 
ATOM     15  C   UNL     1       3.426  15.619  71.816  1.00  0.00     0.051 A 
ATOM     16  C   UNL     1       3.734  16.340  72.973  1.00  0.00     0.157 A 
ATOM     17  C   UNL     1       3.142  14.406  74.318  1.00  0.00     0.062 A 
ATOM     18  C   UNL     1       3.587  15.734  74.232  1.00  0.00     0.158 A 
BRANCH  16  19
ATOM     19  O   UNL     1       4.177  17.657  72.853  1.00  0.00    -0.504 OA
ATOM     20  H   UNL     1       3.779  18.300  72.179  1.00  0.00     0.293 HD
ENDBRANCH  16  19
BRANCH  18  21
ATOM     21  O   UNL     1       3.884  16.449  75.391  1.00  0.00    -0.504 OA
ATOM     22  H   UNL     1       4.547  16.101  76.075  1.00  0.00     0.293 HD
ENDBRANCH  18  21
ENDBRANCH   3  13
BRANCH  10  23
ATOM     23  O   UNL     1       1.522   7.272  73.694  1.00  0.00    -0.507 OA
ATOM     24  H   UNL     1       1.385   6.532  73.015  1.00  0.00     0.293 HD
ENDBRANCH  10  23
BRANCH  11  25
ATOM     25  O   UNL     1      -2.824   9.393  73.902  1.00  0.00    -0.508 OA
ATOM     26  H   UNL     1      -3.445   9.965  73.343  1.00  0.00     0.293 HD
ENDBRANCH  11  25
ENDBRANCH   1   2
BRANCH   1  27
ATOM     27  C   UNL     1       5.370  11.795  72.025  1.00  0.00     0.339 C 
ATOM     28  C   UNL     1       5.933  10.541  71.338  1.00  0.00     0.214 C 
ATOM     29  O   UNL     1       6.371  12.774  72.262  1.00  0.00    -0.332 OA
ATOM     30  C   UNL     1       7.054   9.915  72.176  1.00  0.00     0.180 C 
ATOM     31  C   UNL     1       7.488  12.320  73.015  1.00  0.00     0.179 C 
ATOM     32  C   UNL     1       8.109  10.979  72.529  1.00  0.00     0.177 C 
BRANCH  28  33
ATOM     33  O   UNL     1       4.913   9.598  71.129  1.00  0.00    -0.384 OA
ATOM     34  H   UNL     1       5.305   8.868  70.580  1.00  0.00     0.211 HD
ENDBRANCH  28  33
BRANCH  30  35
ATOM     35  O   UNL     1       6.546   9.328  73.346  1.00  0.00    -0.387 OA
ATOM     36  H   UNL     1       7.077   8.507  73.517  1.00  0.00     0.211 HD
ENDBRANCH  30  35
BRANCH  31  37
ATOM     37  C   UNL     1       7.272  12.442  74.539  1.00  0.00     0.191 C 
BRANCH  37  38
ATOM     38  O   UNL     1       7.868  11.394  75.243  1.00  0.00    -0.394 OA
ATOM     39  H   UNL     1       8.686  11.149  74.737  1.00  0.00     0.210 HD
ENDBRANCH  37  38
ENDBRANCH  31  37
BRANCH  32  40
ATOM     40  O   UNL     1       8.897  11.239  71.392  1.00  0.00    -0.387 OA
ATOM     41  H   UNL     1       9.485  10.449  71.258  1.00  0.00     0.211 HD
ENDBRANCH  32  40
ENDBRANCH   1  27
TORSDOF 12
ENDMDL
MODEL 3
REMARK VINA RESULT:    -4.798     12.496     14.707
REMARK INTER + INTRA:          -8.873
REMARK INTER:                  -7.335
REMARK INTRA:                  -1.538
REMARK UNBOUND:                -1.831
REMARK SMILES O=c1c(O[C@H]2O[C@@H](CO)[C@H](O)[C@@H](O)[C@H]2O)c(-c2ccc(O)c(O)c2)oc2cc(O)cc(O)c12
REMARK SMILES IDX 4 1 3 2 16 3 25 4 2 5 26 6 1 7 33 8 27 9 31 10 28 11 30 12
REMARK SMILES IDX 17 13 18 14 19 15 20 16 24 17 22 18 21 19 23 21 32 23 29 25
REMARK SMILES IDX 5 27 14 28 6 29 12 30 7 31 10 32 15 33 13 35 8 37 9 38 11 40
REMARK H PARENT 21 20 23 22 32 24 29 26 15 34 13 36 9 39 11 41
REMARK Flexibility Score: inf
ROOT
ATOM      1  O   UNL     1       1.249  12.990  73.761  1.00  0.00    -0.454 OA
ENDROOT
BRANCH   1   2
ATOM      2  C   UNL     1       1.428  14.385  73.796  1.00  0.00     0.214 A 
ATOM      3  C   UNL     1       2.709  14.914  73.542  1.00  0.00     0.180 A 
ATOM      4  O   UNL     1       2.919  16.224  73.621  1.00  0.00    -0.452 OA
ATOM      5  C   UNL     1       0.381  15.280  74.095  1.00  0.00     0.239 A 
ATOM      6  C   UNL     1       1.965  17.099  73.912  1.00  0.00     0.146 A 
ATOM      7  O   UNL     1      -0.785  14.844  74.290  1.00  0.00    -0.285 OA
ATOM      8  C   UNL     1       0.642  16.665  74.160  1.00  0.00     0.111 A 
ATOM      9  C   UNL     1       2.284  18.459  73.968  1.00  0.00     0.094 A 
ATOM     10  C   UNL     1      -0.352  17.628  74.462  1.00  0.00     0.134 A 
ATOM     11  C   UNL     1       1.302  19.404  74.266  1.00  0.00     0.123 A 
ATOM     12  C   UNL     1      -0.012  18.988  74.512  1.00  0.00     0.093 A 
BRANCH   3  13
ATOM     13  C   UNL     1       3.863  14.044  73.231  1.00  0.00     0.025 A 
ATOM     14  C   UNL     1       4.120  13.618  71.919  1.00  0.00     0.016 A 
ATOM     15  C   UNL     1       5.218  12.799  71.645  1.00  0.00     0.051 A 
ATOM     16  C   UNL     1       6.081  12.408  72.672  1.00  0.00     0.157 A 
ATOM     17  C   UNL     1       4.744  13.670  74.258  1.00  0.00     0.062 A 
ATOM     18  C   UNL     1       5.848  12.848  73.986  1.00  0.00     0.158 A 
BRANCH  16  19
ATOM     19  O   UNL     1       7.168  11.587  72.369  1.00  0.00    -0.504 OA
ATOM     20  H   UNL     1       7.988  11.540  72.962  1.00  0.00     0.293 HD
ENDBRANCH  16  19
BRANCH  18  21
ATOM     21  O   UNL     1       6.709  12.468  75.015  1.00  0.00    -0.504 OA
ATOM     22  H   UNL     1       6.390  11.902  75.792  1.00  0.00     0.293 HD
ENDBRANCH  18  21
ENDBRANCH   3  13
BRANCH  10  23
ATOM     23  O   UNL     1      -1.670  17.245  74.713  1.00  0.00    -0.507 OA
ATOM     24  H   UNL     1      -2.098  17.372  75.623  1.00  0.00     0.293 HD
ENDBRANCH  10  23
BRANCH  11  25
ATOM     25  O   UNL     1       1.640  20.754  74.317  1.00  0.00    -0.508 OA
ATOM     26  H   UNL     1       0.970  21.477  74.085  1.00  0.00     0.293 HD
ENDBRANCH  11  25
ENDBRANCH   1   2
BRANCH   1  27
ATOM     27  C   UNL     1       0.757  12.252  72.640  1.00  0.00     0.339 C 
ATOM     28  C   UNL     1      -0.564  11.546  72.986  1.00  0.00     0.214 C 
ATOM     29  O   UNL     1       1.727  11.353  72.124  1.00  0.00    -0.332 OA
ATOM     30  C   UNL     1      -0.334  10.423  74.004  1.00  0.00     0.180 C 
ATOM     31  C   UNL     1       2.024  10.243  72.963  1.00  0.00     0.179 C 
ATOM     32  C   UNL     1       0.782   9.484  73.514  1.00  0.00     0.177 C 
BRANCH  28  33
ATOM     33  O   UNL     1      -1.492  12.468  73.498  1.00  0.00    -0.384 OA
ATOM     34  H   UNL     1      -1.765  12.136  74.392  1.00  0.00     0.211 HD
ENDBRANCH  28  33
BRANCH  30  35
ATOM     35  O   UNL     1      -0.012  10.942  75.268  1.00  0.00    -0.387 OA
ATOM     36  H   UNL     1       0.963  10.806  75.402  1.00  0.00     0.211 HD
ENDBRANCH  30  35
BRANCH  31  37
ATOM     37  C   UNL     1       3.130  10.552  73.994  1.00  0.00     0.191 C 
BRANCH  37  38
ATOM     38  O   UNL     1       4.217   9.683  73.879  1.00  0.00    -0.394 OA
ATOM     39  H   UNL     1       3.920   8.815  74.257  1.00  0.00     0.210 HD
ENDBRANCH  37  38
ENDBRANCH  31  37
BRANCH  32  40
ATOM     40  O   UNL     1       0.275   8.660  72.493  1.00  0.00    -0.387 OA
ATOM     41  H   UNL     1      -0.620   8.346  72.789  1.00  0.00     0.211 HD
ENDBRANCH  32  40
ENDBRANCH   1  27
TORSDOF 12
ENDMDL
MODEL 4
REMARK VINA RESULT:    -4.744     12.156     14.827
REMARK INTER + INTRA:          -8.793
REMARK INTER:                  -7.474
REMARK INTRA:                  -1.319
REMARK UNBOUND:                -1.831
REMARK SMILES O=c1c(O[C@H]2O[C@@H](CO)[C@H](O)[C@@H](O)[C@H]2O)c(-c2ccc(O)c(O)c2)oc2cc(O)cc(O)c12
REMARK SMILES IDX 4 1 3 2 16 3 25 4 2 5 26 6 1 7 33 8 27 9 31 10 28 11 30 12
REMARK SMILES IDX 17 13 18 14 19 15 20 16 24 17 22 18 21 19 23 21 32 23 29 25
REMARK SMILES IDX 5 27 14 28 6 29 12 30 7 31 10 32 15 33 13 35 8 37 9 38 11 40
REMARK H PARENT 21 20 23 22 32 24 29 26 15 34 13 36 9 39 11 41
REMARK Flexibility Score: inf
ROOT
ATOM      1  O   UNL     1       2.534  12.545  73.226  1.00  0.00    -0.454 OA
ENDROOT
BRANCH   1   2
ATOM      2  C   UNL     1       2.720  13.924  73.437  1.00  0.00     0.214 A 
ATOM      3  C   UNL     1       4.029  14.445  73.422  1.00  0.00     0.180 A 
ATOM      4  O   UNL     1       4.239  15.734  73.671  1.00  0.00    -0.452 OA
ATOM      5  C   UNL     1       1.650  14.808  73.683  1.00  0.00     0.239 A 
ATOM      6  C   UNL     1       3.262  16.596  73.920  1.00  0.00     0.146 A 
ATOM      7  O   UNL     1       0.464  14.383  73.665  1.00  0.00    -0.285 OA
ATOM      8  C   UNL     1       1.913  16.171  73.934  1.00  0.00     0.111 A 
ATOM      9  C   UNL     1       3.583  17.934  74.167  1.00  0.00     0.094 A 
ATOM     10  C   UNL     1       0.896  17.121  74.197  1.00  0.00     0.134 A 
ATOM     11  C   UNL     1       2.578  18.866  74.427  1.00  0.00     0.123 A 
ATOM     12  C   UNL     1       1.238  18.459  74.442  1.00  0.00     0.093 A 
BRANCH   3  13
ATOM     13  C   UNL     1       5.207  13.584  73.182  1.00  0.00     0.025 A 
ATOM     14  C   UNL     1       5.609  13.249  71.880  1.00  0.00     0.016 A 
ATOM     15  C   UNL     1       6.728  12.438  71.674  1.00  0.00     0.051 A 
ATOM     16  C   UNL     1       7.467  11.963  72.761  1.00  0.00     0.157 A 
ATOM     17  C   UNL     1       5.963  13.127  74.272  1.00  0.00     0.062 A 
ATOM     18  C   UNL     1       7.087  12.312  74.068  1.00  0.00     0.158 A 
BRANCH  16  19
ATOM     19  O   UNL     1       8.576  11.152  72.525  1.00  0.00    -0.504 OA
ATOM     20  H   UNL     1       8.556  10.152  72.687  1.00  0.00     0.293 HD
ENDBRANCH  16  19
BRANCH  18  21
ATOM     21  O   UNL     1       7.823  11.849  75.158  1.00  0.00    -0.504 OA
ATOM     22  H   UNL     1       8.694  12.288  75.435  1.00  0.00     0.293 HD
ENDBRANCH  18  21
ENDBRANCH   3  13
BRANCH  10  23
ATOM     23  O   UNL     1      -0.448  16.747  74.220  1.00  0.00    -0.507 OA
ATOM     24  H   UNL     1      -1.028  16.890  75.039  1.00  0.00     0.293 HD
ENDBRANCH  10  23
BRANCH  11  25
ATOM     25  O   UNL     1       2.918  20.195  74.671  1.00  0.00    -0.508 OA
ATOM     26  H   UNL     1       3.184  20.513  75.595  1.00  0.00     0.293 HD
ENDBRANCH  11  25
ENDBRANCH   1   2
BRANCH   1  27
ATOM     27  C   UNL     1       2.332  11.574  74.255  1.00  0.00     0.339 C 
ATOM     28  C   UNL     1       2.975  10.231  73.873  1.00  0.00     0.214 C 
ATOM     29  O   UNL     1       0.962  11.435  74.599  1.00  0.00    -0.332 OA
ATOM     30  C   UNL     1       2.231   9.581  72.702  1.00  0.00     0.180 C 
ATOM     31  C   UNL     1       0.152  10.823  73.603  1.00  0.00     0.179 C 
ATOM     32  C   UNL     1       0.724   9.504  73.009  1.00  0.00     0.177 C 
BRANCH  28  33
ATOM     33  O   UNL     1       4.327  10.414  73.535  1.00  0.00    -0.384 OA
ATOM     34  H   UNL     1       4.805   9.587  73.807  1.00  0.00     0.211 HD
ENDBRANCH  28  33
BRANCH  30  35
ATOM     35  O   UNL     1       2.448  10.287  71.508  1.00  0.00    -0.387 OA
ATOM     36  H   UNL     1       1.636  10.173  70.948  1.00  0.00     0.211 HD
ENDBRANCH  30  35
BRANCH  31  37
ATOM     37  C   UNL     1      -0.401  11.834  72.576  1.00  0.00     0.191 C 
BRANCH  37  38
ATOM     38  O   UNL     1       0.485  12.051  71.519  1.00  0.00    -0.394 OA
ATOM     39  H   UNL     1       0.700  13.020  71.530  1.00  0.00     0.210 HD
ENDBRANCH  37  38
ENDBRANCH  31  37
BRANCH  32  40
ATOM     40  O   UNL     1       0.495   8.464  73.929  1.00  0.00    -0.387 OA
ATOM     41  H   UNL     1      -0.464   8.217  73.856  1.00  0.00     0.211 HD
ENDBRANCH  32  40
ENDBRANCH   1  27
TORSDOF 12
ENDMDL
MODEL 5
REMARK VINA RESULT:    -4.717     11.277     14.589
REMARK INTER + INTRA:          -8.754
REMARK INTER:                  -7.034
REMARK INTRA:                  -1.720
REMARK UNBOUND:                -1.831
REMARK SMILES O=c1c(O[C@H]2O[C@@H](CO)[C@H](O)[C@@H](O)[C@H]2O)c(-c2ccc(O)c(O)c2)oc2cc(O)cc(O)c12
REMARK SMILES IDX 4 1 3 2 16 3 25 4 2 5 26 6 1 7 33 8 27 9 31 10 28 11 30 12
REMARK SMILES IDX 17 13 18 14 19 15 20 16 24 17 22 18 21 19 23 21 32 23 29 25
REMARK SMILES IDX 5 27 14 28 6 29 12 30 7 31 10 32 15 33 13 35 8 37 9 38 11 40
REMARK H PARENT 21 20 23 22 32 24 29 26 15 34 13 36 9 39 11 41
REMARK Flexibility Score: inf
ROOT
ATOM      1  O   UNL     1       0.640  14.433  73.513  1.00  0.00    -0.454 OA
ENDROOT
BRANCH   1   2
ATOM      2  C   UNL     1       0.816  15.782  73.872  1.00  0.00     0.214 A 
ATOM      3  C   UNL     1       2.120  16.316  73.898  1.00  0.00     0.180 A 
ATOM      4  O   UNL     1       2.322  17.572  74.284  1.00  0.00    -0.452 OA
ATOM      5  C   UNL     1      -0.258  16.623  74.228  1.00  0.00     0.239 A 
ATOM      6  C   UNL     1       1.340  18.391  74.638  1.00  0.00     0.146 A 
ATOM      7  O   UNL     1      -1.440  16.190  74.178  1.00  0.00    -0.285 OA
ATOM      8  C   UNL     1      -0.004  17.953  74.623  1.00  0.00     0.111 A 
ATOM      9  C   UNL     1       1.653  19.697  75.027  1.00  0.00     0.094 A 
ATOM     10  C   UNL     1      -1.026  18.858  75.002  1.00  0.00     0.134 A 
ATOM     11  C   UNL     1       0.643  20.585  75.400  1.00  0.00     0.123 A 
ATOM     12  C   UNL     1      -0.693  20.164  75.387  1.00  0.00     0.093 A 
BRANCH   3  13
ATOM     13  C   UNL     1       3.303  15.499  73.550  1.00  0.00     0.025 A 
ATOM     14  C   UNL     1       4.018  15.724  72.364  1.00  0.00     0.016 A 
ATOM     15  C   UNL     1       5.136  14.944  72.055  1.00  0.00     0.051 A 
ATOM     16  C   UNL     1       5.561  13.941  72.931  1.00  0.00     0.157 A 
ATOM     17  C   UNL     1       3.745  14.508  74.440  1.00  0.00     0.062 A 
ATOM     18  C   UNL     1       4.866  13.723  74.132  1.00  0.00     0.158 A 
BRANCH  16  19
ATOM     19  O   UNL     1       6.678  13.176  72.594  1.00  0.00    -0.504 OA
ATOM     20  H   UNL     1       7.622  13.536  72.677  1.00  0.00     0.293 HD
ENDBRANCH  16  19
BRANCH  18  21
ATOM     21  O   UNL     1       5.289  12.730  75.014  1.00  0.00    -0.504 OA
ATOM     22  H   UNL     1       6.273  12.547  75.176  1.00  0.00     0.293 HD
ENDBRANCH  18  21
ENDBRANCH   3  13
BRANCH  10  23
ATOM     23  O   UNL     1      -2.366  18.469  75.000  1.00  0.00    -0.507 OA
ATOM     24  H   UNL     1      -2.832  18.156  75.844  1.00  0.00     0.293 HD
ENDBRANCH  10  23
BRANCH  11  25
ATOM     25  O   UNL     1       0.974  21.882  75.783  1.00  0.00    -0.508 OA
ATOM     26  H   UNL     1       1.623  22.444  75.245  1.00  0.00     0.293 HD
ENDBRANCH  11  25
ENDBRANCH   1   2
BRANCH   1  27
ATOM     27  C   UNL     1       0.756  13.912  72.187  1.00  0.00     0.339 C 
ATOM     28  C   UNL     1      -0.629  13.589  71.603  1.00  0.00     0.214 C 
ATOM     29  O   UNL     1       1.638  12.802  72.123  1.00  0.00    -0.332 OA
ATOM     30  C   UNL     1      -1.268  12.404  72.334  1.00  0.00     0.180 C 
ATOM     31  C   UNL     1       1.159  11.618  72.748  1.00  0.00     0.179 C 
ATOM     32  C   UNL     1      -0.293  11.212  72.363  1.00  0.00     0.177 C 
BRANCH  28  33
ATOM     33  O   UNL     1      -1.471  14.711  71.691  1.00  0.00    -0.384 OA
ATOM     34  H   UNL     1      -1.477  14.992  72.643  1.00  0.00     0.211 HD
ENDBRANCH  28  33
BRANCH  30  35
ATOM     35  O   UNL     1      -1.645  12.754  73.640  1.00  0.00    -0.387 OA
ATOM     36  H   UNL     1      -1.521  11.949  74.208  1.00  0.00     0.211 HD
ENDBRANCH  30  35
BRANCH  31  37
ATOM     37  C   UNL     1       1.492  11.559  74.254  1.00  0.00     0.191 C 
BRANCH  37  38
ATOM     38  O   UNL     1       0.348  11.622  75.052  1.00  0.00    -0.394 OA
ATOM     39  H   UNL     1       0.430  10.887  75.714  1.00  0.00     0.210 HD
ENDBRANCH  37  38
ENDBRANCH  31  37
BRANCH  32  40
ATOM     40  O   UNL     1      -0.265  10.609  71.092  1.00  0.00    -0.387 OA
ATOM     41  H   UNL     1      -0.364  11.336  70.423  1.00  0.00     0.211 HD
ENDBRANCH  32  40
ENDBRANCH   1  27
TORSDOF 12
ENDMDL
MODEL 6
REMARK VINA RESULT:    -4.649      3.360      6.131
REMARK INTER + INTRA:          -8.654
REMARK INTER:                  -6.875
REMARK INTRA:                  -1.778
REMARK UNBOUND:                -1.831
REMARK SMILES O=c1c(O[C@H]2O[C@@H](CO)[C@H](O)[C@@H](O)[C@H]2O)c(-c2ccc(O)c(O)c2)oc2cc(O)cc(O)c12
REMARK SMILES IDX 4 1 3 2 16 3 25 4 2 5 26 6 1 7 33 8 27 9 31 10 28 11 30 12
REMARK SMILES IDX 17 13 18 14 19 15 20 16 24 17 22 18 21 19 23 21 32 23 29 25
REMARK SMILES IDX 5 27 14 28 6 29 12 30 7 31 10 32 15 33 13 35 8 37 9 38 11 40
REMARK H PARENT 21 20 23 22 32 24 29 26 15 34 13 36 9 39 11 41
REMARK Flexibility Score: inf
ROOT
ATOM      1  O   UNL     1      -2.227   9.823  60.379  1.00  0.00    -0.454 OA
ENDROOT
BRANCH   1   2
ATOM      2  C   UNL     1      -2.783   8.558  60.111  1.00  0.00     0.214 A 
ATOM      3  C   UNL     1      -2.323   7.443  60.839  1.00  0.00     0.180 A 
ATOM      4  O   UNL     1      -2.792   6.229  60.571  1.00  0.00    -0.452 OA
ATOM      5  C   UNL     1      -3.773   8.354  59.128  1.00  0.00     0.239 A 
ATOM      6  C   UNL     1      -3.714   5.992  59.647  1.00  0.00     0.146 A 
ATOM      7  O   UNL     1      -4.235   9.334  58.486  1.00  0.00    -0.285 OA
ATOM      8  C   UNL     1      -4.253   7.051  58.880  1.00  0.00     0.111 A 
ATOM      9  C   UNL     1      -4.147   4.679  59.440  1.00  0.00     0.094 A 
ATOM     10  C   UNL     1      -5.240   6.761  57.906  1.00  0.00     0.134 A 
ATOM     11  C   UNL     1      -5.118   4.397  58.479  1.00  0.00     0.123 A 
ATOM     12  C   UNL     1      -5.662   5.437  57.715  1.00  0.00     0.093 A 
BRANCH   3  13
ATOM     13  C   UNL     1      -1.280   7.569  61.880  1.00  0.00     0.025 A 
ATOM     14  C   UNL     1      -1.605   7.929  63.196  1.00  0.00     0.016 A 
ATOM     15  C   UNL     1      -0.606   8.039  64.166  1.00  0.00     0.051 A 
ATOM     16  C   UNL     1       0.728   7.778  63.839  1.00  0.00     0.157 A 
ATOM     17  C   UNL     1       0.056   7.285  61.557  1.00  0.00     0.062 A 
ATOM     18  C   UNL     1       1.063   7.394  62.529  1.00  0.00     0.158 A 
BRANCH  16  19
ATOM     19  O   UNL     1       1.705   7.900  64.827  1.00  0.00    -0.504 OA
ATOM     20  H   UNL     1       1.476   8.157  65.780  1.00  0.00     0.293 HD
ENDBRANCH  16  19
BRANCH  18  21
ATOM     21  O   UNL     1       2.389   7.125  62.197  1.00  0.00    -0.504 OA
ATOM     22  H   UNL     1       3.152   7.682  62.564  1.00  0.00     0.293 HD
ENDBRANCH  18  21
ENDBRANCH   3  13
BRANCH  10  23
ATOM     23  O   UNL     1      -5.800   7.774  57.127  1.00  0.00    -0.507 OA
ATOM     24  H   UNL     1      -5.232   8.500  56.707  1.00  0.00     0.293 HD
ENDBRANCH  10  23
BRANCH  11  25
ATOM     25  O   UNL     1      -5.537   3.083  58.289  1.00  0.00    -0.508 OA
ATOM     26  H   UNL     1      -4.921   2.382  57.894  1.00  0.00     0.293 HD
ENDBRANCH  11  25
ENDBRANCH   1   2
BRANCH   1  27
ATOM     27  C   UNL     1      -2.737  10.762  61.327  1.00  0.00     0.339 C 
ATOM     28  C   UNL     1      -3.169  12.063  60.631  1.00  0.00     0.214 C 
ATOM     29  O   UNL     1      -1.826  10.999  62.390  1.00  0.00    -0.332 OA
ATOM     30  C   UNL     1      -1.954  12.821  60.085  1.00  0.00     0.180 C 
ATOM     31  C   UNL     1      -0.654  11.718  62.026  1.00  0.00     0.179 C 
ATOM     32  C   UNL     1      -0.904  13.009  61.196  1.00  0.00     0.177 C 
BRANCH  28  33
ATOM     33  O   UNL     1      -4.065  11.784  59.585  1.00  0.00    -0.384 OA
ATOM     34  H   UNL     1      -3.592  11.998  58.738  1.00  0.00     0.211 HD
ENDBRANCH  28  33
BRANCH  30  35
ATOM     35  O   UNL     1      -1.387  12.151  58.990  1.00  0.00    -0.387 OA
ATOM     36  H   UNL     1      -0.682  12.742  58.617  1.00  0.00     0.211 HD
ENDBRANCH  30  35
BRANCH  31  37
ATOM     37  C   UNL     1       0.475  10.800  61.510  1.00  0.00     0.191 C 
BRANCH  37  38
ATOM     38  O   UNL     1       0.368  10.549  60.141  1.00  0.00    -0.394 OA
ATOM     39  H   UNL     1       1.229  10.138  59.866  1.00  0.00     0.210 HD
ENDBRANCH  37  38
ENDBRANCH  31  37
BRANCH  32  40
ATOM     40  O   UNL     1      -1.336  14.024  62.069  1.00  0.00    -0.387 OA
ATOM     41  H   UNL     1      -1.257  13.667  62.993  1.00  0.00     0.211 HD
ENDBRANCH  32  40
ENDBRANCH   1  27
TORSDOF 12
ENDMDL
MODEL 7
REMARK VINA RESULT:    -4.637      2.160      6.631
REMARK INTER + INTRA:          -8.636
REMARK INTER:                  -6.852
REMARK INTRA:                  -1.784
REMARK UNBOUND:                -1.831
REMARK SMILES O=c1c(O[C@H]2O[C@@H](CO)[C@H](O)[C@@H](O)[C@H]2O)c(-c2ccc(O)c(O)c2)oc2cc(O)cc(O)c12
REMARK SMILES IDX 4 1 3 2 16 3 25 4 2 5 26 6 1 7 33 8 27 9 31 10 28 11 30 12
REMARK SMILES IDX 17 13 18 14 19 15 20 16 24 17 22 18 21 19 23 21 32 23 29 25
REMARK SMILES IDX 5 27 14 28 6 29 12 30 7 31 10 32 15 33 13 35 8 37 9 38 11 40
REMARK H PARENT 21 20 23 22 32 24 29 26 15 34 13 36 9 39 11 41
REMARK Flexibility Score: inf
ROOT
ATOM      1  O   UNL     1      -0.733  11.326  61.294  1.00  0.00    -0.454 OA
ENDROOT
BRANCH   1   2
ATOM      2  C   UNL     1      -0.065  12.152  62.216  1.00  0.00     0.214 A 
ATOM      3  C   UNL     1      -0.347  13.532  62.223  1.00  0.00     0.180 A 
ATOM      4  O   UNL     1       0.307  14.345  63.047  1.00  0.00    -0.452 OA
ATOM      5  C   UNL     1       0.894  11.660  63.125  1.00  0.00     0.239 A 
ATOM      6  C   UNL     1       1.225  13.924  63.908  1.00  0.00     0.146 A 
ATOM      7  O   UNL     1       1.143  10.426  63.171  1.00  0.00    -0.285 OA
ATOM      8  C   UNL     1       1.560  12.553  63.990  1.00  0.00     0.111 A 
ATOM      9  C   UNL     1       1.856  14.856  64.737  1.00  0.00     0.094 A 
ATOM     10  C   UNL     1       2.541  12.140  64.925  1.00  0.00     0.134 A 
ATOM     11  C   UNL     1       2.822  14.445  65.656  1.00  0.00     0.123 A 
ATOM     12  C   UNL     1       3.162  13.090  65.749  1.00  0.00     0.093 A 
BRANCH   3  13
ATOM     13  C   UNL     1      -1.331  14.131  61.296  1.00  0.00     0.025 A 
ATOM     14  C   UNL     1      -2.702  14.134  61.593  1.00  0.00     0.016 A 
ATOM     15  C   UNL     1      -3.616  14.708  60.706  1.00  0.00     0.051 A 
ATOM     16  C   UNL     1      -3.173  15.298  59.519  1.00  0.00     0.157 A 
ATOM     17  C   UNL     1      -0.885  14.744  60.115  1.00  0.00     0.062 A 
ATOM     18  C   UNL     1      -1.800  15.321  59.222  1.00  0.00     0.158 A 
BRANCH  16  19
ATOM     19  O   UNL     1      -4.108  15.860  58.651  1.00  0.00    -0.504 OA
ATOM     20  H   UNL     1      -3.896  16.046  57.677  1.00  0.00     0.293 HD
ENDBRANCH  16  19
BRANCH  18  21
ATOM     21  O   UNL     1      -1.349  15.915  58.044  1.00  0.00    -0.504 OA
ATOM     22  H   UNL     1      -1.989  16.360  57.395  1.00  0.00     0.293 HD
ENDBRANCH  18  21
ENDBRANCH   3  13
BRANCH  10  23
ATOM     23  O   UNL     1       2.902  10.797  65.041  1.00  0.00    -0.507 OA
ATOM     24  H   UNL     1       3.818  10.465  64.762  1.00  0.00     0.293 HD
ENDBRANCH  10  23
BRANCH  11  25
ATOM     25  O   UNL     1       3.440  15.389  66.473  1.00  0.00    -0.508 OA
ATOM     26  H   UNL     1       3.322  15.377  67.479  1.00  0.00     0.293 HD
ENDBRANCH  11  25
ENDBRANCH   1   2
BRANCH   1  27
ATOM     27  C   UNL     1      -1.972  10.654  61.536  1.00  0.00     0.339 C 
ATOM     28  C   UNL     1      -1.790   9.129  61.466  1.00  0.00     0.214 C 
ATOM     29  O   UNL     1      -3.005  11.112  60.678  1.00  0.00    -0.332 OA
ATOM     30  C   UNL     1      -1.484   8.680  60.034  1.00  0.00     0.180 C 
ATOM     31  C   UNL     1      -2.858  10.745  59.312  1.00  0.00     0.179 C 
ATOM     32  C   UNL     1      -2.540   9.242  59.065  1.00  0.00     0.177 C 
BRANCH  28  33
ATOM     33  O   UNL     1      -0.756   8.720  62.325  1.00  0.00    -0.384 OA
ATOM     34  H   UNL     1      -0.436   7.841  61.990  1.00  0.00     0.211 HD
ENDBRANCH  28  33
BRANCH  30  35
ATOM     35  O   UNL     1      -0.198   9.083  59.639  1.00  0.00    -0.387 OA
ATOM     36  H   UNL     1      -0.011   9.948  60.088  1.00  0.00     0.211 HD
ENDBRANCH  30  35
BRANCH  31  37
ATOM     37  C   UNL     1      -2.003  11.751  58.511  1.00  0.00     0.191 C 
BRANCH  37  38
ATOM     38  O   UNL     1      -0.757  11.225  58.164  1.00  0.00    -0.394 OA
ATOM     39  H   UNL     1      -0.532  10.558  58.864  1.00  0.00     0.210 HD
ENDBRANCH  37  38
ENDBRANCH  31  37
BRANCH  32  40
ATOM     40  O   UNL     1      -3.730   8.506  59.203  1.00  0.00    -0.387 OA
ATOM     41  H   UNL     1      -4.344   9.047  59.766  1.00  0.00     0.211 HD
ENDBRANCH  32  40
ENDBRANCH   1  27
TORSDOF 12
ENDMDL
MODEL 8
REMARK VINA RESULT:    -4.499     11.759     14.342
REMARK INTER + INTRA:          -8.433
REMARK INTER:                  -7.020
REMARK INTRA:                  -1.413
REMARK UNBOUND:                -1.831
REMARK SMILES O=c1c(O[C@H]2O[C@@H](CO)[C@H](O)[C@@H](O)[C@H]2O)c(-c2ccc(O)c(O)c2)oc2cc(O)cc(O)c12
REMARK SMILES IDX 4 1 3 2 16 3 25 4 2 5 26 6 1 7 33 8 27 9 31 10 28 11 30 12
REMARK SMILES IDX 17 13 18 14 19 15 20 16 24 17 22 18 21 19 23 21 32 23 29 25
REMARK SMILES IDX 5 27 14 28 6 29 12 30 7 31 10 32 15 33 13 35 8 37 9 38 11 40
REMARK H PARENT 21 20 23 22 32 24 29 26 15 34 13 36 9 39 11 41
REMARK Flexibility Score: inf
ROOT
ATOM      1  O   UNL     1       5.116  13.272  72.989  1.00  0.00    -0.454 OA
ENDROOT
BRANCH   1   2
ATOM      2  C   UNL     1       3.880  13.931  73.124  1.00  0.00     0.214 A 
ATOM      3  C   UNL     1       3.718  15.203  72.539  1.00  0.00     0.180 A 
ATOM      4  O   UNL     1       2.580  15.871  72.695  1.00  0.00    -0.452 OA
ATOM      5  C   UNL     1       2.797  13.380  73.839  1.00  0.00     0.239 A 
ATOM      6  C   UNL     1       1.542  15.395  73.370  1.00  0.00     0.146 A 
ATOM      7  O   UNL     1       2.894  12.229  74.341  1.00  0.00    -0.285 OA
ATOM      8  C   UNL     1       1.602  14.117  73.974  1.00  0.00     0.111 A 
ATOM      9  C   UNL     1       0.385  16.172  73.476  1.00  0.00     0.094 A 
ATOM     10  C   UNL     1       0.472  13.638  74.682  1.00  0.00     0.134 A 
ATOM     11  C   UNL     1      -0.725  15.697  74.176  1.00  0.00     0.123 A 
ATOM     12  C   UNL     1      -0.680  14.433  74.776  1.00  0.00     0.093 A 
BRANCH   3  13
ATOM     13  C   UNL     1       4.807  15.856  71.782  1.00  0.00     0.025 A 
ATOM     14  C   UNL     1       5.676  16.769  72.398  1.00  0.00     0.016 A 
ATOM     15  C   UNL     1       6.702  17.372  71.667  1.00  0.00     0.051 A 
ATOM     16  C   UNL     1       6.883  17.062  70.316  1.00  0.00     0.157 A 
ATOM     17  C   UNL     1       5.004  15.527  70.431  1.00  0.00     0.062 A 
ATOM     18  C   UNL     1       6.033  16.132  69.694  1.00  0.00     0.158 A 
BRANCH  16  19
ATOM     19  O   UNL     1       7.913  17.683  69.610  1.00  0.00    -0.504 OA
ATOM     20  H   UNL     1       8.128  18.667  69.725  1.00  0.00     0.293 HD
ENDBRANCH  16  19
BRANCH  18  21
ATOM     21  O   UNL     1       6.213  15.811  68.349  1.00  0.00    -0.504 OA
ATOM     22  H   UNL     1       6.364  14.856  68.046  1.00  0.00     0.293 HD
ENDBRANCH  18  21
ENDBRANCH   3  13
BRANCH  10  23
ATOM     23  O   UNL     1       0.485  12.384  75.293  1.00  0.00    -0.507 OA
ATOM     24  H   UNL     1      -0.369  11.873  75.481  1.00  0.00     0.293 HD
ENDBRANCH  10  23
BRANCH  11  25
ATOM     25  O   UNL     1      -1.868  16.487  74.269  1.00  0.00    -0.508 OA
ATOM     26  H   UNL     1      -2.129  16.942  75.136  1.00  0.00     0.293 HD
ENDBRANCH  11  25
ENDBRANCH   1   2
BRANCH   1  27
ATOM     27  C   UNL     1       5.423  12.295  71.992  1.00  0.00     0.339 C 
ATOM     28  C   UNL     1       5.746  10.938  72.638  1.00  0.00     0.214 C 
ATOM     29  O   UNL     1       6.450  12.730  71.114  1.00  0.00    -0.332 OA
ATOM     30  C   UNL     1       7.068  11.000  73.410  1.00  0.00     0.180 C 
ATOM     31  C   UNL     1       7.744  12.814  71.699  1.00  0.00     0.179 C 
ATOM     32  C   UNL     1       8.183  11.560  72.508  1.00  0.00     0.177 C 
BRANCH  28  33
ATOM     33  O   UNL     1       4.709  10.547  73.501  1.00  0.00    -0.384 OA
ATOM     34  H   UNL     1       4.144  11.350  73.653  1.00  0.00     0.211 HD
ENDBRANCH  28  33
BRANCH  30  35
ATOM     35  O   UNL     1       6.943  11.783  74.569  1.00  0.00    -0.387 OA
ATOM     36  H   UNL     1       6.131  11.470  75.048  1.00  0.00     0.211 HD
ENDBRANCH  30  35
BRANCH  31  37
ATOM     37  C   UNL     1       8.006  14.175  72.380  1.00  0.00     0.191 C 
BRANCH  37  38
ATOM     38  O   UNL     1       9.224  14.735  71.990  1.00  0.00    -0.394 OA
ATOM     39  H   UNL     1       9.254  14.673  70.999  1.00  0.00     0.210 HD
ENDBRANCH  37  38
ENDBRANCH  31  37
BRANCH  32  40
ATOM     40  O   UNL     1       8.585  10.563  71.601  1.00  0.00    -0.387 OA
ATOM     41  H   UNL     1       7.835   9.916  71.527  1.00  0.00     0.211 HD
ENDBRANCH  32  40
ENDBRANCH   1  27
TORSDOF 12
ENDMDL
MODEL 9
REMARK VINA RESULT:    -4.473     12.548     14.959
REMARK INTER + INTRA:          -8.396
REMARK INTER:                  -6.679
REMARK INTRA:                  -1.717
REMARK UNBOUND:                -1.831
REMARK SMILES O=c1c(O[C@H]2O[C@@H](CO)[C@H](O)[C@@H](O)[C@H]2O)c(-c2ccc(O)c(O)c2)oc2cc(O)cc(O)c12
REMARK SMILES IDX 4 1 3 2 16 3 25 4 2 5 26 6 1 7 33 8 27 9 31 10 28 11 30 12
REMARK SMILES IDX 17 13 18 14 19 15 20 16 24 17 22 18 21 19 23 21 32 23 29 25
REMARK SMILES IDX 5 27 14 28 6 29 12 30 7 31 10 32 15 33 13 35 8 37 9 38 11 40
REMARK H PARENT 21 20 23 22 32 24 29 26 15 34 13 36 9 39 11 41
REMARK Flexibility Score: inf
ROOT
ATOM      1  O   UNL     1       5.257  10.794  73.089  1.00  0.00    -0.454 OA
ENDROOT
BRANCH   1   2
ATOM      2  C   UNL     1       4.349  11.862  73.206  1.00  0.00     0.214 A 
ATOM      3  C   UNL     1       4.734  13.137  72.745  1.00  0.00     0.180 A 
ATOM      4  O   UNL     1       3.918  14.176  72.890  1.00  0.00    -0.452 OA
ATOM      5  C   UNL     1       3.072  11.717  73.784  1.00  0.00     0.239 A 
ATOM      6  C   UNL     1       2.714  14.085  73.440  1.00  0.00     0.146 A 
ATOM      7  O   UNL     1       2.680  10.584  74.171  1.00  0.00    -0.285 OA
ATOM      8  C   UNL     1       2.231  12.842  73.912  1.00  0.00     0.111 A 
ATOM      9  C   UNL     1       1.926  15.235  73.546  1.00  0.00     0.094 A 
ATOM     10  C   UNL     1       0.937  12.782  74.488  1.00  0.00     0.134 A 
ATOM     11  C   UNL     1       0.654  15.171  74.115  1.00  0.00     0.123 A 
ATOM     12  C   UNL     1       0.162  13.947  74.584  1.00  0.00     0.093 A 
BRANCH   3  13
ATOM     13  C   UNL     1       6.060  13.377  72.136  1.00  0.00     0.025 A 
ATOM     14  C   UNL     1       7.216  13.471  72.924  1.00  0.00     0.016 A 
ATOM     15  C   UNL     1       8.461  13.694  72.329  1.00  0.00     0.051 A 
ATOM     16  C   UNL     1       8.569  13.811  70.940  1.00  0.00     0.157 A 
ATOM     17  C   UNL     1       6.172  13.472  70.740  1.00  0.00     0.062 A 
ATOM     18  C   UNL     1       7.420  13.696  70.139  1.00  0.00     0.158 A 
BRANCH  16  19
ATOM     19  O   UNL     1       9.824  14.038  70.375  1.00  0.00    -0.504 OA
ATOM     20  H   UNL     1       9.949  14.633  69.564  1.00  0.00     0.293 HD
ENDBRANCH  16  19
BRANCH  18  21
ATOM     21  O   UNL     1       7.521  13.804  68.753  1.00  0.00    -0.504 OA
ATOM     22  H   UNL     1       7.093  14.572  68.248  1.00  0.00     0.293 HD
ENDBRANCH  18  21
ENDBRANCH   3  13
BRANCH  10  23
ATOM     23  O   UNL     1       0.420  11.578  74.966  1.00  0.00    -0.507 OA
ATOM     24  H   UNL     1       1.020  10.799  75.213  1.00  0.00     0.293 HD
ENDBRANCH  10  23
BRANCH  11  25
ATOM     25  O   UNL     1      -0.116  16.328  74.210  1.00  0.00    -0.508 OA
ATOM     26  H   UNL     1       0.296  17.219  74.461  1.00  0.00     0.293 HD
ENDBRANCH  11  25
ENDBRANCH   1   2
BRANCH   1  27
ATOM     27  C   UNL     1       5.589  10.125  71.870  1.00  0.00     0.339 C 
ATOM     28  C   UNL     1       4.988   8.710  71.841  1.00  0.00     0.214 C 
ATOM     29  O   UNL     1       6.987  10.120  71.626  1.00  0.00    -0.332 OA
ATOM     30  C   UNL     1       5.670   7.805  72.872  1.00  0.00     0.180 C 
ATOM     31  C   UNL     1       7.746   9.297  72.503  1.00  0.00     0.179 C 
ATOM     32  C   UNL     1       7.198   7.853  72.691  1.00  0.00     0.177 C 
BRANCH  28  33
ATOM     33  O   UNL     1       3.606   8.760  72.092  1.00  0.00    -0.384 OA
ATOM     34  H   UNL     1       3.183   8.081  71.504  1.00  0.00     0.211 HD
ENDBRANCH  28  33
BRANCH  30  35
ATOM     35  O   UNL     1       5.323   8.175  74.181  1.00  0.00    -0.387 OA
ATOM     36  H   UNL     1       6.026   7.815  74.783  1.00  0.00     0.211 HD
ENDBRANCH  30  35
BRANCH  31  37
ATOM     37  C   UNL     1       8.164  10.028  73.797  1.00  0.00     0.191 C 
BRANCH  37  38
ATOM     38  O   UNL     1       8.126   9.189  74.913  1.00  0.00    -0.394 OA
ATOM     39  H   UNL     1       8.468   9.725  75.675  1.00  0.00     0.210 HD
ENDBRANCH  37  38
ENDBRANCH  31  37
BRANCH  32  40
ATOM     40  O   UNL     1       7.552   7.091  71.563  1.00  0.00    -0.387 OA
ATOM     41  H   UNL     1       7.705   6.161  71.876  1.00  0.00     0.211 HD
ENDBRANCH  32  40
ENDBRANCH   1  27
TORSDOF 12
ENDMDL
