MODEL 1
REMARK VINA RESULT:    -2.974      0.000      0.000
REMARK INTER + INTRA:          -6.300
REMARK INTER:                  -4.538
REMARK INTRA:                  -1.762
REMARK UNBOUND:                -1.762
REMARK SMILES CC(=O)CCC=C(C)CCC=C(C)CCC=C(C)C
REMARK SMILES IDX 10 1 11 2 12 3 13 4 14 5 15 6 16 7 18 8 17 9 19 10 9 11 7 12
REMARK SMILES IDX 6 13 8 14 5 15 4 16 2 17 3 18 1 19
REMARK H PARENT
REMARK Flexibility Score: inf
ROOT
ATOM      1  C   UNL     1      -1.347 -14.375  -7.796  1.00  0.00     0.032 C 
ENDROOT
BRANCH   1   2
ATOM      2  C   UNL     1      -2.214 -14.848  -6.656  1.00  0.00    -0.028 C 
ATOM      3  C   UNL     1      -2.827 -14.029  -5.772  1.00  0.00    -0.077 C 
ATOM      4  C   UNL     1      -2.731 -12.524  -5.879  1.00  0.00     0.039 C 
BRANCH   3   5
ATOM      5  C   UNL     1      -3.650 -14.636  -4.653  1.00  0.00     0.034 C 
BRANCH   5   6
ATOM      6  C   UNL     1      -4.762 -15.551  -5.188  1.00  0.00     0.032 C 
BRANCH   6   7
ATOM      7  C   UNL     1      -4.435 -17.012  -4.978  1.00  0.00    -0.028 C 
ATOM      8  C   UNL     1      -3.733 -19.285  -5.587  1.00  0.00     0.039 C 
ATOM      9  C   UNL     1      -4.087 -17.870  -5.962  1.00  0.00    -0.080 C 
ATOM     10  C   UNL     1      -4.065 -17.456  -7.415  1.00  0.00     0.039 C 
ENDBRANCH   6   7
ENDBRANCH   5   6
ENDBRANCH   3   5
ENDBRANCH   1   2
BRANCH   1  11
ATOM     11  C   UNL     1      -2.106 -14.449  -9.125  1.00  0.00     0.034 C 
BRANCH  11  12
ATOM     12  C   UNL     1      -3.346 -13.584  -9.083  1.00  0.00    -0.077 C 
ATOM     13  C   UNL     1      -4.559 -14.181  -9.039  1.00  0.00    -0.028 C 
ATOM     14  C   UNL     1      -3.195 -12.080  -9.112  1.00  0.00     0.039 C 
BRANCH  13  15
ATOM     15  C   UNL     1      -5.873 -13.444  -8.966  1.00  0.00     0.035 C 
BRANCH  15  16
ATOM     16  C   UNL     1      -6.482 -13.554  -7.565  1.00  0.00     0.079 C 
BRANCH  16  17
ATOM     17  C   UNL     1      -6.293 -12.270  -6.801  1.00  0.00     0.130 C 
ATOM     18  O   UNL     1      -5.726 -11.329  -7.339  1.00  0.00    -0.300 OA
ATOM     19  C   UNL     1      -6.790 -12.118  -5.394  1.00  0.00     0.087 C 
ENDBRANCH  16  17
ENDBRANCH  15  16
ENDBRANCH  13  15
ENDBRANCH  11  12
ENDBRANCH   1  11
TORSDOF 9
ENDMDL
MODEL 2
REMARK VINA RESULT:    -2.346      2.118      5.173
REMARK INTER + INTRA:          -5.343
REMARK INTER:                  -4.012
REMARK INTRA:                  -1.331
REMARK UNBOUND:                -1.762
REMARK SMILES CC(=O)CCC=C(C)CCC=C(C)CCC=C(C)C
REMARK SMILES IDX 10 1 11 2 12 3 13 4 14 5 15 6 16 7 18 8 17 9 19 10 9 11 7 12
REMARK SMILES IDX 6 13 8 14 5 15 4 16 2 17 3 18 1 19
REMARK H PARENT
REMARK Flexibility Score: inf
ROOT
ATOM      1  C   UNL     1      -3.109 -14.694  -9.125  1.00  0.00     0.032 C 
ENDROOT
BRANCH   1   2
ATOM      2  C   UNL     1      -4.201 -13.655  -9.090  1.00  0.00    -0.028 C 
ATOM      3  C   UNL     1      -3.987 -12.324  -8.980  1.00  0.00    -0.077 C 
ATOM      4  C   UNL     1      -2.592 -11.743  -8.927  1.00  0.00     0.039 C 
BRANCH   3   5
ATOM      5  C   UNL     1      -5.177 -11.387  -8.928  1.00  0.00     0.034 C 
BRANCH   5   6
ATOM      6  C   UNL     1      -6.414 -12.061  -8.315  1.00  0.00     0.032 C 
BRANCH   6   7
ATOM      7  C   UNL     1      -6.513 -11.807  -6.828  1.00  0.00    -0.028 C 
ATOM      8  C   UNL     1      -6.386 -12.322  -4.430  1.00  0.00     0.039 C 
ATOM      9  C   UNL     1      -6.310 -12.743  -5.874  1.00  0.00    -0.080 C 
ATOM     10  C   UNL     1      -6.030 -14.188  -6.216  1.00  0.00     0.039 C 
ENDBRANCH   6   7
ENDBRANCH   5   6
ENDBRANCH   3   5
ENDBRANCH   1   2
BRANCH   1  11
ATOM     11  C   UNL     1      -2.034 -14.390  -8.075  1.00  0.00     0.034 C 
BRANCH  11  12
ATOM     12  C   UNL     1      -2.526 -14.742  -6.689  1.00  0.00    -0.077 C 
ATOM     13  C   UNL     1      -2.890 -16.019  -6.429  1.00  0.00    -0.028 C 
ATOM     14  C   UNL     1      -2.617 -13.656  -5.642  1.00  0.00     0.039 C 
BRANCH  13  15
ATOM     15  C   UNL     1      -3.371 -16.515  -5.088  1.00  0.00     0.035 C 
BRANCH  15  16
ATOM     16  C   UNL     1      -4.540 -17.492  -5.255  1.00  0.00     0.079 C 
BRANCH  16  17
ATOM     17  C   UNL     1      -4.076 -18.770  -5.900  1.00  0.00     0.130 C 
ATOM     18  O   UNL     1      -4.614 -19.153  -6.930  1.00  0.00    -0.300 OA
ATOM     19  C   UNL     1      -2.962 -19.583  -5.311  1.00  0.00     0.087 C 
ENDBRANCH  16  17
ENDBRANCH  15  16
ENDBRANCH  13  15
ENDBRANCH  11  12
ENDBRANCH   1  11
TORSDOF 9
ENDMDL
MODEL 3
REMARK VINA RESULT:    -2.048      2.007      4.703
REMARK INTER + INTRA:          -4.887
REMARK INTER:                  -4.153
REMARK INTRA:                  -0.734
REMARK UNBOUND:                -1.762
REMARK SMILES CC(=O)CCC=C(C)CCC=C(C)CCC=C(C)C
REMARK SMILES IDX 10 1 11 2 12 3 13 4 14 5 15 6 16 7 18 8 17 9 19 10 9 11 7 12
REMARK SMILES IDX 6 13 8 14 5 15 4 16 2 17 3 18 1 19
REMARK H PARENT
REMARK Flexibility Score: inf
ROOT
ATOM      1  C   UNL     1      -2.136 -13.344  -7.699  1.00  0.00     0.032 C 
ENDROOT
BRANCH   1   2
ATOM      2  C   UNL     1      -3.400 -12.686  -8.191  1.00  0.00    -0.028 C 
ATOM      3  C   UNL     1      -3.481 -11.402  -8.607  1.00  0.00    -0.077 C 
ATOM      4  C   UNL     1      -2.267 -10.503  -8.659  1.00  0.00     0.039 C 
BRANCH   3   5
ATOM      5  C   UNL     1      -4.822 -10.854  -9.052  1.00  0.00     0.034 C 
BRANCH   5   6
ATOM      6  C   UNL     1      -5.984 -11.769  -8.637  1.00  0.00     0.032 C 
BRANCH   6   7
ATOM      7  C   UNL     1      -6.381 -11.553  -7.195  1.00  0.00    -0.028 C 
ATOM      8  C   UNL     1      -6.741 -12.131  -4.835  1.00  0.00     0.039 C 
ATOM      9  C   UNL     1      -6.374 -12.514  -6.245  1.00  0.00    -0.080 C 
ATOM     10  C   UNL     1      -6.032 -13.952  -6.562  1.00  0.00     0.039 C 
ENDBRANCH   6   7
ENDBRANCH   5   6
ENDBRANCH   3   5
ENDBRANCH   1   2
BRANCH   1  11
ATOM     11  C   UNL     1      -1.993 -14.754  -8.283  1.00  0.00     0.034 C 
BRANCH  11  12
ATOM     12  C   UNL     1      -3.032 -15.684  -7.695  1.00  0.00    -0.077 C 
ATOM     13  C   UNL     1      -2.826 -16.197  -6.460  1.00  0.00    -0.028 C 
ATOM     14  C   UNL     1      -4.255 -16.030  -8.512  1.00  0.00     0.039 C 
BRANCH  13  15
ATOM     15  C   UNL     1      -3.788 -17.111  -5.743  1.00  0.00     0.035 C 
BRANCH  15  16
ATOM     16  C   UNL     1      -4.783 -16.305  -4.901  1.00  0.00     0.079 C 
BRANCH  16  17
ATOM     17  C   UNL     1      -4.059 -15.474  -3.875  1.00  0.00     0.130 C 
ATOM     18  O   UNL     1      -4.070 -15.822  -2.703  1.00  0.00    -0.300 OA
ATOM     19  C   UNL     1      -3.317 -14.228  -4.262  1.00  0.00     0.087 C 
ENDBRANCH  16  17
ENDBRANCH  15  16
ENDBRANCH  13  15
ENDBRANCH  11  12
ENDBRANCH   1  11
TORSDOF 9
ENDMDL
MODEL 4
REMARK VINA RESULT:    -1.790      2.055      5.365
REMARK INTER + INTRA:          -4.494
REMARK INTER:                  -2.728
REMARK INTRA:                  -1.765
REMARK UNBOUND:                -1.762
REMARK SMILES CC(=O)CCC=C(C)CCC=C(C)CCC=C(C)C
REMARK SMILES IDX 10 1 11 2 12 3 13 4 14 5 15 6 16 7 18 8 17 9 19 10 9 11 7 12
REMARK SMILES IDX 6 13 8 14 5 15 4 16 2 17 3 18 1 19
REMARK H PARENT
REMARK Flexibility Score: inf
ROOT
ATOM      1  C   UNL     1      -2.057 -14.263  -6.168  1.00  0.00     0.032 C 
ENDROOT
BRANCH   1   2
ATOM      2  C   UNL     1      -2.374 -12.981  -6.895  1.00  0.00    -0.028 C 
ATOM      3  C   UNL     1      -2.606 -12.892  -8.224  1.00  0.00    -0.077 C 
ATOM      4  C   UNL     1      -2.612 -14.114  -9.115  1.00  0.00     0.039 C 
BRANCH   3   5
ATOM      5  C   UNL     1      -2.888 -11.534  -8.836  1.00  0.00     0.034 C 
BRANCH   5   6
ATOM      6  C   UNL     1      -4.383 -11.333  -9.125  1.00  0.00     0.032 C 
BRANCH   6   7
ATOM      7  C   UNL     1      -5.212 -11.400  -7.864  1.00  0.00    -0.028 C 
ATOM      8  C   UNL     1      -6.720 -12.389  -6.195  1.00  0.00     0.039 C 
ATOM      9  C   UNL     1      -5.998 -12.444  -7.516  1.00  0.00    -0.080 C 
ATOM     10  C   UNL     1      -6.183 -13.642  -8.418  1.00  0.00     0.039 C 
ENDBRANCH   6   7
ENDBRANCH   5   6
ENDBRANCH   3   5
ENDBRANCH   1   2
BRANCH   1  11
ATOM     11  C   UNL     1      -3.175 -14.624  -5.185  1.00  0.00     0.034 C 
BRANCH  11  12
ATOM     12  C   UNL     1      -4.198 -15.522  -5.844  1.00  0.00    -0.077 C 
ATOM     13  C   UNL     1      -3.801 -16.337  -6.848  1.00  0.00    -0.028 C 
ATOM     14  C   UNL     1      -5.635 -15.466  -5.379  1.00  0.00     0.039 C 
BRANCH  13  15
ATOM     15  C   UNL     1      -4.706 -17.303  -7.574  1.00  0.00     0.035 C 
BRANCH  15  16
ATOM     16  C   UNL     1      -4.284 -18.751  -7.306  1.00  0.00     0.079 C 
BRANCH  16  17
ATOM     17  C   UNL     1      -3.976 -18.953  -5.846  1.00  0.00     0.130 C 
ATOM     18  O   UNL     1      -4.833 -18.704  -5.010  1.00  0.00    -0.300 OA
ATOM     19  C   UNL     1      -2.638 -19.460  -5.394  1.00  0.00     0.087 C 
ENDBRANCH  16  17
ENDBRANCH  15  16
ENDBRANCH  13  15
ENDBRANCH  11  12
ENDBRANCH   1  11
TORSDOF 9
ENDMDL
MODEL 5
REMARK VINA RESULT:    -1.405      1.796      5.175
REMARK INTER + INTRA:          -3.906
REMARK INTER:                  -3.722
REMARK INTRA:                  -0.185
REMARK UNBOUND:                -1.762
REMARK SMILES CC(=O)CCC=C(C)CCC=C(C)CCC=C(C)C
REMARK SMILES IDX 10 1 11 2 12 3 13 4 14 5 15 6 16 7 18 8 17 9 19 10 9 11 7 12
REMARK SMILES IDX 6 13 8 14 5 15 4 16 2 17 3 18 1 19
REMARK H PARENT
REMARK Flexibility Score: inf
ROOT
ATOM      1  C   UNL     1      -4.139 -13.895  -4.162  1.00  0.00     0.032 C 
ENDROOT
BRANCH   1   2
ATOM      2  C   UNL     1      -4.654 -13.575  -5.542  1.00  0.00    -0.028 C 
ATOM      3  C   UNL     1      -5.831 -12.958  -5.795  1.00  0.00    -0.077 C 
ATOM      4  C   UNL     1      -6.736 -12.481  -4.681  1.00  0.00     0.039 C 
BRANCH   3   5
ATOM      5  C   UNL     1      -6.246 -12.719  -7.233  1.00  0.00     0.034 C 
BRANCH   5   6
ATOM      6  C   UNL     1      -5.843 -11.320  -7.723  1.00  0.00     0.032 C 
BRANCH   6   7
ATOM      7  C   UNL     1      -4.608 -11.364  -8.593  1.00  0.00    -0.028 C 
ATOM      8  C   UNL     1      -2.210 -11.334  -9.125  1.00  0.00     0.039 C 
ATOM      9  C   UNL     1      -3.344 -11.204  -8.142  1.00  0.00    -0.080 C 
ATOM     10  C   UNL     1      -3.045 -10.883  -6.696  1.00  0.00     0.039 C 
ENDBRANCH   6   7
ENDBRANCH   5   6
ENDBRANCH   3   5
ENDBRANCH   1   2
BRANCH   1  11
ATOM     11  C   UNL     1      -3.450 -15.264  -4.142  1.00  0.00     0.034 C 
BRANCH  11  12
ATOM     12  C   UNL     1      -3.192 -15.754  -5.550  1.00  0.00    -0.077 C 
ATOM     13  C   UNL     1      -2.709 -14.884  -6.466  1.00  0.00    -0.028 C 
ATOM     14  C   UNL     1      -3.502 -17.192  -5.897  1.00  0.00     0.039 C 
BRANCH  13  15
ATOM     15  C   UNL     1      -2.379 -15.242  -7.894  1.00  0.00     0.035 C 
BRANCH  15  16
ATOM     16  C   UNL     1      -3.391 -14.617  -8.860  1.00  0.00     0.079 C 
BRANCH  16  17
ATOM     17  C   UNL     1      -4.654 -15.435  -8.910  1.00  0.00     0.130 C 
ATOM     18  O   UNL     1      -4.590 -16.648  -8.768  1.00  0.00    -0.300 OA
ATOM     19  C   UNL     1      -5.992 -14.793  -9.124  1.00  0.00     0.087 C 
ENDBRANCH  16  17
ENDBRANCH  15  16
ENDBRANCH  13  15
ENDBRANCH  11  12
ENDBRANCH   1  11
TORSDOF 9
ENDMDL
MODEL 6
REMARK VINA RESULT:    -1.124      2.088      5.664
REMARK INTER + INTRA:          -3.478
REMARK INTER:                  -3.362
REMARK INTRA:                  -0.116
REMARK UNBOUND:                -1.762
REMARK SMILES CC(=O)CCC=C(C)CCC=C(C)CCC=C(C)C
REMARK SMILES IDX 10 1 11 2 12 3 13 4 14 5 15 6 16 7 18 8 17 9 19 10 9 11 7 12
REMARK SMILES IDX 6 13 8 14 5 15 4 16 2 17 3 18 1 19
REMARK H PARENT
REMARK Flexibility Score: inf
ROOT
ATOM      1  C   UNL     1      -4.489 -13.649  -4.724  1.00  0.00     0.032 C 
ENDROOT
BRANCH   1   2
ATOM      2  C   UNL     1      -5.021 -13.193  -6.059  1.00  0.00    -0.028 C 
ATOM      3  C   UNL     1      -6.185 -12.526  -6.230  1.00  0.00    -0.077 C 
ATOM      4  C   UNL     1      -7.055 -12.128  -5.059  1.00  0.00     0.039 C 
BRANCH   3   5
ATOM      5  C   UNL     1      -6.621 -12.150  -7.632  1.00  0.00     0.034 C 
BRANCH   5   6
ATOM      6  C   UNL     1      -5.527 -12.437  -8.671  1.00  0.00     0.032 C 
BRANCH   6   7
ATOM      7  C   UNL     1      -4.530 -11.305  -8.763  1.00  0.00    -0.028 C 
ATOM      8  C   UNL     1      -2.350 -10.232  -9.123  1.00  0.00     0.039 C 
ATOM      9  C   UNL     1      -3.208 -11.463  -9.000  1.00  0.00    -0.080 C 
ATOM     10  C   UNL     1      -2.575 -12.830  -9.123  1.00  0.00     0.039 C 
ENDBRANCH   6   7
ENDBRANCH   5   6
ENDBRANCH   3   5
ENDBRANCH   1   2
BRANCH   1  11
ATOM     11  C   UNL     1      -3.064 -14.196  -4.864  1.00  0.00     0.034 C 
BRANCH  11  12
ATOM     12  C   UNL     1      -2.939 -15.051  -6.106  1.00  0.00    -0.077 C 
ATOM     13  C   UNL     1      -3.785 -16.094  -6.269  1.00  0.00    -0.028 C 
ATOM     14  C   UNL     1      -1.861 -14.730  -7.114  1.00  0.00     0.039 C 
BRANCH  13  15
ATOM     15  C   UNL     1      -3.792 -17.010  -7.468  1.00  0.00     0.035 C 
BRANCH  15  16
ATOM     16  C   UNL     1      -4.459 -18.346  -7.129  1.00  0.00     0.079 C 
BRANCH  16  17
ATOM     17  C   UNL     1      -4.120 -18.769  -5.724  1.00  0.00     0.130 C 
ATOM     18  O   UNL     1      -4.812 -18.377  -4.795  1.00  0.00    -0.300 OA
ATOM     19  C   UNL     1      -2.952 -19.667  -5.439  1.00  0.00     0.087 C 
ENDBRANCH  16  17
ENDBRANCH  15  16
ENDBRANCH  13  15
ENDBRANCH  11  12
ENDBRANCH   1  11
TORSDOF 9
ENDMDL
MODEL 7
REMARK VINA RESULT:    -0.907      2.190      5.462
REMARK INTER + INTRA:          -3.146
REMARK INTER:                  -2.869
REMARK INTRA:                  -0.277
REMARK UNBOUND:                -1.762
REMARK SMILES CC(=O)CCC=C(C)CCC=C(C)CCC=C(C)C
REMARK SMILES IDX 10 1 11 2 12 3 13 4 14 5 15 6 16 7 18 8 17 9 19 10 9 11 7 12
REMARK SMILES IDX 6 13 8 14 5 15 4 16 2 17 3 18 1 19
REMARK H PARENT
REMARK Flexibility Score: inf
ROOT
ATOM      1  C   UNL     1      -6.212 -12.135  -5.868  1.00  0.00     0.032 C 
ENDROOT
BRANCH   1   2
ATOM      2  C   UNL     1      -5.081 -11.601  -6.709  1.00  0.00    -0.028 C 
ATOM      3  C   UNL     1      -5.042 -11.652  -8.060  1.00  0.00    -0.077 C 
ATOM      4  C   UNL     1      -6.183 -12.225  -8.869  1.00  0.00     0.039 C 
BRANCH   3   5
ATOM      5  C   UNL     1      -3.829 -11.103  -8.785  1.00  0.00     0.034 C 
BRANCH   5   6
ATOM      6  C   UNL     1      -2.806 -12.202  -9.110  1.00  0.00     0.032 C 
BRANCH   6   7
ATOM      7  C   UNL     1      -3.441 -13.573  -9.123  1.00  0.00    -0.028 C 
ATOM      8  C   UNL     1      -3.840 -15.891  -8.414  1.00  0.00     0.039 C 
ATOM      9  C   UNL     1      -3.071 -14.599  -8.325  1.00  0.00    -0.080 C 
ATOM     10  C   UNL     1      -1.905 -14.489  -7.369  1.00  0.00     0.039 C 
ENDBRANCH   6   7
ENDBRANCH   5   6
ENDBRANCH   3   5
ENDBRANCH   1   2
BRANCH   1  11
ATOM     11  C   UNL     1      -6.355 -13.651  -6.047  1.00  0.00     0.034 C 
BRANCH  11  12
ATOM     12  C   UNL     1      -5.178 -14.375  -5.432  1.00  0.00    -0.077 C 
ATOM     13  C   UNL     1      -5.245 -15.717  -5.277  1.00  0.00    -0.028 C 
ATOM     14  C   UNL     1      -3.972 -13.578  -4.991  1.00  0.00     0.039 C 
BRANCH  13  15
ATOM     15  C   UNL     1      -4.138 -16.569  -4.707  1.00  0.00     0.035 C 
BRANCH  15  16
ATOM     16  C   UNL     1      -3.534 -17.473  -5.786  1.00  0.00     0.079 C 
BRANCH  16  17
ATOM     17  C   UNL     1      -3.831 -18.920  -5.493  1.00  0.00     0.130 C 
ATOM     18  O   UNL     1      -4.930 -19.232  -5.056  1.00  0.00    -0.300 OA
ATOM     19  C   UNL     1      -2.808 -19.991  -5.733  1.00  0.00     0.087 C 
ENDBRANCH  16  17
ENDBRANCH  15  16
ENDBRANCH  13  15
ENDBRANCH  11  12
ENDBRANCH   1  11
TORSDOF 9
ENDMDL
