MODEL 1
REMARK VINA RESULT:    -3.733      0.000      0.000
REMARK INTER + INTRA:          -4.503
REMARK INTER:                  -4.388
REMARK INTRA:                  -0.115
REMARK UNBOUND:                -0.115
REMARK SMILES O=C([O-])CCC(=O)[O-]
REMARK SMILES IDX 4 1 2 2 1 3 3 4 5 5 6 6 7 7 8 8
REMARK H PARENT
REMARK Flexibility Score: inf
ROOT
ATOM      1  C   UNL     1      10.014  53.792  21.438  1.00  0.00     0.059 C 
ENDROOT
BRANCH   1   2
ATOM      2  C   UNL     1       8.609  54.131  21.044  1.00  0.00     0.042 C 
ATOM      3  O   UNL     1       7.646  53.443  21.475  1.00  0.00    -0.550 OA
ATOM      4  O   UNL     1       8.360  55.230  20.232  1.00  0.00    -0.550 OA
ENDBRANCH   1   2
BRANCH   1   5
ATOM      5  C   UNL     1      10.057  52.992  22.743  1.00  0.00     0.059 C 
BRANCH   5   6
ATOM      6  C   UNL     1      10.019  53.889  23.943  1.00  0.00     0.042 C 
ATOM      7  O   UNL     1      11.070  54.458  24.341  1.00  0.00    -0.550 OA
ATOM      8  O   UNL     1       8.833  54.064  24.645  1.00  0.00    -0.550 OA
ENDBRANCH   5   6
ENDBRANCH   1   5
TORSDOF 3
ENDMDL
MODEL 2
REMARK VINA RESULT:    -3.723      4.119      4.820
REMARK INTER + INTRA:          -4.490
REMARK INTER:                  -4.363
REMARK INTRA:                  -0.128
REMARK UNBOUND:                -0.115
REMARK SMILES O=C([O-])CCC(=O)[O-]
REMARK SMILES IDX 4 1 2 2 1 3 3 4 5 5 6 6 7 7 8 8
REMARK H PARENT
REMARK Flexibility Score: inf
ROOT
ATOM      1  C   UNL     1       7.633  55.397  19.396  1.00  0.00     0.059 C 
ENDROOT
BRANCH   1   2
ATOM      2  C   UNL     1       6.943  54.690  18.270  1.00  0.00     0.042 C 
ATOM      3  O   UNL     1       6.332  53.609  18.479  1.00  0.00    -0.550 OA
ATOM      4  O   UNL     1       6.941  55.246  16.997  1.00  0.00    -0.550 OA
ENDBRANCH   1   2
BRANCH   1   5
ATOM      5  C   UNL     1       6.849  56.632  19.852  1.00  0.00     0.059 C 
BRANCH   5   6
ATOM      6  C   UNL     1       5.812  56.281  20.875  1.00  0.00     0.042 C 
ATOM      7  O   UNL     1       4.849  57.064  21.092  1.00  0.00    -0.550 OA
ATOM      8  O   UNL     1       5.930  55.112  21.615  1.00  0.00    -0.550 OA
ENDBRANCH   5   6
ENDBRANCH   1   5
TORSDOF 3
ENDMDL
MODEL 3
REMARK VINA RESULT:    -3.718      4.134      5.573
REMARK INTER + INTRA:          -4.484
REMARK INTER:                  -4.366
REMARK INTRA:                  -0.118
REMARK UNBOUND:                -0.115
REMARK SMILES O=C([O-])CCC(=O)[O-]
REMARK SMILES IDX 4 1 2 2 1 3 3 4 5 5 6 6 7 7 8 8
REMARK H PARENT
REMARK Flexibility Score: inf
ROOT
ATOM      1  C   UNL     1       6.857  56.635  19.834  1.00  0.00     0.059 C 
ENDROOT
BRANCH   1   2
ATOM      2  C   UNL     1       5.842  56.336  20.894  1.00  0.00     0.042 C 
ATOM      3  O   UNL     1       4.924  57.161  21.144  1.00  0.00    -0.550 OA
ATOM      4  O   UNL     1       5.887  55.129  21.580  1.00  0.00    -0.550 OA
ENDBRANCH   1   2
BRANCH   1   5
ATOM      5  C   UNL     1       7.620  55.374  19.413  1.00  0.00     0.059 C 
BRANCH   5   6
ATOM      6  C   UNL     1       6.962  54.692  18.252  1.00  0.00     0.042 C 
ATOM      7  O   UNL     1       6.442  53.555  18.399  1.00  0.00    -0.550 OA
ATOM      8  O   UNL     1       6.960  55.294  17.000  1.00  0.00    -0.550 OA
ENDBRANCH   5   6
ENDBRANCH   1   5
TORSDOF 3
ENDMDL
MODEL 4
REMARK VINA RESULT:    -3.652      1.578      2.180
REMARK INTER + INTRA:          -4.407
REMARK INTER:                  -4.371
REMARK INTRA:                  -0.036
REMARK UNBOUND:                -0.115
REMARK SMILES O=C([O-])CCC(=O)[O-]
REMARK SMILES IDX 4 1 2 2 1 3 3 4 5 5 6 6 7 7 8 8
REMARK H PARENT
REMARK Flexibility Score: inf
ROOT
ATOM      1  C   UNL     1       8.299  53.977  20.959  1.00  0.00     0.059 C 
ENDROOT
BRANCH   1   2
ATOM      2  C   UNL     1       7.874  55.337  20.499  1.00  0.00     0.042 C 
ATOM      3  O   UNL     1       7.704  56.265  21.333  1.00  0.00    -0.550 OA
ATOM      4  O   UNL     1       7.705  55.591  19.143  1.00  0.00    -0.550 OA
ENDBRANCH   1   2
BRANCH   1   5
ATOM      5  C   UNL     1       9.803  53.921  21.243  1.00  0.00     0.059 C 
BRANCH   5   6
ATOM      6  C   UNL     1      10.117  53.000  22.382  1.00  0.00     0.042 C 
ATOM      7  O   UNL     1      10.290  53.463  23.540  1.00  0.00    -0.550 OA
ATOM      8  O   UNL     1      10.260  51.637  22.157  1.00  0.00    -0.550 OA
ENDBRANCH   5   6
ENDBRANCH   1   5
TORSDOF 3
ENDMDL
MODEL 5
REMARK VINA RESULT:    -3.651      0.237      3.641
REMARK INTER + INTRA:          -4.406
REMARK INTER:                  -4.284
REMARK INTRA:                  -0.122
REMARK UNBOUND:                -0.115
REMARK SMILES O=C([O-])CCC(=O)[O-]
REMARK SMILES IDX 4 1 2 2 1 3 3 4 5 5 6 6 7 7 8 8
REMARK H PARENT
REMARK Flexibility Score: inf
ROOT
ATOM      1  C   UNL     1       9.815  52.973  22.590  1.00  0.00     0.059 C 
ENDROOT
BRANCH   1   2
ATOM      2  C   UNL     1       9.818  53.818  23.827  1.00  0.00     0.042 C 
ATOM      3  O   UNL     1       8.756  53.992  24.480  1.00  0.00    -0.550 OA
ATOM      4  O   UNL     1      11.004  54.382  24.280  1.00  0.00    -0.550 OA
ENDBRANCH   1   2
BRANCH   1   5
ATOM      5  C   UNL     1       9.844  53.830  21.321  1.00  0.00     0.059 C 
BRANCH   5   6
ATOM      6  C   UNL     1       8.470  54.274  20.922  1.00  0.00     0.042 C 
ATOM      7  O   UNL     1       7.465  53.585  21.239  1.00  0.00    -0.550 OA
ATOM      8  O   UNL     1       8.303  55.427  20.165  1.00  0.00    -0.550 OA
ENDBRANCH   5   6
ENDBRANCH   1   5
TORSDOF 3
ENDMDL
MODEL 6
REMARK VINA RESULT:    -3.644      1.553      3.892
REMARK INTER + INTRA:          -4.398
REMARK INTER:                  -4.363
REMARK INTRA:                  -0.035
REMARK UNBOUND:                -0.115
REMARK SMILES O=C([O-])CCC(=O)[O-]
REMARK SMILES IDX 4 1 2 2 1 3 3 4 5 5 6 6 7 7 8 8
REMARK H PARENT
REMARK Flexibility Score: inf
ROOT
ATOM      1  C   UNL     1       9.827  53.954  21.274  1.00  0.00     0.059 C 
ENDROOT
BRANCH   1   2
ATOM      2  C   UNL     1      10.163  53.094  22.454  1.00  0.00     0.042 C 
ATOM      3  O   UNL     1      10.333  53.613  23.589  1.00  0.00    -0.550 OA
ATOM      4  O   UNL     1      10.251  51.716  22.307  1.00  0.00    -0.550 OA
ENDBRANCH   1   2
BRANCH   1   5
ATOM      5  C   UNL     1       8.317  53.998  21.020  1.00  0.00     0.059 C 
BRANCH   5   6
ATOM      6  C   UNL     1       7.884  55.330  20.488  1.00  0.00     0.042 C 
ATOM      7  O   UNL     1       7.684  56.291  21.277  1.00  0.00    -0.550 OA
ATOM      8  O   UNL     1       7.662  55.498  19.128  1.00  0.00    -0.550 OA
ENDBRANCH   5   6
ENDBRANCH   1   5
TORSDOF 3
ENDMDL
MODEL 7
REMARK VINA RESULT:    -3.632      1.578      4.056
REMARK INTER + INTRA:          -4.384
REMARK INTER:                  -4.355
REMARK INTRA:                  -0.029
REMARK UNBOUND:                -0.115
REMARK SMILES O=C([O-])CCC(=O)[O-]
REMARK SMILES IDX 4 1 2 2 1 3 3 4 5 5 6 6 7 7 8 8
REMARK H PARENT
REMARK Flexibility Score: inf
ROOT
ATOM      1  C   UNL     1       9.859  53.792  21.166  1.00  0.00     0.059 C 
ENDROOT
BRANCH   1   2
ATOM      2  C   UNL     1      10.161  52.913  22.341  1.00  0.00     0.042 C 
ATOM      3  O   UNL     1      10.288  51.670  22.188  1.00  0.00    -0.550 OA
ATOM      4  O   UNL     1      10.341  53.473  23.600  1.00  0.00    -0.550 OA
ENDBRANCH   1   2
BRANCH   1   5
ATOM      5  C   UNL     1       8.493  54.471  21.306  1.00  0.00     0.059 C 
BRANCH   5   6
ATOM      6  C   UNL     1       8.006  55.009  19.995  1.00  0.00     0.042 C 
ATOM      7  O   UNL     1       7.635  54.220  19.087  1.00  0.00    -0.550 OA
ATOM      8  O   UNL     1       8.000  56.378  19.763  1.00  0.00    -0.550 OA
ENDBRANCH   5   6
ENDBRANCH   1   5
TORSDOF 3
ENDMDL
MODEL 8
REMARK VINA RESULT:    -3.630      1.806      2.054
REMARK INTER + INTRA:          -4.382
REMARK INTER:                  -4.267
REMARK INTRA:                  -0.114
REMARK UNBOUND:                -0.115
REMARK SMILES O=C([O-])CCC(=O)[O-]
REMARK SMILES IDX 4 1 2 2 1 3 3 4 5 5 6 6 7 7 8 8
REMARK H PARENT
REMARK Flexibility Score: inf
ROOT
ATOM      1  C   UNL     1       8.729  54.695  21.610  1.00  0.00     0.059 C 
ENDROOT
BRANCH   1   2
ATOM      2  C   UNL     1       7.807  54.756  20.431  1.00  0.00     0.042 C 
ATOM      3  O   UNL     1       6.892  53.903  20.297  1.00  0.00    -0.550 OA
ATOM      4  O   UNL     1       7.936  55.780  19.501  1.00  0.00    -0.550 OA
ENDBRANCH   1   2
BRANCH   1   5
ATOM      5  C   UNL     1       9.806  53.621  21.429  1.00  0.00     0.059 C 
BRANCH   5   6
ATOM      6  C   UNL     1       9.553  52.431  22.305  1.00  0.00     0.042 C 
ATOM      7  O   UNL     1      10.250  51.390  22.174  1.00  0.00    -0.550 OA
ATOM      8  O   UNL     1       8.522  52.458  23.235  1.00  0.00    -0.550 OA
ENDBRANCH   5   6
ENDBRANCH   1   5
TORSDOF 3
ENDMDL
MODEL 9
REMARK VINA RESULT:    -3.567      2.042      2.268
REMARK INTER + INTRA:          -4.307
REMARK INTER:                  -4.193
REMARK INTRA:                  -0.114
REMARK UNBOUND:                -0.115
REMARK SMILES O=C([O-])CCC(=O)[O-]
REMARK SMILES IDX 4 1 2 2 1 3 3 4 5 5 6 6 7 7 8 8
REMARK H PARENT
REMARK Flexibility Score: inf
ROOT
ATOM      1  C   UNL     1       8.433  52.892  22.446  1.00  0.00     0.059 C 
ENDROOT
BRANCH   1   2
ATOM      2  C   UNL     1       9.814  52.503  22.014  1.00  0.00     0.042 C 
ATOM      3  O   UNL     1      10.272  51.365  22.300  1.00  0.00    -0.550 OA
ATOM      4  O   UNL     1      10.581  53.383  21.261  1.00  0.00    -0.550 OA
ENDBRANCH   1   2
BRANCH   1   5
ATOM      5  C   UNL     1       8.370  53.167  23.951  1.00  0.00     0.059 C 
BRANCH   5   6
ATOM      6  C   UNL     1       9.339  54.235  24.359  1.00  0.00     0.042 C 
ATOM      7  O   UNL     1      10.070  54.073  25.371  1.00  0.00    -0.550 OA
ATOM      8  O   UNL     1       9.405  55.425  23.646  1.00  0.00    -0.550 OA
ENDBRANCH   5   6
ENDBRANCH   1   5
TORSDOF 3
ENDMDL
