MODEL 1
REMARK VINA RESULT:     8.147      0.000      0.000
REMARK INTER + INTRA:          22.726
REMARK INTER:                  20.530
REMARK INTRA:                   2.196
REMARK UNBOUND:                 2.196
REMARK SMILES CCCCCCCCCCCCCCCCCCCCCCCCCCCC(=O)[O-]
REMARK SMILES IDX 15 1 16 2 17 3 18 4 19 5 20 6 21 7 22 8 23 9 24 10 25 11
REMARK SMILES IDX 26 12 27 13 28 14 29 15 30 16 14 17 13 18 12 19 11 20 10 21
REMARK SMILES IDX 9 22 8 23 7 24 6 25 5 26 4 27 3 28 2 29 1 30
REMARK H PARENT
REMARK Flexibility Score: inf
ROOT
ATOM      1  C   UNL     1      -3.920  34.823  23.041  1.00  0.00     0.000 C 
ENDROOT
BRANCH   1   2
ATOM      2  C   UNL     1      -4.430  34.315  21.682  1.00  0.00     0.000 C 
BRANCH   2   3
ATOM      3  C   UNL     1      -4.781  35.465  20.720  1.00  0.00     0.000 C 
BRANCH   3   4
ATOM      4  C   UNL     1      -4.782  35.030  19.244  1.00  0.00     0.000 C 
BRANCH   4   5
ATOM      5  C   UNL     1      -4.766  36.184  18.220  1.00  0.00     0.000 C 
BRANCH   5   6
ATOM      6  C   UNL     1      -4.172  37.510  18.733  1.00  0.00     0.000 C 
BRANCH   6   7
ATOM      7  C   UNL     1      -3.081  37.364  19.810  1.00  0.00     0.000 C 
BRANCH   7   8
ATOM      8  C   UNL     1      -1.819  38.185  19.495  1.00  0.00     0.000 C 
BRANCH   8   9
ATOM      9  C   UNL     1      -0.784  37.386  18.685  1.00  0.00     0.000 C 
BRANCH   9  10
ATOM     10  C   UNL     1      -0.954  37.566  17.165  1.00  0.00     0.000 C 
BRANCH  10  11
ATOM     11  C   UNL     1      -2.093  36.706  16.594  1.00  0.00     0.000 C 
BRANCH  11  12
ATOM     12  C   UNL     1      -1.777  36.155  15.193  1.00  0.00     0.006 C 
BRANCH  12  13
ATOM     13  C   UNL     1      -3.010  36.149  14.281  1.00  0.00     0.053 C 
BRANCH  13  14
ATOM     14  C   UNL     1      -3.896  37.331  14.534  1.00  0.00     0.041 C 
ATOM     15  O   UNL     1      -5.050  37.375  14.034  1.00  0.00    -0.550 OA
ATOM     16  O   UNL     1      -3.434  38.397  15.294  1.00  0.00    -0.550 OA
ENDBRANCH  13  14
ENDBRANCH  12  13
ENDBRANCH  11  12
ENDBRANCH  10  11
ENDBRANCH   9  10
ENDBRANCH   8   9
ENDBRANCH   7   8
ENDBRANCH   6   7
ENDBRANCH   5   6
ENDBRANCH   4   5
ENDBRANCH   3   4
ENDBRANCH   2   3
ENDBRANCH   1   2
BRANCH   1  17
ATOM     17  C   UNL     1      -4.925  34.582  24.179  1.00  0.00     0.000 C 
BRANCH  17  18
ATOM     18  C   UNL     1      -5.122  35.856  25.010  1.00  0.00     0.000 C 
BRANCH  18  19
ATOM     19  C   UNL     1      -5.125  37.105  24.115  1.00  0.00     0.000 C 
BRANCH  19  20
ATOM     20  C   UNL     1      -5.071  38.411  24.923  1.00  0.00     0.000 C 
BRANCH  20  21
ATOM     21  C   UNL     1      -4.526  38.203  26.347  1.00  0.00     0.000 C 
BRANCH  21  22
ATOM     22  C   UNL     1      -3.429  37.129  26.408  1.00  0.00    -0.000 C 
BRANCH  22  23
ATOM     23  C   UNL     1      -2.600  37.206  27.700  1.00  0.00    -0.000 C 
BRANCH  23  24
ATOM     24  C   UNL     1      -1.524  36.112  27.781  1.00  0.00    -0.000 C 
BRANCH  24  25
ATOM     25  C   UNL     1      -2.092  34.753  28.226  1.00  0.00    -0.000 C 
BRANCH  25  26
ATOM     26  C   UNL     1      -1.836  34.476  29.724  1.00  0.00    -0.000 C 
BRANCH  26  27
ATOM     27  C   UNL     1      -0.408  33.985  30.025  1.00  0.00    -0.000 C 
BRANCH  27  28
ATOM     28  C   UNL     1       0.633  34.316  28.940  1.00  0.00    -0.000 C 
BRANCH  28  29
ATOM     29  C   UNL     1       2.009  33.657  29.148  1.00  0.00    -0.003 C 
ATOM     30  C   UNL     1       1.928  32.350  29.934  1.00  0.00     0.004 C 
ENDBRANCH  28  29
ENDBRANCH  27  28
ENDBRANCH  26  27
ENDBRANCH  25  26
ENDBRANCH  24  25
ENDBRANCH  23  24
ENDBRANCH  22  23
ENDBRANCH  21  22
ENDBRANCH  20  21
ENDBRANCH  19  20
ENDBRANCH  18  19
ENDBRANCH  17  18
ENDBRANCH   1  17
TORSDOF 26
ENDMDL
MODEL 2
REMARK VINA RESULT:    10.690      1.767      3.300
REMARK INTER + INTRA:          29.135
REMARK INTER:                  28.099
REMARK INTRA:                   1.036
REMARK UNBOUND:                 2.196
REMARK SMILES CCCCCCCCCCCCCCCCCCCCCCCCCCCC(=O)[O-]
REMARK SMILES IDX 15 1 16 2 17 3 18 4 19 5 20 6 21 7 22 8 23 9 24 10 25 11
REMARK SMILES IDX 26 12 27 13 28 14 29 15 30 16 14 17 13 18 12 19 11 20 10 21
REMARK SMILES IDX 9 22 8 23 7 24 6 25 5 26 4 27 3 28 2 29 1 30
REMARK H PARENT
REMARK Flexibility Score: inf
ROOT
ATOM      1  C   UNL     1      -4.658  34.946  23.286  1.00  0.00     0.000 C 
ENDROOT
BRANCH   1   2
ATOM      2  C   UNL     1      -4.310  35.576  21.928  1.00  0.00     0.000 C 
BRANCH   2   3
ATOM      3  C   UNL     1      -4.035  34.519  20.843  1.00  0.00     0.000 C 
BRANCH   3   4
ATOM      4  C   UNL     1      -5.124  34.481  19.756  1.00  0.00     0.000 C 
BRANCH   4   5
ATOM      5  C   UNL     1      -4.901  35.443  18.570  1.00  0.00     0.000 C 
BRANCH   5   6
ATOM      6  C   UNL     1      -4.353  34.788  17.287  1.00  0.00     0.000 C 
BRANCH   6   7
ATOM      7  C   UNL     1      -3.163  35.518  16.638  1.00  0.00     0.000 C 
BRANCH   7   8
ATOM      8  C   UNL     1      -3.208  35.480  15.100  1.00  0.00     0.000 C 
BRANCH   8   9
ATOM      9  C   UNL     1      -3.242  36.887  14.478  1.00  0.00     0.000 C 
BRANCH   9  10
ATOM     10  C   UNL     1      -3.199  38.003  15.537  1.00  0.00     0.000 C 
BRANCH  10  11
ATOM     11  C   UNL     1      -2.357  37.620  16.764  1.00  0.00     0.000 C 
BRANCH  11  12
ATOM     12  C   UNL     1      -2.903  38.222  18.071  1.00  0.00     0.006 C 
BRANCH  12  13
ATOM     13  C   UNL     1      -2.381  37.484  19.310  1.00  0.00     0.053 C 
BRANCH  13  14
ATOM     14  C   UNL     1      -0.916  37.718  19.522  1.00  0.00     0.041 C 
ATOM     15  O   UNL     1      -0.266  38.433  18.714  1.00  0.00    -0.550 OA
ATOM     16  O   UNL     1      -0.262  37.120  20.591  1.00  0.00    -0.550 OA
ENDBRANCH  13  14
ENDBRANCH  12  13
ENDBRANCH  11  12
ENDBRANCH  10  11
ENDBRANCH   9  10
ENDBRANCH   8   9
ENDBRANCH   7   8
ENDBRANCH   6   7
ENDBRANCH   5   6
ENDBRANCH   4   5
ENDBRANCH   3   4
ENDBRANCH   2   3
ENDBRANCH   1   2
BRANCH   1  17
ATOM     17  C   UNL     1      -5.125  35.982  24.320  1.00  0.00     0.000 C 
BRANCH  17  18
ATOM     18  C   UNL     1      -4.686  37.394  23.914  1.00  0.00     0.000 C 
BRANCH  18  19
ATOM     19  C   UNL     1      -4.338  38.241  25.149  1.00  0.00     0.000 C 
BRANCH  19  20
ATOM     20  C   UNL     1      -4.166  37.391  26.418  1.00  0.00     0.000 C 
BRANCH  20  21
ATOM     21  C   UNL     1      -2.704  36.975  26.657  1.00  0.00     0.000 C 
BRANCH  21  22
ATOM     22  C   UNL     1      -2.448  36.522  28.102  1.00  0.00    -0.000 C 
BRANCH  22  23
ATOM     23  C   UNL     1      -2.204  35.008  28.211  1.00  0.00    -0.000 C 
BRANCH  23  24
ATOM     24  C   UNL     1      -1.511  34.611  29.523  1.00  0.00    -0.000 C 
BRANCH  24  25
ATOM     25  C   UNL     1      -0.359  33.614  29.308  1.00  0.00    -0.000 C 
BRANCH  25  26
ATOM     26  C   UNL     1       0.998  34.323  29.103  1.00  0.00    -0.000 C 
BRANCH  26  27
ATOM     27  C   UNL     1       2.212  33.444  29.455  1.00  0.00    -0.000 C 
BRANCH  27  28
ATOM     28  C   UNL     1       1.874  31.984  29.811  1.00  0.00    -0.000 C 
BRANCH  28  29
ATOM     29  C   UNL     1       2.946  31.263  30.648  1.00  0.00    -0.003 C 
ATOM     30  C   UNL     1       3.989  32.218  31.226  1.00  0.00     0.004 C 
ENDBRANCH  28  29
ENDBRANCH  27  28
ENDBRANCH  26  27
ENDBRANCH  25  26
ENDBRANCH  24  25
ENDBRANCH  23  24
ENDBRANCH  22  23
ENDBRANCH  21  22
ENDBRANCH  20  21
ENDBRANCH  19  20
ENDBRANCH  18  19
ENDBRANCH  17  18
ENDBRANCH   1  17
TORSDOF 26
ENDMDL
MODEL 3
REMARK VINA RESULT:    10.934      4.563     11.209
REMARK INTER + INTRA:          29.749
REMARK INTER:                  29.742
REMARK INTRA:                   0.007
REMARK UNBOUND:                 2.196
REMARK SMILES CCCCCCCCCCCCCCCCCCCCCCCCCCCC(=O)[O-]
REMARK SMILES IDX 15 1 16 2 17 3 18 4 19 5 20 6 21 7 22 8 23 9 24 10 25 11
REMARK SMILES IDX 26 12 27 13 28 14 29 15 30 16 14 17 13 18 12 19 11 20 10 21
REMARK SMILES IDX 9 22 8 23 7 24 6 25 5 26 4 27 3 28 2 29 1 30
REMARK H PARENT
REMARK Flexibility Score: inf
ROOT
ATOM      1  C   UNL     1      -4.556  39.170  22.222  1.00  0.00     0.000 C 
ENDROOT
BRANCH   1   2
ATOM      2  C   UNL     1      -5.124  40.447  22.860  1.00  0.00     0.000 C 
BRANCH   2   3
ATOM      3  C   UNL     1      -5.028  40.429  24.396  1.00  0.00     0.000 C 
BRANCH   3   4
ATOM      4  C   UNL     1      -4.758  39.023  24.961  1.00  0.00     0.000 C 
BRANCH   4   5
ATOM      5  C   UNL     1      -4.033  38.991  26.323  1.00  0.00     0.000 C 
BRANCH   5   6
ATOM      6  C   UNL     1      -3.747  37.584  26.883  1.00  0.00     0.000 C 
BRANCH   6   7
ATOM      7  C   UNL     1      -2.317  37.065  26.643  1.00  0.00     0.000 C 
BRANCH   7   8
ATOM      8  C   UNL     1      -1.659  36.518  27.922  1.00  0.00     0.000 C 
BRANCH   8   9
ATOM      9  C   UNL     1      -1.921  35.015  28.121  1.00  0.00     0.000 C 
BRANCH   9  10
ATOM     10  C   UNL     1      -2.038  34.626  29.606  1.00  0.00     0.000 C 
BRANCH  10  11
ATOM     11  C   UNL     1      -1.031  33.537  30.011  1.00  0.00     0.000 C 
BRANCH  11  12
ATOM     12  C   UNL     1       0.398  34.083  30.181  1.00  0.00     0.006 C 
BRANCH  12  13
ATOM     13  C   UNL     1       1.438  33.217  29.459  1.00  0.00     0.053 C 
BRANCH  13  14
ATOM     14  C   UNL     1       2.834  33.703  29.703  1.00  0.00     0.041 C 
ATOM     15  O   UNL     1       3.187  34.843  29.300  1.00  0.00    -0.550 OA
ATOM     16  O   UNL     1       3.754  32.885  30.346  1.00  0.00    -0.550 OA
ENDBRANCH  13  14
ENDBRANCH  12  13
ENDBRANCH  11  12
ENDBRANCH  10  11
ENDBRANCH   9  10
ENDBRANCH   8   9
ENDBRANCH   7   8
ENDBRANCH   6   7
ENDBRANCH   5   6
ENDBRANCH   4   5
ENDBRANCH   3   4
ENDBRANCH   2   3
ENDBRANCH   1   2
BRANCH   1  17
ATOM     17  C   UNL     1      -5.112  38.911  20.813  1.00  0.00     0.000 C 
BRANCH  17  18
ATOM     18  C   UNL     1      -4.338  37.784  20.119  1.00  0.00     0.000 C 
BRANCH  18  19
ATOM     19  C   UNL     1      -5.116  36.460  20.180  1.00  0.00     0.000 C 
BRANCH  19  20
ATOM     20  C   UNL     1      -4.200  35.231  20.058  1.00  0.00     0.000 C 
BRANCH  20  21
ATOM     21  C   UNL     1      -4.911  34.027  19.415  1.00  0.00     0.000 C 
BRANCH  21  22
ATOM     22  C   UNL     1      -5.109  34.198  17.901  1.00  0.00    -0.000 C 
BRANCH  22  23
ATOM     23  C   UNL     1      -4.415  35.456  17.354  1.00  0.00    -0.000 C 
BRANCH  23  24
ATOM     24  C   UNL     1      -3.129  35.134  16.578  1.00  0.00    -0.000 C 
BRANCH  24  25
ATOM     25  C   UNL     1      -3.053  35.865  15.226  1.00  0.00    -0.000 C 
BRANCH  25  26
ATOM     26  C   UNL     1      -3.029  37.401  15.392  1.00  0.00    -0.000 C 
BRANCH  26  27
ATOM     27  C   UNL     1      -2.512  37.863  16.767  1.00  0.00    -0.000 C 
BRANCH  27  28
ATOM     28  C   UNL     1      -1.136  37.298  17.165  1.00  0.00    -0.000 C 
BRANCH  28  29
ATOM     29  C   UNL     1      -0.634  37.750  18.549  1.00  0.00    -0.003 C 
ATOM     30  C   UNL     1      -1.598  37.389  19.677  1.00  0.00     0.004 C 
ENDBRANCH  28  29
ENDBRANCH  27  28
ENDBRANCH  26  27
ENDBRANCH  25  26
ENDBRANCH  24  25
ENDBRANCH  23  24
ENDBRANCH  22  23
ENDBRANCH  21  22
ENDBRANCH  20  21
ENDBRANCH  19  20
ENDBRANCH  18  19
ENDBRANCH  17  18
ENDBRANCH   1  17
TORSDOF 26
ENDMDL
