MODEL 1
REMARK VINA RESULT:    -2.553      0.000      0.000
REMARK INTER + INTRA:          -6.939
REMARK INTER:                  -4.494
REMARK INTRA:                  -2.444
REMARK UNBOUND:                -2.444
REMARK SMILES CCCCCCC=CCCCCCCCC(=O)[O-]
REMARK SMILES IDX 10 1 11 2 12 3 13 4 14 5 15 6 16 7 17 8 18 9 9 10 8 11 7 12
REMARK SMILES IDX 6 13 5 14 4 15 3 16 2 17 1 18
REMARK H PARENT
REMARK Flexibility Score: inf
ROOT
ATOM      1  C   UNL     1     125.151 126.054 122.969  1.00  0.00     0.004 C 
ENDROOT
BRANCH   1   2
ATOM      2  C   UNL     1     126.139 124.975 123.435  1.00  0.00     0.000 C 
BRANCH   2   3
ATOM      3  C   UNL     1     125.923 124.560 124.899  1.00  0.00     0.000 C 
BRANCH   3   4
ATOM      4  C   UNL     1     124.500 124.071 125.232  1.00  0.00     0.000 C 
BRANCH   4   5
ATOM      5  C   UNL     1     123.896 124.722 126.495  1.00  0.00     0.006 C 
BRANCH   5   6
ATOM      6  C   UNL     1     123.675 126.231 126.325  1.00  0.00     0.053 C 
BRANCH   6   7
ATOM      7  C   UNL     1     122.234 126.575 126.528  1.00  0.00     0.041 C 
ATOM      8  O   UNL     1     121.362 126.154 125.723  1.00  0.00    -0.550 OA
ATOM      9  O   UNL     1     121.845 127.315 127.638  1.00  0.00    -0.550 OA
ENDBRANCH   6   7
ENDBRANCH   5   6
ENDBRANCH   4   5
ENDBRANCH   3   4
ENDBRANCH   2   3
ENDBRANCH   1   2
BRANCH   1  10
ATOM     10  C   UNL     1     124.693 125.791 121.530  1.00  0.00     0.027 C 
BRANCH  10  11
ATOM     11  C   UNL     1     123.427 124.981 121.501  1.00  0.00    -0.031 C 
ATOM     12  C   UNL     1     122.466 125.148 122.423  1.00  0.00    -0.031 C 
BRANCH  12  13
ATOM     13  C   UNL     1     121.193 124.347 122.390  1.00  0.00     0.027 C 
BRANCH  13  14
ATOM     14  C   UNL     1     121.064 123.392 123.590  1.00  0.00     0.004 C 
BRANCH  14  15
ATOM     15  C   UNL     1     121.845 122.073 123.436  1.00  0.00     0.000 C 
BRANCH  15  16
ATOM     16  C   UNL     1     121.877 121.501 122.006  1.00  0.00    -0.000 C 
BRANCH  16  17
ATOM     17  C   UNL     1     123.302 121.249 121.469  1.00  0.00    -0.003 C 
ATOM     18  C   UNL     1     124.383 121.560 122.504  1.00  0.00     0.004 C 
ENDBRANCH  16  17
ENDBRANCH  15  16
ENDBRANCH  14  15
ENDBRANCH  13  14
ENDBRANCH  12  13
ENDBRANCH  10  11
ENDBRANCH   1  10
TORSDOF 13
ENDMDL
MODEL 2
REMARK VINA RESULT:    -2.486      9.036     11.622
REMARK INTER + INTRA:          -6.820
REMARK INTER:                  -4.540
REMARK INTRA:                  -2.280
REMARK UNBOUND:                -2.444
REMARK SMILES CCCCCCC=CCCCCCCCC(=O)[O-]
REMARK SMILES IDX 10 1 11 2 12 3 13 4 14 5 15 6 16 7 17 8 18 9 9 10 8 11 7 12
REMARK SMILES IDX 6 13 5 14 4 15 3 16 2 17 1 18
REMARK H PARENT
REMARK Flexibility Score: inf
ROOT
ATOM      1  C   UNL     1     122.281 128.360 134.469  1.00  0.00     0.004 C 
ENDROOT
BRANCH   1   2
ATOM      2  C   UNL     1     123.506 127.716 135.133  1.00  0.00     0.000 C 
BRANCH   2   3
ATOM      3  C   UNL     1     123.363 127.595 136.659  1.00  0.00     0.000 C 
BRANCH   3   4
ATOM      4  C   UNL     1     121.919 127.404 137.162  1.00  0.00     0.000 C 
BRANCH   4   5
ATOM      5  C   UNL     1     121.588 125.952 137.569  1.00  0.00     0.006 C 
BRANCH   5   6
ATOM      6  C   UNL     1     122.828 125.048 137.570  1.00  0.00     0.053 C 
BRANCH   6   7
ATOM      7  C   UNL     1     122.900 124.258 138.837  1.00  0.00     0.041 C 
ATOM      8  O   UNL     1     121.893 124.171 139.589  1.00  0.00    -0.550 OA
ATOM      9  O   UNL     1     124.062 123.569 139.162  1.00  0.00    -0.550 OA
ENDBRANCH   6   7
ENDBRANCH   5   6
ENDBRANCH   4   5
ENDBRANCH   3   4
ENDBRANCH   2   3
ENDBRANCH   1   2
BRANCH   1  10
ATOM     10  C   UNL     1     121.674 127.425 133.416  1.00  0.00     0.027 C 
BRANCH  10  11
ATOM     11  C   UNL     1     122.104 126.002 133.640  1.00  0.00    -0.031 C 
ATOM     12  C   UNL     1     121.221 125.047 133.973  1.00  0.00    -0.031 C 
BRANCH  12  13
ATOM     13  C   UNL     1     121.646 123.619 134.187  1.00  0.00     0.027 C 
BRANCH  13  14
ATOM     14  C   UNL     1     123.176 123.454 134.210  1.00  0.00     0.004 C 
BRANCH  14  15
ATOM     15  C   UNL     1     123.751 122.713 132.988  1.00  0.00     0.000 C 
BRANCH  15  16
ATOM     16  C   UNL     1     122.816 122.656 131.765  1.00  0.00    -0.000 C 
BRANCH  16  17
ATOM     17  C   UNL     1     123.067 123.780 130.739  1.00  0.00    -0.003 C 
ATOM     18  C   UNL     1     121.776 124.467 130.293  1.00  0.00     0.004 C 
ENDBRANCH  16  17
ENDBRANCH  15  16
ENDBRANCH  14  15
ENDBRANCH  13  14
ENDBRANCH  12  13
ENDBRANCH  10  11
ENDBRANCH   1  10
TORSDOF 13
ENDMDL
MODEL 3
REMARK VINA RESULT:    -2.475      2.659      3.961
REMARK INTER + INTRA:          -6.801
REMARK INTER:                  -4.629
REMARK INTRA:                  -2.172
REMARK UNBOUND:                -2.444
REMARK SMILES CCCCCCC=CCCCCCCCC(=O)[O-]
REMARK SMILES IDX 10 1 11 2 12 3 13 4 14 5 15 6 16 7 17 8 18 9 9 10 8 11 7 12
REMARK SMILES IDX 6 13 5 14 4 15 3 16 2 17 1 18
REMARK H PARENT
REMARK Flexibility Score: inf
ROOT
ATOM      1  C   UNL     1     122.030 126.219 123.570  1.00  0.00     0.004 C 
ENDROOT
BRANCH   1   2
ATOM      2  C   UNL     1     121.764 126.466 125.062  1.00  0.00     0.000 C 
BRANCH   2   3
ATOM      3  C   UNL     1     122.833 125.838 125.971  1.00  0.00     0.000 C 
BRANCH   3   4
ATOM      4  C   UNL     1     123.703 124.757 125.299  1.00  0.00     0.000 C 
BRANCH   4   5
ATOM      5  C   UNL     1     124.924 124.327 126.141  1.00  0.00     0.006 C 
BRANCH   5   6
ATOM      6  C   UNL     1     124.943 122.817 126.414  1.00  0.00     0.053 C 
BRANCH   6   7
ATOM      7  C   UNL     1     126.330 122.277 126.273  1.00  0.00     0.041 C 
ATOM      8  O   UNL     1     126.532 121.035 126.288  1.00  0.00    -0.550 OA
ATOM      9  O   UNL     1     127.396 123.145 126.066  1.00  0.00    -0.550 OA
ENDBRANCH   6   7
ENDBRANCH   5   6
ENDBRANCH   4   5
ENDBRANCH   3   4
ENDBRANCH   2   3
ENDBRANCH   1   2
BRANCH   1  10
ATOM     10  C   UNL     1     120.875 125.441 122.929  1.00  0.00     0.027 C 
BRANCH  10  11
ATOM     11  C   UNL     1     121.303 124.053 122.541  1.00  0.00    -0.031 C 
ATOM     12  C   UNL     1     121.351 123.057 123.440  1.00  0.00    -0.031 C 
BRANCH  12  13
ATOM     13  C   UNL     1     121.768 121.664 123.052  1.00  0.00     0.027 C 
BRANCH  13  14
ATOM     14  C   UNL     1     122.393 121.602 121.647  1.00  0.00     0.004 C 
BRANCH  14  15
ATOM     15  C   UNL     1     123.911 121.336 121.640  1.00  0.00     0.000 C 
BRANCH  15  16
ATOM     16  C   UNL     1     124.672 121.889 122.859  1.00  0.00    -0.000 C 
BRANCH  16  17
ATOM     17  C   UNL     1     125.684 122.999 122.508  1.00  0.00    -0.003 C 
ATOM     18  C   UNL     1     125.012 124.248 121.937  1.00  0.00     0.004 C 
ENDBRANCH  16  17
ENDBRANCH  15  16
ENDBRANCH  14  15
ENDBRANCH  13  14
ENDBRANCH  12  13
ENDBRANCH  10  11
ENDBRANCH   1  10
TORSDOF 13
ENDMDL
MODEL 4
REMARK VINA RESULT:    -2.464      2.251      5.562
REMARK INTER + INTRA:          -6.781
REMARK INTER:                  -5.473
REMARK INTRA:                  -1.307
REMARK UNBOUND:                -2.444
REMARK SMILES CCCCCCC=CCCCCCCCC(=O)[O-]
REMARK SMILES IDX 10 1 11 2 12 3 13 4 14 5 15 6 16 7 17 8 18 9 9 10 8 11 7 12
REMARK SMILES IDX 6 13 5 14 4 15 3 16 2 17 1 18
REMARK H PARENT
REMARK Flexibility Score: inf
ROOT
ATOM      1  C   UNL     1     124.074 122.258 123.069  1.00  0.00     0.004 C 
ENDROOT
BRANCH   1   2
ATOM      2  C   UNL     1     122.613 121.907 123.383  1.00  0.00     0.000 C 
BRANCH   2   3
ATOM      3  C   UNL     1     121.637 122.391 122.298  1.00  0.00     0.000 C 
BRANCH   3   4
ATOM      4  C   UNL     1     121.232 123.874 122.404  1.00  0.00     0.000 C 
BRANCH   4   5
ATOM      5  C   UNL     1     120.933 124.338 123.846  1.00  0.00     0.006 C 
BRANCH   5   6
ATOM      6  C   UNL     1     121.273 125.818 124.066  1.00  0.00     0.053 C 
BRANCH   6   7
ATOM      7  C   UNL     1     121.919 126.013 125.400  1.00  0.00     0.041 C 
ATOM      8  O   UNL     1     121.214 126.144 126.434  1.00  0.00    -0.550 OA
ATOM      9  O   UNL     1     123.304 125.994 125.510  1.00  0.00    -0.550 OA
ENDBRANCH   6   7
ENDBRANCH   5   6
ENDBRANCH   4   5
ENDBRANCH   3   4
ENDBRANCH   2   3
ENDBRANCH   1   2
BRANCH   1  10
ATOM     10  C   UNL     1     124.706 123.052 124.219  1.00  0.00     0.027 C 
BRANCH  10  11
ATOM     11  C   UNL     1     124.264 122.520 125.554  1.00  0.00    -0.031 C 
ATOM     12  C   UNL     1     125.133 122.349 126.563  1.00  0.00    -0.031 C 
BRANCH  12  13
ATOM     13  C   UNL     1     124.692 121.829 127.905  1.00  0.00     0.027 C 
BRANCH  13  14
ATOM     14  C   UNL     1     124.612 122.935 128.972  1.00  0.00     0.004 C 
BRANCH  14  15
ATOM     15  C   UNL     1     124.382 124.348 128.402  1.00  0.00     0.000 C 
BRANCH  15  16
ATOM     16  C   UNL     1     123.241 125.139 129.069  1.00  0.00    -0.000 C 
BRANCH  16  17
ATOM     17  C   UNL     1     122.485 124.344 130.154  1.00  0.00    -0.003 C 
ATOM     18  C   UNL     1     121.114 124.942 130.473  1.00  0.00     0.004 C 
ENDBRANCH  16  17
ENDBRANCH  15  16
ENDBRANCH  14  15
ENDBRANCH  13  14
ENDBRANCH  12  13
ENDBRANCH  10  11
ENDBRANCH   1  10
TORSDOF 13
ENDMDL
MODEL 5
REMARK VINA RESULT:    -2.462      2.304      4.959
REMARK INTER + INTRA:          -6.777
REMARK INTER:                  -4.729
REMARK INTRA:                  -2.049
REMARK UNBOUND:                -2.444
REMARK SMILES CCCCCCC=CCCCCCCCC(=O)[O-]
REMARK SMILES IDX 10 1 11 2 12 3 13 4 14 5 15 6 16 7 17 8 18 9 9 10 8 11 7 12
REMARK SMILES IDX 6 13 5 14 4 15 3 16 2 17 1 18
REMARK H PARENT
REMARK Flexibility Score: inf
ROOT
ATOM      1  C   UNL     1     121.577 122.780 123.584  1.00  0.00     0.004 C 
ENDROOT
BRANCH   1   2
ATOM      2  C   UNL     1     122.814 121.968 123.171  1.00  0.00     0.000 C 
BRANCH   2   3
ATOM      3  C   UNL     1     124.130 122.600 123.654  1.00  0.00     0.000 C 
BRANCH   3   4
ATOM      4  C   UNL     1     124.018 123.415 124.958  1.00  0.00     0.000 C 
BRANCH   4   5
ATOM      5  C   UNL     1     124.723 124.788 124.897  1.00  0.00     0.006 C 
BRANCH   5   6
ATOM      6  C   UNL     1     124.899 125.291 123.458  1.00  0.00     0.053 C 
BRANCH   6   7
ATOM      7  C   UNL     1     125.220 126.751 123.450  1.00  0.00     0.041 C 
ATOM      8  O   UNL     1     125.671 127.296 122.409  1.00  0.00    -0.550 OA
ATOM      9  O   UNL     1     124.966 127.525 124.576  1.00  0.00    -0.550 OA
ENDBRANCH   6   7
ENDBRANCH   5   6
ENDBRANCH   4   5
ENDBRANCH   3   4
ENDBRANCH   2   3
ENDBRANCH   1   2
BRANCH   1  10
ATOM     10  C   UNL     1     121.090 123.661 122.427  1.00  0.00     0.027 C 
BRANCH  10  11
ATOM     11  C   UNL     1     121.395 125.111 122.682  1.00  0.00    -0.031 C 
ATOM     12  C   UNL     1     121.213 125.663 123.892  1.00  0.00    -0.031 C 
BRANCH  12  13
ATOM     13  C   UNL     1     121.528 127.112 124.153  1.00  0.00     0.027 C 
BRANCH  13  14
ATOM     14  C   UNL     1     121.562 127.448 125.655  1.00  0.00     0.004 C 
BRANCH  14  15
ATOM     15  C   UNL     1     121.638 126.217 126.578  1.00  0.00     0.000 C 
BRANCH  15  16
ATOM     16  C   UNL     1     121.141 126.452 128.016  1.00  0.00    -0.000 C 
BRANCH  16  17
ATOM     17  C   UNL     1     121.963 125.705 129.087  1.00  0.00    -0.003 C 
ATOM     18  C   UNL     1     121.083 124.928 130.067  1.00  0.00     0.004 C 
ENDBRANCH  16  17
ENDBRANCH  15  16
ENDBRANCH  14  15
ENDBRANCH  13  14
ENDBRANCH  12  13
ENDBRANCH  10  11
ENDBRANCH   1  10
TORSDOF 13
ENDMDL
MODEL 6
REMARK VINA RESULT:    -2.445      2.502      3.774
REMARK INTER + INTRA:          -6.748
REMARK INTER:                  -4.373
REMARK INTRA:                  -2.375
REMARK UNBOUND:                -2.444
REMARK SMILES CCCCCCC=CCCCCCCCC(=O)[O-]
REMARK SMILES IDX 10 1 11 2 12 3 13 4 14 5 15 6 16 7 17 8 18 9 9 10 8 11 7 12
REMARK SMILES IDX 6 13 5 14 4 15 3 16 2 17 1 18
REMARK H PARENT
REMARK Flexibility Score: inf
ROOT
ATOM      1  C   UNL     1     124.730 128.176 124.479  1.00  0.00     0.004 C 
ENDROOT
BRANCH   1   2
ATOM      2  C   UNL     1     124.961 128.097 122.963  1.00  0.00     0.000 C 
BRANCH   2   3
ATOM      3  C   UNL     1     125.527 126.739 122.515  1.00  0.00     0.000 C 
BRANCH   3   4
ATOM      4  C   UNL     1     124.467 125.686 122.137  1.00  0.00     0.000 C 
BRANCH   4   5
ATOM      5  C   UNL     1     124.771 124.272 122.678  1.00  0.00     0.006 C 
BRANCH   5   6
ATOM      6  C   UNL     1     124.691 124.203 124.209  1.00  0.00     0.053 C 
BRANCH   6   7
ATOM      7  C   UNL     1     125.280 122.922 124.707  1.00  0.00     0.041 C 
ATOM      8  O   UNL     1     124.765 122.326 125.689  1.00  0.00    -0.550 OA
ATOM      9  O   UNL     1     126.366 122.355 124.050  1.00  0.00    -0.550 OA
ENDBRANCH   6   7
ENDBRANCH   5   6
ENDBRANCH   4   5
ENDBRANCH   3   4
ENDBRANCH   2   3
ENDBRANCH   1   2
BRANCH   1  10
ATOM     10  C   UNL     1     123.330 128.716 124.792  1.00  0.00     0.027 C 
BRANCH  10  11
ATOM     11  C   UNL     1     122.264 127.749 124.356  1.00  0.00    -0.031 C 
ATOM     12  C   UNL     1     122.118 126.553 124.947  1.00  0.00    -0.031 C 
BRANCH  12  13
ATOM     13  C   UNL     1     121.045 125.587 124.521  1.00  0.00     0.027 C 
BRANCH  13  14
ATOM     14  C   UNL     1     120.936 125.461 122.991  1.00  0.00     0.004 C 
BRANCH  14  15
ATOM     15  C   UNL     1     121.115 124.025 122.461  1.00  0.00     0.000 C 
BRANCH  15  16
ATOM     16  C   UNL     1     121.278 122.947 123.548  1.00  0.00    -0.000 C 
BRANCH  16  17
ATOM     17  C   UNL     1     122.041 121.694 123.072  1.00  0.00    -0.003 C 
ATOM     18  C   UNL     1     121.670 121.287 121.646  1.00  0.00     0.004 C 
ENDBRANCH  16  17
ENDBRANCH  15  16
ENDBRANCH  14  15
ENDBRANCH  13  14
ENDBRANCH  12  13
ENDBRANCH  10  11
ENDBRANCH   1  10
TORSDOF 13
ENDMDL
MODEL 7
REMARK VINA RESULT:    -2.426      8.197     11.476
REMARK INTER + INTRA:          -6.714
REMARK INTER:                  -4.725
REMARK INTRA:                  -1.989
REMARK UNBOUND:                -2.444
REMARK SMILES CCCCCCC=CCCCCCCCC(=O)[O-]
REMARK SMILES IDX 10 1 11 2 12 3 13 4 14 5 15 6 16 7 17 8 18 9 9 10 8 11 7 12
REMARK SMILES IDX 6 13 5 14 4 15 3 16 2 17 1 18
REMARK H PARENT
REMARK Flexibility Score: inf
ROOT
ATOM      1  C   UNL     1     122.321 125.198 134.398  1.00  0.00     0.004 C 
ENDROOT
BRANCH   1   2
ATOM      2  C   UNL     1     121.827 126.292 133.440  1.00  0.00     0.000 C 
BRANCH   2   3
ATOM      3  C   UNL     1     120.885 125.752 132.352  1.00  0.00     0.000 C 
BRANCH   3   4
ATOM      4  C   UNL     1     121.504 125.662 130.943  1.00  0.00     0.000 C 
BRANCH   4   5
ATOM      5  C   UNL     1     122.021 124.254 130.578  1.00  0.00     0.006 C 
BRANCH   5   6
ATOM      6  C   UNL     1     123.525 124.096 130.842  1.00  0.00     0.053 C 
BRANCH   6   7
ATOM      7  C   UNL     1     124.040 122.848 130.201  1.00  0.00     0.041 C 
ATOM      8  O   UNL     1     124.371 122.847 128.987  1.00  0.00    -0.550 OA
ATOM      9  O   UNL     1     124.211 121.697 130.961  1.00  0.00    -0.550 OA
ENDBRANCH   6   7
ENDBRANCH   5   6
ENDBRANCH   4   5
ENDBRANCH   3   4
ENDBRANCH   2   3
ENDBRANCH   1   2
BRANCH   1  10
ATOM     10  C   UNL     1     121.526 123.902 134.204  1.00  0.00     0.027 C 
BRANCH  10  11
ATOM     11  C   UNL     1     122.432 122.702 134.204  1.00  0.00    -0.031 C 
ATOM     12  C   UNL     1     123.759 122.826 134.362  1.00  0.00    -0.031 C 
BRANCH  12  13
ATOM     13  C   UNL     1     124.668 121.627 134.375  1.00  0.00     0.027 C 
BRANCH  13  14
ATOM     14  C   UNL     1     125.085 121.215 135.798  1.00  0.00     0.004 C 
BRANCH  14  15
ATOM     15  C   UNL     1     125.063 122.366 136.822  1.00  0.00     0.000 C 
BRANCH  15  16
ATOM     16  C   UNL     1     124.219 122.098 138.081  1.00  0.00    -0.000 C 
BRANCH  16  17
ATOM     17  C   UNL     1     123.762 123.380 138.808  1.00  0.00    -0.003 C 
ATOM     18  C   UNL     1     123.612 124.570 137.861  1.00  0.00     0.004 C 
ENDBRANCH  16  17
ENDBRANCH  15  16
ENDBRANCH  14  15
ENDBRANCH  13  14
ENDBRANCH  12  13
ENDBRANCH  10  11
ENDBRANCH   1  10
TORSDOF 13
ENDMDL
MODEL 8
REMARK VINA RESULT:    -2.384      2.575      4.420
REMARK INTER + INTRA:          -6.640
REMARK INTER:                  -4.493
REMARK INTRA:                  -2.147
REMARK UNBOUND:                -2.444
REMARK SMILES CCCCCCC=CCCCCCCCC(=O)[O-]
REMARK SMILES IDX 10 1 11 2 12 3 13 4 14 5 15 6 16 7 17 8 18 9 9 10 8 11 7 12
REMARK SMILES IDX 6 13 5 14 4 15 3 16 2 17 1 18
REMARK H PARENT
REMARK Flexibility Score: inf
ROOT
ATOM      1  C   UNL     1     124.185 125.280 128.456  1.00  0.00     0.004 C 
ENDROOT
BRANCH   1   2
ATOM      2  C   UNL     1     124.238 123.816 128.919  1.00  0.00     0.000 C 
BRANCH   2   3
ATOM      3  C   UNL     1     124.640 122.849 127.793  1.00  0.00     0.000 C 
BRANCH   3   4
ATOM      4  C   UNL     1     125.221 123.523 126.535  1.00  0.00     0.000 C 
BRANCH   4   5
ATOM      5  C   UNL     1     124.280 123.474 125.311  1.00  0.00     0.006 C 
BRANCH   5   6
ATOM      6  C   UNL     1     124.630 124.538 124.262  1.00  0.00     0.053 C 
BRANCH   6   7
ATOM      7  C   UNL     1     125.138 123.893 123.012  1.00  0.00     0.041 C 
ATOM      8  O   UNL     1     125.057 124.496 121.910  1.00  0.00    -0.550 OA
ATOM      9  O   UNL     1     125.753 122.649 123.072  1.00  0.00    -0.550 OA
ENDBRANCH   6   7
ENDBRANCH   5   6
ENDBRANCH   4   5
ENDBRANCH   3   4
ENDBRANCH   2   3
ENDBRANCH   1   2
BRANCH   1  10
ATOM     10  C   UNL     1     122.735 125.754 128.307  1.00  0.00     0.027 C 
BRANCH  10  11
ATOM     11  C   UNL     1     122.554 126.563 127.053  1.00  0.00    -0.031 C 
ATOM     12  C   UNL     1     121.820 126.107 126.025  1.00  0.00    -0.031 C 
BRANCH  12  13
ATOM     13  C   UNL     1     121.626 126.919 124.772  1.00  0.00     0.027 C 
BRANCH  13  14
ATOM     14  C   UNL     1     121.302 126.046 123.546  1.00  0.00     0.004 C 
BRANCH  14  15
ATOM     15  C   UNL     1     120.882 124.604 123.889  1.00  0.00     0.000 C 
BRANCH  15  16
ATOM     16  C   UNL     1     121.072 123.585 122.751  1.00  0.00    -0.000 C 
BRANCH  16  17
ATOM     17  C   UNL     1     121.606 122.217 123.224  1.00  0.00    -0.003 C 
ATOM     18  C   UNL     1     122.454 121.517 122.161  1.00  0.00     0.004 C 
ENDBRANCH  16  17
ENDBRANCH  15  16
ENDBRANCH  14  15
ENDBRANCH  13  14
ENDBRANCH  12  13
ENDBRANCH  10  11
ENDBRANCH   1  10
TORSDOF 13
ENDMDL
MODEL 9
REMARK VINA RESULT:    -2.377      1.975      3.649
REMARK INTER + INTRA:          -6.628
REMARK INTER:                  -4.971
REMARK INTRA:                  -1.657
REMARK UNBOUND:                -2.444
REMARK SMILES CCCCCCC=CCCCCCCCC(=O)[O-]
REMARK SMILES IDX 10 1 11 2 12 3 13 4 14 5 15 6 16 7 17 8 18 9 9 10 8 11 7 12
REMARK SMILES IDX 6 13 5 14 4 15 3 16 2 17 1 18
REMARK H PARENT
REMARK Flexibility Score: inf
ROOT
ATOM      1  C   UNL     1     121.911 126.313 123.558  1.00  0.00     0.004 C 
ENDROOT
BRANCH   1   2
ATOM      2  C   UNL     1     121.794 126.256 125.088  1.00  0.00     0.000 C 
BRANCH   2   3
ATOM      3  C   UNL     1     123.092 125.788 125.769  1.00  0.00     0.000 C 
BRANCH   3   4
ATOM      4  C   UNL     1     123.058 125.804 127.310  1.00  0.00     0.000 C 
BRANCH   4   5
ATOM      5  C   UNL     1     121.989 126.748 127.901  1.00  0.00     0.006 C 
BRANCH   5   6
ATOM      6  C   UNL     1     120.888 125.986 128.650  1.00  0.00     0.053 C 
BRANCH   6   7
ATOM      7  C   UNL     1     121.348 125.618 130.024  1.00  0.00     0.041 C 
ATOM      8  O   UNL     1     121.652 126.516 130.853  1.00  0.00    -0.550 OA
ATOM      9  O   UNL     1     121.387 124.284 130.410  1.00  0.00    -0.550 OA
ENDBRANCH   6   7
ENDBRANCH   5   6
ENDBRANCH   4   5
ENDBRANCH   3   4
ENDBRANCH   2   3
ENDBRANCH   1   2
BRANCH   1  10
ATOM     10  C   UNL     1     120.877 125.396 122.896  1.00  0.00     0.027 C 
BRANCH  10  11
ATOM     11  C   UNL     1     121.471 124.054 122.567  1.00  0.00    -0.031 C 
ATOM     12  C   UNL     1     121.394 123.024 123.425  1.00  0.00    -0.031 C 
BRANCH  12  13
ATOM     13  C   UNL     1     121.978 121.677 123.094  1.00  0.00     0.027 C 
BRANCH  13  14
ATOM     14  C   UNL     1     123.510 121.713 122.957  1.00  0.00     0.004 C 
BRANCH  14  15
ATOM     15  C   UNL     1     124.220 122.580 124.015  1.00  0.00     0.000 C 
BRANCH  15  16
ATOM     16  C   UNL     1     125.628 123.062 123.620  1.00  0.00    -0.000 C 
BRANCH  16  17
ATOM     17  C   UNL     1     125.724 124.587 123.402  1.00  0.00    -0.003 C 
ATOM     18  C   UNL     1     125.017 125.043 122.126  1.00  0.00     0.004 C 
ENDBRANCH  16  17
ENDBRANCH  15  16
ENDBRANCH  14  15
ENDBRANCH  13  14
ENDBRANCH  12  13
ENDBRANCH  10  11
ENDBRANCH   1  10
TORSDOF 13
ENDMDL
