MODEL 1
REMARK VINA RESULT:    -5.382      0.000      0.000
REMARK INTER + INTRA:          -6.214
REMARK INTER:                  -6.168
REMARK INTRA:                  -0.046
REMARK UNBOUND:                -0.046
REMARK SMILES O=C([O-])c1cc(O)c(O)c(O)c1
REMARK SMILES IDX 4 1 5 2 12 3 6 4 10 5 8 6 2 7 1 8 3 9 7 10 11 12 9 14
REMARK H PARENT 7 11 11 13 9 15
REMARK Flexibility Score: inf
ROOT
ATOM      1  C   UNL     1      -7.761  -5.938   7.594  1.00  0.00     0.005 A 
ATOM      2  C   UNL     1      -9.084  -5.926   8.071  1.00  0.00     0.060 A 
ATOM      3  C   UNL     1      -7.455  -5.234   6.418  1.00  0.00     0.060 A 
ATOM      4  C   UNL     1     -10.084  -5.224   7.385  1.00  0.00     0.162 A 
ATOM      5  C   UNL     1      -8.452  -4.530   5.729  1.00  0.00     0.162 A 
ATOM      6  C   UNL     1      -9.766  -4.523   6.210  1.00  0.00     0.200 A 
ENDROOT
BRANCH   1   7
ATOM      7  C   UNL     1      -6.704  -6.679   8.317  1.00  0.00     0.072 C 
ATOM      8  O   UNL     1      -6.726  -7.938   8.369  1.00  0.00    -0.545 OA
ATOM      9  O   UNL     1      -5.672  -5.997   8.951  1.00  0.00    -0.545 OA
ENDBRANCH   1   7
BRANCH   4  10
ATOM     10  O   UNL     1     -11.393  -5.220   7.868  1.00  0.00    -0.504 OA
ATOM     11  H   UNL     1     -12.034  -5.979   7.669  1.00  0.00     0.293 HD
ENDBRANCH   4  10
BRANCH   5  12
ATOM     12  O   UNL     1      -8.142  -3.832   4.561  1.00  0.00    -0.504 OA
ATOM     13  H   UNL     1      -8.359  -4.208   3.645  1.00  0.00     0.293 HD
ENDBRANCH   5  12
BRANCH   6  14
ATOM     14  O   UNL     1     -10.745  -3.817   5.510  1.00  0.00    -0.502 OA
ATOM     15  H   UNL     1     -10.616  -2.852   5.229  1.00  0.00     0.293 HD
ENDBRANCH   6  14
TORSDOF 4
ENDMDL
MODEL 2
REMARK VINA RESULT:    -5.361      0.057      2.422
REMARK INTER + INTRA:          -6.190
REMARK INTER:                  -6.144
REMARK INTRA:                  -0.046
REMARK UNBOUND:                -0.046
REMARK SMILES O=C([O-])c1cc(O)c(O)c(O)c1
REMARK SMILES IDX 4 1 5 2 12 3 6 4 10 5 8 6 2 7 1 8 3 9 7 10 11 12 9 14
REMARK H PARENT 7 11 11 13 9 15
REMARK Flexibility Score: inf
ROOT
ATOM      1  C   UNL     1      -7.770  -5.904   7.549  1.00  0.00     0.005 A 
ATOM      2  C   UNL     1      -7.475  -5.205   6.365  1.00  0.00     0.060 A 
ATOM      3  C   UNL     1      -9.088  -5.892   8.037  1.00  0.00     0.060 A 
ATOM      4  C   UNL     1      -8.477  -4.504   5.681  1.00  0.00     0.162 A 
ATOM      5  C   UNL     1     -10.093  -5.192   7.354  1.00  0.00     0.162 A 
ATOM      6  C   UNL     1      -9.791  -4.499   6.177  1.00  0.00     0.200 A 
ENDROOT
BRANCH   1   7
ATOM      7  C   UNL     1      -6.714  -6.644   8.273  1.00  0.00     0.072 C 
ATOM      8  O   UNL     1      -6.719  -7.904   8.303  1.00  0.00    -0.545 OA
ATOM      9  O   UNL     1      -5.699  -5.960   8.933  1.00  0.00    -0.545 OA
ENDBRANCH   1   7
BRANCH   4  10
ATOM     10  O   UNL     1      -8.171  -3.814   4.508  1.00  0.00    -0.504 OA
ATOM     11  H   UNL     1      -7.606  -4.232   3.778  1.00  0.00     0.293 HD
ENDBRANCH   4  10
BRANCH   5  12
ATOM     12  O   UNL     1     -11.400  -5.183   7.843  1.00  0.00    -0.504 OA
ATOM     13  H   UNL     1     -11.595  -5.094   8.833  1.00  0.00     0.293 HD
ENDBRANCH   5  12
BRANCH   6  14
ATOM     14  O   UNL     1     -10.805  -3.809   5.513  1.00  0.00    -0.502 OA
ATOM     15  H   UNL     1     -11.786  -3.970   5.710  1.00  0.00     0.293 HD
ENDBRANCH   6  14
TORSDOF 4
ENDMDL
MODEL 3
REMARK VINA RESULT:    -4.888     16.627     18.541
REMARK INTER + INTRA:          -5.648
REMARK INTER:                  -5.595
REMARK INTRA:                  -0.053
REMARK UNBOUND:                -0.046
REMARK SMILES O=C([O-])c1cc(O)c(O)c(O)c1
REMARK SMILES IDX 4 1 5 2 12 3 6 4 10 5 8 6 2 7 1 8 3 9 7 10 11 12 9 14
REMARK H PARENT 7 11 11 13 9 15
REMARK Flexibility Score: inf
ROOT
ATOM      1  C   UNL     1     -20.375  -3.513  19.503  1.00  0.00     0.005 A 
ATOM      2  C   UNL     1     -20.840  -2.209  19.255  1.00  0.00     0.060 A 
ATOM      3  C   UNL     1     -20.557  -4.069  20.781  1.00  0.00     0.060 A 
ATOM      4  C   UNL     1     -21.473  -1.472  20.264  1.00  0.00     0.162 A 
ATOM      5  C   UNL     1     -21.191  -3.335  21.793  1.00  0.00     0.162 A 
ATOM      6  C   UNL     1     -21.650  -2.038  21.538  1.00  0.00     0.200 A 
ENDROOT
BRANCH   1   7
ATOM      7  C   UNL     1     -19.705  -4.292  18.439  1.00  0.00     0.072 C 
ATOM      8  O   UNL     1     -19.570  -3.811  17.282  1.00  0.00    -0.545 OA
ATOM      9  O   UNL     1     -19.216  -5.567  18.699  1.00  0.00    -0.545 OA
ENDBRANCH   1   7
BRANCH   4  10
ATOM     10  O   UNL     1     -21.930  -0.180  20.006  1.00  0.00    -0.504 OA
ATOM     11  H   UNL     1     -22.158   0.462  20.756  1.00  0.00     0.293 HD
ENDBRANCH   4  10
BRANCH   5  12
ATOM     12  O   UNL     1     -21.370  -3.892  23.060  1.00  0.00    -0.504 OA
ATOM     13  H   UNL     1     -22.077  -4.597  23.234  1.00  0.00     0.293 HD
ENDBRANCH   5  12
BRANCH   6  14
ATOM     14  O   UNL     1     -22.279  -1.324  22.558  1.00  0.00    -0.502 OA
ATOM     15  H   UNL     1     -23.262  -1.443  22.772  1.00  0.00     0.293 HD
ENDBRANCH   6  14
TORSDOF 4
ENDMDL
MODEL 4
REMARK VINA RESULT:    -4.873      2.038      3.228
REMARK INTER + INTRA:          -5.631
REMARK INTER:                  -5.586
REMARK INTRA:                  -0.045
REMARK UNBOUND:                -0.046
REMARK SMILES O=C([O-])c1cc(O)c(O)c(O)c1
REMARK SMILES IDX 4 1 5 2 12 3 6 4 10 5 8 6 2 7 1 8 3 9 7 10 11 12 9 14
REMARK H PARENT 7 11 11 13 9 15
REMARK Flexibility Score: inf
ROOT
ATOM      1  C   UNL     1      -7.268  -6.476   6.975  1.00  0.00     0.005 A 
ATOM      2  C   UNL     1      -7.895  -5.614   6.059  1.00  0.00     0.060 A 
ATOM      3  C   UNL     1      -6.642  -5.929   8.108  1.00  0.00     0.060 A 
ATOM      4  C   UNL     1      -7.896  -4.228   6.269  1.00  0.00     0.162 A 
ATOM      5  C   UNL     1      -6.641  -4.543   8.321  1.00  0.00     0.162 A 
ATOM      6  C   UNL     1      -7.267  -3.691   7.405  1.00  0.00     0.200 A 
ENDROOT
BRANCH   1   7
ATOM      7  C   UNL     1      -7.265  -7.939   6.755  1.00  0.00     0.072 C 
ATOM      8  O   UNL     1      -8.140  -8.670   7.294  1.00  0.00    -0.545 OA
ATOM      9  O   UNL     1      -6.297  -8.530   5.951  1.00  0.00    -0.545 OA
ENDBRANCH   1   7
BRANCH   4  10
ATOM     10  O   UNL     1      -8.522  -3.382   5.353  1.00  0.00    -0.504 OA
ATOM     11  H   UNL     1      -9.530  -3.283   5.325  1.00  0.00     0.293 HD
ENDBRANCH   4  10
BRANCH   5  12
ATOM     12  O   UNL     1      -6.018  -4.006   9.448  1.00  0.00    -0.504 OA
ATOM     13  H   UNL     1      -5.576  -3.094   9.425  1.00  0.00     0.293 HD
ENDBRANCH   5  12
BRANCH   6  14
ATOM     14  O   UNL     1      -7.256  -2.316   7.635  1.00  0.00    -0.502 OA
ATOM     15  H   UNL     1      -6.405  -1.813   7.857  1.00  0.00     0.293 HD
ENDBRANCH   6  14
TORSDOF 4
ENDMDL
MODEL 5
REMARK VINA RESULT:    -4.837      2.026      3.013
REMARK INTER + INTRA:          -5.589
REMARK INTER:                  -5.544
REMARK INTRA:                  -0.045
REMARK UNBOUND:                -0.046
REMARK SMILES O=C([O-])c1cc(O)c(O)c(O)c1
REMARK SMILES IDX 4 1 5 2 12 3 6 4 10 5 8 6 2 7 1 8 3 9 7 10 11 12 9 14
REMARK H PARENT 7 11 11 13 9 15
REMARK Flexibility Score: inf
ROOT
ATOM      1  C   UNL     1      -7.246  -6.516   7.043  1.00  0.00     0.005 A 
ATOM      2  C   UNL     1      -6.632  -5.967   8.182  1.00  0.00     0.060 A 
ATOM      3  C   UNL     1      -7.870  -5.655   6.124  1.00  0.00     0.060 A 
ATOM      4  C   UNL     1      -6.642  -4.584   8.403  1.00  0.00     0.162 A 
ATOM      5  C   UNL     1      -7.882  -4.270   6.341  1.00  0.00     0.162 A 
ATOM      6  C   UNL     1      -7.269  -3.732   7.478  1.00  0.00     0.200 A 
ENDROOT
BRANCH   1   7
ATOM      7  C   UNL     1      -7.237  -7.976   6.808  1.00  0.00     0.072 C 
ATOM      8  O   UNL     1      -6.426  -8.489   5.990  1.00  0.00    -0.545 OA
ATOM      9  O   UNL     1      -8.123  -8.806   7.486  1.00  0.00    -0.545 OA
ENDBRANCH   1   7
BRANCH   4  10
ATOM     10  O   UNL     1      -6.030  -4.051   9.538  1.00  0.00    -0.504 OA
ATOM     11  H   UNL     1      -5.548  -3.160   9.512  1.00  0.00     0.293 HD
ENDBRANCH   4  10
BRANCH   5  12
ATOM     12  O   UNL     1      -8.503  -3.419   5.426  1.00  0.00    -0.504 OA
ATOM     13  H   UNL     1      -9.358  -3.684   4.951  1.00  0.00     0.293 HD
ENDBRANCH   5  12
BRANCH   6  14
ATOM     14  O   UNL     1      -7.291  -2.351   7.676  1.00  0.00    -0.502 OA
ATOM     15  H   UNL     1      -8.102  -1.787   7.451  1.00  0.00     0.293 HD
ENDBRANCH   6  14
TORSDOF 4
ENDMDL
MODEL 6
REMARK VINA RESULT:    -4.832     16.123     18.067
REMARK INTER + INTRA:          -5.584
REMARK INTER:                  -5.538
REMARK INTRA:                  -0.045
REMARK UNBOUND:                -0.046
REMARK SMILES O=C([O-])c1cc(O)c(O)c(O)c1
REMARK SMILES IDX 4 1 5 2 12 3 6 4 10 5 8 6 2 7 1 8 3 9 7 10 11 12 9 14
REMARK H PARENT 7 11 11 13 9 15
REMARK Flexibility Score: inf
ROOT
ATOM      1  C   UNL     1     -21.178  -2.159  20.467  1.00  0.00     0.005 A 
ATOM      2  C   UNL     1     -21.830  -1.865  19.257  1.00  0.00     0.060 A 
ATOM      3  C   UNL     1     -19.954  -2.848  20.432  1.00  0.00     0.060 A 
ATOM      4  C   UNL     1     -21.271  -2.252  18.032  1.00  0.00     0.162 A 
ATOM      5  C   UNL     1     -19.391  -3.237  19.208  1.00  0.00     0.162 A 
ATOM      6  C   UNL     1     -20.046  -2.940  18.008  1.00  0.00     0.200 A 
ENDROOT
BRANCH   1   7
ATOM      7  C   UNL     1     -21.767  -1.752  21.762  1.00  0.00     0.072 C 
ATOM      8  O   UNL     1     -21.786  -0.539  22.104  1.00  0.00    -0.545 OA
ATOM      9  O   UNL     1     -22.308  -2.701  22.621  1.00  0.00    -0.545 OA
ENDBRANCH   1   7
BRANCH   4  10
ATOM     10  O   UNL     1     -21.927  -1.954  16.838  1.00  0.00    -0.504 OA
ATOM     11  H   UNL     1     -21.417  -1.805  15.975  1.00  0.00     0.293 HD
ENDBRANCH   4  10
BRANCH   5  12
ATOM     12  O   UNL     1     -18.175  -3.921  19.179  1.00  0.00    -0.504 OA
ATOM     13  H   UNL     1     -17.996  -4.655  18.504  1.00  0.00     0.293 HD
ENDBRANCH   5  12
BRANCH   6  14
ATOM     14  O   UNL     1     -19.470  -3.335  16.801  1.00  0.00    -0.502 OA
ATOM     15  H   UNL     1     -19.782  -4.157  16.297  1.00  0.00     0.293 HD
ENDBRANCH   6  14
TORSDOF 4
ENDMDL
MODEL 7
REMARK VINA RESULT:    -4.823     16.065     18.022
REMARK INTER + INTRA:          -5.573
REMARK INTER:                  -5.528
REMARK INTRA:                  -0.045
REMARK UNBOUND:                -0.046
REMARK SMILES O=C([O-])c1cc(O)c(O)c(O)c1
REMARK SMILES IDX 4 1 5 2 12 3 6 4 10 5 8 6 2 7 1 8 3 9 7 10 11 12 9 14
REMARK H PARENT 7 11 11 13 9 15
REMARK Flexibility Score: inf
ROOT
ATOM      1  C   UNL     1     -21.166  -2.189  20.412  1.00  0.00     0.005 A 
ATOM      2  C   UNL     1     -19.950  -2.894  20.386  1.00  0.00     0.060 A 
ATOM      3  C   UNL     1     -21.787  -1.856  19.196  1.00  0.00     0.060 A 
ATOM      4  C   UNL     1     -19.362  -3.259  19.167  1.00  0.00     0.162 A 
ATOM      5  C   UNL     1     -21.203  -2.221  17.975  1.00  0.00     0.162 A 
ATOM      6  C   UNL     1     -19.992  -2.922  17.957  1.00  0.00     0.200 A 
ENDROOT
BRANCH   1   7
ATOM      7  C   UNL     1     -21.787  -1.802  21.698  1.00  0.00     0.072 C 
ATOM      8  O   UNL     1     -21.793  -0.597  22.069  1.00  0.00    -0.545 OA
ATOM      9  O   UNL     1     -22.373  -2.761  22.515  1.00  0.00    -0.545 OA
ENDBRANCH   1   7
BRANCH   4  10
ATOM     10  O   UNL     1     -18.155  -3.958  19.154  1.00  0.00    -0.504 OA
ATOM     11  H   UNL     1     -17.759  -4.349  20.000  1.00  0.00     0.293 HD
ENDBRANCH   4  10
BRANCH   5  12
ATOM     12  O   UNL     1     -21.824  -1.888  16.771  1.00  0.00    -0.504 OA
ATOM     13  H   UNL     1     -21.538  -2.306  15.893  1.00  0.00     0.293 HD
ENDBRANCH   5  12
BRANCH   6  14
ATOM     14  O   UNL     1     -19.427  -3.276  16.732  1.00  0.00    -0.502 OA
ATOM     15  H   UNL     1     -19.716  -4.104  16.224  1.00  0.00     0.293 HD
ENDBRANCH   6  14
TORSDOF 4
ENDMDL
MODEL 8
REMARK VINA RESULT:    -4.770      2.046      3.292
REMARK INTER + INTRA:          -5.513
REMARK INTER:                  -5.460
REMARK INTRA:                  -0.053
REMARK UNBOUND:                -0.046
REMARK SMILES O=C([O-])c1cc(O)c(O)c(O)c1
REMARK SMILES IDX 4 1 5 2 12 3 6 4 10 5 8 6 2 7 1 8 3 9 7 10 11 12 9 14
REMARK H PARENT 7 11 11 13 9 15
REMARK Flexibility Score: inf
ROOT
ATOM      1  C   UNL     1      -9.123  -5.263   7.704  1.00  0.00     0.005 A 
ATOM      2  C   UNL     1      -8.146  -4.495   8.361  1.00  0.00     0.060 A 
ATOM      3  C   UNL     1      -9.271  -5.131   6.313  1.00  0.00     0.060 A 
ATOM      4  C   UNL     1      -7.332  -3.609   7.644  1.00  0.00     0.162 A 
ATOM      5  C   UNL     1      -8.457  -4.246   5.591  1.00  0.00     0.162 A 
ATOM      6  C   UNL     1      -7.488  -3.485   6.253  1.00  0.00     0.200 A 
ENDROOT
BRANCH   1   7
ATOM      7  C   UNL     1      -9.985  -6.199   8.460  1.00  0.00     0.072 C 
ATOM      8  O   UNL     1      -9.926  -6.249   9.718  1.00  0.00    -0.545 OA
ATOM      9  O   UNL     1     -10.871  -7.037   7.794  1.00  0.00    -0.545 OA
ENDBRANCH   1   7
BRANCH   4  10
ATOM     10  O   UNL     1      -6.366  -2.852   8.307  1.00  0.00    -0.504 OA
ATOM     11  H   UNL     1      -6.000  -1.994   7.912  1.00  0.00     0.293 HD
ENDBRANCH   4  10
BRANCH   5  12
ATOM     12  O   UNL     1      -8.608  -4.120   4.210  1.00  0.00    -0.504 OA
ATOM     13  H   UNL     1      -9.294  -3.493   3.807  1.00  0.00     0.293 HD
ENDBRANCH   5  12
BRANCH   6  14
ATOM     14  O   UNL     1      -6.688  -2.611   5.517  1.00  0.00    -0.502 OA
ATOM     15  H   UNL     1      -5.676  -2.625   5.578  1.00  0.00     0.293 HD
ENDBRANCH   6  14
TORSDOF 4
ENDMDL
MODEL 9
REMARK VINA RESULT:    -4.743      1.898      3.467
REMARK INTER + INTRA:          -5.482
REMARK INTER:                  -5.436
REMARK INTRA:                  -0.046
REMARK UNBOUND:                -0.046
REMARK SMILES O=C([O-])c1cc(O)c(O)c(O)c1
REMARK SMILES IDX 4 1 5 2 12 3 6 4 10 5 8 6 2 7 1 8 3 9 7 10 11 12 9 14
REMARK H PARENT 7 11 11 13 9 15
REMARK Flexibility Score: inf
ROOT
ATOM      1  C   UNL     1      -9.160  -5.180   7.683  1.00  0.00     0.005 A 
ATOM      2  C   UNL     1      -9.274  -5.073   6.286  1.00  0.00     0.060 A 
ATOM      3  C   UNL     1      -8.186  -4.415   8.347  1.00  0.00     0.060 A 
ATOM      4  C   UNL     1      -8.431  -4.219   5.563  1.00  0.00     0.162 A 
ATOM      5  C   UNL     1      -7.341  -3.558   7.628  1.00  0.00     0.162 A 
ATOM      6  C   UNL     1      -7.461  -3.458   6.238  1.00  0.00     0.200 A 
ENDROOT
BRANCH   1   7
ATOM      7  C   UNL     1     -10.049  -6.083   8.447  1.00  0.00     0.072 C 
ATOM      8  O   UNL     1      -9.587  -7.112   9.009  1.00  0.00    -0.545 OA
ATOM      9  O   UNL     1     -11.408  -5.810   8.554  1.00  0.00    -0.545 OA
ENDBRANCH   1   7
BRANCH   4  10
ATOM     10  O   UNL     1      -8.554  -4.121   4.177  1.00  0.00    -0.504 OA
ATOM     11  H   UNL     1      -9.303  -3.591   3.747  1.00  0.00     0.293 HD
ENDBRANCH   4  10
BRANCH   5  12
ATOM     12  O   UNL     1      -6.377  -2.801   8.293  1.00  0.00    -0.504 OA
ATOM     13  H   UNL     1      -5.490  -2.571   7.858  1.00  0.00     0.293 HD
ENDBRANCH   5  12
BRANCH   6  14
ATOM     14  O   UNL     1      -6.611  -2.600   5.540  1.00  0.00    -0.502 OA
ATOM     15  H   UNL     1      -6.090  -1.864   6.002  1.00  0.00     0.293 HD
ENDBRANCH   6  14
TORSDOF 4
ENDMDL
