MODEL 1
REMARK VINA RESULT:    -3.556      0.000      0.000
REMARK INTER + INTRA:          -4.288
REMARK INTER:                  -4.180
REMARK INTRA:                  -0.108
REMARK UNBOUND:                -0.108
REMARK SMILES CCCCC(=O)[O-]
REMARK SMILES IDX 4 1 5 2 6 3 7 4 3 5 2 6 1 7
REMARK H PARENT
REMARK Flexibility Score: inf
ROOT
ATOM      1  C   UNL     1      39.654  55.862  60.365  1.00  0.00     0.053 C 
ENDROOT
BRANCH   1   2
ATOM      2  C   UNL     1      40.029  54.460  60.736  1.00  0.00     0.041 C 
ATOM      3  O   UNL     1      39.266  53.773  61.465  1.00  0.00    -0.550 OA
ATOM      4  O   UNL     1      41.205  53.901  60.251  1.00  0.00    -0.550 OA
ENDBRANCH   1   2
BRANCH   1   5
ATOM      5  C   UNL     1      38.212  56.194  60.771  1.00  0.00     0.006 C 
BRANCH   5   6
ATOM      6  C   UNL     1      37.268  56.264  59.563  1.00  0.00    -0.003 C 
ATOM      7  C   UNL     1      36.368  55.034  59.496  1.00  0.00     0.004 C 
ENDBRANCH   5   6
ENDBRANCH   1   5
TORSDOF 3
ENDMDL
MODEL 2
REMARK VINA RESULT:    -3.551      2.160      4.065
REMARK INTER + INTRA:          -4.282
REMARK INTER:                  -4.215
REMARK INTRA:                  -0.067
REMARK UNBOUND:                -0.108
REMARK SMILES CCCCC(=O)[O-]
REMARK SMILES IDX 4 1 5 2 6 3 7 4 3 5 2 6 1 7
REMARK H PARENT
REMARK Flexibility Score: inf
ROOT
ATOM      1  C   UNL     1      40.281  53.930  60.990  1.00  0.00     0.053 C 
ENDROOT
BRANCH   1   2
ATOM      2  C   UNL     1      39.073  54.734  60.620  1.00  0.00     0.041 C 
ATOM      3  O   UNL     1      39.130  55.992  60.606  1.00  0.00    -0.550 OA
ATOM      4  O   UNL     1      37.894  54.094  60.257  1.00  0.00    -0.550 OA
ENDBRANCH   1   2
BRANCH   1   5
ATOM      5  C   UNL     1      41.427  54.128  59.989  1.00  0.00     0.006 C 
BRANCH   5   6
ATOM      6  C   UNL     1      42.614  54.882  60.604  1.00  0.00    -0.003 C 
ATOM      7  C   UNL     1      43.135  55.956  59.654  1.00  0.00     0.004 C 
ENDBRANCH   5   6
ENDBRANCH   1   5
TORSDOF 3
ENDMDL
MODEL 3
REMARK VINA RESULT:    -3.521      3.947      5.235
REMARK INTER + INTRA:          -4.247
REMARK INTER:                  -4.214
REMARK INTRA:                  -0.033
REMARK UNBOUND:                -0.108
REMARK SMILES CCCCC(=O)[O-]
REMARK SMILES IDX 4 1 5 2 6 3 7 4 3 5 2 6 1 7
REMARK H PARENT
REMARK Flexibility Score: inf
ROOT
ATOM      1  C   UNL     1      35.376  53.333  58.375  1.00  0.00     0.053 C 
ENDROOT
BRANCH   1   2
ATOM      2  C   UNL     1      34.728  52.005  58.132  1.00  0.00     0.041 C 
ATOM      3  O   UNL     1      35.427  51.008  57.811  1.00  0.00    -0.550 OA
ATOM      4  O   UNL     1      33.355  51.859  58.291  1.00  0.00    -0.550 OA
ENDBRANCH   1   2
BRANCH   1   5
ATOM      5  C   UNL     1      36.383  53.273  59.530  1.00  0.00     0.006 C 
BRANCH   5   6
ATOM      6  C   UNL     1      37.009  54.643  59.828  1.00  0.00    -0.003 C 
ATOM      7  C   UNL     1      36.281  55.755  59.079  1.00  0.00     0.004 C 
ENDBRANCH   5   6
ENDBRANCH   1   5
TORSDOF 3
ENDMDL
MODEL 4
REMARK VINA RESULT:    -3.493      2.751      4.012
REMARK INTER + INTRA:          -4.214
REMARK INTER:                  -4.196
REMARK INTRA:                  -0.018
REMARK UNBOUND:                -0.108
REMARK SMILES CCCCC(=O)[O-]
REMARK SMILES IDX 4 1 5 2 6 3 7 4 3 5 2 6 1 7
REMARK H PARENT
REMARK Flexibility Score: inf
ROOT
ATOM      1  C   UNL     1      37.527  54.016  60.112  1.00  0.00     0.053 C 
ENDROOT
BRANCH   1   2
ATOM      2  C   UNL     1      36.449  54.878  59.530  1.00  0.00     0.041 C 
ATOM      3  O   UNL     1      35.605  54.385  58.736  1.00  0.00    -0.550 OA
ATOM      4  O   UNL     1      36.357  56.217  59.889  1.00  0.00    -0.550 OA
ENDBRANCH   1   2
BRANCH   1   5
ATOM      5  C   UNL     1      38.693  54.851  60.658  1.00  0.00     0.006 C 
BRANCH   5   6
ATOM      6  C   UNL     1      39.884  53.981  61.081  1.00  0.00    -0.003 C 
ATOM      7  C   UNL     1      41.108  54.266  60.215  1.00  0.00     0.004 C 
ENDBRANCH   5   6
ENDBRANCH   1   5
TORSDOF 3
ENDMDL
MODEL 5
REMARK VINA RESULT:    -3.482      1.637      2.202
REMARK INTER + INTRA:          -4.201
REMARK INTER:                  -4.129
REMARK INTRA:                  -0.072
REMARK UNBOUND:                -0.108
REMARK SMILES CCCCC(=O)[O-]
REMARK SMILES IDX 4 1 5 2 6 3 7 4 3 5 2 6 1 7
REMARK H PARENT
REMARK Flexibility Score: inf
ROOT
ATOM      1  C   UNL     1      40.376  53.883  61.074  1.00  0.00     0.053 C 
ENDROOT
BRANCH   1   2
ATOM      2  C   UNL     1      41.565  54.263  60.246  1.00  0.00     0.041 C 
ATOM      3  O   UNL     1      41.552  54.084  59.000  1.00  0.00    -0.550 OA
ATOM      4  O   UNL     1      42.674  54.847  60.846  1.00  0.00    -0.550 OA
ENDBRANCH   1   2
BRANCH   1   5
ATOM      5  C   UNL     1      39.064  54.381  60.452  1.00  0.00     0.006 C 
BRANCH   5   6
ATOM      6  C   UNL     1      38.869  55.892  60.639  1.00  0.00    -0.003 C 
ATOM      7  C   UNL     1      37.638  56.385  59.884  1.00  0.00     0.004 C 
ENDBRANCH   5   6
ENDBRANCH   1   5
TORSDOF 3
ENDMDL
MODEL 6
REMARK VINA RESULT:    -3.481      2.430      3.743
REMARK INTER + INTRA:          -4.200
REMARK INTER:                  -4.098
REMARK INTRA:                  -0.102
REMARK UNBOUND:                -0.108
REMARK SMILES CCCCC(=O)[O-]
REMARK SMILES IDX 4 1 5 2 6 3 7 4 3 5 2 6 1 7
REMARK H PARENT
REMARK Flexibility Score: inf
ROOT
ATOM      1  C   UNL     1      36.016  55.531  58.749  1.00  0.00     0.053 C 
ENDROOT
BRANCH   1   2
ATOM      2  C   UNL     1      35.879  54.055  58.969  1.00  0.00     0.041 C 
ATOM      3  O   UNL     1      34.976  53.408  58.376  1.00  0.00    -0.550 OA
ATOM      4  O   UNL     1      36.770  53.389  59.801  1.00  0.00    -0.550 OA
ENDBRANCH   1   2
BRANCH   1   5
ATOM      5  C   UNL     1      36.675  56.227  59.947  1.00  0.00     0.006 C 
BRANCH   5   6
ATOM      6  C   UNL     1      38.111  56.677  59.641  1.00  0.00    -0.003 C 
ATOM      7  C   UNL     1      39.116  55.959  60.537  1.00  0.00     0.004 C 
ENDBRANCH   5   6
ENDBRANCH   1   5
TORSDOF 3
ENDMDL
MODEL 7
REMARK VINA RESULT:    -3.439      2.653      3.813
REMARK INTER + INTRA:          -4.151
REMARK INTER:                  -4.054
REMARK INTRA:                  -0.097
REMARK UNBOUND:                -0.108
REMARK SMILES CCCCC(=O)[O-]
REMARK SMILES IDX 4 1 5 2 6 3 7 4 3 5 2 6 1 7
REMARK H PARENT
REMARK Flexibility Score: inf
ROOT
ATOM      1  C   UNL     1      42.590  54.831  60.599  1.00  0.00     0.053 C 
ENDROOT
BRANCH   1   2
ATOM      2  C   UNL     1      42.772  56.277  60.255  1.00  0.00     0.041 C 
ATOM      3  O   UNL     1      43.921  56.792  60.271  1.00  0.00    -0.550 OA
ATOM      4  O   UNL     1      41.677  57.049  59.885  1.00  0.00    -0.550 OA
ENDBRANCH   1   2
BRANCH   1   5
ATOM      5  C   UNL     1      41.323  54.248  59.959  1.00  0.00     0.006 C 
BRANCH   5   6
ATOM      6  C   UNL     1      40.236  53.940  60.999  1.00  0.00    -0.003 C 
ATOM      7  C   UNL     1      38.936  54.665  60.666  1.00  0.00     0.004 C 
ENDBRANCH   5   6
ENDBRANCH   1   5
TORSDOF 3
ENDMDL
MODEL 8
REMARK VINA RESULT:    -3.423      2.283      3.753
REMARK INTER + INTRA:          -4.132
REMARK INTER:                  -4.046
REMARK INTRA:                  -0.086
REMARK UNBOUND:                -0.108
REMARK SMILES CCCCC(=O)[O-]
REMARK SMILES IDX 4 1 5 2 6 3 7 4 3 5 2 6 1 7
REMARK H PARENT
REMARK Flexibility Score: inf
ROOT
ATOM      1  C   UNL     1      38.932  54.892  60.325  1.00  0.00     0.053 C 
ENDROOT
BRANCH   1   2
ATOM      2  C   UNL     1      38.904  56.370  60.565  1.00  0.00     0.041 C 
ATOM      3  O   UNL     1      38.116  56.858  61.418  1.00  0.00    -0.550 OA
ATOM      4  O   UNL     1      39.771  57.206  59.871  1.00  0.00    -0.550 OA
ENDBRANCH   1   2
BRANCH   1   5
ATOM      5  C   UNL     1      40.164  54.234  60.962  1.00  0.00     0.006 C 
BRANCH   5   6
ATOM      6  C   UNL     1      41.350  54.157  59.989  1.00  0.00    -0.003 C 
ATOM      7  C   UNL     1      42.549  54.935  60.521  1.00  0.00     0.004 C 
ENDBRANCH   5   6
ENDBRANCH   1   5
TORSDOF 3
ENDMDL
MODEL 9
REMARK VINA RESULT:    -3.390      2.498      3.656
REMARK INTER + INTRA:          -4.093
REMARK INTER:                  -4.074
REMARK INTRA:                  -0.019
REMARK UNBOUND:                -0.108
REMARK SMILES CCCCC(=O)[O-]
REMARK SMILES IDX 4 1 5 2 6 3 7 4 3 5 2 6 1 7
REMARK H PARENT
REMARK Flexibility Score: inf
ROOT
ATOM      1  C   UNL     1      36.197  55.034  59.244  1.00  0.00     0.053 C 
ENDROOT
BRANCH   1   2
ATOM      2  C   UNL     1      37.429  55.558  59.915  1.00  0.00     0.041 C 
ATOM      3  O   UNL     1      37.692  56.789  59.884  1.00  0.00    -0.550 OA
ATOM      4  O   UNL     1      38.270  54.692  60.604  1.00  0.00    -0.550 OA
ENDBRANCH   1   2
BRANCH   1   5
ATOM      5  C   UNL     1      36.260  53.514  59.041  1.00  0.00     0.006 C 
BRANCH   5   6
ATOM      6  C   UNL     1      35.080  52.988  58.213  1.00  0.00    -0.003 C 
ATOM      7  C   UNL     1      35.171  51.476  58.023  1.00  0.00     0.004 C 
ENDBRANCH   5   6
ENDBRANCH   1   5
TORSDOF 3
ENDMDL
