MODEL 1
REMARK VINA RESULT:    -3.697      0.000      0.000
REMARK INTER + INTRA:          -6.507
REMARK INTER:                  -5.966
REMARK INTRA:                  -0.541
REMARK UNBOUND:                -0.541
REMARK SMILES CCCCCCCCCCCCO
REMARK SMILES IDX 7 1 6 2 5 3 4 4 3 5 2 6 1 7 8 8 9 9 10 10 11 11 12 12 13 13
REMARK H PARENT 13 14
REMARK Flexibility Score: inf
ROOT
ATOM      1  C   UNL     1     -31.173 -21.369  29.336  1.00  0.00     0.000 C 
ENDROOT
BRANCH   1   2
ATOM      2  C   UNL     1     -32.621 -20.856  29.414  1.00  0.00    -0.000 C 
BRANCH   2   3
ATOM      3  C   UNL     1     -32.701 -19.373  29.811  1.00  0.00    -0.000 C 
BRANCH   3   4
ATOM      4  C   UNL     1     -31.437 -18.588  29.415  1.00  0.00    -0.000 C 
BRANCH   4   5
ATOM      5  C   UNL     1     -31.671 -17.659  28.214  1.00  0.00    -0.000 C 
BRANCH   5   6
ATOM      6  C   UNL     1     -33.145 -17.610  27.785  1.00  0.00    -0.003 C 
ATOM      7  C   UNL     1     -33.457 -18.699  26.764  1.00  0.00     0.004 C 
ENDBRANCH   5   6
ENDBRANCH   4   5
ENDBRANCH   3   4
ENDBRANCH   2   3
ENDBRANCH   1   2
BRANCH   1   8
ATOM      8  C   UNL     1     -30.967 -22.379  28.186  1.00  0.00     0.000 C 
BRANCH   8   9
ATOM      9  C   UNL     1     -32.262 -23.089  27.745  1.00  0.00     0.000 C 
BRANCH   9  10
ATOM     10  C   UNL     1     -32.822 -22.638  26.382  1.00  0.00     0.002 C 
BRANCH  10  11
ATOM     11  C   UNL     1     -34.349 -22.763  26.236  1.00  0.00     0.028 C 
BRANCH  11  12
ATOM     12  C   UNL     1     -35.019 -23.388  27.465  1.00  0.00     0.156 C 
BRANCH  12  13
ATOM     13  O   UNL     1     -36.403 -23.170  27.424  1.00  0.00    -0.396 OA
ATOM     14  H   UNL     1     -36.536 -22.246  27.086  1.00  0.00     0.210 HD
ENDBRANCH  12  13
ENDBRANCH  11  12
ENDBRANCH  10  11
ENDBRANCH   9  10
ENDBRANCH   8   9
ENDBRANCH   1   8
TORSDOF 11
ENDMDL
MODEL 2
REMARK VINA RESULT:    -3.672      1.530      4.607
REMARK INTER + INTRA:          -6.466
REMARK INTER:                  -5.912
REMARK INTRA:                  -0.555
REMARK UNBOUND:                -0.541
REMARK SMILES CCCCCCCCCCCCO
REMARK SMILES IDX 7 1 6 2 5 3 4 4 3 5 2 6 1 7 8 8 9 9 10 10 11 11 12 12 13 13
REMARK H PARENT 13 14
REMARK Flexibility Score: inf
ROOT
ATOM      1  C   UNL     1     -31.693 -20.477  29.382  1.00  0.00     0.000 C 
ENDROOT
BRANCH   1   2
ATOM      2  C   UNL     1     -30.620 -21.577  29.329  1.00  0.00    -0.000 C 
BRANCH   2   3
ATOM      3  C   UNL     1     -30.869 -22.592  28.202  1.00  0.00    -0.000 C 
BRANCH   3   4
ATOM      4  C   UNL     1     -32.366 -22.777  27.896  1.00  0.00    -0.000 C 
BRANCH   4   5
ATOM      5  C   UNL     1     -32.682 -22.653  26.397  1.00  0.00    -0.000 C 
BRANCH   5   6
ATOM      6  C   UNL     1     -34.182 -22.788  26.098  1.00  0.00    -0.003 C 
ATOM      7  C   UNL     1     -34.942 -23.301  27.317  1.00  0.00     0.004 C 
ENDBRANCH   5   6
ENDBRANCH   4   5
ENDBRANCH   3   4
ENDBRANCH   2   3
ENDBRANCH   1   2
BRANCH   1   8
ATOM      8  C   UNL     1     -31.094 -19.082  29.661  1.00  0.00     0.000 C 
BRANCH   8   9
ATOM      9  C   UNL     1     -32.118 -17.935  29.559  1.00  0.00     0.000 C 
BRANCH   9  10
ATOM     10  C   UNL     1     -32.237 -17.289  28.164  1.00  0.00     0.002 C 
BRANCH  10  11
ATOM     11  C   UNL     1     -33.550 -17.595  27.420  1.00  0.00     0.028 C 
BRANCH  11  12
ATOM     12  C   UNL     1     -33.659 -19.058  26.974  1.00  0.00     0.156 C 
BRANCH  12  13
ATOM     13  O   UNL     1     -34.074 -19.125  25.637  1.00  0.00    -0.396 OA
ATOM     14  H   UNL     1     -35.027 -18.849  25.620  1.00  0.00     0.210 HD
ENDBRANCH  12  13
ENDBRANCH  11  12
ENDBRANCH  10  11
ENDBRANCH   9  10
ENDBRANCH   8   9
ENDBRANCH   1   8
TORSDOF 11
ENDMDL
MODEL 3
REMARK VINA RESULT:    -3.596      0.477      1.366
REMARK INTER + INTRA:          -6.344
REMARK INTER:                  -5.717
REMARK INTRA:                  -0.627
REMARK UNBOUND:                -0.541
REMARK SMILES CCCCCCCCCCCCO
REMARK SMILES IDX 7 1 6 2 5 3 4 4 3 5 2 6 1 7 8 8 9 9 10 10 11 11 12 12 13 13
REMARK H PARENT 13 14
REMARK Flexibility Score: inf
ROOT
ATOM      1  C   UNL     1     -30.812 -22.368  28.327  1.00  0.00     0.000 C 
ENDROOT
BRANCH   1   2
ATOM      2  C   UNL     1     -31.111 -21.252  29.342  1.00  0.00    -0.000 C 
BRANCH   2   3
ATOM      3  C   UNL     1     -32.587 -20.824  29.331  1.00  0.00    -0.000 C 
BRANCH   3   4
ATOM      4  C   UNL     1     -32.777 -19.352  29.740  1.00  0.00    -0.000 C 
BRANCH   4   5
ATOM      5  C   UNL     1     -31.577 -18.473  29.354  1.00  0.00    -0.000 C 
BRANCH   5   6
ATOM      6  C   UNL     1     -31.944 -17.393  28.326  1.00  0.00    -0.003 C 
ATOM      7  C   UNL     1     -33.195 -17.781  27.544  1.00  0.00     0.004 C 
ENDBRANCH   5   6
ENDBRANCH   4   5
ENDBRANCH   3   4
ENDBRANCH   2   3
ENDBRANCH   1   2
BRANCH   1   8
ATOM      8  C   UNL     1     -32.094 -23.070  27.828  1.00  0.00     0.000 C 
BRANCH   8   9
ATOM      9  C   UNL     1     -32.546 -22.612  26.428  1.00  0.00     0.000 C 
BRANCH   9  10
ATOM     10  C   UNL     1     -34.059 -22.729  26.160  1.00  0.00     0.002 C 
BRANCH  10  11
ATOM     11  C   UNL     1     -34.844 -23.527  27.217  1.00  0.00     0.028 C 
BRANCH  11  12
ATOM     12  C   UNL     1     -36.033 -22.750  27.793  1.00  0.00     0.156 C 
BRANCH  12  13
ATOM     13  O   UNL     1     -37.236 -23.367  27.425  1.00  0.00    -0.396 OA
ATOM     14  H   UNL     1     -37.932 -23.031  28.048  1.00  0.00     0.210 HD
ENDBRANCH  12  13
ENDBRANCH  11  12
ENDBRANCH  10  11
ENDBRANCH   9  10
ENDBRANCH   8   9
ENDBRANCH   1   8
TORSDOF 11
ENDMDL
MODEL 4
REMARK VINA RESULT:    -3.442      1.552      4.682
REMARK INTER + INTRA:          -6.096
REMARK INTER:                  -5.904
REMARK INTRA:                  -0.192
REMARK UNBOUND:                -0.541
REMARK SMILES CCCCCCCCCCCCO
REMARK SMILES IDX 7 1 6 2 5 3 4 4 3 5 2 6 1 7 8 8 9 9 10 10 11 11 12 12 13 13
REMARK H PARENT 13 14
REMARK Flexibility Score: inf
ROOT
ATOM      1  C   UNL     1     -31.170 -21.329  29.400  1.00  0.00     0.000 C 
ENDROOT
BRANCH   1   2
ATOM      2  C   UNL     1     -31.009 -22.281  28.203  1.00  0.00    -0.000 C 
BRANCH   2   3
ATOM      3  C   UNL     1     -32.314 -23.013  27.851  1.00  0.00    -0.000 C 
BRANCH   3   4
ATOM      4  C   UNL     1     -32.792 -22.709  26.420  1.00  0.00    -0.000 C 
BRANCH   4   5
ATOM      5  C   UNL     1     -34.324 -22.694  26.300  1.00  0.00    -0.000 C 
BRANCH   5   6
ATOM      6  C   UNL     1     -35.014 -23.410  27.470  1.00  0.00    -0.003 C 
ATOM      7  C   UNL     1     -36.515 -23.140  27.471  1.00  0.00     0.004 C 
ENDBRANCH   5   6
ENDBRANCH   4   5
ENDBRANCH   3   4
ENDBRANCH   2   3
ENDBRANCH   1   2
BRANCH   1   8
ATOM      8  C   UNL     1     -32.482 -20.517  29.334  1.00  0.00     0.000 C 
BRANCH   8   9
ATOM      9  C   UNL     1     -32.325 -19.047  29.771  1.00  0.00     0.000 C 
BRANCH   9  10
ATOM     10  C   UNL     1     -31.951 -18.068  28.642  1.00  0.00     0.002 C 
BRANCH  10  11
ATOM     11  C   UNL     1     -33.074 -17.793  27.625  1.00  0.00     0.028 C 
BRANCH  11  12
ATOM     12  C   UNL     1     -33.667 -19.073  27.027  1.00  0.00     0.156 C 
BRANCH  12  13
ATOM     13  O   UNL     1     -33.815 -18.934  25.640  1.00  0.00    -0.396 OA
ATOM     14  H   UNL     1     -34.227 -18.045  25.484  1.00  0.00     0.210 HD
ENDBRANCH  12  13
ENDBRANCH  11  12
ENDBRANCH  10  11
ENDBRANCH   9  10
ENDBRANCH   8   9
ENDBRANCH   1   8
TORSDOF 11
ENDMDL
MODEL 5
REMARK VINA RESULT:    -2.724      0.936      3.102
REMARK INTER + INTRA:          -4.937
REMARK INTER:                  -4.293
REMARK INTRA:                  -0.644
REMARK UNBOUND:                -0.541
REMARK SMILES CCCCCCCCCCCCO
REMARK SMILES IDX 7 1 6 2 5 3 4 4 3 5 2 6 1 7 8 8 9 9 10 10 11 11 12 12 13 13
REMARK H PARENT 13 14
REMARK Flexibility Score: inf
ROOT
ATOM      1  C   UNL     1     -33.734 -18.145  27.259  1.00  0.00     0.000 C 
ENDROOT
BRANCH   1   2
ATOM      2  C   UNL     1     -32.469 -17.560  27.908  1.00  0.00    -0.000 C 
BRANCH   2   3
ATOM      3  C   UNL     1     -32.318 -17.969  29.382  1.00  0.00    -0.000 C 
BRANCH   3   4
ATOM      4  C   UNL     1     -31.190 -18.995  29.597  1.00  0.00    -0.000 C 
BRANCH   4   5
ATOM      5  C   UNL     1     -31.680 -20.446  29.469  1.00  0.00    -0.000 C 
BRANCH   5   6
ATOM      6  C   UNL     1     -30.532 -21.463  29.536  1.00  0.00    -0.003 C 
ATOM      7  C   UNL     1     -30.652 -22.500  28.424  1.00  0.00     0.004 C 
ENDBRANCH   5   6
ENDBRANCH   4   5
ENDBRANCH   3   4
ENDBRANCH   2   3
ENDBRANCH   1   2
BRANCH   1   8
ATOM      8  C   UNL     1     -33.425 -19.357  26.353  1.00  0.00     0.000 C 
BRANCH   8   9
ATOM      9  C   UNL     1     -33.698 -20.718  27.023  1.00  0.00     0.000 C 
BRANCH   9  10
ATOM     10  C   UNL     1     -33.228 -21.946  26.220  1.00  0.00     0.002 C 
BRANCH  10  11
ATOM     11  C   UNL     1     -33.700 -23.302  26.775  1.00  0.00     0.028 C 
BRANCH  11  12
ATOM     12  C   UNL     1     -34.681 -23.162  27.944  1.00  0.00     0.156 C 
BRANCH  12  13
ATOM     13  O   UNL     1     -35.998 -23.328  27.493  1.00  0.00    -0.396 OA
ATOM     14  H   UNL     1     -36.568 -23.414  28.301  1.00  0.00     0.210 HD
ENDBRANCH  12  13
ENDBRANCH  11  12
ENDBRANCH  10  11
ENDBRANCH   9  10
ENDBRANCH   8   9
ENDBRANCH   1   8
TORSDOF 11
ENDMDL
MODEL 6
REMARK VINA RESULT:    -2.273      0.978      2.049
REMARK INTER + INTRA:          -4.209
REMARK INTER:                  -4.028
REMARK INTRA:                  -0.181
REMARK UNBOUND:                -0.541
REMARK SMILES CCCCCCCCCCCCO
REMARK SMILES IDX 7 1 6 2 5 3 4 4 3 5 2 6 1 7 8 8 9 9 10 10 11 11 12 12 13 13
REMARK H PARENT 13 14
REMARK Flexibility Score: inf
ROOT
ATOM      1  C   UNL     1     -32.218 -21.329  28.476  1.00  0.00     0.000 C 
ENDROOT
BRANCH   1   2
ATOM      2  C   UNL     1     -33.482 -20.467  28.320  1.00  0.00    -0.000 C 
BRANCH   2   3
ATOM      3  C   UNL     1     -33.410 -19.527  27.106  1.00  0.00    -0.000 C 
BRANCH   3   4
ATOM      4  C   UNL     1     -33.592 -18.049  27.493  1.00  0.00    -0.000 C 
BRANCH   4   5
ATOM      5  C   UNL     1     -32.299 -17.414  28.027  1.00  0.00    -0.000 C 
BRANCH   5   6
ATOM      6  C   UNL     1     -32.093 -17.666  29.527  1.00  0.00    -0.003 C 
ATOM      7  C   UNL     1     -30.848 -18.511  29.777  1.00  0.00     0.004 C 
ENDBRANCH   5   6
ENDBRANCH   4   5
ENDBRANCH   3   4
ENDBRANCH   2   3
ENDBRANCH   1   2
BRANCH   1   8
ATOM      8  C   UNL     1     -32.356 -22.706  27.789  1.00  0.00     0.000 C 
BRANCH   8   9
ATOM      9  C   UNL     1     -32.917 -22.631  26.356  1.00  0.00     0.000 C 
BRANCH   9  10
ATOM     10  C   UNL     1     -34.409 -22.993  26.219  1.00  0.00     0.002 C 
BRANCH  10  11
ATOM     11  C   UNL     1     -35.039 -23.624  27.474  1.00  0.00     0.028 C 
BRANCH  11  12
ATOM     12  C   UNL     1     -36.401 -23.016  27.830  1.00  0.00     0.156 C 
BRANCH  12  13
ATOM     13  O   UNL     1     -37.326 -23.273  26.810  1.00  0.00    -0.396 OA
ATOM     14  H   UNL     1     -36.834 -23.197  25.952  1.00  0.00     0.210 HD
ENDBRANCH  12  13
ENDBRANCH  11  12
ENDBRANCH  10  11
ENDBRANCH   9  10
ENDBRANCH   8   9
ENDBRANCH   1   8
TORSDOF 11
ENDMDL
MODEL 7
REMARK VINA RESULT:    -2.188      1.761      2.441
REMARK INTER + INTRA:          -4.071
REMARK INTER:                  -3.824
REMARK INTRA:                  -0.247
REMARK UNBOUND:                -0.541
REMARK SMILES CCCCCCCCCCCCO
REMARK SMILES IDX 7 1 6 2 5 3 4 4 3 5 2 6 1 7 8 8 9 9 10 10 11 11 12 12 13 13
REMARK H PARENT 13 14
REMARK Flexibility Score: inf
ROOT
ATOM      1  C   UNL     1     -33.669 -20.991  28.246  1.00  0.00     0.000 C 
ENDROOT
BRANCH   1   2
ATOM      2  C   UNL     1     -32.964 -20.535  29.535  1.00  0.00    -0.000 C 
BRANCH   2   3
ATOM      3  C   UNL     1     -31.483 -20.194  29.308  1.00  0.00    -0.000 C 
BRANCH   3   4
ATOM      4  C   UNL     1     -31.139 -18.753  29.727  1.00  0.00    -0.000 C 
BRANCH   4   5
ATOM      5  C   UNL     1     -32.293 -17.772  29.469  1.00  0.00    -0.000 C 
BRANCH   5   6
ATOM      6  C   UNL     1     -32.259 -17.181  28.053  1.00  0.00    -0.003 C 
ATOM      7  C   UNL     1     -33.419 -17.703  27.212  1.00  0.00     0.004 C 
ENDBRANCH   5   6
ENDBRANCH   4   5
ENDBRANCH   3   4
ENDBRANCH   2   3
ENDBRANCH   1   2
BRANCH   1   8
ATOM      8  C   UNL     1     -34.616 -22.188  28.484  1.00  0.00     0.000 C 
BRANCH   8   9
ATOM      9  C   UNL     1     -34.704 -23.156  27.288  1.00  0.00     0.000 C 
BRANCH   9  10
ATOM     10  C   UNL     1     -33.951 -22.700  26.023  1.00  0.00     0.002 C 
BRANCH  10  11
ATOM     11  C   UNL     1     -32.442 -23.002  26.024  1.00  0.00     0.028 C 
BRANCH  11  12
ATOM     12  C   UNL     1     -32.005 -23.869  27.211  1.00  0.00     0.156 C 
BRANCH  12  13
ATOM     13  O   UNL     1     -31.077 -23.176  27.999  1.00  0.00    -0.396 OA
ATOM     14  H   UNL     1     -30.190 -23.301  27.573  1.00  0.00     0.210 HD
ENDBRANCH  12  13
ENDBRANCH  11  12
ENDBRANCH  10  11
ENDBRANCH   9  10
ENDBRANCH   8   9
ENDBRANCH   1   8
TORSDOF 11
ENDMDL
MODEL 8
REMARK VINA RESULT:    -2.018      2.022      4.920
REMARK INTER + INTRA:          -3.797
REMARK INTER:                  -2.850
REMARK INTRA:                  -0.947
REMARK UNBOUND:                -0.541
REMARK SMILES CCCCCCCCCCCCO
REMARK SMILES IDX 7 1 6 2 5 3 4 4 3 5 2 6 1 7 8 8 9 9 10 10 11 11 12 12 13 13
REMARK H PARENT 13 14
REMARK Flexibility Score: inf
ROOT
ATOM      1  C   UNL     1     -32.609 -17.424  27.541  1.00  0.00     0.000 C 
ENDROOT
BRANCH   1   2
ATOM      2  C   UNL     1     -33.797 -18.362  27.272  1.00  0.00    -0.000 C 
BRANCH   2   3
ATOM      3  C   UNL     1     -33.424 -19.541  26.359  1.00  0.00    -0.000 C 
BRANCH   3   4
ATOM      4  C   UNL     1     -33.819 -20.901  26.961  1.00  0.00    -0.000 C 
BRANCH   4   5
ATOM      5  C   UNL     1     -32.932 -22.050  26.457  1.00  0.00    -0.000 C 
BRANCH   5   6
ATOM      6  C   UNL     1     -33.356 -23.414  27.020  1.00  0.00    -0.003 C 
ATOM      7  C   UNL     1     -34.809 -23.389  27.483  1.00  0.00     0.004 C 
ENDBRANCH   5   6
ENDBRANCH   4   5
ENDBRANCH   3   4
ENDBRANCH   2   3
ENDBRANCH   1   2
BRANCH   1   8
ATOM      8  C   UNL     1     -32.321 -17.255  29.049  1.00  0.00     0.000 C 
BRANCH   8   9
ATOM      9  C   UNL     1     -32.303 -18.584  29.830  1.00  0.00     0.000 C 
BRANCH   9  10
ATOM     10  C   UNL     1     -31.088 -19.490  29.547  1.00  0.00     0.002 C 
BRANCH  10  11
ATOM     11  C   UNL     1     -31.406 -20.994  29.473  1.00  0.00     0.028 C 
BRANCH  11  12
ATOM     12  C   UNL     1     -30.150 -21.873  29.477  1.00  0.00     0.156 C 
BRANCH  12  13
ATOM     13  O   UNL     1     -30.104 -22.653  28.314  1.00  0.00    -0.396 OA
ATOM     14  H   UNL     1     -29.443 -23.375  28.480  1.00  0.00     0.210 HD
ENDBRANCH  12  13
ENDBRANCH  11  12
ENDBRANCH  10  11
ENDBRANCH   9  10
ENDBRANCH   8   9
ENDBRANCH   1   8
TORSDOF 11
ENDMDL
MODEL 9
REMARK VINA RESULT:    -1.960      2.344      5.190
REMARK INTER + INTRA:          -3.703
REMARK INTER:                  -3.956
REMARK INTRA:                   0.253
REMARK UNBOUND:                -0.541
REMARK SMILES CCCCCCCCCCCCO
REMARK SMILES IDX 7 1 6 2 5 3 4 4 3 5 2 6 1 7 8 8 9 9 10 10 11 11 12 12 13 13
REMARK H PARENT 13 14
REMARK Flexibility Score: inf
ROOT
ATOM      1  C   UNL     1     -31.823 -21.325  29.236  1.00  0.00     0.000 C 
ENDROOT
BRANCH   1   2
ATOM      2  C   UNL     1     -31.375 -22.296  28.131  1.00  0.00    -0.000 C 
BRANCH   2   3
ATOM      3  C   UNL     1     -32.509 -23.220  27.661  1.00  0.00    -0.000 C 
BRANCH   3   4
ATOM      4  C   UNL     1     -33.105 -22.784  26.311  1.00  0.00    -0.000 C 
BRANCH   4   5
ATOM      5  C   UNL     1     -34.610 -23.073  26.207  1.00  0.00    -0.000 C 
BRANCH   5   6
ATOM      6  C   UNL     1     -35.275 -23.236  27.582  1.00  0.00    -0.003 C 
ATOM      7  C   UNL     1     -36.795 -23.243  27.459  1.00  0.00     0.004 C 
ENDBRANCH   5   6
ENDBRANCH   4   5
ENDBRANCH   3   4
ENDBRANCH   2   3
ENDBRANCH   1   2
BRANCH   1   8
ATOM      8  C   UNL     1     -33.145 -20.606  28.888  1.00  0.00     0.000 C 
BRANCH   8   9
ATOM      9  C   UNL     1     -33.095 -19.824  27.561  1.00  0.00     0.000 C 
BRANCH   9  10
ATOM     10  C   UNL     1     -33.397 -18.317  27.681  1.00  0.00     0.002 C 
BRANCH  10  11
ATOM     11  C   UNL     1     -32.254 -17.473  28.274  1.00  0.00     0.028 C 
BRANCH  11  12
ATOM     12  C   UNL     1     -31.784 -17.979  29.642  1.00  0.00     0.156 C 
BRANCH  12  13
ATOM     13  O   UNL     1     -30.443 -18.382  29.573  1.00  0.00    -0.396 OA
ATOM     14  H   UNL     1     -29.895 -17.555  29.584  1.00  0.00     0.210 HD
ENDBRANCH  12  13
ENDBRANCH  11  12
ENDBRANCH  10  11
ENDBRANCH   9  10
ENDBRANCH   8   9
ENDBRANCH   1   8
TORSDOF 11
ENDMDL
