MODEL 1
REMARK VINA RESULT:    -6.004      0.000      0.000
REMARK INTER + INTRA:          -6.927
REMARK INTER:                  -6.707
REMARK INTRA:                  -0.221
REMARK UNBOUND:                -0.221
REMARK SMILES CC(C)c1ccc(C(=O)[O-])cc1
REMARK SMILES IDX 7 1 6 2 11 3 5 4 12 5 4 6 8 7 9 8 10 9 2 10 1 11 3 12
REMARK H PARENT
REMARK Flexibility Score: inf
ROOT
ATOM      1  C   UNL     1     -14.367  -4.725  29.950  1.00  0.00    -0.003 A 
ATOM      2  C   UNL     1     -14.634  -4.750  28.571  1.00  0.00     0.010 A 
ATOM      3  C   UNL     1     -14.731  -5.832  30.734  1.00  0.00     0.010 A 
ATOM      4  C   UNL     1     -15.253  -5.860  27.988  1.00  0.00     0.004 A 
ATOM      5  C   UNL     1     -15.349  -6.942  30.151  1.00  0.00     0.004 A 
ATOM      6  C   UNL     1     -15.617  -6.969  28.773  1.00  0.00    -0.045 A 
ENDROOT
BRANCH   1   7
ATOM      7  C   UNL     1     -13.712  -3.553  30.571  1.00  0.00     0.071 C 
ATOM      8  O   UNL     1     -13.675  -3.429  31.825  1.00  0.00    -0.545 OA
ATOM      9  O   UNL     1     -13.128  -2.570  29.780  1.00  0.00    -0.545 OA
ENDBRANCH   1   7
BRANCH   6  10
ATOM     10  C   UNL     1     -16.290  -8.181  28.154  1.00  0.00     0.013 C 
ATOM     11  C   UNL     1     -17.167  -8.910  29.179  1.00  0.00     0.012 C 
ATOM     12  C   UNL     1     -17.103  -7.787  26.914  1.00  0.00     0.012 C 
ENDBRANCH   6  10
TORSDOF 2
ENDMDL
MODEL 2
REMARK VINA RESULT:    -6.002      0.073      1.399
REMARK INTER + INTRA:          -6.924
REMARK INTER:                  -6.704
REMARK INTRA:                  -0.221
REMARK UNBOUND:                -0.221
REMARK SMILES CC(C)c1ccc(C(=O)[O-])cc1
REMARK SMILES IDX 7 1 6 2 11 3 5 4 12 5 4 6 8 7 9 8 10 9 2 10 1 11 3 12
REMARK H PARENT
REMARK Flexibility Score: inf
ROOT
ATOM      1  C   UNL     1     -14.392  -4.780  29.971  1.00  0.00    -0.003 A 
ATOM      2  C   UNL     1     -14.769  -5.873  30.770  1.00  0.00     0.010 A 
ATOM      3  C   UNL     1     -14.656  -4.824  28.592  1.00  0.00     0.010 A 
ATOM      4  C   UNL     1     -15.397  -6.984  30.202  1.00  0.00     0.004 A 
ATOM      5  C   UNL     1     -15.284  -5.936  28.024  1.00  0.00     0.004 A 
ATOM      6  C   UNL     1     -15.662  -7.028  28.822  1.00  0.00    -0.045 A 
ENDROOT
BRANCH   1   7
ATOM      7  C   UNL     1     -13.727  -3.602  30.567  1.00  0.00     0.071 C 
ATOM      8  O   UNL     1     -13.689  -3.451  31.818  1.00  0.00    -0.545 OA
ATOM      9  O   UNL     1     -13.133  -2.641  29.756  1.00  0.00    -0.545 OA
ENDBRANCH   1   7
BRANCH   6  10
ATOM     10  C   UNL     1     -16.343  -8.229  28.191  1.00  0.00     0.013 C 
ATOM     11  C   UNL     1     -17.248  -8.945  29.201  1.00  0.00     0.012 C 
ATOM     12  C   UNL     1     -17.128  -7.823  26.938  1.00  0.00     0.012 C 
ENDBRANCH   6  10
TORSDOF 2
ENDMDL
MODEL 3
REMARK VINA RESULT:    -5.625      1.157      2.132
REMARK INTER + INTRA:          -6.503
REMARK INTER:                  -6.289
REMARK INTRA:                  -0.215
REMARK UNBOUND:                -0.221
REMARK SMILES CC(C)c1ccc(C(=O)[O-])cc1
REMARK SMILES IDX 7 1 6 2 11 3 5 4 12 5 4 6 8 7 9 8 10 9 2 10 1 11 3 12
REMARK H PARENT
REMARK Flexibility Score: inf
ROOT
ATOM      1  C   UNL     1     -13.704  -3.864  30.162  1.00  0.00    -0.003 A 
ATOM      2  C   UNL     1     -14.114  -4.784  31.141  1.00  0.00     0.010 A 
ATOM      3  C   UNL     1     -14.080  -4.080  28.825  1.00  0.00     0.010 A 
ATOM      4  C   UNL     1     -14.886  -5.896  30.792  1.00  0.00     0.004 A 
ATOM      5  C   UNL     1     -14.851  -5.192  28.476  1.00  0.00     0.004 A 
ATOM      6  C   UNL     1     -15.263  -6.112  29.454  1.00  0.00    -0.045 A 
ENDROOT
BRANCH   1   7
ATOM      7  C   UNL     1     -12.888  -2.686  30.527  1.00  0.00     0.071 C 
ATOM      8  O   UNL     1     -12.172  -2.698  31.564  1.00  0.00    -0.545 OA
ATOM      9  O   UNL     1     -12.899  -1.546  29.730  1.00  0.00    -0.545 OA
ENDBRANCH   1   7
BRANCH   6  10
ATOM     10  C   UNL     1     -16.100  -7.315  29.060  1.00  0.00     0.013 C 
ATOM     11  C   UNL     1     -15.339  -8.223  28.086  1.00  0.00     0.012 C 
ATOM     12  C   UNL     1     -16.560  -8.096  30.297  1.00  0.00     0.012 C 
ENDBRANCH   6  10
TORSDOF 2
ENDMDL
MODEL 4
REMARK VINA RESULT:    -5.623      1.166      1.637
REMARK INTER + INTRA:          -6.502
REMARK INTER:                  -6.287
REMARK INTRA:                  -0.215
REMARK UNBOUND:                -0.221
REMARK SMILES CC(C)c1ccc(C(=O)[O-])cc1
REMARK SMILES IDX 7 1 6 2 11 3 5 4 12 5 4 6 8 7 9 8 10 9 2 10 1 11 3 12
REMARK H PARENT
REMARK Flexibility Score: inf
ROOT
ATOM      1  C   UNL     1     -13.712  -3.844  30.205  1.00  0.00    -0.003 A 
ATOM      2  C   UNL     1     -14.098  -4.043  28.869  1.00  0.00     0.010 A 
ATOM      3  C   UNL     1     -14.108  -4.781  31.174  1.00  0.00     0.010 A 
ATOM      4  C   UNL     1     -14.863  -5.156  28.509  1.00  0.00     0.004 A 
ATOM      5  C   UNL     1     -14.872  -5.895  30.814  1.00  0.00     0.004 A 
ATOM      6  C   UNL     1     -15.258  -6.095  29.479  1.00  0.00    -0.045 A 
ENDROOT
BRANCH   1   7
ATOM      7  C   UNL     1     -12.903  -2.667  30.591  1.00  0.00     0.071 C 
ATOM      8  O   UNL     1     -12.204  -2.685  31.639  1.00  0.00    -0.545 OA
ATOM      9  O   UNL     1     -12.903  -1.522  29.801  1.00  0.00    -0.545 OA
ENDBRANCH   1   7
BRANCH   6  10
ATOM     10  C   UNL     1     -16.089  -7.309  29.103  1.00  0.00     0.013 C 
ATOM     11  C   UNL     1     -15.335  -8.211  28.118  1.00  0.00     0.012 C 
ATOM     12  C   UNL     1     -16.519  -8.091  30.350  1.00  0.00     0.012 C 
ENDBRANCH   6  10
TORSDOF 2
ENDMDL
MODEL 5
REMARK VINA RESULT:    -5.348      2.857      5.204
REMARK INTER + INTRA:          -6.194
REMARK INTER:                  -5.985
REMARK INTRA:                  -0.208
REMARK UNBOUND:                -0.221
REMARK SMILES CC(C)c1ccc(C(=O)[O-])cc1
REMARK SMILES IDX 7 1 6 2 11 3 5 4 12 5 4 6 8 7 9 8 10 9 2 10 1 11 3 12
REMARK H PARENT
REMARK Flexibility Score: inf
ROOT
ATOM      1  C   UNL     1     -15.261  -6.351  30.318  1.00  0.00    -0.003 A 
ATOM      2  C   UNL     1     -14.971  -5.392  29.333  1.00  0.00     0.010 A 
ATOM      3  C   UNL     1     -14.677  -6.217  31.589  1.00  0.00     0.010 A 
ATOM      4  C   UNL     1     -14.117  -4.322  29.613  1.00  0.00     0.004 A 
ATOM      5  C   UNL     1     -13.822  -5.147  31.869  1.00  0.00     0.004 A 
ATOM      6  C   UNL     1     -13.532  -4.188  30.885  1.00  0.00    -0.045 A 
ENDROOT
BRANCH   1   7
ATOM      7  C   UNL     1     -16.164  -7.485  30.027  1.00  0.00     0.071 C 
ATOM      8  O   UNL     1     -16.234  -7.967  28.865  1.00  0.00    -0.545 OA
ATOM      9  O   UNL     1     -16.952  -8.035  31.032  1.00  0.00    -0.545 OA
ENDBRANCH   1   7
BRANCH   6  10
ATOM     10  C   UNL     1     -12.602  -3.031  31.203  1.00  0.00     0.013 C 
ATOM     11  C   UNL     1     -11.137  -3.422  30.973  1.00  0.00     0.012 C 
ATOM     12  C   UNL     1     -12.975  -1.785  30.392  1.00  0.00     0.012 C 
ENDBRANCH   6  10
TORSDOF 2
ENDMDL
MODEL 6
REMARK VINA RESULT:    -5.313      2.856      5.381
REMARK INTER + INTRA:          -6.155
REMARK INTER:                  -5.945
REMARK INTRA:                  -0.210
REMARK UNBOUND:                -0.221
REMARK SMILES CC(C)c1ccc(C(=O)[O-])cc1
REMARK SMILES IDX 7 1 6 2 11 3 5 4 12 5 4 6 8 7 9 8 10 9 2 10 1 11 3 12
REMARK H PARENT
REMARK Flexibility Score: inf
ROOT
ATOM      1  C   UNL     1     -15.254  -6.366  30.315  1.00  0.00    -0.003 A 
ATOM      2  C   UNL     1     -14.679  -6.231  31.590  1.00  0.00     0.010 A 
ATOM      3  C   UNL     1     -14.967  -5.402  29.334  1.00  0.00     0.010 A 
ATOM      4  C   UNL     1     -13.835  -5.154  31.878  1.00  0.00     0.004 A 
ATOM      5  C   UNL     1     -14.123  -4.325  29.622  1.00  0.00     0.004 A 
ATOM      6  C   UNL     1     -13.547  -4.189  30.896  1.00  0.00    -0.045 A 
ENDROOT
BRANCH   1   7
ATOM      7  C   UNL     1     -16.147  -7.503  30.006  1.00  0.00     0.071 C 
ATOM      8  O   UNL     1     -16.193  -7.984  28.842  1.00  0.00    -0.545 OA
ATOM      9  O   UNL     1     -16.950  -8.058  30.996  1.00  0.00    -0.545 OA
ENDBRANCH   1   7
BRANCH   6  10
ATOM     10  C   UNL     1     -12.633  -3.015  31.195  1.00  0.00     0.013 C 
ATOM     11  C   UNL     1     -11.159  -3.408  31.039  1.00  0.00     0.012 C 
ATOM     12  C   UNL     1     -12.979  -1.808  30.314  1.00  0.00     0.012 C 
ENDBRANCH   6  10
TORSDOF 2
ENDMDL
MODEL 7
REMARK VINA RESULT:    -5.234      3.148      5.158
REMARK INTER + INTRA:          -6.066
REMARK INTER:                  -5.857
REMARK INTRA:                  -0.210
REMARK UNBOUND:                -0.221
REMARK SMILES CC(C)c1ccc(C(=O)[O-])cc1
REMARK SMILES IDX 7 1 6 2 11 3 5 4 12 5 4 6 8 7 9 8 10 9 2 10 1 11 3 12
REMARK H PARENT
REMARK Flexibility Score: inf
ROOT
ATOM      1  C   UNL     1     -15.598  -6.404  31.203  1.00  0.00    -0.003 A 
ATOM      2  C   UNL     1     -15.433  -6.014  29.863  1.00  0.00     0.010 A 
ATOM      3  C   UNL     1     -14.810  -5.791  32.191  1.00  0.00     0.010 A 
ATOM      4  C   UNL     1     -14.499  -5.032  29.519  1.00  0.00     0.004 A 
ATOM      5  C   UNL     1     -13.877  -4.809  31.847  1.00  0.00     0.004 A 
ATOM      6  C   UNL     1     -13.711  -4.418  30.508  1.00  0.00    -0.045 A 
ENDROOT
BRANCH   1   7
ATOM      7  C   UNL     1     -16.585  -7.442  31.571  1.00  0.00     0.071 C 
ATOM      8  O   UNL     1     -16.982  -8.281  30.719  1.00  0.00    -0.545 OA
ATOM      9  O   UNL     1     -17.089  -7.507  32.866  1.00  0.00    -0.545 OA
ENDBRANCH   1   7
BRANCH   6  10
ATOM     10  C   UNL     1     -12.692  -3.351  30.149  1.00  0.00     0.013 C 
ATOM     11  C   UNL     1     -13.142  -1.970  30.642  1.00  0.00     0.012 C 
ATOM     12  C   UNL     1     -11.304  -3.707  30.695  1.00  0.00     0.012 C 
ENDBRANCH   6  10
TORSDOF 2
ENDMDL
MODEL 8
REMARK VINA RESULT:    -5.040      2.920      5.047
REMARK INTER + INTRA:          -5.850
REMARK INTER:                  -5.636
REMARK INTRA:                  -0.215
REMARK UNBOUND:                -0.221
REMARK SMILES CC(C)c1ccc(C(=O)[O-])cc1
REMARK SMILES IDX 7 1 6 2 11 3 5 4 12 5 4 6 8 7 9 8 10 9 2 10 1 11 3 12
REMARK H PARENT
REMARK Flexibility Score: inf
ROOT
ATOM      1  C   UNL     1     -15.677  -6.644  28.734  1.00  0.00    -0.003 A 
ATOM      2  C   UNL     1     -15.265  -5.616  27.868  1.00  0.00     0.010 A 
ATOM      3  C   UNL     1     -15.335  -6.565  30.094  1.00  0.00     0.010 A 
ATOM      4  C   UNL     1     -14.528  -4.532  28.354  1.00  0.00     0.004 A 
ATOM      5  C   UNL     1     -14.598  -5.481  30.580  1.00  0.00     0.004 A 
ATOM      6  C   UNL     1     -14.186  -4.453  29.716  1.00  0.00    -0.045 A 
ENDROOT
BRANCH   1   7
ATOM      7  C   UNL     1     -16.457  -7.792  28.225  1.00  0.00     0.071 C 
ATOM      8  O   UNL     1     -16.776  -7.862  27.007  1.00  0.00    -0.545 OA
ATOM      9  O   UNL     1     -16.850  -8.814  29.083  1.00  0.00    -0.545 OA
ENDBRANCH   1   7
BRANCH   6  10
ATOM     10  C   UNL     1     -13.386  -3.282  30.257  1.00  0.00     0.013 C 
ATOM     11  C   UNL     1     -13.466  -3.218  31.787  1.00  0.00     0.012 C 
ATOM     12  C   UNL     1     -11.929  -3.344  29.783  1.00  0.00     0.012 C 
ENDBRANCH   6  10
TORSDOF 2
ENDMDL
MODEL 9
REMARK VINA RESULT:    -4.994      2.862      5.166
REMARK INTER + INTRA:          -5.799
REMARK INTER:                  -5.583
REMARK INTRA:                  -0.216
REMARK UNBOUND:                -0.221
REMARK SMILES CC(C)c1ccc(C(=O)[O-])cc1
REMARK SMILES IDX 7 1 6 2 11 3 5 4 12 5 4 6 8 7 9 8 10 9 2 10 1 11 3 12
REMARK H PARENT
REMARK Flexibility Score: inf
ROOT
ATOM      1  C   UNL     1     -15.556  -6.476  28.915  1.00  0.00    -0.003 A 
ATOM      2  C   UNL     1     -15.254  -6.511  30.286  1.00  0.00     0.010 A 
ATOM      3  C   UNL     1     -15.078  -5.407  28.139  1.00  0.00     0.010 A 
ATOM      4  C   UNL     1     -14.488  -5.497  30.870  1.00  0.00     0.004 A 
ATOM      5  C   UNL     1     -14.312  -4.394  28.723  1.00  0.00     0.004 A 
ATOM      6  C   UNL     1     -14.008  -4.427  30.094  1.00  0.00    -0.045 A 
ENDROOT
BRANCH   1   7
ATOM      7  C   UNL     1     -16.366  -7.546  28.293  1.00  0.00     0.071 C 
ATOM      8  O   UNL     1     -16.627  -8.603  28.927  1.00  0.00    -0.545 OA
ATOM      9  O   UNL     1     -16.851  -7.401  26.997  1.00  0.00    -0.545 OA
ENDBRANCH   1   7
BRANCH   6  10
ATOM     10  C   UNL     1     -13.176  -3.319  30.714  1.00  0.00     0.013 C 
ATOM     11  C   UNL     1     -11.822  -3.850  31.199  1.00  0.00     0.012 C 
ATOM     12  C   UNL     1     -12.993  -2.153  29.735  1.00  0.00     0.012 C 
ENDBRANCH   6  10
TORSDOF 2
ENDMDL
