MODEL 1
REMARK VINA RESULT:    -3.662      0.000      0.000
REMARK INTER + INTRA:          -5.477
REMARK INTER:                  -4.946
REMARK INTRA:                  -0.530
REMARK UNBOUND:                -0.530
REMARK SMILES C[C@H](O)[C@@H](O)[C@H](O)[C@H](O)C=O
REMARK SMILES IDX 4 1 2 2 1 3 3 4 6 6 8 7 10 8 11 9 9 10 7 12 5 14
REMARK H PARENT 3 5 9 11 7 13 5 15
REMARK Flexibility Score: inf
ROOT
ATOM      1  C   UNL     1      54.483  19.494  51.997  1.00  0.00     0.174 C 
ENDROOT
BRANCH   1   2
ATOM      2  C   UNL     1      53.987  20.619  52.951  1.00  0.00     0.142 C 
ATOM      3  C   UNL     1      52.875  20.166  53.909  1.00  0.00     0.041 C 
BRANCH   2   4
ATOM      4  O   UNL     1      53.536  21.720  52.201  1.00  0.00    -0.391 OA
ATOM      5  H   UNL     1      53.754  21.543  51.247  1.00  0.00     0.211 HD
ENDBRANCH   2   4
ENDBRANCH   1   2
BRANCH   1   6
ATOM      6  C   UNL     1      55.970  19.069  52.163  1.00  0.00     0.181 C 
BRANCH   6   7
ATOM      7  C   UNL     1      56.630  18.503  50.875  1.00  0.00     0.209 C 
BRANCH   7   8
ATOM      8  C   UNL     1      57.981  17.914  51.183  1.00  0.00     0.258 C 
ATOM      9  O   UNL     1      58.219  17.446  52.286  1.00  0.00    -0.300 OA
ENDBRANCH   7   8
BRANCH   7  10
ATOM     10  O   UNL     1      55.810  17.512  50.310  1.00  0.00    -0.383 OA
ATOM     11  H   UNL     1      55.109  17.301  50.980  1.00  0.00     0.211 HD
ENDBRANCH   7  10
ENDBRANCH   6   7
BRANCH   6  12
ATOM     12  O   UNL     1      56.715  20.116  52.747  1.00  0.00    -0.387 OA
ATOM     13  H   UNL     1      56.186  20.534  53.474  1.00  0.00     0.211 HD
ENDBRANCH   6  12
ENDBRANCH   1   6
BRANCH   1  14
ATOM     14  O   UNL     1      54.283  19.900  50.665  1.00  0.00    -0.388 OA
ATOM     15  H   UNL     1      53.303  19.987  50.524  1.00  0.00     0.211 HD
ENDBRANCH   1  14
TORSDOF 8
ENDMDL
MODEL 2
REMARK VINA RESULT:    -3.611     21.381     22.288
REMARK INTER + INTRA:          -5.407
REMARK INTER:                  -4.891
REMARK INTRA:                  -0.517
REMARK UNBOUND:                -0.530
REMARK SMILES C[C@H](O)[C@@H](O)[C@H](O)[C@H](O)C=O
REMARK SMILES IDX 4 1 2 2 1 3 3 4 6 6 8 7 10 8 11 9 9 10 7 12 5 14
REMARK H PARENT 3 5 9 11 7 13 5 15
REMARK Flexibility Score: inf
ROOT
ATOM      1  C   UNL     1      70.799  34.485  59.167  1.00  0.00     0.174 C 
ENDROOT
BRANCH   1   2
ATOM      2  C   UNL     1      69.729  35.121  58.232  1.00  0.00     0.142 C 
ATOM      3  C   UNL     1      70.312  36.124  57.225  1.00  0.00     0.041 C 
BRANCH   2   4
ATOM      4  O   UNL     1      68.737  35.756  59.001  1.00  0.00    -0.391 OA
ATOM      5  H   UNL     1      69.006  35.686  59.955  1.00  0.00     0.211 HD
ENDBRANCH   2   4
ENDBRANCH   1   2
BRANCH   1   6
ATOM      6  C   UNL     1      71.076  32.971  58.950  1.00  0.00     0.181 C 
BRANCH   6   7
ATOM      7  C   UNL     1      71.718  32.248  60.168  1.00  0.00     0.209 C 
BRANCH   7   8
ATOM      8  C   UNL     1      72.450  31.009  59.726  1.00  0.00     0.258 C 
ATOM      9  O   UNL     1      72.048  30.352  58.778  1.00  0.00    -0.300 OA
ENDBRANCH   7   8
BRANCH   7  10
ATOM     10  O   UNL     1      72.616  33.110  60.820  1.00  0.00    -0.383 OA
ATOM     11  H   UNL     1      73.292  32.536  61.267  1.00  0.00     0.211 HD
ENDBRANCH   7  10
ENDBRANCH   6   7
BRANCH   6  12
ATOM     12  O   UNL     1      69.913  32.324  58.479  1.00  0.00    -0.387 OA
ATOM     13  H   UNL     1      69.159  32.509  59.095  1.00  0.00     0.211 HD
ENDBRANCH   6  12
ENDBRANCH   1   6
BRANCH   1  14
ATOM     14  O   UNL     1      70.413  34.680  60.506  1.00  0.00    -0.388 OA
ATOM     15  H   UNL     1      70.136  33.797  60.866  1.00  0.00     0.211 HD
ENDBRANCH   1  14
TORSDOF 8
ENDMDL
MODEL 3
REMARK VINA RESULT:    -3.609      1.721      2.739
REMARK INTER + INTRA:          -5.405
REMARK INTER:                  -4.877
REMARK INTRA:                  -0.528
REMARK UNBOUND:                -0.530
REMARK SMILES C[C@H](O)[C@@H](O)[C@H](O)[C@H](O)C=O
REMARK SMILES IDX 4 1 2 2 1 3 3 4 6 6 8 7 10 8 11 9 9 10 7 12 5 14
REMARK H PARENT 3 5 9 11 7 13 5 15
REMARK Flexibility Score: inf
ROOT
ATOM      1  C   UNL     1      56.617  19.009  52.196  1.00  0.00     0.174 C 
ENDROOT
BRANCH   1   2
ATOM      2  C   UNL     1      55.212  19.545  52.599  1.00  0.00     0.142 C 
ATOM      3  C   UNL     1      54.552  18.747  53.732  1.00  0.00     0.041 C 
BRANCH   2   4
ATOM      4  O   UNL     1      54.362  19.554  51.478  1.00  0.00    -0.391 OA
ATOM      5  H   UNL     1      54.724  18.901  50.822  1.00  0.00     0.211 HD
ENDBRANCH   2   4
ENDBRANCH   1   2
BRANCH   1   6
ATOM      6  C   UNL     1      56.762  18.528  50.724  1.00  0.00     0.181 C 
BRANCH   6   7
ATOM      7  C   UNL     1      58.214  18.167  50.302  1.00  0.00     0.209 C 
BRANCH   7   8
ATOM      8  C   UNL     1      58.296  16.734  49.847  1.00  0.00     0.258 C 
ATOM      9  O   UNL     1      58.077  16.436  48.683  1.00  0.00    -0.300 OA
ENDBRANCH   7   8
BRANCH   7  10
ATOM     10  O   UNL     1      58.635  19.008  49.258  1.00  0.00    -0.383 OA
ATOM     11  H   UNL     1      58.013  19.782  49.243  1.00  0.00     0.211 HD
ENDBRANCH   7  10
ENDBRANCH   6   7
BRANCH   6  12
ATOM     12  O   UNL     1      55.839  17.496  50.453  1.00  0.00    -0.387 OA
ATOM     13  H   UNL     1      55.943  16.774  51.125  1.00  0.00     0.211 HD
ENDBRANCH   6  12
ENDBRANCH   1   6
BRANCH   1  14
ATOM     14  O   UNL     1      56.963  17.944  53.047  1.00  0.00    -0.388 OA
ATOM     15  H   UNL     1      57.910  17.710  52.860  1.00  0.00     0.211 HD
ENDBRANCH   1  14
TORSDOF 8
ENDMDL
MODEL 4
REMARK VINA RESULT:    -3.605      2.519      5.034
REMARK INTER + INTRA:          -5.400
REMARK INTER:                  -4.463
REMARK INTRA:                  -0.937
REMARK UNBOUND:                -0.530
REMARK SMILES C[C@H](O)[C@@H](O)[C@H](O)[C@H](O)C=O
REMARK SMILES IDX 4 1 2 2 1 3 3 4 6 6 8 7 10 8 11 9 9 10 7 12 5 14
REMARK H PARENT 3 5 9 11 7 13 5 15
REMARK Flexibility Score: inf
ROOT
ATOM      1  C   UNL     1      59.112  17.778  50.083  1.00  0.00     0.174 C 
ENDROOT
BRANCH   1   2
ATOM      2  C   UNL     1      58.157  16.642  49.614  1.00  0.00     0.142 C 
ATOM      3  C   UNL     1      58.392  16.203  48.161  1.00  0.00     0.041 C 
BRANCH   2   4
ATOM      4  O   UNL     1      56.819  17.045  49.769  1.00  0.00    -0.391 OA
ATOM      5  H   UNL     1      56.245  16.351  49.349  1.00  0.00     0.211 HD
ENDBRANCH   2   4
ENDBRANCH   1   2
BRANCH   1   6
ATOM      6  C   UNL     1      59.060  18.126  51.597  1.00  0.00     0.181 C 
BRANCH   6   7
ATOM      7  C   UNL     1      58.438  19.513  51.922  1.00  0.00     0.209 C 
BRANCH   7   8
ATOM      8  C   UNL     1      57.057  19.354  52.502  1.00  0.00     0.258 C 
ATOM      9  O   UNL     1      56.149  18.887  51.832  1.00  0.00    -0.300 OA
ENDBRANCH   7   8
BRANCH   7  10
ATOM     10  O   UNL     1      59.249  20.202  52.839  1.00  0.00    -0.383 OA
ATOM     11  H   UNL     1      58.720  20.301  53.674  1.00  0.00     0.211 HD
ENDBRANCH   7  10
ENDBRANCH   6   7
BRANCH   6  12
ATOM     12  O   UNL     1      58.461  17.073  52.321  1.00  0.00    -0.387 OA
ATOM     13  H   UNL     1      58.506  17.271  53.291  1.00  0.00     0.211 HD
ENDBRANCH   6  12
ENDBRANCH   1   6
BRANCH   1  14
ATOM     14  O   UNL     1      58.832  18.945  49.348  1.00  0.00    -0.388 OA
ATOM     15  H   UNL     1      57.863  19.135  49.450  1.00  0.00     0.211 HD
ENDBRANCH   1  14
TORSDOF 8
ENDMDL
MODEL 5
REMARK VINA RESULT:    -3.527      1.237      4.445
REMARK INTER + INTRA:          -5.294
REMARK INTER:                  -4.766
REMARK INTRA:                  -0.528
REMARK UNBOUND:                -0.530
REMARK SMILES C[C@H](O)[C@@H](O)[C@H](O)[C@H](O)C=O
REMARK SMILES IDX 4 1 2 2 1 3 3 4 6 6 8 7 10 8 11 9 9 10 7 12 5 14
REMARK H PARENT 3 5 9 11 7 13 5 15
REMARK Flexibility Score: inf
ROOT
ATOM      1  C   UNL     1      56.716  18.343  50.741  1.00  0.00     0.174 C 
ENDROOT
BRANCH   1   2
ATOM      2  C   UNL     1      57.890  17.321  50.777  1.00  0.00     0.142 C 
ATOM      3  C   UNL     1      59.240  17.924  50.362  1.00  0.00     0.041 C 
BRANCH   2   4
ATOM      4  O   UNL     1      57.596  16.223  49.950  1.00  0.00    -0.391 OA
ATOM      5  H   UNL     1      58.385  15.618  49.961  1.00  0.00     0.211 HD
ENDBRANCH   2   4
ENDBRANCH   1   2
BRANCH   1   6
ATOM      6  C   UNL     1      56.339  18.991  52.103  1.00  0.00     0.181 C 
BRANCH   6   7
ATOM      7  C   UNL     1      54.822  19.281  52.284  1.00  0.00     0.209 C 
BRANCH   7   8
ATOM      8  C   UNL     1      54.582  20.103  53.523  1.00  0.00     0.258 C 
ATOM      9  O   UNL     1      55.478  20.778  54.007  1.00  0.00    -0.300 OA
ENDBRANCH   7   8
BRANCH   7  10
ATOM     10  O   UNL     1      54.327  19.972  51.166  1.00  0.00    -0.383 OA
ATOM     11  H   UNL     1      54.068  19.288  50.496  1.00  0.00     0.211 HD
ENDBRANCH   7  10
ENDBRANCH   6   7
BRANCH   6  12
ATOM     12  O   UNL     1      56.887  18.245  53.168  1.00  0.00    -0.387 OA
ATOM     13  H   UNL     1      57.823  18.000  52.954  1.00  0.00     0.211 HD
ENDBRANCH   6  12
ENDBRANCH   1   6
BRANCH   1  14
ATOM     14  O   UNL     1      55.574  17.711  50.218  1.00  0.00    -0.388 OA
ATOM     15  H   UNL     1      54.779  18.154  50.617  1.00  0.00     0.211 HD
ENDBRANCH   1  14
TORSDOF 8
ENDMDL
MODEL 6
REMARK VINA RESULT:    -3.475      2.020      4.926
REMARK INTER + INTRA:          -5.223
REMARK INTER:                  -4.707
REMARK INTRA:                  -0.517
REMARK UNBOUND:                -0.530
REMARK SMILES C[C@H](O)[C@@H](O)[C@H](O)[C@H](O)C=O
REMARK SMILES IDX 4 1 2 2 1 3 3 4 6 6 8 7 10 8 11 9 9 10 7 12 5 14
REMARK H PARENT 3 5 9 11 7 13 5 15
REMARK Flexibility Score: inf
ROOT
ATOM      1  C   UNL     1      57.800  17.866  50.698  1.00  0.00     0.174 C 
ENDROOT
BRANCH   1   2
ATOM      2  C   UNL     1      58.132  16.500  50.030  1.00  0.00     0.142 C 
ATOM      3  C   UNL     1      59.636  16.199  49.962  1.00  0.00     0.041 C 
BRANCH   2   4
ATOM      4  O   UNL     1      57.589  16.456  48.733  1.00  0.00    -0.391 OA
ATOM      5  H   UNL     1      58.189  15.894  48.175  1.00  0.00     0.211 HD
ENDBRANCH   2   4
ENDBRANCH   1   2
BRANCH   1   6
ATOM      6  C   UNL     1      56.352  18.021  51.242  1.00  0.00     0.181 C 
BRANCH   6   7
ATOM      7  C   UNL     1      56.145  19.229  52.199  1.00  0.00     0.209 C 
BRANCH   7   8
ATOM      8  C   UNL     1      55.625  18.767  53.535  1.00  0.00     0.258 C 
ATOM      9  O   UNL     1      54.425  18.730  53.757  1.00  0.00    -0.300 OA
ENDBRANCH   7   8
BRANCH   7  10
ATOM     10  O   UNL     1      57.360  19.909  52.385  1.00  0.00    -0.383 OA
ATOM     11  H   UNL     1      57.178  20.655  53.016  1.00  0.00     0.211 HD
ENDBRANCH   7  10
ENDBRANCH   6   7
BRANCH   6  12
ATOM     12  O   UNL     1      55.425  17.999  50.178  1.00  0.00    -0.387 OA
ATOM     13  H   UNL     1      55.855  17.614  49.372  1.00  0.00     0.211 HD
ENDBRANCH   6  12
ENDBRANCH   1   6
BRANCH   1  14
ATOM     14  O   UNL     1      58.042  18.900  49.776  1.00  0.00    -0.388 OA
ATOM     15  H   UNL     1      58.906  18.702  49.327  1.00  0.00     0.211 HD
ENDBRANCH   1  14
TORSDOF 8
ENDMDL
MODEL 7
REMARK VINA RESULT:    -3.458      1.717      2.665
REMARK INTER + INTRA:          -5.201
REMARK INTER:                  -4.281
REMARK INTRA:                  -0.921
REMARK UNBOUND:                -0.530
REMARK SMILES C[C@H](O)[C@@H](O)[C@H](O)[C@H](O)C=O
REMARK SMILES IDX 4 1 2 2 1 3 3 4 6 6 8 7 10 8 11 9 9 10 7 12 5 14
REMARK H PARENT 3 5 9 11 7 13 5 15
REMARK Flexibility Score: inf
ROOT
ATOM      1  C   UNL     1      56.241  18.335  51.390  1.00  0.00     0.174 C 
ENDROOT
BRANCH   1   2
ATOM      2  C   UNL     1      56.132  19.132  52.723  1.00  0.00     0.142 C 
ATOM      3  C   UNL     1      54.706  19.601  53.043  1.00  0.00     0.041 C 
BRANCH   2   4
ATOM      4  O   UNL     1      56.992  20.244  52.688  1.00  0.00    -0.391 OA
ATOM      5  H   UNL     1      56.808  20.791  53.498  1.00  0.00     0.211 HD
ENDBRANCH   2   4
ENDBRANCH   1   2
BRANCH   1   6
ATOM      6  C   UNL     1      57.644  17.748  51.063  1.00  0.00     0.181 C 
BRANCH   6   7
ATOM      7  C   UNL     1      58.413  18.496  49.939  1.00  0.00     0.209 C 
BRANCH   7   8
ATOM      8  C   UNL     1      59.640  19.172  50.492  1.00  0.00     0.258 C 
ATOM      9  O   UNL     1      59.539  20.095  51.286  1.00  0.00    -0.300 OA
ENDBRANCH   7   8
BRANCH   7  10
ATOM     10  O   UNL     1      58.796  17.593  48.934  1.00  0.00    -0.383 OA
ATOM     11  H   UNL     1      58.603  16.681  49.277  1.00  0.00     0.211 HD
ENDBRANCH   7  10
ENDBRANCH   6   7
BRANCH   6  12
ATOM     12  O   UNL     1      58.401  17.605  52.245  1.00  0.00    -0.387 OA
ATOM     13  H   UNL     1      58.541  18.495  52.658  1.00  0.00     0.211 HD
ENDBRANCH   6  12
ENDBRANCH   1   6
BRANCH   1  14
ATOM     14  O   UNL     1      55.848  19.165  50.325  1.00  0.00    -0.388 OA
ATOM     15  H   UNL     1      55.140  19.772  50.667  1.00  0.00     0.211 HD
ENDBRANCH   1  14
TORSDOF 8
ENDMDL
MODEL 8
REMARK VINA RESULT:    -3.435     21.274     22.510
REMARK INTER + INTRA:          -5.171
REMARK INTER:                  -4.639
REMARK INTRA:                  -0.532
REMARK UNBOUND:                -0.530
REMARK SMILES C[C@H](O)[C@@H](O)[C@H](O)[C@H](O)C=O
REMARK SMILES IDX 4 1 2 2 1 3 3 4 6 6 8 7 10 8 11 9 9 10 7 12 5 14
REMARK H PARENT 3 5 9 11 7 13 5 15
REMARK Flexibility Score: inf
ROOT
ATOM      1  C   UNL     1      71.504  32.610  60.380  1.00  0.00     0.174 C 
ENDROOT
BRANCH   1   2
ATOM      2  C   UNL     1      72.189  31.223  60.556  1.00  0.00     0.142 C 
ATOM      3  C   UNL     1      71.200  30.078  60.817  1.00  0.00     0.041 C 
BRANCH   2   4
ATOM      4  O   UNL     1      73.125  31.279  61.604  1.00  0.00    -0.391 OA
ATOM      5  H   UNL     1      74.032  31.266  61.198  1.00  0.00     0.211 HD
ENDBRANCH   2   4
ENDBRANCH   1   2
BRANCH   1   6
ATOM      6  C   UNL     1      71.076  32.976  58.931  1.00  0.00     0.181 C 
BRANCH   6   7
ATOM      7  C   UNL     1      70.796  34.488  58.702  1.00  0.00     0.209 C 
BRANCH   7   8
ATOM      8  C   UNL     1      70.047  34.701  57.412  1.00  0.00     0.258 C 
ATOM      9  O   UNL     1      69.449  33.779  56.879  1.00  0.00    -0.300 OA
ENDBRANCH   7   8
BRANCH   7  10
ATOM     10  O   UNL     1      70.039  35.005  59.767  1.00  0.00    -0.383 OA
ATOM     11  H   UNL     1      69.623  35.846  59.442  1.00  0.00     0.211 HD
ENDBRANCH   7  10
ENDBRANCH   6   7
BRANCH   6  12
ATOM     12  O   UNL     1      71.991  32.440  58.000  1.00  0.00    -0.387 OA
ATOM     13  H   UNL     1      72.760  32.043  58.483  1.00  0.00     0.211 HD
ENDBRANCH   6  12
ENDBRANCH   1   6
BRANCH   1  14
ATOM     14  O   UNL     1      72.369  33.612  60.856  1.00  0.00    -0.388 OA
ATOM     15  H   UNL     1      73.186  33.163  61.196  1.00  0.00     0.211 HD
ENDBRANCH   1  14
TORSDOF 8
ENDMDL
