MODEL 1
REMARK VINA RESULT:    -5.033      0.000      0.000
REMARK INTER + INTRA:          -5.033
REMARK INTER:                  -5.033
REMARK INTRA:                   0.000
REMARK UNBOUND:                 0.000
REMARK SMILES CC(C)=C1CC[C@H](C)CC1=O
REMARK SMILES IDX 8 1 7 2 6 3 5 4 4 5 2 6 1 7 3 8 10 9 11 10 9 11
REMARK H PARENT
REMARK Flexibility Score: inf
ROOT
ATOM      1  C   UNL     1     -13.296  15.142 -32.028  1.00  0.00     0.008 C 
ATOM      2  C   UNL     1     -13.541  13.628 -32.118  1.00  0.00    -0.006 C 
ATOM      3  C   UNL     1     -13.467  12.941 -30.742  1.00  0.00     0.008 C 
ATOM      4  C   UNL     1     -14.608  13.359 -29.800  1.00  0.00     0.039 C 
ATOM      5  C   UNL     1     -15.980  13.269 -30.453  1.00  0.00    -0.006 C 
ATOM      6  C   UNL     1     -17.098  13.002 -29.716  1.00  0.00    -0.070 C 
ATOM      7  C   UNL     1     -17.019  12.802 -28.219  1.00  0.00     0.039 C 
ATOM      8  C   UNL     1     -18.459  12.854 -30.356  1.00  0.00     0.039 C 
ATOM      9  C   UNL     1     -16.045  13.607 -31.906  1.00  0.00     0.159 C 
ATOM     10  O   UNL     1     -17.063  14.157 -32.407  1.00  0.00    -0.295 OA
ATOM     11  C   UNL     1     -14.878  13.305 -32.802  1.00  0.00     0.084 C 
ENDROOT
TORSDOF 0
ENDMDL
MODEL 2
REMARK VINA RESULT:    -4.769      1.868      4.170
REMARK INTER + INTRA:          -4.769
REMARK INTER:                  -4.769
REMARK INTRA:                   0.000
REMARK UNBOUND:                 0.000
REMARK SMILES CC(C)=C1CC[C@H](C)CC1=O
REMARK SMILES IDX 8 1 7 2 6 3 5 4 4 5 2 6 1 7 3 8 10 9 11 10 9 11
REMARK H PARENT
REMARK Flexibility Score: inf
ROOT
ATOM      1  C   UNL     1     -17.666  11.133 -29.469  1.00  0.00     0.008 C 
ATOM      2  C   UNL     1     -16.281  11.209 -28.808  1.00  0.00    -0.006 C 
ATOM      3  C   UNL     1     -15.144  10.882 -29.794  1.00  0.00     0.008 C 
ATOM      4  C   UNL     1     -14.989  11.934 -30.904  1.00  0.00     0.039 C 
ATOM      5  C   UNL     1     -14.941  13.359 -30.368  1.00  0.00    -0.006 C 
ATOM      6  C   UNL     1     -14.242  14.335 -31.019  1.00  0.00    -0.070 C 
ATOM      7  C   UNL     1     -13.504  14.044 -32.306  1.00  0.00     0.039 C 
ATOM      8  C   UNL     1     -14.136  15.740 -30.471  1.00  0.00     0.039 C 
ATOM      9  C   UNL     1     -15.789  13.647 -29.174  1.00  0.00     0.159 C 
ATOM     10  O   UNL     1     -16.321  14.777 -29.005  1.00  0.00    -0.295 OA
ATOM     11  C   UNL     1     -16.036  12.576 -28.151  1.00  0.00     0.084 C 
ENDROOT
TORSDOF 0
ENDMDL
MODEL 3
REMARK VINA RESULT:    -4.687      2.122      3.382
REMARK INTER + INTRA:          -4.687
REMARK INTER:                  -4.687
REMARK INTRA:                   0.000
REMARK UNBOUND:                 0.000
REMARK SMILES CC(C)=C1CC[C@H](C)CC1=O
REMARK SMILES IDX 8 1 7 2 6 3 5 4 4 5 2 6 1 7 3 8 10 9 11 10 9 11
REMARK H PARENT
REMARK Flexibility Score: inf
ROOT
ATOM      1  C   UNL     1     -15.531  13.257 -32.351  1.00  0.00     0.008 C 
ATOM      2  C   UNL     1     -16.504  13.939 -31.376  1.00  0.00    -0.006 C 
ATOM      3  C   UNL     1     -17.686  13.029 -30.998  1.00  0.00     0.008 C 
ATOM      4  C   UNL     1     -17.263  11.805 -30.170  1.00  0.00     0.039 C 
ATOM      5  C   UNL     1     -16.371  12.167 -28.990  1.00  0.00    -0.006 C 
ATOM      6  C   UNL     1     -16.375  11.421 -27.846  1.00  0.00    -0.070 C 
ATOM      7  C   UNL     1     -17.253  10.198 -27.712  1.00  0.00     0.039 C 
ATOM      8  C   UNL     1     -15.538  11.799 -26.645  1.00  0.00     0.039 C 
ATOM      9  C   UNL     1     -15.417  13.296 -29.202  1.00  0.00     0.159 C 
ATOM     10  O   UNL     1     -14.288  13.315 -28.643  1.00  0.00    -0.295 OA
ATOM     11  C   UNL     1     -15.788  14.434 -30.110  1.00  0.00     0.084 C 
ENDROOT
TORSDOF 0
ENDMDL
MODEL 4
REMARK VINA RESULT:    -4.673     11.416     13.117
REMARK INTER + INTRA:          -4.673
REMARK INTER:                  -4.673
REMARK INTRA:                   0.000
REMARK UNBOUND:                 0.000
REMARK SMILES CC(C)=C1CC[C@H](C)CC1=O
REMARK SMILES IDX 8 1 7 2 6 3 5 4 4 5 2 6 1 7 3 8 10 9 11 10 9 11
REMARK H PARENT
REMARK Flexibility Score: inf
ROOT
ATOM      1  C   UNL     1     -26.777  11.368 -27.772  1.00  0.00     0.008 C 
ATOM      2  C   UNL     1     -27.120  12.497 -28.757  1.00  0.00    -0.006 C 
ATOM      3  C   UNL     1     -26.300  12.407 -30.057  1.00  0.00     0.008 C 
ATOM      4  C   UNL     1     -26.649  11.173 -30.904  1.00  0.00     0.039 C 
ATOM      5  C   UNL     1     -28.147  11.003 -31.115  1.00  0.00    -0.006 C 
ATOM      6  C   UNL     1     -28.640  10.411 -32.244  1.00  0.00    -0.070 C 
ATOM      7  C   UNL     1     -27.715   9.887 -33.319  1.00  0.00     0.039 C 
ATOM      8  C   UNL     1     -30.125  10.286 -32.495  1.00  0.00     0.039 C 
ATOM      9  C   UNL     1     -29.027  11.406 -29.978  1.00  0.00     0.159 C 
ATOM     10  O   UNL     1     -30.109  10.805 -29.742  1.00  0.00    -0.295 OA
ATOM     11  C   UNL     1     -28.621  12.538 -29.078  1.00  0.00     0.084 C 
ENDROOT
TORSDOF 0
ENDMDL
MODEL 5
REMARK VINA RESULT:    -4.671      8.474     11.004
REMARK INTER + INTRA:          -4.671
REMARK INTER:                  -4.671
REMARK INTRA:                   0.000
REMARK UNBOUND:                 0.000
REMARK SMILES CC(C)=C1CC[C@H](C)CC1=O
REMARK SMILES IDX 8 1 7 2 6 3 5 4 4 5 2 6 1 7 3 8 10 9 11 10 9 11
REMARK H PARENT
REMARK Flexibility Score: inf
ROOT
ATOM      1  C   UNL     1     -26.956   9.876 -29.205  1.00  0.00     0.008 C 
ATOM      2  C   UNL     1     -26.571  10.823 -28.058  1.00  0.00    -0.006 C 
ATOM      3  C   UNL     1     -25.054  11.071 -27.988  1.00  0.00     0.008 C 
ATOM      4  C   UNL     1     -24.516  11.854 -29.196  1.00  0.00     0.039 C 
ATOM      5  C   UNL     1     -25.325  13.108 -29.498  1.00  0.00    -0.006 C 
ATOM      6  C   UNL     1     -24.743  14.206 -30.065  1.00  0.00    -0.070 C 
ATOM      7  C   UNL     1     -23.276  14.213 -30.431  1.00  0.00     0.039 C 
ATOM      8  C   UNL     1     -25.519  15.478 -30.319  1.00  0.00     0.039 C 
ATOM      9  C   UNL     1     -26.795  13.023 -29.253  1.00  0.00     0.159 C 
ATOM     10  O   UNL     1     -27.618  13.655 -29.969  1.00  0.00    -0.295 OA
ATOM     11  C   UNL     1     -27.324  12.159 -28.144  1.00  0.00     0.084 C 
ENDROOT
TORSDOF 0
ENDMDL
MODEL 6
REMARK VINA RESULT:    -4.665      8.966     11.844
REMARK INTER + INTRA:          -4.665
REMARK INTER:                  -4.665
REMARK INTRA:                   0.000
REMARK UNBOUND:                 0.000
REMARK SMILES CC(C)=C1CC[C@H](C)CC1=O
REMARK SMILES IDX 8 1 7 2 6 3 5 4 4 5 2 6 1 7 3 8 10 9 11 10 9 11
REMARK H PARENT
REMARK Flexibility Score: inf
ROOT
ATOM      1  C   UNL     1     -29.415  11.375 -29.793  1.00  0.00     0.008 C 
ATOM      2  C   UNL     1     -28.604  12.500 -29.131  1.00  0.00    -0.006 C 
ATOM      3  C   UNL     1     -28.183  12.148 -27.693  1.00  0.00     0.008 C 
ATOM      4  C   UNL     1     -27.172  10.992 -27.628  1.00  0.00     0.039 C 
ATOM      5  C   UNL     1     -25.998  11.177 -28.579  1.00  0.00    -0.006 C 
ATOM      6  C   UNL     1     -24.766  10.663 -28.290  1.00  0.00    -0.070 C 
ATOM      7  C   UNL     1     -24.524   9.876 -27.022  1.00  0.00     0.039 C 
ATOM      8  C   UNL     1     -23.576  10.885 -29.196  1.00  0.00     0.039 C 
ATOM      9  C   UNL     1     -26.299  11.838 -29.883  1.00  0.00     0.159 C 
ATOM     10  O   UNL     1     -25.677  11.528 -30.935  1.00  0.00    -0.295 OA
ATOM     11  C   UNL     1     -27.373  12.884 -29.966  1.00  0.00     0.084 C 
ENDROOT
TORSDOF 0
ENDMDL
MODEL 7
REMARK VINA RESULT:    -4.524      1.842      2.426
REMARK INTER + INTRA:          -4.524
REMARK INTER:                  -4.524
REMARK INTRA:                   0.000
REMARK UNBOUND:                 0.000
REMARK SMILES CC(C)=C1CC[C@H](C)CC1=O
REMARK SMILES IDX 8 1 7 2 6 3 5 4 4 5 2 6 1 7 3 8 10 9 11 10 9 11
REMARK H PARENT
REMARK Flexibility Score: inf
ROOT
ATOM      1  C   UNL     1     -13.662  14.002 -32.376  1.00  0.00     0.008 C 
ATOM      2  C   UNL     1     -13.715  14.069 -30.842  1.00  0.00    -0.006 C 
ATOM      3  C   UNL     1     -14.978  14.786 -30.332  1.00  0.00     0.008 C 
ATOM      4  C   UNL     1     -16.272  14.011 -30.629  1.00  0.00     0.039 C 
ATOM      5  C   UNL     1     -16.193  12.547 -30.216  1.00  0.00    -0.006 C 
ATOM      6  C   UNL     1     -17.308  11.862 -29.825  1.00  0.00    -0.070 C 
ATOM      7  C   UNL     1     -18.667  12.525 -29.804  1.00  0.00     0.039 C 
ATOM      8  C   UNL     1     -17.239  10.425 -29.359  1.00  0.00     0.039 C 
ATOM      9  C   UNL     1     -14.866  11.883 -30.378  1.00  0.00     0.159 C 
ATOM     10  O   UNL     1     -14.775  10.661 -30.673  1.00  0.00    -0.295 OA
ATOM     11  C   UNL     1     -13.602  12.676 -30.205  1.00  0.00     0.084 C 
ENDROOT
TORSDOF 0
ENDMDL
MODEL 8
REMARK VINA RESULT:    -4.494      1.799      4.167
REMARK INTER + INTRA:          -4.494
REMARK INTER:                  -4.494
REMARK INTRA:                   0.000
REMARK UNBOUND:                 0.000
REMARK SMILES CC(C)=C1CC[C@H](C)CC1=O
REMARK SMILES IDX 8 1 7 2 6 3 5 4 4 5 2 6 1 7 3 8 10 9 11 10 9 11
REMARK H PARENT
REMARK Flexibility Score: inf
ROOT
ATOM      1  C   UNL     1     -16.265  11.641 -27.577  1.00  0.00     0.008 C 
ATOM      2  C   UNL     1     -17.058  11.978 -28.849  1.00  0.00    -0.006 C 
ATOM      3  C   UNL     1     -17.246  13.494 -29.036  1.00  0.00     0.008 C 
ATOM      4  C   UNL     1     -15.928  14.234 -29.318  1.00  0.00     0.039 C 
ATOM      5  C   UNL     1     -15.106  13.581 -30.420  1.00  0.00    -0.006 C 
ATOM      6  C   UNL     1     -14.281  14.320 -31.220  1.00  0.00    -0.070 C 
ATOM      7  C   UNL     1     -14.141  15.814 -31.030  1.00  0.00     0.039 C 
ATOM      8  C   UNL     1     -13.501  13.697 -32.354  1.00  0.00     0.039 C 
ATOM      9  C   UNL     1     -15.161  12.091 -30.494  1.00  0.00     0.159 C 
ATOM     10  O   UNL     1     -14.165  11.415 -30.870  1.00  0.00    -0.295 OA
ATOM     11  C   UNL     1     -16.415  11.364 -30.102  1.00  0.00     0.084 C 
ENDROOT
TORSDOF 0
ENDMDL
MODEL 9
REMARK VINA RESULT:    -4.480      8.396     11.103
REMARK INTER + INTRA:          -4.480
REMARK INTER:                  -4.480
REMARK INTRA:                   0.000
REMARK UNBOUND:                 0.000
REMARK SMILES CC(C)=C1CC[C@H](C)CC1=O
REMARK SMILES IDX 8 1 7 2 6 3 5 4 4 5 2 6 1 7 3 8 10 9 11 10 9 11
REMARK H PARENT
REMARK Flexibility Score: inf
ROOT
ATOM      1  C   UNL     1     -27.116  10.583 -27.723  1.00  0.00     0.008 C 
ATOM      2  C   UNL     1     -27.175  10.679 -29.255  1.00  0.00    -0.006 C 
ATOM      3  C   UNL     1     -27.898  11.951 -29.734  1.00  0.00     0.008 C 
ATOM      4  C   UNL     1     -27.133  13.241 -29.396  1.00  0.00     0.039 C 
ATOM      5  C   UNL     1     -25.666  13.184 -29.802  1.00  0.00    -0.006 C 
ATOM      6  C   UNL     1     -24.986  14.315 -30.157  1.00  0.00    -0.070 C 
ATOM      7  C   UNL     1     -25.659  15.669 -30.145  1.00  0.00     0.039 C 
ATOM      8  C   UNL     1     -23.547  14.268 -30.617  1.00  0.00     0.039 C 
ATOM      9  C   UNL     1     -24.994  11.857 -29.674  1.00  0.00     0.159 C 
ATOM     10  O   UNL     1     -23.773  11.767 -29.375  1.00  0.00    -0.295 OA
ATOM     11  C   UNL     1     -25.777  10.594 -29.887  1.00  0.00     0.084 C 
ENDROOT
TORSDOF 0
ENDMDL
