MODEL 1
REMARK VINA RESULT:    -3.470      0.000      0.000
REMARK INTER + INTRA:          -4.161
REMARK INTER:                  -4.079
REMARK INTRA:                  -0.082
REMARK UNBOUND:                -0.082
REMARK SMILES O=C([O-])CCC(=O)[O-]
REMARK SMILES IDX 4 1 2 2 1 3 3 4 5 5 6 6 7 7 8 8
REMARK H PARENT
REMARK Flexibility Score: inf
ROOT
ATOM      1  C   UNL     1      29.731  49.890  -6.354  1.00  0.00     0.059 C 
ENDROOT
BRANCH   1   2
ATOM      2  C   UNL     1      30.663  50.887  -5.738  1.00  0.00     0.042 C 
ATOM      3  O   UNL     1      31.164  50.670  -4.604  1.00  0.00    -0.550 OA
ATOM      4  O   UNL     1      31.012  52.037  -6.436  1.00  0.00    -0.550 OA
ENDBRANCH   1   2
BRANCH   1   5
ATOM      5  C   UNL     1      29.948  49.770  -7.866  1.00  0.00     0.059 C 
BRANCH   5   6
ATOM      6  C   UNL     1      30.565  48.455  -8.232  1.00  0.00     0.042 C 
ATOM      7  O   UNL     1      30.361  47.953  -9.368  1.00  0.00    -0.550 OA
ATOM      8  O   UNL     1      31.399  47.802  -7.332  1.00  0.00    -0.550 OA
ENDBRANCH   5   6
ENDBRANCH   1   5
TORSDOF 3
ENDMDL
MODEL 2
REMARK VINA RESULT:    -3.465      0.036      4.014
REMARK INTER + INTRA:          -4.154
REMARK INTER:                  -4.074
REMARK INTRA:                  -0.080
REMARK UNBOUND:                -0.082
REMARK SMILES O=C([O-])CCC(=O)[O-]
REMARK SMILES IDX 4 1 2 2 1 3 3 4 5 5 6 6 7 7 8 8
REMARK H PARENT
REMARK Flexibility Score: inf
ROOT
ATOM      1  C   UNL     1      29.975  49.766  -7.880  1.00  0.00     0.059 C 
ENDROOT
BRANCH   1   2
ATOM      2  C   UNL     1      30.566  48.444  -8.263  1.00  0.00     0.042 C 
ATOM      3  O   UNL     1      30.328  47.948  -9.396  1.00  0.00    -0.550 OA
ATOM      4  O   UNL     1      31.413  47.780  -7.386  1.00  0.00    -0.550 OA
ENDBRANCH   1   2
BRANCH   1   5
ATOM      5  C   UNL     1      29.761  49.874  -6.367  1.00  0.00     0.059 C 
BRANCH   5   6
ATOM      6  C   UNL     1      30.682  50.881  -5.749  1.00  0.00     0.042 C 
ATOM      7  O   UNL     1      31.166  50.680  -4.606  1.00  0.00    -0.550 OA
ATOM      8  O   UNL     1      31.037  52.025  -6.455  1.00  0.00    -0.550 OA
ENDBRANCH   5   6
ENDBRANCH   1   5
TORSDOF 3
ENDMDL
MODEL 3
REMARK VINA RESULT:    -3.461     15.349     16.062
REMARK INTER + INTRA:          -4.150
REMARK INTER:                  -4.097
REMARK INTRA:                  -0.052
REMARK UNBOUND:                -0.082
REMARK SMILES O=C([O-])CCC(=O)[O-]
REMARK SMILES IDX 4 1 2 2 1 3 3 4 5 5 6 6 7 7 8 8
REMARK H PARENT
REMARK Flexibility Score: inf
ROOT
ATOM      1  C   UNL     1      23.154  39.789   3.098  1.00  0.00     0.059 C 
ENDROOT
BRANCH   1   2
ATOM      2  C   UNL     1      22.404  39.728   1.802  1.00  0.00     0.042 C 
ATOM      3  O   UNL     1      21.890  38.645   1.418  1.00  0.00    -0.550 OA
ATOM      4  O   UNL     1      22.236  40.877   1.041  1.00  0.00    -0.550 OA
ENDBRANCH   1   2
BRANCH   1   5
ATOM      5  C   UNL     1      23.705  38.417   3.499  1.00  0.00     0.059 C 
BRANCH   5   6
ATOM      6  C   UNL     1      25.143  38.264   3.107  1.00  0.00     0.042 C 
ATOM      7  O   UNL     1      25.511  38.518   1.931  1.00  0.00    -0.550 OA
ATOM      8  O   UNL     1      26.085  37.879   4.054  1.00  0.00    -0.550 OA
ENDBRANCH   5   6
ENDBRANCH   1   5
TORSDOF 3
ENDMDL
MODEL 4
REMARK VINA RESULT:    -3.410     14.034     14.747
REMARK INTER + INTRA:          -4.090
REMARK INTER:                  -4.059
REMARK INTRA:                  -0.031
REMARK UNBOUND:                -0.082
REMARK SMILES O=C([O-])CCC(=O)[O-]
REMARK SMILES IDX 4 1 2 2 1 3 3 4 5 5 6 6 7 7 8 8
REMARK H PARENT
REMARK Flexibility Score: inf
ROOT
ATOM      1  C   UNL     1      22.778  41.048   1.827  1.00  0.00     0.059 C 
ENDROOT
BRANCH   1   2
ATOM      2  C   UNL     1      22.708  39.636   2.323  1.00  0.00     0.042 C 
ATOM      3  O   UNL     1      23.183  39.336   3.450  1.00  0.00    -0.550 OA
ATOM      4  O   UNL     1      22.081  38.661   1.559  1.00  0.00    -0.550 OA
ENDBRANCH   1   2
BRANCH   1   5
ATOM      5  C   UNL     1      22.162  41.190   0.431  1.00  0.00     0.059 C 
BRANCH   5   6
ATOM      6  C   UNL     1      22.067  42.625   0.013  1.00  0.00     0.042 C 
ATOM      7  O   UNL     1      20.944  43.184  -0.085  1.00  0.00    -0.550 OA
ATOM      8  O   UNL     1      23.223  43.358  -0.230  1.00  0.00    -0.550 OA
ENDBRANCH   5   6
ENDBRANCH   1   5
TORSDOF 3
ENDMDL
MODEL 5
REMARK VINA RESULT:    -3.381     14.191     14.795
REMARK INTER + INTRA:          -4.056
REMARK INTER:                  -4.023
REMARK INTRA:                  -0.033
REMARK UNBOUND:                -0.082
REMARK SMILES O=C([O-])CCC(=O)[O-]
REMARK SMILES IDX 4 1 2 2 1 3 3 4 5 5 6 6 7 7 8 8
REMARK H PARENT
REMARK Flexibility Score: inf
ROOT
ATOM      1  C   UNL     1      22.122  41.014   0.656  1.00  0.00     0.059 C 
ENDROOT
BRANCH   1   2
ATOM      2  C   UNL     1      22.108  42.431   0.171  1.00  0.00     0.042 C 
ATOM      3  O   UNL     1      21.015  43.005  -0.077  1.00  0.00    -0.550 OA
ATOM      4  O   UNL     1      23.300  43.132   0.034  1.00  0.00    -0.550 OA
ENDBRANCH   1   2
BRANCH   1   5
ATOM      5  C   UNL     1      22.791  40.891   2.029  1.00  0.00     0.059 C 
BRANCH   5   6
ATOM      6  C   UNL     1      22.806  39.473   2.511  1.00  0.00     0.042 C 
ATOM      7  O   UNL     1      22.212  38.576   1.859  1.00  0.00    -0.550 OA
ATOM      8  O   UNL     1      23.512  39.136   3.660  1.00  0.00    -0.550 OA
ENDBRANCH   5   6
ENDBRANCH   1   5
TORSDOF 3
ENDMDL
MODEL 6
REMARK VINA RESULT:    -3.304     16.460     17.033
REMARK INTER + INTRA:          -3.966
REMARK INTER:                  -3.853
REMARK INTRA:                  -0.112
REMARK UNBOUND:                -0.082
REMARK SMILES O=C([O-])CCC(=O)[O-]
REMARK SMILES IDX 4 1 2 2 1 3 3 4 5 5 6 6 7 7 8 8
REMARK H PARENT
REMARK Flexibility Score: inf
ROOT
ATOM      1  C   UNL     1      22.780  39.412   2.487  1.00  0.00     0.059 C 
ENDROOT
BRANCH   1   2
ATOM      2  C   UNL     1      23.686  39.487   3.678  1.00  0.00     0.042 C 
ATOM      3  O   UNL     1      24.580  38.618   3.849  1.00  0.00    -0.550 OA
ATOM      4  O   UNL     1      23.571  40.542   4.574  1.00  0.00    -0.550 OA
ENDBRANCH   1   2
BRANCH   1   5
ATOM      5  C   UNL     1      22.911  38.069   1.760  1.00  0.00     0.059 C 
BRANCH   5   6
ATOM      6  C   UNL     1      21.766  37.156   2.078  1.00  0.00     0.042 C 
ATOM      7  O   UNL     1      20.969  36.799   1.172  1.00  0.00    -0.550 OA
ATOM      8  O   UNL     1      21.604  36.666   3.369  1.00  0.00    -0.550 OA
ENDBRANCH   5   6
ENDBRANCH   1   5
TORSDOF 3
ENDMDL
MODEL 7
REMARK VINA RESULT:    -3.290     16.451     17.377
REMARK INTER + INTRA:          -3.949
REMARK INTER:                  -3.833
REMARK INTRA:                  -0.116
REMARK UNBOUND:                -0.082
REMARK SMILES O=C([O-])CCC(=O)[O-]
REMARK SMILES IDX 4 1 2 2 1 3 3 4 5 5 6 6 7 7 8 8
REMARK H PARENT
REMARK Flexibility Score: inf
ROOT
ATOM      1  C   UNL     1      22.916  38.056   1.771  1.00  0.00     0.059 C 
ENDROOT
BRANCH   1   2
ATOM      2  C   UNL     1      21.770  37.152   2.105  1.00  0.00     0.042 C 
ATOM      3  O   UNL     1      20.950  36.812   1.212  1.00  0.00    -0.550 OA
ATOM      4  O   UNL     1      21.632  36.650   3.392  1.00  0.00    -0.550 OA
ENDBRANCH   1   2
BRANCH   1   5
ATOM      5  C   UNL     1      22.764  39.431   2.429  1.00  0.00     0.059 C 
BRANCH   5   6
ATOM      6  C   UNL     1      23.626  39.559   3.647  1.00  0.00     0.042 C 
ATOM      7  O   UNL     1      24.516  38.703   3.886  1.00  0.00    -0.550 OA
ATOM      8  O   UNL     1      23.472  40.648   4.498  1.00  0.00    -0.550 OA
ENDBRANCH   5   6
ENDBRANCH   1   5
TORSDOF 3
ENDMDL
MODEL 8
REMARK VINA RESULT:    -3.220     16.375     17.024
REMARK INTER + INTRA:          -3.867
REMARK INTER:                  -3.761
REMARK INTRA:                  -0.105
REMARK UNBOUND:                -0.082
REMARK SMILES O=C([O-])CCC(=O)[O-]
REMARK SMILES IDX 4 1 2 2 1 3 3 4 5 5 6 6 7 7 8 8
REMARK H PARENT
REMARK Flexibility Score: inf
ROOT
ATOM      1  C   UNL     1      24.027  38.409   2.023  1.00  0.00     0.059 C 
ENDROOT
BRANCH   1   2
ATOM      2  C   UNL     1      24.604  38.674   3.380  1.00  0.00     0.042 C 
ATOM      3  O   UNL     1      23.999  39.425   4.190  1.00  0.00    -0.550 OA
ATOM      4  O   UNL     1      25.788  38.059   3.765  1.00  0.00    -0.550 OA
ENDBRANCH   1   2
BRANCH   1   5
ATOM      5  C   UNL     1      22.512  38.639   1.997  1.00  0.00     0.059 C 
BRANCH   5   6
ATOM      6  C   UNL     1      21.757  37.346   2.028  1.00  0.00     0.042 C 
ATOM      7  O   UNL     1      21.684  36.679   3.092  1.00  0.00    -0.550 OA
ATOM      8  O   UNL     1      21.098  36.897   0.889  1.00  0.00    -0.550 OA
ENDBRANCH   5   6
ENDBRANCH   1   5
TORSDOF 3
ENDMDL
MODEL 9
REMARK VINA RESULT:    -3.177     16.551     17.121
REMARK INTER + INTRA:          -3.816
REMARK INTER:                  -3.789
REMARK INTRA:                  -0.027
REMARK UNBOUND:                -0.082
REMARK SMILES O=C([O-])CCC(=O)[O-]
REMARK SMILES IDX 4 1 2 2 1 3 3 4 5 5 6 6 7 7 8 8
REMARK H PARENT
REMARK Flexibility Score: inf
ROOT
ATOM      1  C   UNL     1      22.732  37.738   3.076  1.00  0.00     0.059 C 
ENDROOT
BRANCH   1   2
ATOM      2  C   UNL     1      23.811  38.692   3.489  1.00  0.00     0.042 C 
ATOM      3  O   UNL     1      23.513  39.787   4.035  1.00  0.00    -0.550 OA
ATOM      4  O   UNL     1      25.146  38.354   3.308  1.00  0.00    -0.550 OA
ENDBRANCH   1   2
BRANCH   1   5
ATOM      5  C   UNL     1      22.160  38.091   1.700  1.00  0.00     0.059 C 
BRANCH   5   6
ATOM      6  C   UNL     1      21.520  36.904   1.047  1.00  0.00     0.042 C 
ATOM      7  O   UNL     1      20.619  36.260   1.645  1.00  0.00    -0.550 OA
ATOM      8  O   UNL     1      21.892  36.532  -0.240  1.00  0.00    -0.550 OA
ENDBRANCH   5   6
ENDBRANCH   1   5
TORSDOF 3
ENDMDL
