MODEL 1
REMARK VINA RESULT:    -6.115      0.000      0.000
REMARK INTER + INTRA:          -6.294
REMARK INTER:                  -6.294
REMARK INTRA:                   0.000
REMARK UNBOUND:                 0.000
REMARK SMILES Nc1ncnc2nc[nH]c12
REMARK SMILES IDX 8 1 7 2 6 3 5 4 4 5 3 6 2 7 10 8 9 9 1 11
REMARK H PARENT 9 10 1 12 1 13
REMARK Flexibility Score: inf
ROOT
ATOM      1  C   UNL     1     -34.548  -1.187  -8.541  1.00  0.00     0.199 A 
ATOM      2  N   UNL     1     -35.410  -2.236  -8.440  1.00  0.00    -0.217 NA
ATOM      3  C   UNL     1     -36.511  -1.758  -9.043  1.00  0.00     0.182 A 
ATOM      4  N   UNL     1     -37.684  -2.413  -9.218  1.00  0.00    -0.215 NA
ATOM      5  C   UNL     1     -38.699  -1.759  -9.860  1.00  0.00     0.226 A 
ATOM      6  N   UNL     1     -38.523  -0.475 -10.311  1.00  0.00    -0.217 NA
ATOM      7  C   UNL     1     -37.341   0.187 -10.136  1.00  0.00     0.152 A 
ATOM      8  C   UNL     1     -36.318  -0.493  -9.480  1.00  0.00     0.127 A 
ATOM      9  N   UNL     1     -35.074  -0.107  -9.172  1.00  0.00    -0.340 N 
ATOM     10  H   UNL     1     -34.607   0.806  -9.365  1.00  0.00     0.168 HD
ENDROOT
BRANCH   7  11
ATOM     11  N   UNL     1     -37.181   1.524 -10.614  1.00  0.00    -0.382 N 
ATOM     12  H   UNL     1     -36.550   2.186 -10.111  1.00  0.00     0.158 HD
ATOM     13  H   UNL     1     -37.685   1.861 -11.463  1.00  0.00     0.158 HD
ENDBRANCH   7  11
TORSDOF 1
ENDMDL
MODEL 2
REMARK VINA RESULT:    -6.087      1.698      3.867
REMARK INTER + INTRA:          -6.265
REMARK INTER:                  -6.265
REMARK INTRA:                   0.000
REMARK UNBOUND:                 0.000
REMARK SMILES Nc1ncnc2nc[nH]c12
REMARK SMILES IDX 8 1 7 2 6 3 5 4 4 5 3 6 2 7 10 8 9 9 1 11
REMARK H PARENT 9 10 1 12 1 13
REMARK Flexibility Score: inf
ROOT
ATOM      1  C   UNL     1     -36.572  -0.705  -9.641  1.00  0.00     0.199 A 
ATOM      2  N   UNL     1     -36.429  -2.055  -9.736  1.00  0.00    -0.217 NA
ATOM      3  C   UNL     1     -35.239  -2.257  -9.145  1.00  0.00     0.182 A 
ATOM      4  N   UNL     1     -34.616  -3.447  -8.970  1.00  0.00    -0.215 NA
ATOM      5  C   UNL     1     -33.402  -3.453  -8.341  1.00  0.00     0.226 A 
ATOM      6  N   UNL     1     -32.839  -2.281  -7.903  1.00  0.00    -0.217 NA
ATOM      7  C   UNL     1     -33.466  -1.080  -8.079  1.00  0.00     0.152 A 
ATOM      8  C   UNL     1     -34.702  -1.091  -8.721  1.00  0.00     0.127 A 
ATOM      9  N   UNL     1     -35.533  -0.087  -9.026  1.00  0.00    -0.340 N 
ATOM     10  H   UNL     1     -35.420   0.934  -8.840  1.00  0.00     0.168 HD
ENDROOT
BRANCH   7  11
ATOM     11  N   UNL     1     -32.861   0.128  -7.614  1.00  0.00    -0.382 N 
ATOM     12  H   UNL     1     -31.949   0.093  -7.108  1.00  0.00     0.158 HD
ATOM     13  H   UNL     1     -33.311   1.056  -7.769  1.00  0.00     0.158 HD
ENDBRANCH   7  11
TORSDOF 1
ENDMDL
MODEL 3
REMARK VINA RESULT:    -5.829      1.645      3.724
REMARK INTER + INTRA:          -5.999
REMARK INTER:                  -5.999
REMARK INTRA:                   0.000
REMARK UNBOUND:                 0.000
REMARK SMILES Nc1ncnc2nc[nH]c12
REMARK SMILES IDX 8 1 7 2 6 3 5 4 4 5 3 6 2 7 10 8 9 9 1 11
REMARK H PARENT 9 10 1 12 1 13
REMARK Flexibility Score: inf
ROOT
ATOM      1  C   UNL     1     -36.424  -0.205  -9.918  1.00  0.00     0.199 A 
ATOM      2  N   UNL     1     -36.564  -1.555 -10.016  1.00  0.00    -0.217 NA
ATOM      3  C   UNL     1     -35.485  -2.002  -9.351  1.00  0.00     0.182 A 
ATOM      4  N   UNL     1     -35.141  -3.296  -9.148  1.00  0.00    -0.215 NA
ATOM      5  C   UNL     1     -34.000  -3.557  -8.441  1.00  0.00     0.226 A 
ATOM      6  N   UNL     1     -33.232  -2.528  -7.955  1.00  0.00    -0.217 NA
ATOM      7  C   UNL     1     -33.578  -1.223  -8.160  1.00  0.00     0.152 A 
ATOM      8  C   UNL     1     -34.743  -0.974  -8.881  1.00  0.00     0.127 A 
ATOM      9  N   UNL     1     -35.321   0.182  -9.229  1.00  0.00    -0.340 N 
ATOM     10  H   UNL     1     -35.007   1.156  -9.027  1.00  0.00     0.168 HD
ENDROOT
BRANCH   7  11
ATOM     11  N   UNL     1     -32.762  -0.168  -7.645  1.00  0.00    -0.382 N 
ATOM     12  H   UNL     1     -32.573   0.677  -8.227  1.00  0.00     0.158 HD
ATOM     13  H   UNL     1     -32.346  -0.221  -6.690  1.00  0.00     0.158 HD
ENDBRANCH   7  11
TORSDOF 1
ENDMDL
MODEL 4
REMARK VINA RESULT:    -5.621      1.501      1.939
REMARK INTER + INTRA:          -5.786
REMARK INTER:                  -5.786
REMARK INTRA:                   0.000
REMARK UNBOUND:                 0.000
REMARK SMILES Nc1ncnc2nc[nH]c12
REMARK SMILES IDX 8 1 7 2 6 3 5 4 4 5 3 6 2 7 10 8 9 9 1 11
REMARK H PARENT 9 10 1 12 1 13
REMARK Flexibility Score: inf
ROOT
ATOM      1  C   UNL     1     -32.868  -1.620  -8.037  1.00  0.00     0.199 A 
ATOM      2  N   UNL     1     -33.543  -2.797  -7.935  1.00  0.00    -0.217 NA
ATOM      3  C   UNL     1     -34.702  -2.515  -8.552  1.00  0.00     0.182 A 
ATOM      4  N   UNL     1     -35.748  -3.358  -8.732  1.00  0.00    -0.215 NA
ATOM      5  C   UNL     1     -36.850  -2.887  -9.390  1.00  0.00     0.226 A 
ATOM      6  N   UNL     1     -36.887  -1.595  -9.852  1.00  0.00    -0.217 NA
ATOM      7  C   UNL     1     -35.833  -0.744  -9.671  1.00  0.00     0.152 A 
ATOM      8  C   UNL     1     -34.718  -1.238  -9.000  1.00  0.00     0.127 A 
ATOM      9  N   UNL     1     -33.560  -0.648  -8.683  1.00  0.00    -0.340 N 
ATOM     10  H   UNL     1     -33.250   0.329  -8.880  1.00  0.00     0.168 HD
ENDROOT
BRANCH   7  11
ATOM     11  N   UNL     1     -35.894   0.597 -10.160  1.00  0.00    -0.382 N 
ATOM     12  H   UNL     1     -36.819   1.057 -10.308  1.00  0.00     0.158 HD
ATOM     13  H   UNL     1     -35.028   1.137 -10.376  1.00  0.00     0.158 HD
ENDBRANCH   7  11
TORSDOF 1
ENDMDL
MODEL 5
REMARK VINA RESULT:    -5.286      1.198      2.543
REMARK INTER + INTRA:          -5.441
REMARK INTER:                  -5.441
REMARK INTRA:                   0.000
REMARK UNBOUND:                 0.000
REMARK SMILES Nc1ncnc2nc[nH]c12
REMARK SMILES IDX 8 1 7 2 6 3 5 4 4 5 3 6 2 7 10 8 9 9 1 11
REMARK H PARENT 9 10 1 12 1 13
REMARK Flexibility Score: inf
ROOT
ATOM      1  C   UNL     1     -35.674  -3.010  -9.110  1.00  0.00     0.199 A 
ATOM      2  N   UNL     1     -35.123  -1.797  -9.389  1.00  0.00    -0.217 NA
ATOM      3  C   UNL     1     -36.189  -1.087  -9.793  1.00  0.00     0.182 A 
ATOM      4  N   UNL     1     -36.193   0.208 -10.192  1.00  0.00    -0.215 NA
ATOM      5  C   UNL     1     -37.384   0.763 -10.570  1.00  0.00     0.226 A 
ATOM      6  N   UNL     1     -38.538   0.021 -10.541  1.00  0.00    -0.217 NA
ATOM      7  C   UNL     1     -38.536  -1.284 -10.139  1.00  0.00     0.152 A 
ATOM      8  C   UNL     1     -37.315  -1.835  -9.757  1.00  0.00     0.127 A 
ATOM      9  N   UNL     1     -37.012  -3.065  -9.326  1.00  0.00    -0.340 N 
ATOM     10  H   UNL     1     -37.646  -3.882  -9.184  1.00  0.00     0.168 HD
ENDROOT
BRANCH   7  11
ATOM     11  N   UNL     1     -39.750  -2.037 -10.118  1.00  0.00    -0.382 N 
ATOM     12  H   UNL     1     -39.727  -3.070 -10.270  1.00  0.00     0.158 HD
ATOM     13  H   UNL     1     -40.672  -1.578  -9.951  1.00  0.00     0.158 HD
ENDBRANCH   7  11
TORSDOF 1
ENDMDL
MODEL 6
REMARK VINA RESULT:    -5.278      2.057      4.606
REMARK INTER + INTRA:          -5.432
REMARK INTER:                  -5.432
REMARK INTRA:                   0.000
REMARK UNBOUND:                 0.000
REMARK SMILES Nc1ncnc2nc[nH]c12
REMARK SMILES IDX 8 1 7 2 6 3 5 4 4 5 3 6 2 7 10 8 9 9 1 11
REMARK H PARENT 9 10 1 12 1 13
REMARK Flexibility Score: inf
ROOT
ATOM      1  C   UNL     1     -36.820  -2.632  -9.176  1.00  0.00     0.199 A 
ATOM      2  N   UNL     1     -36.545  -1.327  -8.910  1.00  0.00    -0.217 NA
ATOM      3  C   UNL     1     -35.274  -1.387  -8.479  1.00  0.00     0.182 A 
ATOM      4  N   UNL     1     -34.507  -0.344  -8.078  1.00  0.00    -0.215 NA
ATOM      5  C   UNL     1     -33.227  -0.603  -7.671  1.00  0.00     0.226 A 
ATOM      6  N   UNL     1     -32.743  -1.887  -7.673  1.00  0.00    -0.217 NA
ATOM      7  C   UNL     1     -33.515  -2.939  -8.077  1.00  0.00     0.152 A 
ATOM      8  C   UNL     1     -34.815  -2.659  -8.489  1.00  0.00     0.127 A 
ATOM      9  N   UNL     1     -35.783  -3.471  -8.929  1.00  0.00    -0.340 N 
ATOM     10  H   UNL     1     -35.759  -4.507  -9.056  1.00  0.00     0.168 HD
ENDROOT
BRANCH   7  11
ATOM     11  N   UNL     1     -32.989  -4.268  -8.070  1.00  0.00    -0.382 N 
ATOM     12  H   UNL     1     -32.024  -4.449  -8.423  1.00  0.00     0.158 HD
ATOM     13  H   UNL     1     -33.551  -5.073  -7.717  1.00  0.00     0.158 HD
ENDBRANCH   7  11
TORSDOF 1
ENDMDL
MODEL 7
REMARK VINA RESULT:    -5.277      2.163      3.491
REMARK INTER + INTRA:          -5.431
REMARK INTER:                  -5.431
REMARK INTRA:                   0.000
REMARK UNBOUND:                 0.000
REMARK SMILES Nc1ncnc2nc[nH]c12
REMARK SMILES IDX 8 1 7 2 6 3 5 4 4 5 3 6 2 7 10 8 9 9 1 11
REMARK H PARENT 9 10 1 12 1 13
REMARK Flexibility Score: inf
ROOT
ATOM      1  C   UNL     1     -32.678  -3.979  -7.839  1.00  0.00     0.199 A 
ATOM      2  N   UNL     1     -33.802  -4.252  -8.555  1.00  0.00    -0.217 NA
ATOM      3  C   UNL     1     -34.384  -3.044  -8.644  1.00  0.00     0.182 A 
ATOM      4  N   UNL     1     -35.551  -2.754  -9.268  1.00  0.00    -0.215 NA
ATOM      5  C   UNL     1     -35.985  -1.457  -9.252  1.00  0.00     0.226 A 
ATOM      6  N   UNL     1     -35.251  -0.485  -8.620  1.00  0.00    -0.217 NA
ATOM      7  C   UNL     1     -34.075  -0.777  -7.990  1.00  0.00     0.152 A 
ATOM      8  C   UNL     1     -33.646  -2.101  -8.015  1.00  0.00     0.127 A 
ATOM      9  N   UNL     1     -32.554  -2.673  -7.494  1.00  0.00    -0.340 N 
ATOM     10  H   UNL     1     -31.782  -2.230  -6.949  1.00  0.00     0.168 HD
ENDROOT
BRANCH   7  11
ATOM     11  N   UNL     1     -33.328   0.252  -7.337  1.00  0.00    -0.382 N 
ATOM     12  H   UNL     1     -32.303   0.133  -7.180  1.00  0.00     0.158 HD
ATOM     13  H   UNL     1     -33.785   1.131  -7.009  1.00  0.00     0.158 HD
ENDBRANCH   7  11
TORSDOF 1
ENDMDL
MODEL 8
REMARK VINA RESULT:    -5.212      0.964      2.940
REMARK INTER + INTRA:          -5.365
REMARK INTER:                  -5.365
REMARK INTRA:                   0.000
REMARK UNBOUND:                 0.000
REMARK SMILES Nc1ncnc2nc[nH]c12
REMARK SMILES IDX 8 1 7 2 6 3 5 4 4 5 3 6 2 7 10 8 9 9 1 11
REMARK H PARENT 9 10 1 12 1 13
REMARK Flexibility Score: inf
ROOT
ATOM      1  C   UNL     1     -39.530  -1.417 -10.211  1.00  0.00     0.199 A 
ATOM      2  N   UNL     1     -38.863  -2.384  -9.524  1.00  0.00    -0.217 NA
ATOM      3  C   UNL     1     -37.620  -1.878  -9.456  1.00  0.00     0.182 A 
ATOM      4  N   UNL     1     -36.545  -2.454  -8.865  1.00  0.00    -0.215 NA
ATOM      5  C   UNL     1     -35.354  -1.782  -8.898  1.00  0.00     0.226 A 
ATOM      6  N   UNL     1     -35.261  -0.560  -9.514  1.00  0.00    -0.217 NA
ATOM      7  C   UNL     1     -36.344   0.021 -10.111  1.00  0.00     0.152 A 
ATOM      8  C   UNL     1     -37.549  -0.675 -10.069  1.00  0.00     0.127 A 
ATOM      9  N   UNL     1     -38.754  -0.359 -10.558  1.00  0.00    -0.340 N 
ATOM     10  H   UNL     1     -39.043   0.495 -11.084  1.00  0.00     0.168 HD
ENDROOT
BRANCH   7  11
ATOM     11  N   UNL     1     -36.223   1.295 -10.747  1.00  0.00    -0.382 N 
ATOM     12  H   UNL     1     -35.299   1.780 -10.772  1.00  0.00     0.158 HD
ATOM     13  H   UNL     1     -37.044   1.759 -11.194  1.00  0.00     0.158 HD
ENDBRANCH   7  11
TORSDOF 1
ENDMDL
MODEL 9
REMARK VINA RESULT:    -4.973      2.525      4.143
REMARK INTER + INTRA:          -5.118
REMARK INTER:                  -5.118
REMARK INTRA:                   0.000
REMARK UNBOUND:                 0.000
REMARK SMILES Nc1ncnc2nc[nH]c12
REMARK SMILES IDX 8 1 7 2 6 3 5 4 4 5 3 6 2 7 10 8 9 9 1 11
REMARK H PARENT 9 10 1 12 1 13
REMARK Flexibility Score: inf
ROOT
ATOM      1  C   UNL     1     -32.877  -0.298  -7.381  1.00  0.00     0.199 A 
ATOM      2  N   UNL     1     -34.150  -0.049  -7.795  1.00  0.00    -0.217 NA
ATOM      3  C   UNL     1     -34.577  -1.273  -8.149  1.00  0.00     0.182 A 
ATOM      4  N   UNL     1     -35.801  -1.591  -8.637  1.00  0.00    -0.215 NA
ATOM      5  C   UNL     1     -36.053  -2.899  -8.942  1.00  0.00     0.226 A 
ATOM      6  N   UNL     1     -35.088  -3.857  -8.754  1.00  0.00    -0.217 NA
ATOM      7  C   UNL     1     -33.854  -3.538  -8.262  1.00  0.00     0.152 A 
ATOM      8  C   UNL     1     -33.613  -2.201  -7.956  1.00  0.00     0.127 A 
ATOM      9  N   UNL     1     -32.520  -1.604  -7.467  1.00  0.00    -0.340 N 
ATOM     10  H   UNL     1     -31.602  -2.030  -7.210  1.00  0.00     0.168 HD
ENDROOT
BRANCH   7  11
ATOM     11  N   UNL     1     -32.865  -4.552  -8.075  1.00  0.00    -0.382 N 
ATOM     12  H   UNL     1     -33.103  -5.552  -8.252  1.00  0.00     0.158 HD
ATOM     13  H   UNL     1     -31.898  -4.316  -7.761  1.00  0.00     0.158 HD
ENDBRANCH   7  11
TORSDOF 1
ENDMDL
