MODEL 1
REMARK VINA RESULT:    -7.503      0.000      0.000
REMARK INTER + INTRA:          -9.337
REMARK INTER:                  -9.038
REMARK INTRA:                  -0.299
REMARK UNBOUND:                -0.299
REMARK SMILES O=c1c(O)c(-c2ccc(O)c(O)c2)oc2cc(O)cc(O)c12
REMARK SMILES IDX 5 1 3 2 2 3 1 4 22 5 20 6 19 7 17 8 16 9 15 10 14 11 6 12
REMARK SMILES IDX 7 13 8 14 9 15 13 16 11 17 10 18 12 20 4 22 21 24 18 26
REMARK H PARENT 10 19 12 21 4 23 21 25 18 27
REMARK Flexibility Score: inf
ROOT
ATOM      1  C   UNL     1      -7.065 -21.922 -20.023  1.00  0.00     0.180 A 
ATOM      2  C   UNL     1      -6.099 -21.064 -19.471  1.00  0.00     0.208 A 
ATOM      3  C   UNL     1      -5.810 -21.156 -18.100  1.00  0.00     0.238 A 
ATOM      4  O   UNL     1      -4.999 -20.334 -17.598  1.00  0.00    -0.285 OA
ATOM      5  C   UNL     1      -6.450 -22.141 -17.309  1.00  0.00     0.111 A 
ATOM      6  C   UNL     1      -6.202 -22.354 -15.918  1.00  0.00     0.134 A 
ATOM      7  C   UNL     1      -6.972 -23.288 -15.215  1.00  0.00     0.093 A 
ATOM      8  C   UNL     1      -7.937 -24.062 -15.864  1.00  0.00     0.123 A 
ATOM      9  C   UNL     1      -8.148 -23.901 -17.231  1.00  0.00     0.094 A 
ATOM     10  C   UNL     1      -7.422 -22.950 -17.953  1.00  0.00     0.146 A 
ATOM     11  O   UNL     1      -7.672 -22.814 -19.250  1.00  0.00    -0.452 OA
ENDROOT
BRANCH   1  12
ATOM     12  C   UNL     1      -7.433 -21.876 -21.456  1.00  0.00     0.025 A 
ATOM     13  C   UNL     1      -6.635 -22.490 -22.437  1.00  0.00     0.016 A 
ATOM     14  C   UNL     1      -6.990 -22.412 -23.786  1.00  0.00     0.051 A 
ATOM     15  C   UNL     1      -8.137 -21.710 -24.177  1.00  0.00     0.157 A 
ATOM     16  C   UNL     1      -8.571 -21.156 -21.855  1.00  0.00     0.062 A 
ATOM     17  C   UNL     1      -8.930 -21.076 -23.205  1.00  0.00     0.158 A 
BRANCH  15  18
ATOM     18  O   UNL     1      -8.490 -21.636 -25.524  1.00  0.00    -0.504 OA
ATOM     19  H   UNL     1      -9.008 -22.377 -25.978  1.00  0.00     0.293 HD
ENDBRANCH  15  18
BRANCH  17  20
ATOM     20  O   UNL     1     -10.074 -20.364 -23.561  1.00  0.00    -0.504 OA
ATOM     21  H   UNL     1     -10.265 -20.095 -24.518  1.00  0.00     0.293 HD
ENDBRANCH  17  20
ENDBRANCH   1  12
BRANCH   2  22
ATOM     22  O   UNL     1      -5.423 -20.150 -20.283  1.00  0.00    -0.502 OA
ATOM     23  H   UNL     1      -4.640 -20.416 -20.869  1.00  0.00     0.293 HD
ENDBRANCH   2  22
BRANCH   6  24
ATOM     24  O   UNL     1      -5.202 -21.699 -15.192  1.00  0.00    -0.507 OA
ATOM     25  H   UNL     1      -4.211 -21.812 -15.341  1.00  0.00     0.293 HD
ENDBRANCH   6  24
BRANCH   8  26
ATOM     26  O   UNL     1      -8.686 -25.002 -15.160  1.00  0.00    -0.508 OA
ATOM     27  H   UNL     1      -9.141 -24.769 -14.285  1.00  0.00     0.293 HD
ENDBRANCH   8  26
TORSDOF 6
ENDMDL
MODEL 2
REMARK VINA RESULT:    -6.660      1.557      6.966
REMARK INTER + INTRA:          -8.322
REMARK INTER:                  -8.022
REMARK INTRA:                  -0.299
REMARK UNBOUND:                -0.299
REMARK SMILES O=c1c(O)c(-c2ccc(O)c(O)c2)oc2cc(O)cc(O)c12
REMARK SMILES IDX 5 1 3 2 2 3 1 4 22 5 20 6 19 7 17 8 16 9 15 10 14 11 6 12
REMARK SMILES IDX 7 13 8 14 9 15 13 16 11 17 10 18 12 20 4 22 21 24 18 26
REMARK H PARENT 10 19 12 21 4 23 21 25 18 27
REMARK Flexibility Score: inf
ROOT
ATOM      1  C   UNL     1      -6.852 -22.437 -20.032  1.00  0.00     0.180 A 
ATOM      2  C   UNL     1      -5.954 -23.109 -20.879  1.00  0.00     0.208 A 
ATOM      3  C   UNL     1      -6.118 -23.000 -22.269  1.00  0.00     0.238 A 
ATOM      4  O   UNL     1      -5.357 -23.664 -23.021  1.00  0.00    -0.285 OA
ATOM      5  C   UNL     1      -7.142 -22.175 -22.797  1.00  0.00     0.111 A 
ATOM      6  C   UNL     1      -7.372 -21.956 -24.189  1.00  0.00     0.134 A 
ATOM      7  C   UNL     1      -8.482 -21.205 -24.595  1.00  0.00     0.093 A 
ATOM      8  C   UNL     1      -9.333 -20.613 -23.659  1.00  0.00     0.123 A 
ATOM      9  C   UNL     1      -9.085 -20.775 -22.298  1.00  0.00     0.094 A 
ATOM     10  C   UNL     1      -8.008 -21.551 -21.862  1.00  0.00     0.146 A 
ATOM     11  O   UNL     1      -7.822 -21.698 -20.556  1.00  0.00    -0.452 OA
ENDROOT
BRANCH   1  12
ATOM     12  C   UNL     1      -6.753 -22.515 -18.557  1.00  0.00     0.025 A 
ATOM     13  C   UNL     1      -5.824 -21.737 -17.844  1.00  0.00     0.016 A 
ATOM     14  C   UNL     1      -5.732 -21.847 -16.454  1.00  0.00     0.051 A 
ATOM     15  C   UNL     1      -6.554 -22.743 -15.758  1.00  0.00     0.157 A 
ATOM     16  C   UNL     1      -7.560 -23.427 -17.858  1.00  0.00     0.062 A 
ATOM     17  C   UNL     1      -7.471 -23.538 -16.466  1.00  0.00     0.158 A 
BRANCH  15  18
ATOM     18  O   UNL     1      -6.461 -22.847 -14.371  1.00  0.00    -0.504 OA
ATOM     19  H   UNL     1      -7.160 -23.339 -13.828  1.00  0.00     0.293 HD
ENDBRANCH  15  18
BRANCH  17  20
ATOM     20  O   UNL     1      -8.298 -24.445 -15.804  1.00  0.00    -0.504 OA
ATOM     21  H   UNL     1      -8.834 -25.146 -16.300  1.00  0.00     0.293 HD
ENDBRANCH  17  20
ENDBRANCH   1  12
BRANCH   2  22
ATOM     22  O   UNL     1      -4.903 -23.856 -20.340  1.00  0.00    -0.502 OA
ATOM     23  H   UNL     1      -4.824 -24.858 -20.471  1.00  0.00     0.293 HD
ENDBRANCH   2  22
BRANCH   6  24
ATOM     24  O   UNL     1      -6.534 -22.426 -25.205  1.00  0.00    -0.507 OA
ATOM     25  H   UNL     1      -6.275 -23.392 -25.339  1.00  0.00     0.293 HD
ENDBRANCH   6  24
BRANCH   8  26
ATOM     26  O   UNL     1     -10.425 -19.852 -24.072  1.00  0.00    -0.508 OA
ATOM     27  H   UNL     1     -10.430 -18.842 -23.985  1.00  0.00     0.293 HD
ENDBRANCH   8  26
TORSDOF 6
ENDMDL
MODEL 3
REMARK VINA RESULT:    -6.287      1.533      3.084
REMARK INTER + INTRA:          -7.872
REMARK INTER:                  -8.118
REMARK INTRA:                   0.246
REMARK UNBOUND:                -0.299
REMARK SMILES O=c1c(O)c(-c2ccc(O)c(O)c2)oc2cc(O)cc(O)c12
REMARK SMILES IDX 5 1 3 2 2 3 1 4 22 5 20 6 19 7 17 8 16 9 15 10 14 11 6 12
REMARK SMILES IDX 7 13 8 14 9 15 13 16 11 17 10 18 12 20 4 22 21 24 18 26
REMARK H PARENT 10 19 12 21 4 23 21 25 18 27
REMARK Flexibility Score: inf
ROOT
ATOM      1  C   UNL     1      -6.921 -22.680 -20.644  1.00  0.00     0.180 A 
ATOM      2  C   UNL     1      -7.925 -23.639 -20.427  1.00  0.00     0.208 A 
ATOM      3  C   UNL     1      -8.228 -24.022 -19.110  1.00  0.00     0.238 A 
ATOM      4  O   UNL     1      -9.075 -24.935 -18.927  1.00  0.00    -0.285 OA
ATOM      5  C   UNL     1      -7.564 -23.400 -18.024  1.00  0.00     0.111 A 
ATOM      6  C   UNL     1      -7.823 -23.678 -16.647  1.00  0.00     0.134 A 
ATOM      7  C   UNL     1      -7.028 -23.079 -15.661  1.00  0.00     0.093 A 
ATOM      8  C   UNL     1      -6.028 -22.166 -15.999  1.00  0.00     0.123 A 
ATOM      9  C   UNL     1      -5.804 -21.846 -17.336  1.00  0.00     0.094 A 
ATOM     10  C   UNL     1      -6.554 -22.456 -18.345  1.00  0.00     0.146 A 
ATOM     11  O   UNL     1      -6.293 -22.139 -19.607  1.00  0.00    -0.452 OA
ENDROOT
BRANCH   1  12
ATOM     12  C   UNL     1      -6.535 -22.237 -22.003  1.00  0.00     0.025 A 
ATOM     13  C   UNL     1      -5.210 -21.881 -22.308  1.00  0.00     0.016 A 
ATOM     14  C   UNL     1      -4.875 -21.441 -23.591  1.00  0.00     0.051 A 
ATOM     15  C   UNL     1      -5.859 -21.336 -24.583  1.00  0.00     0.157 A 
ATOM     16  C   UNL     1      -7.522 -22.110 -22.994  1.00  0.00     0.062 A 
ATOM     17  C   UNL     1      -7.190 -21.670 -24.280  1.00  0.00     0.158 A 
BRANCH  15  18
ATOM     18  O   UNL     1      -5.521 -20.899 -25.863  1.00  0.00    -0.504 OA
ATOM     19  H   UNL     1      -4.556 -20.830 -26.162  1.00  0.00     0.293 HD
ENDBRANCH  15  18
BRANCH  17  20
ATOM     20  O   UNL     1      -8.194 -21.571 -25.243  1.00  0.00    -0.504 OA
ATOM     21  H   UNL     1      -8.215 -22.165 -26.062  1.00  0.00     0.293 HD
ENDBRANCH  17  20
ENDBRANCH   1  12
BRANCH   2  22
ATOM     22  O   UNL     1      -8.623 -24.185 -21.507  1.00  0.00    -0.502 OA
ATOM     23  H   UNL     1      -9.628 -24.316 -21.497  1.00  0.00     0.293 HD
ENDBRANCH   2  22
BRANCH   6  24
ATOM     24  O   UNL     1      -8.855 -24.506 -16.196  1.00  0.00    -0.507 OA
ATOM     25  H   UNL     1      -9.444 -24.315 -15.399  1.00  0.00     0.293 HD
ENDBRANCH   6  24
BRANCH   8  26
ATOM     26  O   UNL     1      -5.254 -21.561 -15.010  1.00  0.00    -0.508 OA
ATOM     27  H   UNL     1      -4.242 -21.552 -15.061  1.00  0.00     0.293 HD
ENDBRANCH   8  26
TORSDOF 6
ENDMDL
MODEL 4
REMARK VINA RESULT:    -5.401      2.737      6.698
REMARK INTER + INTRA:          -6.806
REMARK INTER:                  -7.036
REMARK INTRA:                   0.231
REMARK UNBOUND:                -0.299
REMARK SMILES O=c1c(O)c(-c2ccc(O)c(O)c2)oc2cc(O)cc(O)c12
REMARK SMILES IDX 5 1 3 2 2 3 1 4 22 5 20 6 19 7 17 8 16 9 15 10 14 11 6 12
REMARK SMILES IDX 7 13 8 14 9 15 13 16 11 17 10 18 12 20 4 22 21 24 18 26
REMARK H PARENT 10 19 12 21 4 23 21 25 18 27
REMARK Flexibility Score: inf
ROOT
ATOM      1  C   UNL     1      -6.231 -23.292 -19.470  1.00  0.00     0.180 A 
ATOM      2  C   UNL     1      -5.982 -22.235 -20.362  1.00  0.00     0.208 A 
ATOM      3  C   UNL     1      -5.556 -22.531 -21.667  1.00  0.00     0.238 A 
ATOM      4  O   UNL     1      -5.262 -21.580 -22.437  1.00  0.00    -0.285 OA
ATOM      5  C   UNL     1      -5.440 -23.881 -22.082  1.00  0.00     0.111 A 
ATOM      6  C   UNL     1      -5.060 -24.298 -23.394  1.00  0.00     0.134 A 
ATOM      7  C   UNL     1      -4.875 -25.661 -23.659  1.00  0.00     0.093 A 
ATOM      8  C   UNL     1      -5.117 -26.625 -22.678  1.00  0.00     0.123 A 
ATOM      9  C   UNL     1      -5.541 -26.232 -21.411  1.00  0.00     0.094 A 
ATOM     10  C   UNL     1      -5.698 -24.877 -21.105  1.00  0.00     0.146 A 
ATOM     11  O   UNL     1      -6.082 -24.546 -19.878  1.00  0.00    -0.452 OA
ENDROOT
BRANCH   1  12
ATOM     12  C   UNL     1      -6.668 -23.059 -18.075  1.00  0.00     0.025 A 
ATOM     13  C   UNL     1      -6.260 -21.919 -17.361  1.00  0.00     0.016 A 
ATOM     14  C   UNL     1      -6.665 -21.733 -16.037  1.00  0.00     0.051 A 
ATOM     15  C   UNL     1      -7.471 -22.688 -15.402  1.00  0.00     0.157 A 
ATOM     16  C   UNL     1      -7.457 -24.023 -17.428  1.00  0.00     0.062 A 
ATOM     17  C   UNL     1      -7.866 -23.840 -16.102  1.00  0.00     0.158 A 
BRANCH  15  18
ATOM     18  O   UNL     1      -7.876 -22.498 -14.082  1.00  0.00    -0.504 OA
ATOM     19  H   UNL     1      -7.366 -21.889 -13.453  1.00  0.00     0.293 HD
ENDBRANCH  15  18
BRANCH  17  20
ATOM     20  O   UNL     1      -8.662 -24.813 -15.498  1.00  0.00    -0.504 OA
ATOM     21  H   UNL     1      -9.669 -24.821 -15.596  1.00  0.00     0.293 HD
ENDBRANCH  17  20
ENDBRANCH   1  12
BRANCH   2  22
ATOM     22  O   UNL     1      -6.175 -20.912 -19.958  1.00  0.00    -0.502 OA
ATOM     23  H   UNL     1      -7.067 -20.571 -19.618  1.00  0.00     0.293 HD
ENDBRANCH   2  22
BRANCH   6  24
ATOM     24  O   UNL     1      -4.879 -23.425 -24.472  1.00  0.00    -0.507 OA
ATOM     25  H   UNL     1      -5.487 -23.363 -25.274  1.00  0.00     0.293 HD
ENDBRANCH   6  24
BRANCH   8  26
ATOM     26  O   UNL     1      -4.948 -27.979 -22.955  1.00  0.00    -0.508 OA
ATOM     27  H   UNL     1      -5.577 -28.476 -23.576  1.00  0.00     0.293 HD
ENDBRANCH   8  26
TORSDOF 6
ENDMDL
MODEL 5
REMARK VINA RESULT:    -4.766      2.472      7.301
REMARK INTER + INTRA:          -6.041
REMARK INTER:                  -5.923
REMARK INTRA:                  -0.118
REMARK UNBOUND:                -0.299
REMARK SMILES O=c1c(O)c(-c2ccc(O)c(O)c2)oc2cc(O)cc(O)c12
REMARK SMILES IDX 5 1 3 2 2 3 1 4 22 5 20 6 19 7 17 8 16 9 15 10 14 11 6 12
REMARK SMILES IDX 7 13 8 14 9 15 13 16 11 17 10 18 12 20 4 22 21 24 18 26
REMARK H PARENT 10 19 12 21 4 23 21 25 18 27
REMARK Flexibility Score: inf
ROOT
ATOM      1  C   UNL     1      -6.286 -23.370 -20.311  1.00  0.00     0.180 A 
ATOM      2  C   UNL     1      -6.208 -24.666 -20.848  1.00  0.00     0.208 A 
ATOM      3  C   UNL     1      -5.861 -24.824 -22.200  1.00  0.00     0.238 A 
ATOM      4  O   UNL     1      -5.867 -25.982 -22.694  1.00  0.00    -0.285 OA
ATOM      5  C   UNL     1      -5.541 -23.687 -22.983  1.00  0.00     0.111 A 
ATOM      6  C   UNL     1      -5.133 -23.732 -24.352  1.00  0.00     0.134 A 
ATOM      7  C   UNL     1      -4.946 -22.536 -25.055  1.00  0.00     0.093 A 
ATOM      8  C   UNL     1      -5.089 -21.298 -24.424  1.00  0.00     0.123 A 
ATOM      9  C   UNL     1      -5.433 -21.245 -23.075  1.00  0.00     0.094 A 
ATOM     10  C   UNL     1      -5.664 -22.420 -22.356  1.00  0.00     0.146 A 
ATOM     11  O   UNL     1      -6.012 -22.322 -21.078  1.00  0.00    -0.452 OA
ENDROOT
BRANCH   1  12
ATOM     12  C   UNL     1      -6.659 -23.123 -18.900  1.00  0.00     0.025 A 
ATOM     13  C   UNL     1      -7.885 -23.569 -18.378  1.00  0.00     0.016 A 
ATOM     14  C   UNL     1      -8.226 -23.302 -17.050  1.00  0.00     0.051 A 
ATOM     15  C   UNL     1      -7.355 -22.575 -16.227  1.00  0.00     0.157 A 
ATOM     16  C   UNL     1      -5.798 -22.376 -18.079  1.00  0.00     0.062 A 
ATOM     17  C   UNL     1      -6.136 -22.108 -16.748  1.00  0.00     0.158 A 
BRANCH  15  18
ATOM     18  O   UNL     1      -7.697 -22.312 -14.902  1.00  0.00    -0.504 OA
ATOM     19  H   UNL     1      -8.663 -22.237 -14.608  1.00  0.00     0.293 HD
ENDBRANCH  15  18
BRANCH  17  20
ATOM     20  O   UNL     1      -5.250 -21.375 -15.958  1.00  0.00    -0.504 OA
ATOM     21  H   UNL     1      -4.307 -21.692 -15.772  1.00  0.00     0.293 HD
ENDBRANCH  17  20
ENDBRANCH   1  12
BRANCH   2  22
ATOM     22  O   UNL     1      -6.453 -25.779 -20.040  1.00  0.00    -0.502 OA
ATOM     23  H   UNL     1      -7.146 -26.480 -20.275  1.00  0.00     0.293 HD
ENDBRANCH   2  22
BRANCH   6  24
ATOM     24  O   UNL     1      -4.875 -24.914 -25.054  1.00  0.00    -0.507 OA
ATOM     25  H   UNL     1      -5.323 -25.800 -24.878  1.00  0.00     0.293 HD
ENDBRANCH   6  24
BRANCH   8  26
ATOM     26  O   UNL     1      -4.882 -20.114 -25.127  1.00  0.00    -0.508 OA
ATOM     27  H   UNL     1      -5.562 -19.362 -25.110  1.00  0.00     0.293 HD
ENDBRANCH   8  26
TORSDOF 6
ENDMDL
