MODEL 1
REMARK VINA RESULT:    35.915      0.000      0.000
REMARK INTER + INTRA:          41.947
REMARK INTER:                  42.214
REMARK INTRA:                  -0.267
REMARK UNBOUND:                -0.267
REMARK SMILES O=c1cc(-c2ccc(O)c(O)c2)oc2cc(O)cc(O)c12
REMARK SMILES IDX 4 1 3 2 2 3 1 4 21 5 19 6 18 7 16 8 15 9 14 10 13 11 5 12
REMARK SMILES IDX 6 13 7 14 8 15 12 16 10 17 9 18 11 20 20 22 17 24
REMARK H PARENT 9 19 11 21 20 23 17 25
REMARK Flexibility Score: inf
ROOT
ATOM      1  C   UNL     1      10.836   1.863  18.842  1.00  0.00     0.138 A 
ATOM      2  C   UNL     1      10.066   0.715  19.074  1.00  0.00     0.100 A 
ATOM      3  C   UNL     1       9.713  -0.108  18.005  1.00  0.00     0.197 A 
ATOM      4  O   UNL     1       8.971  -1.097  18.236  1.00  0.00    -0.289 OA
ATOM      5  C   UNL     1      10.159   0.206  16.699  1.00  0.00     0.107 A 
ATOM      6  C   UNL     1       9.894  -0.581  15.538  1.00  0.00     0.134 A 
ATOM      7  C   UNL     1      10.288  -0.109  14.280  1.00  0.00     0.093 A 
ATOM      8  C   UNL     1      10.989   1.089  14.146  1.00  0.00     0.123 A 
ATOM      9  C   UNL     1      11.301   1.841  15.279  1.00  0.00     0.094 A 
ATOM     10  C   UNL     1      10.891   1.414  16.546  1.00  0.00     0.146 A 
ATOM     11  O   UNL     1      11.194   2.166  17.598  1.00  0.00    -0.456 OA
ENDROOT
BRANCH   1  12
ATOM     12  C   UNL     1      11.241   2.772  19.944  1.00  0.00     0.021 A 
ATOM     13  C   UNL     1      10.869   4.130  19.956  1.00  0.00     0.016 A 
ATOM     14  C   UNL     1      11.256   4.961  21.012  1.00  0.00     0.051 A 
ATOM     15  C   UNL     1      12.012   4.450  22.075  1.00  0.00     0.157 A 
ATOM     16  C   UNL     1      11.988   2.264  21.022  1.00  0.00     0.062 A 
ATOM     17  C   UNL     1      12.376   3.094  22.079  1.00  0.00     0.158 A 
BRANCH  15  18
ATOM     18  O   UNL     1      12.395   5.282  23.125  1.00  0.00    -0.504 OA
ATOM     19  H   UNL     1      12.245   6.284  23.091  1.00  0.00     0.293 HD
ENDBRANCH  15  18
BRANCH  17  20
ATOM     20  O   UNL     1      13.125   2.553  23.125  1.00  0.00    -0.504 OA
ATOM     21  H   UNL     1      12.732   1.890  23.782  1.00  0.00     0.293 HD
ENDBRANCH  17  20
ENDBRANCH   1  12
BRANCH   6  22
ATOM     22  O   UNL     1       9.275  -1.835  15.569  1.00  0.00    -0.507 OA
ATOM     23  H   UNL     1       8.972  -2.307  16.407  1.00  0.00     0.293 HD
ENDBRANCH   6  22
BRANCH   8  24
ATOM     24  O   UNL     1      11.379   1.519  12.879  1.00  0.00    -0.508 OA
ATOM     25  H   UNL     1      12.074   1.017  12.340  1.00  0.00     0.293 HD
ENDBRANCH   8  24
TORSDOF 5
ENDMDL
MODEL 2
REMARK VINA RESULT:    35.944      0.654      1.480
REMARK INTER + INTRA:          41.981
REMARK INTER:                  42.249
REMARK INTRA:                  -0.269
REMARK UNBOUND:                -0.267
REMARK SMILES O=c1cc(-c2ccc(O)c(O)c2)oc2cc(O)cc(O)c12
REMARK SMILES IDX 4 1 3 2 2 3 1 4 21 5 19 6 18 7 16 8 15 9 14 10 13 11 5 12
REMARK SMILES IDX 6 13 7 14 8 15 12 16 10 17 9 18 11 20 20 22 17 24
REMARK H PARENT 9 19 11 21 20 23 17 25
REMARK Flexibility Score: inf
ROOT
ATOM      1  C   UNL     1      10.860   1.664  18.997  1.00  0.00     0.138 A 
ATOM      2  C   UNL     1       9.995   0.590  19.246  1.00  0.00     0.100 A 
ATOM      3  C   UNL     1       9.574  -0.218  18.189  1.00  0.00     0.197 A 
ATOM      4  O   UNL     1       8.750  -1.136  18.434  1.00  0.00    -0.289 OA
ATOM      5  C   UNL     1      10.048   0.035  16.879  1.00  0.00     0.107 A 
ATOM      6  C   UNL     1       9.718  -0.746  15.731  1.00  0.00     0.134 A 
ATOM      7  C   UNL     1      10.153  -0.330  14.466  1.00  0.00     0.093 A 
ATOM      8  C   UNL     1      10.953   0.802  14.315  1.00  0.00     0.123 A 
ATOM      9  C   UNL     1      11.326   1.543  15.437  1.00  0.00     0.094 A 
ATOM     10  C   UNL     1      10.880   1.174  16.709  1.00  0.00     0.146 A 
ATOM     11  O   UNL     1      11.245   1.914  17.749  1.00  0.00    -0.456 OA
ENDROOT
BRANCH   1  12
ATOM     12  C   UNL     1      11.339   2.554  20.085  1.00  0.00     0.021 A 
ATOM     13  C   UNL     1      12.343   2.147  20.985  1.00  0.00     0.016 A 
ATOM     14  C   UNL     1      12.782   3.009  21.993  1.00  0.00     0.051 A 
ATOM     15  C   UNL     1      12.234   4.292  22.117  1.00  0.00     0.157 A 
ATOM     16  C   UNL     1      10.803   3.849  20.208  1.00  0.00     0.062 A 
ATOM     17  C   UNL     1      11.241   4.713  21.217  1.00  0.00     0.158 A 
BRANCH  15  18
ATOM     18  O   UNL     1      12.674   5.148  23.125  1.00  0.00    -0.504 OA
ATOM     19  H   UNL     1      13.392   4.868  23.783  1.00  0.00     0.293 HD
ENDBRANCH  15  18
BRANCH  17  20
ATOM     20  O   UNL     1      10.678   5.986  21.311  1.00  0.00    -0.504 OA
ATOM     21  H   UNL     1      10.804   6.572  22.127  1.00  0.00     0.293 HD
ENDBRANCH  17  20
ENDBRANCH   1  12
BRANCH   6  22
ATOM     22  O   UNL     1       8.994  -1.941  15.780  1.00  0.00    -0.507 OA
ATOM     23  H   UNL     1       8.084  -2.046  16.202  1.00  0.00     0.293 HD
ENDBRANCH   6  22
BRANCH   8  24
ATOM     24  O   UNL     1      11.380   1.177  13.043  1.00  0.00    -0.508 OA
ATOM     25  H   UNL     1      12.334   1.023  12.737  1.00  0.00     0.293 HD
ENDBRANCH   8  24
TORSDOF 5
ENDMDL
