MODEL 1
REMARK VINA RESULT:    -4.760      0.000      0.000
REMARK INTER + INTRA:          -5.448
REMARK INTER:                  -5.317
REMARK INTRA:                  -0.131
REMARK UNBOUND:                -0.131
REMARK SMILES COc1cc2ccc(=O)oc2cc1OC
REMARK SMILES IDX 3 1 13 2 12 3 11 4 5 5 4 6 6 7 7 8 8 9 9 10 10 11 2 12 1 13
REMARK SMILES IDX 14 14 15 15
REMARK H PARENT
REMARK Flexibility Score: inf
ROOT
ATOM      1  C   UNL     1      22.402  29.581  21.095  1.00  0.00     0.161 A 
ATOM      2  C   UNL     1      23.386  28.693  20.628  1.00  0.00     0.164 A 
ATOM      3  C   UNL     1      23.606  28.559  19.242  1.00  0.00     0.098 A 
ATOM      4  C   UNL     1      22.853  29.301  18.331  1.00  0.00     0.142 A 
ATOM      5  C   UNL     1      21.865  30.192  18.798  1.00  0.00     0.022 A 
ATOM      6  C   UNL     1      21.642  30.330  20.173  1.00  0.00     0.062 A 
ATOM      7  C   UNL     1      21.128  30.922  17.860  1.00  0.00     0.019 A 
ATOM      8  C   UNL     1      21.386  30.749  16.501  1.00  0.00     0.094 A 
ATOM      9  C   UNL     1      22.382  29.847  16.111  1.00  0.00     0.336 A 
ATOM     10  O   UNL     1      22.632  29.677  14.889  1.00  0.00    -0.246 OA
ATOM     11  O   UNL     1      23.069  29.167  17.024  1.00  0.00    -0.423 OA
ENDROOT
BRANCH   1  12
ATOM     12  O   UNL     1      22.210  29.690  22.481  1.00  0.00    -0.493 OA
ATOM     13  C   UNL     1      21.309  28.886  23.237  1.00  0.00     0.278 C 
ENDBRANCH   1  12
BRANCH   2  14
ATOM     14  O   UNL     1      24.125  27.963  21.573  1.00  0.00    -0.493 OA
ATOM     15  C   UNL     1      23.960  26.572  21.826  1.00  0.00     0.278 C 
ENDBRANCH   2  14
TORSDOF 2
ENDMDL
MODEL 2
REMARK VINA RESULT:    -4.509      1.204      2.554
REMARK INTER + INTRA:          -5.167
REMARK INTER:                  -5.001
REMARK INTRA:                  -0.166
REMARK UNBOUND:                -0.131
REMARK SMILES COc1cc2ccc(=O)oc2cc1OC
REMARK SMILES IDX 3 1 13 2 12 3 11 4 5 5 4 6 6 7 7 8 8 9 9 10 10 11 2 12 1 13
REMARK SMILES IDX 14 14 15 15
REMARK H PARENT
REMARK Flexibility Score: inf
ROOT
ATOM      1  C   UNL     1      23.411  28.236  20.578  1.00  0.00     0.161 A 
ATOM      2  C   UNL     1      22.684  29.286  21.164  1.00  0.00     0.164 A 
ATOM      3  C   UNL     1      21.956  30.174  20.346  1.00  0.00     0.098 A 
ATOM      4  C   UNL     1      21.952  30.017  18.959  1.00  0.00     0.142 A 
ATOM      5  C   UNL     1      22.681  28.964  18.370  1.00  0.00     0.022 A 
ATOM      6  C   UNL     1      23.406  28.078  19.176  1.00  0.00     0.062 A 
ATOM      7  C   UNL     1      22.656  28.833  16.978  1.00  0.00     0.019 A 
ATOM      8  C   UNL     1      21.920  29.739  16.217  1.00  0.00     0.094 A 
ATOM      9  C   UNL     1      21.220  30.760  16.871  1.00  0.00     0.336 A 
ATOM     10  O   UNL     1      20.549  31.589  16.203  1.00  0.00    -0.246 OA
ATOM     11  O   UNL     1      21.260  30.860  18.196  1.00  0.00    -0.423 OA
ENDROOT
BRANCH   1  12
ATOM     12  O   UNL     1      24.125  27.370  21.422  1.00  0.00    -0.493 OA
ATOM     13  C   UNL     1      23.713  26.048  21.756  1.00  0.00     0.278 C 
ENDBRANCH   1  12
BRANCH   2  14
ATOM     14  O   UNL     1      22.710  29.413  22.562  1.00  0.00    -0.493 OA
ATOM     15  C   UNL     1      21.663  28.993  23.430  1.00  0.00     0.278 C 
ENDBRANCH   2  14
TORSDOF 2
ENDMDL
MODEL 3
REMARK VINA RESULT:    -4.304      5.735      8.361
REMARK INTER + INTRA:          -4.937
REMARK INTER:                  -4.816
REMARK INTRA:                  -0.121
REMARK UNBOUND:                -0.131
REMARK SMILES COc1cc2ccc(=O)oc2cc1OC
REMARK SMILES IDX 3 1 13 2 12 3 11 4 5 5 4 6 6 7 7 8 8 9 9 10 10 11 2 12 1 13
REMARK SMILES IDX 14 14 15 15
REMARK H PARENT
REMARK Flexibility Score: inf
ROOT
ATOM      1  C   UNL     1      20.431  30.135  28.649  1.00  0.00     0.161 A 
ATOM      2  C   UNL     1      21.420  29.201  29.001  1.00  0.00     0.164 A 
ATOM      3  C   UNL     1      21.968  28.358  28.012  1.00  0.00     0.098 A 
ATOM      4  C   UNL     1      21.535  28.446  26.688  1.00  0.00     0.142 A 
ATOM      5  C   UNL     1      20.543  29.383  26.335  1.00  0.00     0.022 A 
ATOM      6  C   UNL     1      19.994  30.223  27.311  1.00  0.00     0.062 A 
ATOM      7  C   UNL     1      20.131  29.447  25.000  1.00  0.00     0.019 A 
ATOM      8  C   UNL     1      20.706  28.589  24.063  1.00  0.00     0.094 A 
ATOM      9  C   UNL     1      21.686  27.684  24.487  1.00  0.00     0.336 A 
ATOM     10  O   UNL     1      22.219  26.901  23.657  1.00  0.00    -0.246 OA
ATOM     11  O   UNL     1      22.060  27.646  25.763  1.00  0.00    -0.423 OA
ENDROOT
BRANCH   1  12
ATOM     12  O   UNL     1      19.907  30.959  29.659  1.00  0.00    -0.493 OA
ATOM     13  C   UNL     1      18.517  31.147  29.906  1.00  0.00     0.278 C 
ENDBRANCH   1  12
BRANCH   2  14
ATOM     14  O   UNL     1      21.831  29.140  30.342  1.00  0.00    -0.493 OA
ATOM     15  C   UNL     1      21.866  27.951  31.122  1.00  0.00     0.278 C 
ENDBRANCH   2  14
TORSDOF 2
ENDMDL
MODEL 4
REMARK VINA RESULT:    -4.167      5.805      9.230
REMARK INTER + INTRA:          -4.785
REMARK INTER:                  -4.679
REMARK INTRA:                  -0.106
REMARK UNBOUND:                -0.131
REMARK SMILES COc1cc2ccc(=O)oc2cc1OC
REMARK SMILES IDX 3 1 13 2 12 3 11 4 5 5 4 6 6 7 7 8 8 9 9 10 10 11 2 12 1 13
REMARK SMILES IDX 14 14 15 15
REMARK H PARENT
REMARK Flexibility Score: inf
ROOT
ATOM      1  C   UNL     1      21.557  27.809  25.203  1.00  0.00     0.161 A 
ATOM      2  C   UNL     1      22.404  26.689  25.148  1.00  0.00     0.164 A 
ATOM      3  C   UNL     1      22.963  26.176  26.336  1.00  0.00     0.098 A 
ATOM      4  C   UNL     1      22.680  26.773  27.567  1.00  0.00     0.142 A 
ATOM      5  C   UNL     1      21.830  27.895  27.623  1.00  0.00     0.022 A 
ATOM      6  C   UNL     1      21.271  28.410  26.446  1.00  0.00     0.062 A 
ATOM      7  C   UNL     1      21.565  28.470  28.870  1.00  0.00     0.019 A 
ATOM      8  C   UNL     1      22.145  27.922  30.014  1.00  0.00     0.094 A 
ATOM      9  C   UNL     1      22.979  26.806  29.882  1.00  0.00     0.336 A 
ATOM     10  O   UNL     1      23.512  26.296  30.901  1.00  0.00    -0.246 OA
ATOM     11  O   UNL     1      23.212  26.280  28.682  1.00  0.00    -0.423 OA
ENDROOT
BRANCH   1  12
ATOM     12  O   UNL     1      21.017  28.293  24.001  1.00  0.00    -0.493 OA
ATOM     13  C   UNL     1      19.690  28.786  23.853  1.00  0.00     0.278 C 
ENDBRANCH   1  12
BRANCH   2  14
ATOM     14  O   UNL     1      22.667  26.115  23.894  1.00  0.00    -0.493 OA
ATOM     15  C   UNL     1      23.311  24.861  23.700  1.00  0.00     0.278 C 
ENDBRANCH   2  14
TORSDOF 2
ENDMDL
MODEL 5
REMARK VINA RESULT:    -4.164      4.794      9.000
REMARK INTER + INTRA:          -4.782
REMARK INTER:                  -4.667
REMARK INTRA:                  -0.115
REMARK UNBOUND:                -0.131
REMARK SMILES COc1cc2ccc(=O)oc2cc1OC
REMARK SMILES IDX 3 1 13 2 12 3 11 4 5 5 4 6 6 7 7 8 8 9 9 10 10 11 2 12 1 13
REMARK SMILES IDX 14 14 15 15
REMARK H PARENT
REMARK Flexibility Score: inf
ROOT
ATOM      1  C   UNL     1      21.073  28.733  25.016  1.00  0.00     0.161 A 
ATOM      2  C   UNL     1      21.701  27.721  25.762  1.00  0.00     0.164 A 
ATOM      3  C   UNL     1      21.771  27.829  27.166  1.00  0.00     0.098 A 
ATOM      4  C   UNL     1      21.220  28.934  27.819  1.00  0.00     0.142 A 
ATOM      5  C   UNL     1      20.590  29.948  27.071  1.00  0.00     0.022 A 
ATOM      6  C   UNL     1      20.517  29.847  25.676  1.00  0.00     0.062 A 
ATOM      7  C   UNL     1      20.047  31.041  27.755  1.00  0.00     0.019 A 
ATOM      8  C   UNL     1      20.145  31.097  29.144  1.00  0.00     0.094 A 
ATOM      9  C   UNL     1      20.785  30.053  29.820  1.00  0.00     0.336 A 
ATOM     10  O   UNL     1      20.883  30.084  31.075  1.00  0.00    -0.246 OA
ATOM     11  O   UNL     1      21.291  29.025  29.145  1.00  0.00    -0.423 OA
ENDROOT
BRANCH   1  12
ATOM     12  O   UNL     1      21.021  28.593  23.619  1.00  0.00    -0.493 OA
ATOM     13  C   UNL     1      21.908  29.238  22.711  1.00  0.00     0.278 C 
ENDBRANCH   1  12
BRANCH   2  14
ATOM     14  O   UNL     1      22.243  26.625  25.072  1.00  0.00    -0.493 OA
ATOM     15  C   UNL     1      22.968  25.564  25.685  1.00  0.00     0.278 C 
ENDBRANCH   2  14
TORSDOF 2
ENDMDL
MODEL 6
REMARK VINA RESULT:    -4.159      4.951      7.838
REMARK INTER + INTRA:          -4.776
REMARK INTER:                  -4.649
REMARK INTRA:                  -0.127
REMARK UNBOUND:                -0.131
REMARK SMILES COc1cc2ccc(=O)oc2cc1OC
REMARK SMILES IDX 3 1 13 2 12 3 11 4 5 5 4 6 6 7 7 8 8 9 9 10 10 11 2 12 1 13
REMARK SMILES IDX 14 14 15 15
REMARK H PARENT
REMARK Flexibility Score: inf
ROOT
ATOM      1  C   UNL     1      20.450  30.530  28.286  1.00  0.00     0.161 A 
ATOM      2  C   UNL     1      21.740  31.015  28.009  1.00  0.00     0.164 A 
ATOM      3  C   UNL     1      22.315  30.788  26.742  1.00  0.00     0.098 A 
ATOM      4  C   UNL     1      21.613  30.084  25.762  1.00  0.00     0.142 A 
ATOM      5  C   UNL     1      20.319  29.597  26.039  1.00  0.00     0.022 A 
ATOM      6  C   UNL     1      19.742  29.819  27.295  1.00  0.00     0.062 A 
ATOM      7  C   UNL     1      19.641  28.897  25.036  1.00  0.00     0.019 A 
ATOM      8  C   UNL     1      20.258  28.700  23.801  1.00  0.00     0.094 A 
ATOM      9  C   UNL     1      21.544  29.213  23.598  1.00  0.00     0.336 A 
ATOM     10  O   UNL     1      22.118  29.047  22.490  1.00  0.00    -0.246 OA
ATOM     11  O   UNL     1      22.165  29.876  24.569  1.00  0.00    -0.423 OA
ENDROOT
BRANCH   1  12
ATOM     12  O   UNL     1      19.908  30.775  29.558  1.00  0.00    -0.493 OA
ATOM     13  C   UNL     1      18.552  31.135  29.801  1.00  0.00     0.278 C 
ENDBRANCH   1  12
BRANCH   2  14
ATOM     14  O   UNL     1      22.417  31.719  29.018  1.00  0.00    -0.493 OA
ATOM     15  C   UNL     1      22.570  33.134  29.051  1.00  0.00     0.278 C 
ENDBRANCH   2  14
TORSDOF 2
ENDMDL
MODEL 7
REMARK VINA RESULT:    -4.089      7.161     10.953
REMARK INTER + INTRA:          -4.698
REMARK INTER:                  -4.561
REMARK INTRA:                  -0.136
REMARK UNBOUND:                -0.131
REMARK SMILES COc1cc2ccc(=O)oc2cc1OC
REMARK SMILES IDX 3 1 13 2 12 3 11 4 5 5 4 6 6 7 7 8 8 9 9 10 10 11 2 12 1 13
REMARK SMILES IDX 14 14 15 15
REMARK H PARENT
REMARK Flexibility Score: inf
ROOT
ATOM      1  C   UNL     1      21.415  29.941  28.720  1.00  0.00     0.161 A 
ATOM      2  C   UNL     1      21.323  30.936  27.732  1.00  0.00     0.164 A 
ATOM      3  C   UNL     1      20.352  31.951  27.850  1.00  0.00     0.098 A 
ATOM      4  C   UNL     1      19.481  31.974  28.942  1.00  0.00     0.142 A 
ATOM      5  C   UNL     1      19.573  30.977  29.933  1.00  0.00     0.022 A 
ATOM      6  C   UNL     1      20.535  29.966  29.822  1.00  0.00     0.062 A 
ATOM      7  C   UNL     1      18.687  31.028  31.014  1.00  0.00     0.019 A 
ATOM      8  C   UNL     1      17.746  32.054  31.081  1.00  0.00     0.094 A 
ATOM      9  C   UNL     1      17.713  33.010  30.060  1.00  0.00     0.336 A 
ATOM     10  O   UNL     1      16.871  33.945  30.101  1.00  0.00    -0.246 OA
ATOM     11  O   UNL     1      18.568  32.938  29.043  1.00  0.00    -0.423 OA
ENDROOT
BRANCH   1  12
ATOM     12  O   UNL     1      22.393  28.946  28.571  1.00  0.00    -0.493 OA
ATOM     13  C   UNL     1      22.114  27.568  28.341  1.00  0.00     0.278 C 
ENDBRANCH   1  12
BRANCH   2  14
ATOM     14  O   UNL     1      22.214  30.882  26.649  1.00  0.00    -0.493 OA
ATOM     15  C   UNL     1      21.951  30.212  25.420  1.00  0.00     0.278 C 
ENDBRANCH   2  14
TORSDOF 2
ENDMDL
MODEL 8
REMARK VINA RESULT:    -4.076      4.819      8.984
REMARK INTER + INTRA:          -4.683
REMARK INTER:                  -4.565
REMARK INTRA:                  -0.118
REMARK UNBOUND:                -0.131
REMARK SMILES COc1cc2ccc(=O)oc2cc1OC
REMARK SMILES IDX 3 1 13 2 12 3 11 4 5 5 4 6 6 7 7 8 8 9 9 10 10 11 2 12 1 13
REMARK SMILES IDX 14 14 15 15
REMARK H PARENT
REMARK Flexibility Score: inf
ROOT
ATOM      1  C   UNL     1      21.696  27.788  25.981  1.00  0.00     0.161 A 
ATOM      2  C   UNL     1      21.140  28.735  25.103  1.00  0.00     0.164 A 
ATOM      3  C   UNL     1      20.591  29.927  25.618  1.00  0.00     0.098 A 
ATOM      4  C   UNL     1      20.595  30.173  26.993  1.00  0.00     0.142 A 
ATOM      5  C   UNL     1      21.152  29.223  27.873  1.00  0.00     0.022 A 
ATOM      6  C   UNL     1      21.699  28.037  27.368  1.00  0.00     0.062 A 
ATOM      7  C   UNL     1      21.142  29.498  29.244  1.00  0.00     0.019 A 
ATOM      8  C   UNL     1      20.585  30.693  29.699  1.00  0.00     0.094 A 
ATOM      9  C   UNL     1      20.050  31.589  28.767  1.00  0.00     0.336 A 
ATOM     10  O   UNL     1      19.544  32.673  29.156  1.00  0.00    -0.246 OA
ATOM     11  O   UNL     1      20.075  31.302  27.468  1.00  0.00    -0.423 OA
ENDROOT
BRANCH   1  12
ATOM     12  O   UNL     1      22.234  26.612  25.434  1.00  0.00    -0.493 OA
ATOM     13  C   UNL     1      22.943  25.627  26.179  1.00  0.00     0.278 C 
ENDBRANCH   1  12
BRANCH   2  14
ATOM     14  O   UNL     1      21.154  28.456  23.728  1.00  0.00    -0.493 OA
ATOM     15  C   UNL     1      22.009  29.091  22.783  1.00  0.00     0.278 C 
ENDBRANCH   2  14
TORSDOF 2
ENDMDL
MODEL 9
REMARK VINA RESULT:    -4.074      1.439      5.598
REMARK INTER + INTRA:          -4.681
REMARK INTER:                  -4.514
REMARK INTRA:                  -0.167
REMARK UNBOUND:                -0.131
REMARK SMILES COc1cc2ccc(=O)oc2cc1OC
REMARK SMILES IDX 3 1 13 2 12 3 11 4 5 5 4 6 6 7 7 8 8 9 9 10 10 11 2 12 1 13
REMARK SMILES IDX 14 14 15 15
REMARK H PARENT
REMARK Flexibility Score: inf
ROOT
ATOM      1  C   UNL     1      22.480  28.599  17.973  1.00  0.00     0.161 A 
ATOM      2  C   UNL     1      21.591  29.641  18.287  1.00  0.00     0.164 A 
ATOM      3  C   UNL     1      21.557  30.159  19.598  1.00  0.00     0.098 A 
ATOM      4  C   UNL     1      22.400  29.644  20.585  1.00  0.00     0.142 A 
ATOM      5  C   UNL     1      23.291  28.598  20.270  1.00  0.00     0.022 A 
ATOM      6  C   UNL     1      23.330  28.079  18.970  1.00  0.00     0.062 A 
ATOM      7  C   UNL     1      24.123  28.105  21.280  1.00  0.00     0.019 A 
ATOM      8  C   UNL     1      24.048  28.654  22.559  1.00  0.00     0.094 A 
ATOM      9  C   UNL     1      23.139  29.690  22.798  1.00  0.00     0.336 A 
ATOM     10  O   UNL     1      23.055  30.200  23.946  1.00  0.00    -0.246 OA
ATOM     11  O   UNL     1      22.360  30.141  21.818  1.00  0.00    -0.423 OA
ENDROOT
BRANCH   1  12
ATOM     12  O   UNL     1      22.487  28.106  16.657  1.00  0.00    -0.493 OA
ATOM     13  C   UNL     1      23.481  28.416  15.686  1.00  0.00     0.278 C 
ENDBRANCH   1  12
BRANCH   2  14
ATOM     14  O   UNL     1      20.758  30.134  17.270  1.00  0.00    -0.493 OA
ATOM     15  C   UNL     1      20.974  31.357  16.573  1.00  0.00     0.278 C 
ENDBRANCH   2  14
TORSDOF 2
ENDMDL
