MODEL 1
REMARK VINA RESULT:    -3.712      0.000      0.000
REMARK INTER + INTRA:          -5.403
REMARK INTER:                  -5.014
REMARK INTRA:                  -0.389
REMARK UNBOUND:                -0.389
REMARK SMILES CCCCCCCC(=O)[O-]
REMARK SMILES IDX 5 1 6 2 7 3 8 4 9 5 10 6 4 7 3 8 2 9 1 10
REMARK H PARENT
REMARK Flexibility Score: inf
ROOT
ATOM      1  C   UNL     1       6.426  47.922  32.021  1.00  0.00     0.000 C 
ENDROOT
BRANCH   1   2
ATOM      2  C   UNL     1       7.457  48.952  32.529  1.00  0.00     0.006 C 
BRANCH   2   3
ATOM      3  C   UNL     1       8.921  48.498  32.414  1.00  0.00     0.053 C 
BRANCH   3   4
ATOM      4  C   UNL     1       9.668  49.275  31.375  1.00  0.00     0.041 C 
ATOM      5  O   UNL     1      10.901  49.494  31.509  1.00  0.00    -0.550 OA
ATOM      6  O   UNL     1       8.995  49.788  30.272  1.00  0.00    -0.550 OA
ENDBRANCH   3   4
ENDBRANCH   2   3
ENDBRANCH   1   2
BRANCH   1   7
ATOM      7  C   UNL     1       5.183  48.526  31.341  1.00  0.00     0.000 C 
BRANCH   7   8
ATOM      8  C   UNL     1       5.485  49.113  29.956  1.00  0.00    -0.000 C 
BRANCH   8   9
ATOM      9  C   UNL     1       6.174  48.078  29.060  1.00  0.00    -0.003 C 
ATOM     10  C   UNL     1       5.267  47.656  27.907  1.00  0.00     0.004 C 
ENDBRANCH   8   9
ENDBRANCH   7   8
ENDBRANCH   1   7
TORSDOF 6
ENDMDL
MODEL 2
REMARK VINA RESULT:    -3.602      2.229      4.243
REMARK INTER + INTRA:          -5.255
REMARK INTER:                  -4.821
REMARK INTRA:                  -0.434
REMARK UNBOUND:                -0.389
REMARK SMILES CCCCCCCC(=O)[O-]
REMARK SMILES IDX 5 1 6 2 7 3 8 4 9 5 10 6 4 7 3 8 2 9 1 10
REMARK H PARENT
REMARK Flexibility Score: inf
ROOT
ATOM      1  C   UNL     1       5.864  47.877  33.123  1.00  0.00     0.000 C 
ENDROOT
BRANCH   1   2
ATOM      2  C   UNL     1       5.768  48.660  31.797  1.00  0.00     0.006 C 
BRANCH   2   3
ATOM      3  C   UNL     1       6.256  47.886  30.563  1.00  0.00     0.053 C 
BRANCH   3   4
ATOM      4  C   UNL     1       5.930  48.601  29.288  1.00  0.00     0.041 C 
ATOM      5  O   UNL     1       5.999  49.857  29.229  1.00  0.00    -0.550 OA
ATOM      6  O   UNL     1       5.517  47.882  28.173  1.00  0.00    -0.550 OA
ENDBRANCH   3   4
ENDBRANCH   2   3
ENDBRANCH   1   2
BRANCH   1   7
ATOM      7  C   UNL     1       6.991  48.335  34.069  1.00  0.00     0.000 C 
BRANCH   7   8
ATOM      8  C   UNL     1       8.384  47.893  33.597  1.00  0.00    -0.000 C 
BRANCH   8   9
ATOM      9  C   UNL     1       9.216  49.097  33.142  1.00  0.00    -0.003 C 
ATOM     10  C   UNL     1       9.634  48.959  31.681  1.00  0.00     0.004 C 
ENDBRANCH   8   9
ENDBRANCH   7   8
ENDBRANCH   1   7
TORSDOF 6
ENDMDL
MODEL 3
REMARK VINA RESULT:    -3.596      2.730      3.176
REMARK INTER + INTRA:          -5.246
REMARK INTER:                  -4.917
REMARK INTRA:                  -0.329
REMARK UNBOUND:                -0.389
REMARK SMILES CCCCCCCC(=O)[O-]
REMARK SMILES IDX 5 1 6 2 7 3 8 4 9 5 10 6 4 7 3 8 2 9 1 10
REMARK H PARENT
REMARK Flexibility Score: inf
ROOT
ATOM      1  C   UNL     1       5.879  47.804  31.711  1.00  0.00     0.000 C 
ENDROOT
BRANCH   1   2
ATOM      2  C   UNL     1       5.501  48.174  33.160  1.00  0.00     0.006 C 
BRANCH   2   3
ATOM      3  C   UNL     1       6.622  48.860  33.956  1.00  0.00     0.053 C 
BRANCH   3   4
ATOM      4  C   UNL     1       7.395  47.885  34.788  1.00  0.00     0.041 C 
ATOM      5  O   UNL     1       8.232  47.114  34.249  1.00  0.00    -0.550 OA
ATOM      6  O   UNL     1       7.168  47.804  36.157  1.00  0.00    -0.550 OA
ENDBRANCH   3   4
ENDBRANCH   2   3
ENDBRANCH   1   2
BRANCH   1   7
ATOM      7  C   UNL     1       7.119  48.530  31.156  1.00  0.00     0.000 C 
BRANCH   7   8
ATOM      8  C   UNL     1       6.956  48.958  29.691  1.00  0.00    -0.000 C 
BRANCH   8   9
ATOM      9  C   UNL     1       5.554  48.619  29.173  1.00  0.00    -0.003 C 
ATOM     10  C   UNL     1       5.612  47.569  28.067  1.00  0.00     0.004 C 
ENDBRANCH   8   9
ENDBRANCH   7   8
ENDBRANCH   1   7
TORSDOF 6
ENDMDL
MODEL 4
REMARK VINA RESULT:    -3.538      2.522      3.614
REMARK INTER + INTRA:          -5.168
REMARK INTER:                  -4.758
REMARK INTRA:                  -0.411
REMARK UNBOUND:                -0.389
REMARK SMILES CCCCCCCC(=O)[O-]
REMARK SMILES IDX 5 1 6 2 7 3 8 4 9 5 10 6 4 7 3 8 2 9 1 10
REMARK H PARENT
REMARK Flexibility Score: inf
ROOT
ATOM      1  C   UNL     1       5.055  48.568  31.263  1.00  0.00     0.000 C 
ENDROOT
BRANCH   1   2
ATOM      2  C   UNL     1       5.900  47.760  32.271  1.00  0.00     0.006 C 
BRANCH   2   3
ATOM      3  C   UNL     1       5.931  48.347  33.691  1.00  0.00     0.053 C 
BRANCH   3   4
ATOM      4  C   UNL     1       7.179  47.968  34.427  1.00  0.00     0.041 C 
ATOM      5  O   UNL     1       7.192  47.945  35.686  1.00  0.00    -0.550 OA
ATOM      6  O   UNL     1       8.339  47.672  33.722  1.00  0.00    -0.550 OA
ENDBRANCH   3   4
ENDBRANCH   2   3
ENDBRANCH   1   2
BRANCH   1   7
ATOM      7  C   UNL     1       5.817  49.050  30.015  1.00  0.00     0.000 C 
BRANCH   7   8
ATOM      8  C   UNL     1       7.307  48.683  30.044  1.00  0.00    -0.000 C 
BRANCH   8   9
ATOM      9  C   UNL     1       8.176  49.931  30.242  1.00  0.00    -0.003 C 
ATOM     10  C   UNL     1       9.472  49.590  30.972  1.00  0.00     0.004 C 
ENDBRANCH   8   9
ENDBRANCH   7   8
ENDBRANCH   1   7
TORSDOF 6
ENDMDL
MODEL 5
REMARK VINA RESULT:    -3.526     16.342     17.854
REMARK INTER + INTRA:          -5.151
REMARK INTER:                  -4.834
REMARK INTRA:                  -0.317
REMARK UNBOUND:                -0.389
REMARK SMILES CCCCCCCC(=O)[O-]
REMARK SMILES IDX 5 1 6 2 7 3 8 4 9 5 10 6 4 7 3 8 2 9 1 10
REMARK H PARENT
REMARK Flexibility Score: inf
ROOT
ATOM      1  C   UNL     1      11.881  35.942  21.903  1.00  0.00     0.000 C 
ENDROOT
BRANCH   1   2
ATOM      2  C   UNL     1      10.359  36.105  22.095  1.00  0.00     0.006 C 
BRANCH   2   3
ATOM      3  C   UNL     1       9.567  36.286  20.791  1.00  0.00     0.053 C 
BRANCH   3   4
ATOM      4  C   UNL     1       8.792  35.056  20.431  1.00  0.00     0.041 C 
ATOM      5  O   UNL     1       9.392  33.978  20.179  1.00  0.00    -0.550 OA
ATOM      6  O   UNL     1       7.406  35.109  20.341  1.00  0.00    -0.550 OA
ENDBRANCH   3   4
ENDBRANCH   2   3
ENDBRANCH   1   2
BRANCH   1   7
ATOM      7  C   UNL     1      12.393  36.236  20.480  1.00  0.00     0.000 C 
BRANCH   7   8
ATOM      8  C   UNL     1      13.796  35.671  20.220  1.00  0.00    -0.000 C 
BRANCH   8   9
ATOM      9  C   UNL     1      13.939  34.263  20.810  1.00  0.00    -0.003 C 
ATOM     10  C   UNL     1      15.341  33.708  20.580  1.00  0.00     0.004 C 
ENDBRANCH   8   9
ENDBRANCH   7   8
ENDBRANCH   1   7
TORSDOF 6
ENDMDL
MODEL 6
REMARK VINA RESULT:    -3.511     17.174     18.443
REMARK INTER + INTRA:          -5.132
REMARK INTER:                  -4.787
REMARK INTRA:                  -0.345
REMARK UNBOUND:                -0.389
REMARK SMILES CCCCCCCC(=O)[O-]
REMARK SMILES IDX 5 1 6 2 7 3 8 4 9 5 10 6 4 7 3 8 2 9 1 10
REMARK H PARENT
REMARK Flexibility Score: inf
ROOT
ATOM      1  C   UNL     1      13.736  35.476  20.147  1.00  0.00     0.000 C 
ENDROOT
BRANCH   1   2
ATOM      2  C   UNL     1      14.473  34.154  20.445  1.00  0.00     0.006 C 
BRANCH   2   3
ATOM      3  C   UNL     1      13.584  32.902  20.394  1.00  0.00     0.053 C 
BRANCH   3   4
ATOM      4  C   UNL     1      13.543  32.191  21.711  1.00  0.00     0.041 C 
ATOM      5  O   UNL     1      12.458  32.085  22.342  1.00  0.00    -0.550 OA
ATOM      6  O   UNL     1      14.710  31.672  22.258  1.00  0.00    -0.550 OA
ENDBRANCH   3   4
ENDBRANCH   2   3
ENDBRANCH   1   2
BRANCH   1   7
ATOM      7  C   UNL     1      12.807  35.972  21.271  1.00  0.00     0.000 C 
BRANCH   7   8
ATOM      8  C   UNL     1      11.363  36.195  20.800  1.00  0.00    -0.000 C 
BRANCH   8   9
ATOM      9  C   UNL     1      10.385  36.115  21.977  1.00  0.00    -0.003 C 
ATOM     10  C   UNL     1      11.083  35.628  23.244  1.00  0.00     0.004 C 
ENDBRANCH   8   9
ENDBRANCH   7   8
ENDBRANCH   1   7
TORSDOF 6
ENDMDL
MODEL 7
REMARK VINA RESULT:    -3.458     16.220     17.305
REMARK INTER + INTRA:          -5.060
REMARK INTER:                  -4.747
REMARK INTRA:                  -0.313
REMARK UNBOUND:                -0.389
REMARK SMILES CCCCCCCC(=O)[O-]
REMARK SMILES IDX 5 1 6 2 7 3 8 4 9 5 10 6 4 7 3 8 2 9 1 10
REMARK H PARENT
REMARK Flexibility Score: inf
ROOT
ATOM      1  C   UNL     1      10.308  36.311  22.162  1.00  0.00     0.000 C 
ENDROOT
BRANCH   1   2
ATOM      2  C   UNL     1      11.813  36.022  22.344  1.00  0.00     0.006 C 
BRANCH   2   3
ATOM      3  C   UNL     1      12.623  36.016  21.038  1.00  0.00     0.053 C 
BRANCH   3   4
ATOM      4  C   UNL     1      13.232  34.677  20.763  1.00  0.00     0.041 C 
ATOM      5  O   UNL     1      14.473  34.504  20.893  1.00  0.00    -0.550 OA
ATOM      6  O   UNL     1      12.434  33.625  20.330  1.00  0.00    -0.550 OA
ENDBRANCH   3   4
ENDBRANCH   2   3
ENDBRANCH   1   2
BRANCH   1   7
ATOM      7  C   UNL     1       9.789  36.178  20.718  1.00  0.00     0.000 C 
BRANCH   7   8
ATOM      8  C   UNL     1       9.075  34.843  20.460  1.00  0.00    -0.000 C 
BRANCH   8   9
ATOM      9  C   UNL     1       7.569  35.056  20.265  1.00  0.00    -0.003 C 
ATOM     10  C   UNL     1       6.828  33.723  20.198  1.00  0.00     0.004 C 
ENDBRANCH   8   9
ENDBRANCH   7   8
ENDBRANCH   1   7
TORSDOF 6
ENDMDL
MODEL 8
REMARK VINA RESULT:    -3.452     16.591     17.872
REMARK INTER + INTRA:          -5.051
REMARK INTER:                  -4.637
REMARK INTRA:                  -0.414
REMARK UNBOUND:                -0.389
REMARK SMILES CCCCCCCC(=O)[O-]
REMARK SMILES IDX 5 1 6 2 7 3 8 4 9 5 10 6 4 7 3 8 2 9 1 10
REMARK H PARENT
REMARK Flexibility Score: inf
ROOT
ATOM      1  C   UNL     1      12.619  36.221  20.832  1.00  0.00     0.000 C 
ENDROOT
BRANCH   1   2
ATOM      2  C   UNL     1      13.364  35.176  19.975  1.00  0.00     0.006 C 
BRANCH   2   3
ATOM      3  C   UNL     1      14.298  34.249  20.770  1.00  0.00     0.053 C 
BRANCH   3   4
ATOM      4  C   UNL     1      13.622  32.970  21.155  1.00  0.00     0.041 C 
ATOM      5  O   UNL     1      12.433  32.749  20.804  1.00  0.00    -0.550 OA
ATOM      6  O   UNL     1      14.295  32.034  21.931  1.00  0.00    -0.550 OA
ENDBRANCH   3   4
ENDBRANCH   2   3
ENDBRANCH   1   2
BRANCH   1   7
ATOM      7  C   UNL     1      11.086  36.208  20.687  1.00  0.00     0.000 C 
BRANCH   7   8
ATOM      8  C   UNL     1      10.357  36.235  22.038  1.00  0.00    -0.000 C 
BRANCH   8   9
ATOM      9  C   UNL     1      11.162  35.492  23.110  1.00  0.00    -0.003 C 
ATOM     10  C   UNL     1      11.057  36.192  24.463  1.00  0.00     0.004 C 
ENDBRANCH   8   9
ENDBRANCH   7   8
ENDBRANCH   1   7
TORSDOF 6
ENDMDL
MODEL 9
REMARK VINA RESULT:    -3.426      2.566      3.098
REMARK INTER + INTRA:          -5.017
REMARK INTER:                  -4.605
REMARK INTRA:                  -0.412
REMARK UNBOUND:                -0.389
REMARK SMILES CCCCCCCC(=O)[O-]
REMARK SMILES IDX 5 1 6 2 7 3 8 4 9 5 10 6 4 7 3 8 2 9 1 10
REMARK H PARENT
REMARK Flexibility Score: inf
ROOT
ATOM      1  C   UNL     1       8.402  48.992  31.048  1.00  0.00     0.000 C 
ENDROOT
BRANCH   1   2
ATOM      2  C   UNL     1       8.383  49.539  32.491  1.00  0.00     0.006 C 
BRANCH   2   3
ATOM      3  C   UNL     1       6.977  49.755  33.072  1.00  0.00     0.053 C 
BRANCH   3   4
ATOM      4  C   UNL     1       6.399  48.489  33.625  1.00  0.00     0.041 C 
ATOM      5  O   UNL     1       6.980  47.883  34.563  1.00  0.00    -0.550 OA
ATOM      6  O   UNL     1       5.236  47.959  33.080  1.00  0.00    -0.550 OA
ENDBRANCH   3   4
ENDBRANCH   2   3
ENDBRANCH   1   2
BRANCH   1   7
ATOM      7  C   UNL     1       7.957  49.993  29.966  1.00  0.00     0.000 C 
BRANCH   7   8
ATOM      8  C   UNL     1       6.516  49.760  29.492  1.00  0.00    -0.000 C 
BRANCH   8   9
ATOM      9  C   UNL     1       6.147  48.274  29.568  1.00  0.00    -0.003 C 
ATOM     10  C   UNL     1       5.503  47.797  28.269  1.00  0.00     0.004 C 
ENDBRANCH   8   9
ENDBRANCH   7   8
ENDBRANCH   1   7
TORSDOF 6
ENDMDL
