MODEL 1
REMARK VINA RESULT:    -5.001      0.000      0.000
REMARK INTER + INTRA:         -10.609
REMARK INTER:                  -8.801
REMARK INTRA:                  -1.808
REMARK UNBOUND:                -1.808
REMARK SMILES CCCCCCC=CCCCCCCCC(=O)[O-]
REMARK SMILES IDX 10 1 11 2 12 3 13 4 14 5 15 6 16 7 17 8 18 9 9 10 8 11 7 12
REMARK SMILES IDX 6 13 5 14 4 15 3 16 2 17 1 18
REMARK H PARENT
REMARK Flexibility Score: inf
ROOT
ATOM      1  C   UNL     1     -11.969 -27.692 -35.075  1.00  0.00     0.004 C 
ENDROOT
BRANCH   1   2
ATOM      2  C   UNL     1     -13.369 -27.256 -35.547  1.00  0.00     0.000 C 
BRANCH   2   3
ATOM      3  C   UNL     1     -13.386 -25.835 -36.137  1.00  0.00     0.000 C 
BRANCH   3   4
ATOM      4  C   UNL     1     -12.595 -24.830 -35.285  1.00  0.00     0.000 C 
BRANCH   4   5
ATOM      5  C   UNL     1     -12.667 -23.398 -35.842  1.00  0.00     0.006 C 
BRANCH   5   6
ATOM      6  C   UNL     1     -12.771 -22.347 -34.728  1.00  0.00     0.053 C 
BRANCH   6   7
ATOM      7  C   UNL     1     -12.505 -20.964 -35.240  1.00  0.00     0.041 C 
ATOM      8  O   UNL     1     -13.410 -20.327 -35.842  1.00  0.00    -0.550 OA
ATOM      9  O   UNL     1     -11.268 -20.369 -35.027  1.00  0.00    -0.550 OA
ENDBRANCH   6   7
ENDBRANCH   5   6
ENDBRANCH   4   5
ENDBRANCH   3   4
ENDBRANCH   2   3
ENDBRANCH   1   2
BRANCH   1  10
ATOM     10  C   UNL     1     -11.937 -28.359 -33.690  1.00  0.00     0.027 C 
BRANCH  10  11
ATOM     11  C   UNL     1     -13.068 -27.884 -32.807  1.00  0.00    -0.031 C 
ATOM     12  C   UNL     1     -13.219 -28.186 -31.504  1.00  0.00    -0.031 C 
BRANCH  12  13
ATOM     13  C   UNL     1     -12.269 -29.022 -30.680  1.00  0.00     0.027 C 
BRANCH  13  14
ATOM     14  C   UNL     1     -11.085 -28.219 -30.119  1.00  0.00     0.004 C 
BRANCH  14  15
ATOM     15  C   UNL     1     -11.345 -26.706 -30.129  1.00  0.00     0.000 C 
BRANCH  15  16
ATOM     16  C   UNL     1     -10.261 -25.969 -30.929  1.00  0.00    -0.000 C 
BRANCH  16  17
ATOM     17  C   UNL     1     -10.847 -25.083 -32.039  1.00  0.00    -0.003 C 
ATOM     18  C   UNL     1     -12.175 -24.439 -31.643  1.00  0.00     0.004 C 
ENDBRANCH  16  17
ENDBRANCH  15  16
ENDBRANCH  14  15
ENDBRANCH  13  14
ENDBRANCH  12  13
ENDBRANCH  10  11
ENDBRANCH   1  10
TORSDOF 13
ENDMDL
MODEL 2
REMARK VINA RESULT:    -4.920      2.104      5.049
REMARK INTER + INTRA:         -10.467
REMARK INTER:                  -8.888
REMARK INTRA:                  -1.578
REMARK UNBOUND:                -1.808
REMARK SMILES CCCCCCC=CCCCCCCCC(=O)[O-]
REMARK SMILES IDX 10 1 11 2 12 3 13 4 14 5 15 6 16 7 17 8 18 9 9 10 8 11 7 12
REMARK SMILES IDX 6 13 5 14 4 15 3 16 2 17 1 18
REMARK H PARENT
REMARK Flexibility Score: inf
ROOT
ATOM      1  C   UNL     1     -11.600 -28.373 -30.554  1.00  0.00     0.004 C 
ENDROOT
BRANCH   1   2
ATOM      2  C   UNL     1     -12.974 -28.556 -31.225  1.00  0.00     0.000 C 
BRANCH   2   3
ATOM      3  C   UNL     1     -13.025 -27.982 -32.652  1.00  0.00     0.000 C 
BRANCH   3   4
ATOM      4  C   UNL     1     -11.970 -28.604 -33.578  1.00  0.00     0.000 C 
BRANCH   4   5
ATOM      5  C   UNL     1     -11.784 -27.807 -34.881  1.00  0.00     0.006 C 
BRANCH   5   6
ATOM      6  C   UNL     1     -12.307 -26.369 -34.760  1.00  0.00     0.053 C 
BRANCH   6   7
ATOM      7  C   UNL     1     -13.403 -26.091 -35.744  1.00  0.00     0.041 C 
ATOM      8  O   UNL     1     -13.303 -25.126 -36.547  1.00  0.00    -0.550 OA
ATOM      9  O   UNL     1     -14.520 -26.916 -35.794  1.00  0.00    -0.550 OA
ENDBRANCH   6   7
ENDBRANCH   5   6
ENDBRANCH   4   5
ENDBRANCH   3   4
ENDBRANCH   2   3
ENDBRANCH   1   2
BRANCH   1  10
ATOM     10  C   UNL     1     -11.291 -26.935 -30.104  1.00  0.00     0.027 C 
BRANCH  10  11
ATOM     11  C   UNL     1     -10.316 -26.250 -31.033  1.00  0.00    -0.031 C 
ATOM     12  C   UNL     1     -10.588 -25.172 -31.793  1.00  0.00    -0.031 C 
BRANCH  12  13
ATOM     13  C   UNL     1     -11.905 -24.433 -31.828  1.00  0.00     0.027 C 
BRANCH  13  14
ATOM     14  C   UNL     1     -11.778 -22.993 -32.349  1.00  0.00     0.004 C 
BRANCH  14  15
ATOM     15  C   UNL     1     -12.483 -22.793 -33.698  1.00  0.00     0.000 C 
BRANCH  15  16
ATOM     16  C   UNL     1     -12.465 -21.315 -34.113  1.00  0.00    -0.000 C 
BRANCH  16  17
ATOM     17  C   UNL     1     -12.898 -21.105 -35.572  1.00  0.00    -0.003 C 
ATOM     18  C   UNL     1     -12.310 -19.837 -36.187  1.00  0.00     0.004 C 
ENDBRANCH  16  17
ENDBRANCH  15  16
ENDBRANCH  14  15
ENDBRANCH  13  14
ENDBRANCH  12  13
ENDBRANCH  10  11
ENDBRANCH   1  10
TORSDOF 13
ENDMDL
MODEL 3
REMARK VINA RESULT:    -4.869      1.361      3.681
REMARK INTER + INTRA:         -10.377
REMARK INTER:                  -8.373
REMARK INTRA:                  -2.003
REMARK UNBOUND:                -1.808
REMARK SMILES CCCCCCC=CCCCCCCCC(=O)[O-]
REMARK SMILES IDX 10 1 11 2 12 3 13 4 14 5 15 6 16 7 17 8 18 9 9 10 8 11 7 12
REMARK SMILES IDX 6 13 5 14 4 15 3 16 2 17 1 18
REMARK H PARENT
REMARK Flexibility Score: inf
ROOT
ATOM      1  C   UNL     1     -10.435 -24.709 -31.690  1.00  0.00     0.004 C 
ENDROOT
BRANCH   1   2
ATOM      2  C   UNL     1     -11.638 -23.853 -32.129  1.00  0.00     0.000 C 
BRANCH   2   3
ATOM      3  C   UNL     1     -11.429 -22.350 -31.871  1.00  0.00     0.000 C 
BRANCH   3   4
ATOM      4  C   UNL     1     -11.798 -21.485 -33.086  1.00  0.00     0.000 C 
BRANCH   4   5
ATOM      5  C   UNL     1     -12.600 -22.264 -34.143  1.00  0.00     0.006 C 
BRANCH   5   6
ATOM      6  C   UNL     1     -12.645 -21.532 -35.491  1.00  0.00     0.053 C 
BRANCH   6   7
ATOM      7  C   UNL     1     -13.590 -20.369 -35.462  1.00  0.00     0.041 C 
ATOM      8  O   UNL     1     -13.376 -19.360 -36.185  1.00  0.00    -0.550 OA
ATOM      9  O   UNL     1     -14.723 -20.413 -34.659  1.00  0.00    -0.550 OA
ENDBRANCH   6   7
ENDBRANCH   5   6
ENDBRANCH   4   5
ENDBRANCH   3   4
ENDBRANCH   2   3
ENDBRANCH   1   2
BRANCH   1  10
ATOM     10  C   UNL     1     -10.748 -26.200 -31.483  1.00  0.00     0.027 C 
BRANCH  10  11
ATOM     11  C   UNL     1     -12.220 -26.439 -31.241  1.00  0.00    -0.031 C 
ATOM     12  C   UNL     1     -12.949 -27.432 -31.787  1.00  0.00    -0.031 C 
BRANCH  12  13
ATOM     13  C   UNL     1     -12.420 -28.504 -32.710  1.00  0.00     0.027 C 
BRANCH  13  14
ATOM     14  C   UNL     1     -12.664 -28.201 -34.196  1.00  0.00     0.004 C 
BRANCH  14  15
ATOM     15  C   UNL     1     -11.378 -27.798 -34.931  1.00  0.00     0.000 C 
BRANCH  15  16
ATOM     16  C   UNL     1     -11.368 -26.292 -35.231  1.00  0.00    -0.000 C 
BRANCH  16  17
ATOM     17  C   UNL     1     -12.774 -25.673 -35.197  1.00  0.00    -0.003 C 
ATOM     18  C   UNL     1     -13.191 -25.077 -36.541  1.00  0.00     0.004 C 
ENDBRANCH  16  17
ENDBRANCH  15  16
ENDBRANCH  14  15
ENDBRANCH  13  14
ENDBRANCH  12  13
ENDBRANCH  10  11
ENDBRANCH   1  10
TORSDOF 13
ENDMDL
MODEL 4
REMARK VINA RESULT:    -4.855      1.297      2.408
REMARK INTER + INTRA:         -10.353
REMARK INTER:                  -8.519
REMARK INTRA:                  -1.834
REMARK UNBOUND:                -1.808
REMARK SMILES CCCCCCC=CCCCCCCCC(=O)[O-]
REMARK SMILES IDX 10 1 11 2 12 3 13 4 14 5 15 6 16 7 17 8 18 9 9 10 8 11 7 12
REMARK SMILES IDX 6 13 5 14 4 15 3 16 2 17 1 18
REMARK H PARENT
REMARK Flexibility Score: inf
ROOT
ATOM      1  C   UNL     1     -11.294 -25.583 -35.825  1.00  0.00     0.004 C 
ENDROOT
BRANCH   1   2
ATOM      2  C   UNL     1     -12.689 -24.931 -35.785  1.00  0.00     0.000 C 
BRANCH   2   3
ATOM      3  C   UNL     1     -12.634 -23.395 -35.866  1.00  0.00     0.000 C 
BRANCH   3   4
ATOM      4  C   UNL     1     -12.839 -22.724 -34.500  1.00  0.00     0.000 C 
BRANCH   4   5
ATOM      5  C   UNL     1     -13.091 -21.210 -34.619  1.00  0.00     0.006 C 
BRANCH   5   6
ATOM      6  C   UNL     1     -12.290 -20.578 -35.766  1.00  0.00     0.053 C 
BRANCH   6   7
ATOM      7  C   UNL     1     -10.933 -20.128 -35.316  1.00  0.00     0.041 C 
ATOM      8  O   UNL     1     -10.711 -19.909 -34.096  1.00  0.00    -0.550 OA
ATOM      9  O   UNL     1      -9.906 -19.981 -36.240  1.00  0.00    -0.550 OA
ENDBRANCH   6   7
ENDBRANCH   5   6
ENDBRANCH   4   5
ENDBRANCH   3   4
ENDBRANCH   2   3
ENDBRANCH   1   2
BRANCH   1  10
ATOM     10  C   UNL     1     -11.118 -26.782 -34.877  1.00  0.00     0.027 C 
BRANCH  10  11
ATOM     11  C   UNL     1     -12.050 -27.919 -35.226  1.00  0.00    -0.031 C 
ATOM     12  C   UNL     1     -13.140 -28.279 -34.522  1.00  0.00    -0.031 C 
BRANCH  12  13
ATOM     13  C   UNL     1     -13.649 -27.588 -33.279  1.00  0.00     0.027 C 
BRANCH  13  14
ATOM     14  C   UNL     1     -13.076 -28.176 -31.981  1.00  0.00     0.004 C 
BRANCH  14  15
ATOM     15  C   UNL     1     -12.349 -27.125 -31.130  1.00  0.00     0.000 C 
BRANCH  15  16
ATOM     16  C   UNL     1     -12.651 -25.707 -31.637  1.00  0.00    -0.000 C 
BRANCH  16  17
ATOM     17  C   UNL     1     -11.376 -24.893 -31.909  1.00  0.00    -0.003 C 
ATOM     18  C   UNL     1     -10.110 -25.601 -31.429  1.00  0.00     0.004 C 
ENDBRANCH  16  17
ENDBRANCH  15  16
ENDBRANCH  14  15
ENDBRANCH  13  14
ENDBRANCH  12  13
ENDBRANCH  10  11
ENDBRANCH   1  10
TORSDOF 13
ENDMDL
MODEL 5
REMARK VINA RESULT:    -4.769      2.346      5.716
REMARK INTER + INTRA:         -10.201
REMARK INTER:                  -8.740
REMARK INTRA:                  -1.460
REMARK UNBOUND:                -1.808
REMARK SMILES CCCCCCC=CCCCCCCCC(=O)[O-]
REMARK SMILES IDX 10 1 11 2 12 3 13 4 14 5 15 6 16 7 17 8 18 9 9 10 8 11 7 12
REMARK SMILES IDX 6 13 5 14 4 15 3 16 2 17 1 18
REMARK H PARENT
REMARK Flexibility Score: inf
ROOT
ATOM      1  C   UNL     1     -13.394 -27.837 -35.424  1.00  0.00     0.004 C 
ENDROOT
BRANCH   1   2
ATOM      2  C   UNL     1     -11.960 -27.774 -34.866  1.00  0.00     0.000 C 
BRANCH   2   3
ATOM      3  C   UNL     1     -11.822 -28.456 -33.493  1.00  0.00     0.000 C 
BRANCH   3   4
ATOM      4  C   UNL     1     -12.969 -28.096 -32.536  1.00  0.00     0.000 C 
BRANCH   4   5
ATOM      5  C   UNL     1     -12.486 -27.308 -31.306  1.00  0.00     0.006 C 
BRANCH   5   6
ATOM      6  C   UNL     1     -12.282 -25.818 -31.616  1.00  0.00     0.053 C 
BRANCH   6   7
ATOM      7  C   UNL     1     -10.837 -25.426 -31.540  1.00  0.00     0.041 C 
ATOM      8  O   UNL     1      -9.945 -26.310 -31.444  1.00  0.00    -0.550 OA
ATOM      9  O   UNL     1     -10.475 -24.086 -31.604  1.00  0.00    -0.550 OA
ENDBRANCH   6   7
ENDBRANCH   5   6
ENDBRANCH   4   5
ENDBRANCH   3   4
ENDBRANCH   2   3
ENDBRANCH   1   2
BRANCH   1  10
ATOM     10  C   UNL     1     -14.112 -26.480 -35.506  1.00  0.00     0.027 C 
BRANCH  10  11
ATOM     11  C   UNL     1     -13.394 -25.514 -36.419  1.00  0.00    -0.031 C 
ATOM     12  C   UNL     1     -12.721 -24.418 -36.021  1.00  0.00    -0.031 C 
BRANCH  12  13
ATOM     13  C   UNL     1     -12.532 -23.975 -34.589  1.00  0.00     0.027 C 
BRANCH  13  14
ATOM     14  C   UNL     1     -12.716 -22.463 -34.393  1.00  0.00     0.004 C 
BRANCH  14  15
ATOM     15  C   UNL     1     -12.451 -21.667 -35.679  1.00  0.00     0.000 C 
BRANCH  15  16
ATOM     16  C   UNL     1     -13.191 -20.322 -35.654  1.00  0.00    -0.000 C 
BRANCH  16  17
ATOM     17  C   UNL     1     -14.399 -20.330 -34.706  1.00  0.00    -0.003 C 
ATOM     18  C   UNL     1     -14.450 -19.100 -33.802  1.00  0.00     0.004 C 
ENDBRANCH  16  17
ENDBRANCH  15  16
ENDBRANCH  14  15
ENDBRANCH  13  14
ENDBRANCH  12  13
ENDBRANCH  10  11
ENDBRANCH   1  10
TORSDOF 13
ENDMDL
MODEL 6
REMARK VINA RESULT:    -4.738      1.326      3.421
REMARK INTER + INTRA:         -10.147
REMARK INTER:                  -8.362
REMARK INTRA:                  -1.785
REMARK UNBOUND:                -1.808
REMARK SMILES CCCCCCC=CCCCCCCCC(=O)[O-]
REMARK SMILES IDX 10 1 11 2 12 3 13 4 14 5 15 6 16 7 17 8 18 9 9 10 8 11 7 12
REMARK SMILES IDX 6 13 5 14 4 15 3 16 2 17 1 18
REMARK H PARENT
REMARK Flexibility Score: inf
ROOT
ATOM      1  C   UNL     1     -12.426 -24.627 -31.235  1.00  0.00     0.004 C 
ENDROOT
BRANCH   1   2
ATOM      2  C   UNL     1     -11.950 -24.327 -32.668  1.00  0.00     0.000 C 
BRANCH   2   3
ATOM      3  C   UNL     1     -12.146 -22.855 -33.069  1.00  0.00     0.000 C 
BRANCH   3   4
ATOM      4  C   UNL     1     -12.748 -22.699 -34.473  1.00  0.00     0.000 C 
BRANCH   4   5
ATOM      5  C   UNL     1     -13.118 -21.241 -34.799  1.00  0.00     0.006 C 
BRANCH   5   6
ATOM      6  C   UNL     1     -12.239 -20.656 -35.913  1.00  0.00     0.053 C 
BRANCH   6   7
ATOM      7  C   UNL     1     -10.944 -20.123 -35.380  1.00  0.00     0.041 C 
ATOM      8  O   UNL     1     -10.863 -19.737 -34.184  1.00  0.00    -0.550 OA
ATOM      9  O   UNL     1      -9.820 -20.080 -36.195  1.00  0.00    -0.550 OA
ENDBRANCH   6   7
ENDBRANCH   5   6
ENDBRANCH   4   5
ENDBRANCH   3   4
ENDBRANCH   2   3
ENDBRANCH   1   2
BRANCH   1  10
ATOM     10  C   UNL     1     -11.348 -25.213 -30.308  1.00  0.00     0.027 C 
BRANCH  10  11
ATOM     11  C   UNL     1     -10.478 -26.223 -31.022  1.00  0.00    -0.031 C 
ATOM     12  C   UNL     1     -10.691 -27.552 -31.051  1.00  0.00    -0.031 C 
BRANCH  12  13
ATOM     13  C   UNL     1     -11.854 -28.270 -30.409  1.00  0.00     0.027 C 
BRANCH  13  14
ATOM     14  C   UNL     1     -12.982 -28.604 -31.398  1.00  0.00     0.004 C 
BRANCH  14  15
ATOM     15  C   UNL     1     -12.530 -28.491 -32.861  1.00  0.00     0.000 C 
BRANCH  15  16
ATOM     16  C   UNL     1     -13.457 -27.554 -33.650  1.00  0.00    -0.000 C 
BRANCH  16  17
ATOM     17  C   UNL     1     -12.852 -27.118 -34.993  1.00  0.00    -0.003 C 
ATOM     18  C   UNL     1     -11.324 -27.117 -34.981  1.00  0.00     0.004 C 
ENDBRANCH  16  17
ENDBRANCH  15  16
ENDBRANCH  14  15
ENDBRANCH  13  14
ENDBRANCH  12  13
ENDBRANCH  10  11
ENDBRANCH   1  10
TORSDOF 13
ENDMDL
MODEL 7
REMARK VINA RESULT:    -4.665      2.427      5.212
REMARK INTER + INTRA:         -10.018
REMARK INTER:                  -8.380
REMARK INTRA:                  -1.638
REMARK UNBOUND:                -1.808
REMARK SMILES CCCCCCC=CCCCCCCCC(=O)[O-]
REMARK SMILES IDX 10 1 11 2 12 3 13 4 14 5 15 6 16 7 17 8 18 9 9 10 8 11 7 12
REMARK SMILES IDX 6 13 5 14 4 15 3 16 2 17 1 18
REMARK H PARENT
REMARK Flexibility Score: inf
ROOT
ATOM      1  C   UNL     1     -11.287 -28.278 -30.149  1.00  0.00     0.004 C 
ENDROOT
BRANCH   1   2
ATOM      2  C   UNL     1     -12.772 -28.294 -30.555  1.00  0.00     0.000 C 
BRANCH   2   3
ATOM      3  C   UNL     1     -12.980 -28.562 -32.056  1.00  0.00     0.000 C 
BRANCH   3   4
ATOM      4  C   UNL     1     -13.666 -27.391 -32.776  1.00  0.00     0.000 C 
BRANCH   4   5
ATOM      5  C   UNL     1     -13.802 -27.628 -34.290  1.00  0.00     0.006 C 
BRANCH   5   6
ATOM      6  C   UNL     1     -13.051 -26.571 -35.111  1.00  0.00     0.053 C 
BRANCH   6   7
ATOM      7  C   UNL     1     -11.595 -26.899 -35.244  1.00  0.00     0.041 C 
ATOM      8  O   UNL     1     -10.770 -26.002 -35.562  1.00  0.00    -0.550 OA
ATOM      9  O   UNL     1     -11.146 -28.188 -34.986  1.00  0.00    -0.550 OA
ENDBRANCH   6   7
ENDBRANCH   5   6
ENDBRANCH   4   5
ENDBRANCH   3   4
ENDBRANCH   2   3
ENDBRANCH   1   2
BRANCH   1  10
ATOM     10  C   UNL     1     -10.675 -26.874 -30.008  1.00  0.00     0.027 C 
BRANCH  10  11
ATOM     11  C   UNL     1     -10.048 -26.399 -31.297  1.00  0.00    -0.031 C 
ATOM     12  C   UNL     1     -10.416 -25.301 -31.985  1.00  0.00    -0.031 C 
BRANCH  12  13
ATOM     13  C   UNL     1     -11.496 -24.328 -31.574  1.00  0.00     0.027 C 
BRANCH  13  14
ATOM     14  C   UNL     1     -12.461 -23.975 -32.716  1.00  0.00     0.004 C 
BRANCH  14  15
ATOM     15  C   UNL     1     -12.184 -22.586 -33.310  1.00  0.00     0.000 C 
BRANCH  15  16
ATOM     16  C   UNL     1     -12.790 -22.460 -34.715  1.00  0.00    -0.000 C 
BRANCH  16  17
ATOM     17  C   UNL     1     -12.241 -21.251 -35.488  1.00  0.00    -0.003 C 
ATOM     18  C   UNL     1     -13.309 -20.197 -35.774  1.00  0.00     0.004 C 
ENDBRANCH  16  17
ENDBRANCH  15  16
ENDBRANCH  14  15
ENDBRANCH  13  14
ENDBRANCH  12  13
ENDBRANCH  10  11
ENDBRANCH   1  10
TORSDOF 13
ENDMDL
MODEL 8
REMARK VINA RESULT:    -4.609      1.187      3.855
REMARK INTER + INTRA:          -9.920
REMARK INTER:                  -8.422
REMARK INTRA:                  -1.498
REMARK UNBOUND:                -1.808
REMARK SMILES CCCCCCC=CCCCCCCCC(=O)[O-]
REMARK SMILES IDX 10 1 11 2 12 3 13 4 14 5 15 6 16 7 17 8 18 9 9 10 8 11 7 12
REMARK SMILES IDX 6 13 5 14 4 15 3 16 2 17 1 18
REMARK H PARENT
REMARK Flexibility Score: inf
ROOT
ATOM      1  C   UNL     1     -10.874 -26.357 -30.295  1.00  0.00     0.004 C 
ENDROOT
BRANCH   1   2
ATOM      2  C   UNL     1     -10.234 -25.584 -31.463  1.00  0.00     0.000 C 
BRANCH   2   3
ATOM      3  C   UNL     1     -10.351 -24.058 -31.306  1.00  0.00     0.000 C 
BRANCH   3   4
ATOM      4  C   UNL     1     -11.793 -23.555 -31.472  1.00  0.00     0.000 C 
BRANCH   4   5
ATOM      5  C   UNL     1     -12.217 -23.455 -32.947  1.00  0.00     0.006 C 
BRANCH   5   6
ATOM      6  C   UNL     1     -12.181 -22.010 -33.464  1.00  0.00     0.053 C 
BRANCH   6   7
ATOM      7  C   UNL     1     -12.962 -21.853 -34.733  1.00  0.00     0.041 C 
ATOM      8  O   UNL     1     -13.956 -21.081 -34.774  1.00  0.00    -0.550 OA
ATOM      9  O   UNL     1     -12.574 -22.537 -35.879  1.00  0.00    -0.550 OA
ENDBRANCH   6   7
ENDBRANCH   5   6
ENDBRANCH   4   5
ENDBRANCH   3   4
ENDBRANCH   2   3
ENDBRANCH   1   2
BRANCH   1  10
ATOM     10  C   UNL     1     -10.743 -27.887 -30.388  1.00  0.00     0.027 C 
BRANCH  10  11
ATOM     11  C   UNL     1     -12.080 -28.578 -30.250  1.00  0.00    -0.031 C 
ATOM     12  C   UNL     1     -12.956 -28.788 -31.250  1.00  0.00    -0.031 C 
BRANCH  12  13
ATOM     13  C   UNL     1     -12.746 -28.404 -32.696  1.00  0.00     0.027 C 
BRANCH  13  14
ATOM     14  C   UNL     1     -13.636 -27.236 -33.149  1.00  0.00     0.004 C 
BRANCH  14  15
ATOM     15  C   UNL     1     -14.334 -27.516 -34.488  1.00  0.00     0.000 C 
BRANCH  15  16
ATOM     16  C   UNL     1     -13.360 -27.341 -35.662  1.00  0.00    -0.000 C 
BRANCH  16  17
ATOM     17  C   UNL     1     -12.552 -26.038 -35.569  1.00  0.00    -0.003 C 
ATOM     18  C   UNL     1     -11.075 -26.278 -35.263  1.00  0.00     0.004 C 
ENDBRANCH  16  17
ENDBRANCH  15  16
ENDBRANCH  14  15
ENDBRANCH  13  14
ENDBRANCH  12  13
ENDBRANCH  10  11
ENDBRANCH   1  10
TORSDOF 13
ENDMDL
MODEL 9
REMARK VINA RESULT:    -4.411      1.999      5.621
REMARK INTER + INTRA:          -9.570
REMARK INTER:                  -8.389
REMARK INTRA:                  -1.181
REMARK UNBOUND:                -1.808
REMARK SMILES CCCCCCC=CCCCCCCCC(=O)[O-]
REMARK SMILES IDX 10 1 11 2 12 3 13 4 14 5 15 6 16 7 17 8 18 9 9 10 8 11 7 12
REMARK SMILES IDX 6 13 5 14 4 15 3 16 2 17 1 18
REMARK H PARENT
REMARK Flexibility Score: inf
ROOT
ATOM      1  C   UNL     1     -13.490 -27.545 -33.147  1.00  0.00     0.004 C 
ENDROOT
BRANCH   1   2
ATOM      2  C   UNL     1     -12.402 -28.402 -32.474  1.00  0.00     0.000 C 
BRANCH   2   3
ATOM      3  C   UNL     1     -12.528 -28.434 -30.940  1.00  0.00     0.000 C 
BRANCH   3   4
ATOM      4  C   UNL     1     -11.427 -27.623 -30.239  1.00  0.00     0.000 C 
BRANCH   4   5
ATOM      5  C   UNL     1     -10.446 -26.978 -31.233  1.00  0.00     0.006 C 
BRANCH   5   6
ATOM      6  C   UNL     1      -9.953 -25.607 -30.753  1.00  0.00     0.053 C 
BRANCH   6   7
ATOM      7  C   UNL     1     -10.637 -24.485 -31.473  1.00  0.00     0.041 C 
ATOM      8  O   UNL     1     -11.581 -24.728 -32.271  1.00  0.00    -0.550 OA
ATOM      9  O   UNL     1     -10.253 -23.170 -31.240  1.00  0.00    -0.550 OA
ENDBRANCH   6   7
ENDBRANCH   5   6
ENDBRANCH   4   5
ENDBRANCH   3   4
ENDBRANCH   2   3
ENDBRANCH   1   2
BRANCH   1  10
ATOM     10  C   UNL     1     -13.337 -27.393 -34.670  1.00  0.00     0.027 C 
BRANCH  10  11
ATOM     11  C   UNL     1     -12.004 -26.790 -35.046  1.00  0.00    -0.031 C 
ATOM     12  C   UNL     1     -11.828 -25.590 -35.633  1.00  0.00    -0.031 C 
BRANCH  12  13
ATOM     13  C   UNL     1     -12.927 -24.616 -35.986  1.00  0.00     0.027 C 
BRANCH  13  14
ATOM     14  C   UNL     1     -12.494 -23.146 -35.872  1.00  0.00     0.004 C 
BRANCH  14  15
ATOM     15  C   UNL     1     -12.969 -22.495 -34.565  1.00  0.00     0.000 C 
BRANCH  15  16
ATOM     16  C   UNL     1     -13.502 -21.078 -34.821  1.00  0.00    -0.000 C 
BRANCH  16  17
ATOM     17  C   UNL     1     -12.376 -20.047 -34.996  1.00  0.00    -0.003 C 
ATOM     18  C   UNL     1     -12.377 -19.399 -36.380  1.00  0.00     0.004 C 
ENDBRANCH  16  17
ENDBRANCH  15  16
ENDBRANCH  14  15
ENDBRANCH  13  14
ENDBRANCH  12  13
ENDBRANCH  10  11
ENDBRANCH   1  10
TORSDOF 13
ENDMDL
