MODEL 1
REMARK VINA RESULT:    -5.505      0.000      0.000
REMARK INTER + INTRA:          -5.831
REMARK INTER:                  -5.827
REMARK INTRA:                  -0.004
REMARK UNBOUND:                -0.004
REMARK SMILES C=C(C)[C@H]1CC[C@@H](C)[C@]12CC=C(C)CC2
REMARK SMILES IDX 8 1 7 2 6 3 5 4 4 5 9 6 15 7 14 8 12 9 11 10 10 11 13 12
REMARK SMILES IDX 2 13 1 14 3 15
REMARK H PARENT
REMARK Flexibility Score: inf
ROOT
ATOM      1  C   UNL     1      -1.690  15.211   2.133  1.00  0.00     0.008 C 
ATOM      2  C   UNL     1      -0.730  14.132   2.669  1.00  0.00    -0.007 C 
ATOM      3  C   UNL     1      -0.579  14.185   4.194  1.00  0.00     0.004 C 
ATOM      4  C   UNL     1       0.846  13.729   4.501  1.00  0.00     0.009 C 
ATOM      5  C   UNL     1       1.443  13.264   3.165  1.00  0.00     0.021 C 
ATOM      6  C   UNL     1       0.716  14.128   2.089  1.00  0.00    -0.017 C 
ATOM      7  C   UNL     1       1.325  15.586   2.026  1.00  0.00     0.012 C 
ATOM      8  C   UNL     1       1.304  16.179   0.611  1.00  0.00     0.031 C 
ATOM      9  C   UNL     1       2.048  15.245  -0.311  1.00  0.00    -0.077 C 
ATOM     10  C   UNL     1       1.791  13.929  -0.235  1.00  0.00    -0.027 C 
ATOM     11  C   UNL     1       0.709  13.425   0.683  1.00  0.00     0.035 C 
ATOM     12  C   UNL     1       3.131  15.751  -1.225  1.00  0.00     0.039 C 
ENDROOT
BRANCH   5  13
ATOM     13  C   UNL     1       2.976  13.240   3.108  1.00  0.00    -0.077 C 
ATOM     14  C   UNL     1       3.617  12.058   3.103  1.00  0.00     0.008 C 
ATOM     15  C   UNL     1       3.797  14.508   3.203  1.00  0.00     0.039 C 
ENDBRANCH   5  13
TORSDOF 1
ENDMDL
MODEL 2
REMARK VINA RESULT:    -5.495      1.608      3.866
REMARK INTER + INTRA:          -5.820
REMARK INTER:                  -5.541
REMARK INTRA:                  -0.279
REMARK UNBOUND:                -0.004
REMARK SMILES C=C(C)[C@H]1CC[C@@H](C)[C@]12CC=C(C)CC2
REMARK SMILES IDX 8 1 7 2 6 3 5 4 4 5 9 6 15 7 14 8 12 9 11 10 10 11 13 12
REMARK SMILES IDX 2 13 1 14 3 15
REMARK H PARENT
REMARK Flexibility Score: inf
ROOT
ATOM      1  C   UNL     1       2.322  16.454  -1.613  1.00  0.00     0.008 C 
ATOM      2  C   UNL     1       2.045  16.401  -0.099  1.00  0.00    -0.007 C 
ATOM      3  C   UNL     1       3.330  16.287   0.730  1.00  0.00     0.004 C 
ATOM      4  C   UNL     1       2.969  15.476   1.973  1.00  0.00     0.009 C 
ATOM      5  C   UNL     1       1.448  15.272   1.924  1.00  0.00     0.021 C 
ATOM      6  C   UNL     1       1.102  15.267   0.403  1.00  0.00    -0.017 C 
ATOM      7  C   UNL     1       1.461  13.874  -0.255  1.00  0.00     0.012 C 
ATOM      8  C   UNL     1       0.495  13.483  -1.382  1.00  0.00     0.031 C 
ATOM      9  C   UNL     1      -0.908  13.471  -0.829  1.00  0.00    -0.077 C 
ATOM     10  C   UNL     1      -1.305  14.501  -0.063  1.00  0.00    -0.027 C 
ATOM     11  C   UNL     1      -0.391  15.681   0.143  1.00  0.00     0.035 C 
ATOM     12  C   UNL     1      -1.817  12.290  -1.034  1.00  0.00     0.039 C 
ENDROOT
BRANCH   5  13
ATOM     13  C   UNL     1       0.920  14.096   2.755  1.00  0.00    -0.077 C 
ATOM     14  C   UNL     1      -0.349  14.120   3.198  1.00  0.00     0.008 C 
ATOM     15  C   UNL     1       1.826  12.974   3.214  1.00  0.00     0.039 C 
ENDBRANCH   5  13
TORSDOF 1
ENDMDL
MODEL 3
REMARK VINA RESULT:    -5.417      1.406      3.532
REMARK INTER + INTRA:          -5.737
REMARK INTER:                  -5.649
REMARK INTRA:                  -0.088
REMARK UNBOUND:                -0.004
REMARK SMILES C=C(C)[C@H]1CC[C@@H](C)[C@]12CC=C(C)CC2
REMARK SMILES IDX 8 1 7 2 6 3 5 4 4 5 9 6 15 7 14 8 12 9 11 10 10 11 13 12
REMARK SMILES IDX 2 13 1 14 3 15
REMARK H PARENT
REMARK Flexibility Score: inf
ROOT
ATOM      1  C   UNL     1       1.884  11.933   4.200  1.00  0.00     0.008 C 
ATOM      2  C   UNL     1       2.850  12.772   3.343  1.00  0.00    -0.007 C 
ATOM      3  C   UNL     1       3.914  13.486   4.186  1.00  0.00     0.004 C 
ATOM      4  C   UNL     1       4.231  14.793   3.461  1.00  0.00     0.009 C 
ATOM      5  C   UNL     1       3.468  14.739   2.130  1.00  0.00     0.021 C 
ATOM      6  C   UNL     1       2.213  13.864   2.432  1.00  0.00    -0.017 C 
ATOM      7  C   UNL     1       1.112  14.699   3.203  1.00  0.00     0.012 C 
ATOM      8  C   UNL     1      -0.317  14.279   2.834  1.00  0.00     0.031 C 
ATOM      9  C   UNL     1      -0.487  14.413   1.341  1.00  0.00    -0.077 C 
ATOM     10  C   UNL     1       0.478  13.932   0.540  1.00  0.00    -0.027 C 
ATOM     11  C   UNL     1       1.646  13.188   1.132  1.00  0.00     0.035 C 
ATOM     12  C   UNL     1      -1.653  15.159   0.754  1.00  0.00     0.039 C 
ENDROOT
BRANCH   5  13
ATOM     13  C   UNL     1       3.216  16.099   1.466  1.00  0.00    -0.077 C 
ATOM     14  C   UNL     1       2.825  16.143   0.181  1.00  0.00     0.008 C 
ATOM     15  C   UNL     1       3.534  17.400   2.172  1.00  0.00     0.039 C 
ENDBRANCH   5  13
TORSDOF 1
ENDMDL
MODEL 4
REMARK VINA RESULT:    -5.040      1.627      3.886
REMARK INTER + INTRA:          -5.338
REMARK INTER:                  -5.147
REMARK INTRA:                  -0.191
REMARK UNBOUND:                -0.004
REMARK SMILES C=C(C)[C@H]1CC[C@@H](C)[C@]12CC=C(C)CC2
REMARK SMILES IDX 8 1 7 2 6 3 5 4 4 5 9 6 15 7 14 8 12 9 11 10 10 11 13 12
REMARK SMILES IDX 2 13 1 14 3 15
REMARK H PARENT
REMARK Flexibility Score: inf
ROOT
ATOM      1  C   UNL     1       4.759  13.977   3.502  1.00  0.00     0.008 C 
ATOM      2  C   UNL     1       3.488  14.266   4.323  1.00  0.00    -0.007 C 
ATOM      3  C   UNL     1       3.486  13.545   5.676  1.00  0.00     0.004 C 
ATOM      4  C   UNL     1       2.025  13.228   5.993  1.00  0.00     0.009 C 
ATOM      5  C   UNL     1       1.193  13.914   4.899  1.00  0.00     0.021 C 
ATOM      6  C   UNL     1       2.124  13.928   3.649  1.00  0.00    -0.017 C 
ATOM      7  C   UNL     1       2.155  12.510   2.948  1.00  0.00     0.012 C 
ATOM      8  C   UNL     1       2.307  12.603   1.424  1.00  0.00     0.031 C 
ATOM      9  C   UNL     1       1.182  13.449   0.880  1.00  0.00    -0.077 C 
ATOM     10  C   UNL     1       0.890  14.603   1.500  1.00  0.00    -0.027 C 
ATOM     11  C   UNL     1       1.741  15.078   2.648  1.00  0.00     0.035 C 
ATOM     12  C   UNL     1       0.332  12.971  -0.265  1.00  0.00     0.039 C 
ENDROOT
BRANCH   5  13
ATOM     13  C   UNL     1      -0.218  13.346   4.701  1.00  0.00    -0.077 C 
ATOM     14  C   UNL     1      -1.147  14.092   4.079  1.00  0.00     0.008 C 
ATOM     15  C   UNL     1      -0.639  12.027   5.312  1.00  0.00     0.039 C 
ENDBRANCH   5  13
TORSDOF 1
ENDMDL
MODEL 5
REMARK VINA RESULT:    -5.012      1.677      3.942
REMARK INTER + INTRA:          -5.309
REMARK INTER:                  -4.963
REMARK INTRA:                  -0.346
REMARK UNBOUND:                -0.004
REMARK SMILES C=C(C)[C@H]1CC[C@@H](C)[C@]12CC=C(C)CC2
REMARK SMILES IDX 8 1 7 2 6 3 5 4 4 5 9 6 15 7 14 8 12 9 11 10 10 11 13 12
REMARK SMILES IDX 2 13 1 14 3 15
REMARK H PARENT
REMARK Flexibility Score: inf
ROOT
ATOM      1  C   UNL     1       0.636  13.116  -2.124  1.00  0.00     0.008 C 
ATOM      2  C   UNL     1      -0.222  12.932  -0.858  1.00  0.00    -0.007 C 
ATOM      3  C   UNL     1      -1.724  13.050  -1.145  1.00  0.00     0.004 C 
ATOM      4  C   UNL     1      -2.357  13.644   0.113  1.00  0.00     0.009 C 
ATOM      5  C   UNL     1      -1.239  13.709   1.163  1.00  0.00     0.021 C 
ATOM      6  C   UNL     1       0.069  13.892   0.334  1.00  0.00    -0.017 C 
ATOM      7  C   UNL     1       0.229  15.391  -0.148  1.00  0.00     0.012 C 
ATOM      8  C   UNL     1       1.694  15.842  -0.209  1.00  0.00     0.031 C 
ATOM      9  C   UNL     1       2.313  15.646   1.153  1.00  0.00    -0.077 C 
ATOM     10  C   UNL     1       2.095  14.487   1.796  1.00  0.00    -0.027 C 
ATOM     11  C   UNL     1       1.332  13.381   1.116  1.00  0.00     0.035 C 
ATOM     12  C   UNL     1       3.072  16.753   1.831  1.00  0.00     0.039 C 
ENDROOT
BRANCH   5  13
ATOM     13  C   UNL     1      -1.475  14.704   2.307  1.00  0.00    -0.077 C 
ATOM     14  C   UNL     1      -0.995  14.426   3.531  1.00  0.00     0.008 C 
ATOM     15  C   UNL     1      -2.357  15.921   2.133  1.00  0.00     0.039 C 
ENDBRANCH   5  13
TORSDOF 1
ENDMDL
MODEL 6
REMARK VINA RESULT:    -4.905      1.953      4.282
REMARK INTER + INTRA:          -5.195
REMARK INTER:                  -4.846
REMARK INTRA:                  -0.349
REMARK UNBOUND:                -0.004
REMARK SMILES C=C(C)[C@H]1CC[C@@H](C)[C@]12CC=C(C)CC2
REMARK SMILES IDX 8 1 7 2 6 3 5 4 4 5 9 6 15 7 14 8 12 9 11 10 10 11 13 12
REMARK SMILES IDX 2 13 1 14 3 15
REMARK H PARENT
REMARK Flexibility Score: inf
ROOT
ATOM      1  C   UNL     1      -2.429  16.453   1.675  1.00  0.00     0.008 C 
ATOM      2  C   UNL     1      -1.820  16.133   0.297  1.00  0.00    -0.007 C 
ATOM      3  C   UNL     1      -2.792  15.373  -0.613  1.00  0.00     0.004 C 
ATOM      4  C   UNL     1      -1.936  14.464  -1.493  1.00  0.00     0.009 C 
ATOM      5  C   UNL     1      -0.475  14.831  -1.192  1.00  0.00     0.021 C 
ATOM      6  C   UNL     1      -0.490  15.321   0.288  1.00  0.00    -0.017 C 
ATOM      7  C   UNL     1      -0.547  14.097   1.290  1.00  0.00     0.012 C 
ATOM      8  C   UNL     1       0.216  14.362   2.594  1.00  0.00     0.031 C 
ATOM      9  C   UNL     1       1.643  14.712   2.253  1.00  0.00    -0.077 C 
ATOM     10  C   UNL     1       1.868  15.595   1.267  1.00  0.00    -0.027 C 
ATOM     11  C   UNL     1       0.710  16.286   0.596  1.00  0.00     0.035 C 
ATOM     12  C   UNL     1       2.797  14.018   2.922  1.00  0.00     0.039 C 
ENDROOT
BRANCH   5  13
ATOM     13  C   UNL     1       0.556  13.753  -1.551  1.00  0.00    -0.077 C 
ATOM     14  C   UNL     1       1.716  14.116  -2.125  1.00  0.00     0.008 C 
ATOM     15  C   UNL     1       0.248  12.278  -1.410  1.00  0.00     0.039 C 
ENDBRANCH   5  13
TORSDOF 1
ENDMDL
MODEL 7
REMARK VINA RESULT:    -4.793      2.186      4.611
REMARK INTER + INTRA:          -5.077
REMARK INTER:                  -4.752
REMARK INTRA:                  -0.325
REMARK UNBOUND:                -0.004
REMARK SMILES C=C(C)[C@H]1CC[C@@H](C)[C@]12CC=C(C)CC2
REMARK SMILES IDX 8 1 7 2 6 3 5 4 4 5 9 6 15 7 14 8 12 9 11 10 10 11 13 12
REMARK SMILES IDX 2 13 1 14 3 15
REMARK H PARENT
REMARK Flexibility Score: inf
ROOT
ATOM      1  C   UNL     1      -2.562  13.187  -2.061  1.00  0.00     0.008 C 
ATOM      2  C   UNL     1      -1.128  13.639  -1.730  1.00  0.00    -0.007 C 
ATOM      3  C   UNL     1      -0.138  12.469  -1.689  1.00  0.00     0.004 C 
ATOM      4  C   UNL     1       0.918  12.835  -0.647  1.00  0.00     0.009 C 
ATOM      5  C   UNL     1       0.614  14.278  -0.220  1.00  0.00     0.021 C 
ATOM      6  C   UNL     1      -0.928  14.424  -0.399  1.00  0.00    -0.017 C 
ATOM      7  C   UNL     1      -1.705  13.746   0.801  1.00  0.00     0.012 C 
ATOM      8  C   UNL     1      -3.006  14.479   1.156  1.00  0.00     0.031 C 
ATOM      9  C   UNL     1      -2.676  15.916   1.472  1.00  0.00    -0.077 C 
ATOM     10  C   UNL     1      -1.849  16.581   0.649  1.00  0.00    -0.027 C 
ATOM     11  C   UNL     1      -1.352  15.922  -0.611  1.00  0.00     0.035 C 
ATOM     12  C   UNL     1      -3.171  16.570   2.733  1.00  0.00     0.039 C 
ENDROOT
BRANCH   5  13
ATOM     13  C   UNL     1       1.192  14.692   1.140  1.00  0.00    -0.077 C 
ATOM     14  C   UNL     1       1.810  15.880   1.259  1.00  0.00     0.008 C 
ATOM     15  C   UNL     1       1.215  13.742   2.318  1.00  0.00     0.039 C 
ENDBRANCH   5  13
TORSDOF 1
ENDMDL
MODEL 8
REMARK VINA RESULT:    -4.543      1.627      4.805
REMARK INTER + INTRA:          -4.813
REMARK INTER:                  -4.476
REMARK INTRA:                  -0.337
REMARK UNBOUND:                -0.004
REMARK SMILES C=C(C)[C@H]1CC[C@@H](C)[C@]12CC=C(C)CC2
REMARK SMILES IDX 8 1 7 2 6 3 5 4 4 5 9 6 15 7 14 8 12 9 11 10 10 11 13 12
REMARK SMILES IDX 2 13 1 14 3 15
REMARK H PARENT
REMARK Flexibility Score: inf
ROOT
ATOM      1  C   UNL     1       3.234  16.185  -1.350  1.00  0.00     0.008 C 
ATOM      2  C   UNL     1       1.808  15.635  -1.539  1.00  0.00    -0.007 C 
ATOM      3  C   UNL     1       0.849  16.679  -2.125  1.00  0.00     0.004 C 
ATOM      4  C   UNL     1      -0.529  16.372  -1.543  1.00  0.00     0.009 C 
ATOM      5  C   UNL     1      -0.379  15.060  -0.758  1.00  0.00     0.021 C 
ATOM      6  C   UNL     1       1.103  15.060  -0.274  1.00  0.00    -0.017 C 
ATOM      7  C   UNL     1       1.290  16.006   0.980  1.00  0.00     0.012 C 
ATOM      8  C   UNL     1       2.352  15.491   1.960  1.00  0.00     0.031 C 
ATOM      9  C   UNL     1       1.971  14.096   2.390  1.00  0.00    -0.077 C 
ATOM     10  C   UNL     1       1.582  13.219   1.451  1.00  0.00    -0.027 C 
ATOM     11  C   UNL     1       1.629  13.604  -0.004  1.00  0.00     0.035 C 
ATOM     12  C   UNL     1       1.923  13.715   3.845  1.00  0.00     0.039 C 
ENDROOT
BRANCH   5  13
ATOM     13  C   UNL     1      -1.454  14.811   0.308  1.00  0.00    -0.077 C 
ATOM     14  C   UNL     1      -2.001  13.589   0.419  1.00  0.00     0.008 C 
ATOM     15  C   UNL     1      -2.019  15.937   1.147  1.00  0.00     0.039 C 
ENDBRANCH   5  13
TORSDOF 1
ENDMDL
MODEL 9
REMARK VINA RESULT:    -4.531      1.890      3.546
REMARK INTER + INTRA:          -4.800
REMARK INTER:                  -4.462
REMARK INTRA:                  -0.338
REMARK UNBOUND:                -0.004
REMARK SMILES C=C(C)[C@H]1CC[C@@H](C)[C@]12CC=C(C)CC2
REMARK SMILES IDX 8 1 7 2 6 3 5 4 4 5 9 6 15 7 14 8 12 9 11 10 10 11 13 12
REMARK SMILES IDX 2 13 1 14 3 15
REMARK H PARENT
REMARK Flexibility Score: inf
ROOT
ATOM      1  C   UNL     1      -0.488  14.143   3.194  1.00  0.00     0.008 C 
ATOM      2  C   UNL     1       0.736  13.994   2.272  1.00  0.00    -0.007 C 
ATOM      3  C   UNL     1       1.985  14.681   2.839  1.00  0.00     0.004 C 
ATOM      4  C   UNL     1       2.792  15.166   1.636  1.00  0.00     0.009 C 
ATOM      5  C   UNL     1       2.081  14.611   0.393  1.00  0.00     0.021 C 
ATOM      6  C   UNL     1       0.582  14.510   0.810  1.00  0.00    -0.017 C 
ATOM      7  C   UNL     1      -0.117  15.928   0.761  1.00  0.00     0.012 C 
ATOM      8  C   UNL     1      -1.593  15.849   0.351  1.00  0.00     0.031 C 
ATOM      9  C   UNL     1      -1.682  15.159  -0.988  1.00  0.00    -0.077 C 
ATOM     10  C   UNL     1      -0.971  14.036  -1.179  1.00  0.00    -0.027 C 
ATOM     11  C   UNL     1      -0.189  13.437  -0.040  1.00  0.00     0.035 C 
ATOM     12  C   UNL     1      -2.461  15.762  -2.125  1.00  0.00     0.039 C 
ENDROOT
BRANCH   5  13
ATOM     13  C   UNL     1       2.384  15.351  -0.917  1.00  0.00    -0.077 C 
ATOM     14  C   UNL     1       2.382  14.669  -2.075  1.00  0.00     0.008 C 
ATOM     15  C   UNL     1       2.826  16.798  -0.930  1.00  0.00     0.039 C 
ENDBRANCH   5  13
TORSDOF 1
ENDMDL
