MODEL 1
REMARK VINA RESULT:    -4.844      0.000      0.000
REMARK INTER + INTRA:          -7.434
REMARK INTER:                  -6.544
REMARK INTRA:                  -0.890
REMARK UNBOUND:                -0.890
REMARK SMILES CC(=O)CCC=C(C)CCC=C(C)C
REMARK SMILES IDX 7 1 6 2 8 3 9 4 10 5 11 6 13 7 12 8 14 9 5 10 4 11 2 12 3 13
REMARK SMILES IDX 1 14
REMARK H PARENT
REMARK Flexibility Score: inf
ROOT
ATOM      1  C   UNL     1      -4.190  -5.313   4.627  1.00  0.00    -0.077 C 
ATOM      2  C   UNL     1      -4.998  -4.701   5.524  1.00  0.00    -0.028 C 
ATOM      3  C   UNL     1      -4.623  -6.641   4.064  1.00  0.00     0.039 C 
ENDROOT
BRANCH   1   4
ATOM      4  C   UNL     1      -2.841  -4.753   4.217  1.00  0.00     0.034 C 
BRANCH   4   5
ATOM      5  C   UNL     1      -2.673  -4.811   2.694  1.00  0.00     0.032 C 
BRANCH   5   6
ATOM      6  C   UNL     1      -2.838  -3.444   2.074  1.00  0.00    -0.028 C 
ATOM      7  C   UNL     1      -5.220  -3.904   1.481  1.00  0.00     0.039 C 
ATOM      8  C   UNL     1      -3.995  -3.022   1.520  1.00  0.00    -0.080 C 
ATOM      9  C   UNL     1      -4.051  -1.638   0.927  1.00  0.00     0.039 C 
ENDBRANCH   5   6
ENDBRANCH   4   5
ENDBRANCH   1   4
BRANCH   2  10
ATOM     10  C   UNL     1      -4.717  -3.367   6.168  1.00  0.00     0.035 C 
BRANCH  10  11
ATOM     11  C   UNL     1      -5.729  -3.076   7.281  1.00  0.00     0.079 C 
BRANCH  11  12
ATOM     12  C   UNL     1      -5.098  -2.262   8.377  1.00  0.00     0.130 C 
ATOM     13  O   UNL     1      -5.797  -1.800   9.267  1.00  0.00    -0.300 OA
ATOM     14  C   UNL     1      -3.618  -2.033   8.397  1.00  0.00     0.087 C 
ENDBRANCH  11  12
ENDBRANCH  10  11
ENDBRANCH   2  10
TORSDOF 6
ENDMDL
MODEL 2
REMARK VINA RESULT:    -4.569      2.900      5.033
REMARK INTER + INTRA:          -7.063
REMARK INTER:                  -5.767
REMARK INTRA:                  -1.296
REMARK UNBOUND:                -0.890
REMARK SMILES CC(=O)CCC=C(C)CCC=C(C)C
REMARK SMILES IDX 7 1 6 2 8 3 9 4 10 5 11 6 13 7 12 8 14 9 5 10 4 11 2 12 3 13
REMARK SMILES IDX 1 14
REMARK H PARENT
REMARK Flexibility Score: inf
ROOT
ATOM      1  C   UNL     1      -4.236  -4.612   4.758  1.00  0.00    -0.077 C 
ATOM      2  C   UNL     1      -3.777  -3.520   4.103  1.00  0.00    -0.028 C 
ATOM      3  C   UNL     1      -4.866  -4.420   6.113  1.00  0.00     0.039 C 
ENDROOT
BRANCH   1   4
ATOM      4  C   UNL     1      -4.085  -6.021   4.219  1.00  0.00     0.034 C 
BRANCH   4   5
ATOM      5  C   UNL     1      -5.455  -6.691   4.065  1.00  0.00     0.032 C 
BRANCH   5   6
ATOM      6  C   UNL     1      -6.125  -6.277   2.777  1.00  0.00    -0.028 C 
ATOM      7  C   UNL     1      -7.862  -4.962   4.000  1.00  0.00     0.039 C 
ATOM      8  C   UNL     1      -7.221  -5.489   2.738  1.00  0.00    -0.080 C 
ATOM      9  C   UNL     1      -7.811  -5.136   1.398  1.00  0.00     0.039 C 
ENDBRANCH   5   6
ENDBRANCH   4   5
ENDBRANCH   1   4
BRANCH   2  10
ATOM     10  C   UNL     1      -3.136  -3.541   2.738  1.00  0.00     0.035 C 
BRANCH  10  11
ATOM     11  C   UNL     1      -4.179  -3.285   1.645  1.00  0.00     0.079 C 
BRANCH  11  12
ATOM     12  C   UNL     1      -3.872  -2.014   0.901  1.00  0.00     0.130 C 
ATOM     13  O   UNL     1      -4.788  -1.328   0.471  1.00  0.00    -0.300 OA
ATOM     14  C   UNL     1      -2.455  -1.572   0.703  1.00  0.00     0.087 C 
ENDBRANCH  11  12
ENDBRANCH  10  11
ENDBRANCH   2  10
TORSDOF 6
ENDMDL
MODEL 3
REMARK VINA RESULT:    -4.468     14.069     16.301
REMARK INTER + INTRA:          -6.925
REMARK INTER:                  -6.082
REMARK INTRA:                  -0.843
REMARK UNBOUND:                -0.890
REMARK SMILES CC(=O)CCC=C(C)CCC=C(C)C
REMARK SMILES IDX 7 1 6 2 8 3 9 4 10 5 11 6 13 7 12 8 14 9 5 10 4 11 2 12 3 13
REMARK SMILES IDX 1 14
REMARK H PARENT
REMARK Flexibility Score: inf
ROOT
ATOM      1  C   UNL     1       9.452   5.700   7.290  1.00  0.00    -0.077 C 
ATOM      2  C   UNL     1       8.458   4.967   6.736  1.00  0.00    -0.028 C 
ATOM      3  C   UNL     1      10.697   4.986   7.747  1.00  0.00     0.039 C 
ENDROOT
BRANCH   1   4
ATOM      4  C   UNL     1       9.339   7.193   7.530  1.00  0.00     0.034 C 
BRANCH   4   5
ATOM      5  C   UNL     1       9.258   7.494   9.031  1.00  0.00     0.032 C 
BRANCH   5   6
ATOM      6  C   UNL     1       7.930   7.062   9.604  1.00  0.00    -0.028 C 
ATOM      7  C   UNL     1       7.192   9.428   9.911  1.00  0.00     0.039 C 
ATOM      8  C   UNL     1       6.982   7.936  10.007  1.00  0.00    -0.080 C 
ATOM      9  C   UNL     1       5.691   7.397  10.566  1.00  0.00     0.039 C 
ENDBRANCH   5   6
ENDBRANCH   4   5
ENDBRANCH   1   4
BRANCH   2  10
ATOM     10  C   UNL     1       7.160   5.530   6.216  1.00  0.00     0.035 C 
BRANCH  10  11
ATOM     11  C   UNL     1       6.112   4.423   6.058  1.00  0.00     0.079 C 
BRANCH  11  12
ATOM     12  C   UNL     1       4.743   4.927   6.424  1.00  0.00     0.130 C 
ATOM     13  O   UNL     1       3.975   5.287   5.545  1.00  0.00    -0.300 OA
ATOM     14  C   UNL     1       4.307   4.970   7.857  1.00  0.00     0.087 C 
ENDBRANCH  11  12
ENDBRANCH  10  11
ENDBRANCH   2  10
TORSDOF 6
ENDMDL
MODEL 4
REMARK VINA RESULT:    -4.406      2.367      5.513
REMARK INTER + INTRA:          -6.842
REMARK INTER:                  -6.139
REMARK INTRA:                  -0.704
REMARK UNBOUND:                -0.890
REMARK SMILES CC(=O)CCC=C(C)CCC=C(C)C
REMARK SMILES IDX 7 1 6 2 8 3 9 4 10 5 11 6 13 7 12 8 14 9 5 10 4 11 2 12 3 13
REMARK SMILES IDX 1 14
REMARK H PARENT
REMARK Flexibility Score: inf
ROOT
ATOM      1  C   UNL     1      -4.607  -5.668   4.021  1.00  0.00    -0.077 C 
ATOM      2  C   UNL     1      -3.394  -5.228   3.612  1.00  0.00    -0.028 C 
ATOM      3  C   UNL     1      -4.806  -7.151   4.198  1.00  0.00     0.039 C 
ENDROOT
BRANCH   1   4
ATOM      4  C   UNL     1      -5.788  -4.743   4.242  1.00  0.00     0.034 C 
BRANCH   4   5
ATOM      5  C   UNL     1      -6.129  -4.650   5.734  1.00  0.00     0.032 C 
BRANCH   5   6
ATOM      6  C   UNL     1      -5.083  -3.864   6.486  1.00  0.00    -0.028 C 
ATOM      7  C   UNL     1      -6.799  -2.851   7.992  1.00  0.00     0.039 C 
ATOM      8  C   UNL     1      -5.378  -3.042   7.516  1.00  0.00    -0.080 C 
ATOM      9  C   UNL     1      -4.256  -2.303   8.198  1.00  0.00     0.039 C 
ENDBRANCH   5   6
ENDBRANCH   4   5
ENDBRANCH   1   4
BRANCH   2  10
ATOM     10  C   UNL     1      -3.029  -3.780   3.402  1.00  0.00     0.035 C 
BRANCH  10  11
ATOM     11  C   UNL     1      -2.797  -3.488   1.916  1.00  0.00     0.079 C 
BRANCH  11  12
ATOM     12  C   UNL     1      -4.017  -2.862   1.298  1.00  0.00     0.130 C 
ATOM     13  O   UNL     1      -5.053  -3.506   1.215  1.00  0.00    -0.300 OA
ATOM     14  C   UNL     1      -3.979  -1.448   0.805  1.00  0.00     0.087 C 
ENDBRANCH  11  12
ENDBRANCH  10  11
ENDBRANCH   2  10
TORSDOF 6
ENDMDL
MODEL 5
REMARK VINA RESULT:    -4.153      2.279      5.967
REMARK INTER + INTRA:          -6.500
REMARK INTER:                  -5.671
REMARK INTRA:                  -0.829
REMARK UNBOUND:                -0.890
REMARK SMILES CC(=O)CCC=C(C)CCC=C(C)C
REMARK SMILES IDX 7 1 6 2 8 3 9 4 10 5 11 6 13 7 12 8 14 9 5 10 4 11 2 12 3 13
REMARK SMILES IDX 1 14
REMARK H PARENT
REMARK Flexibility Score: inf
ROOT
ATOM      1  C   UNL     1      -5.875  -4.256   5.836  1.00  0.00    -0.077 C 
ATOM      2  C   UNL     1      -5.644  -5.183   4.878  1.00  0.00    -0.028 C 
ATOM      3  C   UNL     1      -7.302  -3.972   6.227  1.00  0.00     0.039 C 
ENDROOT
BRANCH   1   4
ATOM      4  C   UNL     1      -4.768  -3.446   6.483  1.00  0.00     0.034 C 
BRANCH   4   5
ATOM      5  C   UNL     1      -5.020  -3.291   7.988  1.00  0.00     0.032 C 
BRANCH   5   6
ATOM      6  C   UNL     1      -5.340  -1.859   8.344  1.00  0.00    -0.028 C 
ATOM      7  C   UNL     1      -7.373  -2.538   9.625  1.00  0.00     0.039 C 
ATOM      8  C   UNL     1      -6.409  -1.507   9.089  1.00  0.00    -0.080 C 
ATOM      9  C   UNL     1      -6.636  -0.047   9.386  1.00  0.00     0.039 C 
ENDBRANCH   5   6
ENDBRANCH   4   5
ENDBRANCH   1   4
BRANCH   2  10
ATOM     10  C   UNL     1      -4.279  -5.591   4.385  1.00  0.00     0.035 C 
BRANCH  10  11
ATOM     11  C   UNL     1      -4.088  -5.190   2.919  1.00  0.00     0.079 C 
BRANCH  11  12
ATOM     12  C   UNL     1      -3.540  -3.793   2.815  1.00  0.00     0.130 C 
ATOM     13  O   UNL     1      -2.746  -3.390   3.652  1.00  0.00    -0.300 OA
ATOM     14  C   UNL     1      -3.944  -2.901   1.681  1.00  0.00     0.087 C 
ENDBRANCH  11  12
ENDBRANCH  10  11
ENDBRANCH   2  10
TORSDOF 6
ENDMDL
MODEL 6
REMARK VINA RESULT:    -4.106     14.891     16.646
REMARK INTER + INTRA:          -6.437
REMARK INTER:                  -5.459
REMARK INTRA:                  -0.978
REMARK UNBOUND:                -0.890
REMARK SMILES CC(=O)CCC=C(C)CCC=C(C)C
REMARK SMILES IDX 7 1 6 2 8 3 9 4 10 5 11 6 13 7 12 8 14 9 5 10 4 11 2 12 3 13
REMARK SMILES IDX 1 14
REMARK H PARENT
REMARK Flexibility Score: inf
ROOT
ATOM      1  C   UNL     1       9.984   6.542   8.544  1.00  0.00    -0.077 C 
ATOM      2  C   UNL     1       9.217   6.802   9.628  1.00  0.00    -0.028 C 
ATOM      3  C   UNL     1      10.985   5.419   8.629  1.00  0.00     0.039 C 
ENDROOT
BRANCH   1   4
ATOM      4  C   UNL     1       9.927   7.371   7.275  1.00  0.00     0.034 C 
BRANCH   4   5
ATOM      5  C   UNL     1       9.566   6.494   6.071  1.00  0.00     0.032 C 
BRANCH   5   6
ATOM      6  C   UNL     1       8.092   6.170   6.054  1.00  0.00    -0.028 C 
ATOM      7  C   UNL     1       8.536   3.724   6.294  1.00  0.00     0.039 C 
ATOM      8  C   UNL     1       7.613   4.911   6.155  1.00  0.00    -0.080 C 
ATOM      9  C   UNL     1       6.122   4.699   6.126  1.00  0.00     0.039 C 
ENDBRANCH   5   6
ENDBRANCH   4   5
ENDBRANCH   1   4
BRANCH   2  10
ATOM     10  C   UNL     1       8.162   7.877   9.699  1.00  0.00     0.035 C 
BRANCH  10  11
ATOM     11  C   UNL     1       6.982   7.424  10.565  1.00  0.00     0.079 C 
BRANCH  11  12
ATOM     12  C   UNL     1       5.839   8.397  10.460  1.00  0.00     0.130 C 
ATOM     13  O   UNL     1       6.067   9.576  10.234  1.00  0.00    -0.300 OA
ATOM     14  C   UNL     1       4.425   7.927  10.609  1.00  0.00     0.087 C 
ENDBRANCH  11  12
ENDBRANCH  10  11
ENDBRANCH   2  10
TORSDOF 6
ENDMDL
MODEL 7
REMARK VINA RESULT:    -4.104     15.073     16.847
REMARK INTER + INTRA:          -6.434
REMARK INTER:                  -5.191
REMARK INTRA:                  -1.243
REMARK UNBOUND:                -0.890
REMARK SMILES CC(=O)CCC=C(C)CCC=C(C)C
REMARK SMILES IDX 7 1 6 2 8 3 9 4 10 5 11 6 13 7 12 8 14 9 5 10 4 11 2 12 3 13
REMARK SMILES IDX 1 14
REMARK H PARENT
REMARK Flexibility Score: inf
ROOT
ATOM      1  C   UNL     1       8.061   4.790   5.922  1.00  0.00    -0.077 C 
ATOM      2  C   UNL     1       8.706   3.700   6.399  1.00  0.00    -0.028 C 
ATOM      3  C   UNL     1       6.558   4.834   6.030  1.00  0.00     0.039 C 
ENDROOT
BRANCH   1   4
ATOM      4  C   UNL     1       8.775   5.932   5.226  1.00  0.00     0.034 C 
BRANCH   4   5
ATOM      5  C   UNL     1       8.808   7.175   6.123  1.00  0.00     0.032 C 
BRANCH   5   6
ATOM      6  C   UNL     1       9.830   7.028   7.223  1.00  0.00    -0.028 C 
ATOM      7  C   UNL     1       8.055   6.878   8.974  1.00  0.00     0.039 C 
ATOM      8  C   UNL     1       9.497   6.892   8.525  1.00  0.00    -0.080 C 
ATOM      9  C   UNL     1      10.598   6.753   9.544  1.00  0.00     0.039 C 
ENDBRANCH   5   6
ENDBRANCH   4   5
ENDBRANCH   1   4
BRANCH   2  10
ATOM     10  C   UNL     1      10.202   3.508   6.380  1.00  0.00     0.035 C 
BRANCH  10  11
ATOM     11  C   UNL     1      10.688   2.903   7.701  1.00  0.00     0.079 C 
BRANCH  11  12
ATOM     12  C   UNL     1      10.621   1.401   7.657  1.00  0.00     0.130 C 
ATOM     13  O   UNL     1      10.755   0.820   6.589  1.00  0.00    -0.300 OA
ATOM     14  C   UNL     1      10.414   0.611   8.913  1.00  0.00     0.087 C 
ENDBRANCH  11  12
ENDBRANCH  10  11
ENDBRANCH   2  10
TORSDOF 6
ENDMDL
MODEL 8
REMARK VINA RESULT:    -4.048      2.951      5.712
REMARK INTER + INTRA:          -6.358
REMARK INTER:                  -5.684
REMARK INTRA:                  -0.674
REMARK UNBOUND:                -0.890
REMARK SMILES CC(=O)CCC=C(C)CCC=C(C)C
REMARK SMILES IDX 7 1 6 2 8 3 9 4 10 5 11 6 13 7 12 8 14 9 5 10 4 11 2 12 3 13
REMARK SMILES IDX 1 14
REMARK H PARENT
REMARK Flexibility Score: inf
ROOT
ATOM      1  C   UNL     1      -4.215  -4.695   3.600  1.00  0.00    -0.077 C 
ATOM      2  C   UNL     1      -4.842  -5.570   2.778  1.00  0.00    -0.028 C 
ATOM      3  C   UNL     1      -3.496  -3.525   2.982  1.00  0.00     0.039 C 
ENDROOT
BRANCH   1   4
ATOM      4  C   UNL     1      -4.149  -4.879   5.103  1.00  0.00     0.034 C 
BRANCH   4   5
ATOM      5  C   UNL     1      -5.406  -4.313   5.773  1.00  0.00     0.032 C 
BRANCH   5   6
ATOM      6  C   UNL     1      -5.050  -3.315   6.849  1.00  0.00    -0.028 C 
ATOM      7  C   UNL     1      -7.455  -2.882   7.367  1.00  0.00     0.039 C 
ATOM      8  C   UNL     1      -5.976  -2.659   7.580  1.00  0.00    -0.080 C 
ATOM      9  C   UNL     1      -5.512  -1.683   8.630  1.00  0.00     0.039 C 
ENDBRANCH   5   6
ENDBRANCH   4   5
ENDBRANCH   1   4
BRANCH   2  10
ATOM     10  C   UNL     1      -5.616  -6.780   3.237  1.00  0.00     0.035 C 
BRANCH  10  11
ATOM     11  C   UNL     1      -6.913  -6.932   2.435  1.00  0.00     0.079 C 
BRANCH  11  12
ATOM     12  C   UNL     1      -7.685  -5.641   2.421  1.00  0.00     0.130 C 
ATOM     13  O   UNL     1      -7.873  -5.059   1.363  1.00  0.00    -0.300 OA
ATOM     14  C   UNL     1      -8.244  -5.076   3.691  1.00  0.00     0.087 C 
ENDBRANCH  11  12
ENDBRANCH  10  11
ENDBRANCH   2  10
TORSDOF 6
ENDMDL
MODEL 9
REMARK VINA RESULT:    -4.008      1.899      3.335
REMARK INTER + INTRA:          -6.305
REMARK INTER:                  -5.093
REMARK INTRA:                  -1.211
REMARK UNBOUND:                -0.890
REMARK SMILES CC(=O)CCC=C(C)CCC=C(C)C
REMARK SMILES IDX 7 1 6 2 8 3 9 4 10 5 11 6 13 7 12 8 14 9 5 10 4 11 2 12 3 13
REMARK SMILES IDX 1 14
REMARK H PARENT
REMARK Flexibility Score: inf
ROOT
ATOM      1  C   UNL     1      -3.730  -4.712   4.134  1.00  0.00    -0.077 C 
ATOM      2  C   UNL     1      -4.314  -3.850   4.999  1.00  0.00    -0.028 C 
ATOM      3  C   UNL     1      -2.845  -4.150   3.053  1.00  0.00     0.039 C 
ENDROOT
BRANCH   1   4
ATOM      4  C   UNL     1      -3.982  -6.207   4.165  1.00  0.00     0.034 C 
BRANCH   4   5
ATOM      5  C   UNL     1      -4.779  -6.646   2.931  1.00  0.00     0.032 C 
BRANCH   5   6
ATOM      6  C   UNL     1      -6.246  -6.798   3.254  1.00  0.00    -0.028 C 
ATOM      7  C   UNL     1      -6.816  -4.669   2.079  1.00  0.00     0.039 C 
ATOM      8  C   UNL     1      -7.181  -5.903   2.870  1.00  0.00    -0.080 C 
ATOM      9  C   UNL     1      -8.619  -6.150   3.246  1.00  0.00     0.039 C 
ENDBRANCH   5   6
ENDBRANCH   4   5
ENDBRANCH   1   4
BRANCH   2  10
ATOM     10  C   UNL     1      -5.213  -4.252   6.141  1.00  0.00     0.035 C 
BRANCH  10  11
ATOM     11  C   UNL     1      -5.526  -3.048   7.036  1.00  0.00     0.079 C 
BRANCH  11  12
ATOM     12  C   UNL     1      -7.011  -2.851   7.166  1.00  0.00     0.130 C 
ATOM     13  O   UNL     1      -7.443  -1.878   7.766  1.00  0.00    -0.300 OA
ATOM     14  C   UNL     1      -7.964  -3.827   6.547  1.00  0.00     0.087 C 
ENDBRANCH  11  12
ENDBRANCH  10  11
ENDBRANCH   2  10
TORSDOF 6
ENDMDL
