MODEL 1
REMARK VINA RESULT:    -4.790      0.000      0.000
REMARK INTER + INTRA:          -5.168
REMARK INTER:                  -5.070
REMARK INTRA:                  -0.098
REMARK UNBOUND:                -0.098
REMARK SMILES C=C(C)[C@H]1CC=C(C)C(=O)C1
REMARK SMILES IDX 8 1 7 2 6 3 5 4 4 5 11 6 9 7 10 8 2 9 1 10 3 11
REMARK H PARENT
REMARK Flexibility Score: inf
ROOT
ATOM      1  C   UNL     1      -3.748 -17.288  -5.745  1.00  0.00     0.048 C 
ATOM      2  C   UNL     1      -3.623 -15.972  -6.462  1.00  0.00    -0.012 C 
ATOM      3  C   UNL     1      -4.645 -15.513  -7.204  1.00  0.00    -0.019 C 
ATOM      4  C   UNL     1      -4.566 -14.212  -7.957  1.00  0.00     0.036 C 
ATOM      5  C   UNL     1      -3.686 -13.192  -7.209  1.00  0.00     0.025 C 
ATOM      6  C   UNL     1      -2.295 -13.790  -6.929  1.00  0.00     0.089 C 
ATOM      7  C   UNL     1      -2.420 -15.127  -6.251  1.00  0.00     0.158 C 
ATOM      8  O   UNL     1      -1.475 -15.539  -5.527  1.00  0.00    -0.295 OA
ENDROOT
BRANCH   5   9
ATOM      9  C   UNL     1      -3.588 -11.873  -7.965  1.00  0.00    -0.077 C 
ATOM     10  C   UNL     1      -2.689 -10.935  -7.621  1.00  0.00     0.008 C 
ATOM     11  C   UNL     1      -4.510 -11.598  -9.125  1.00  0.00     0.039 C 
ENDBRANCH   5   9
TORSDOF 1
ENDMDL
MODEL 2
REMARK VINA RESULT:    -4.650      1.685      4.243
REMARK INTER + INTRA:          -5.020
REMARK INTER:                  -4.922
REMARK INTRA:                  -0.097
REMARK UNBOUND:                -0.098
REMARK SMILES C=C(C)[C@H]1CC=C(C)C(=O)C1
REMARK SMILES IDX 8 1 7 2 6 3 5 4 4 5 11 6 9 7 10 8 2 9 1 10 3 11
REMARK H PARENT
REMARK Flexibility Score: inf
ROOT
ATOM      1  C   UNL     1      -4.857 -11.404  -9.122  1.00  0.00     0.048 C 
ATOM      2  C   UNL     1      -4.410 -12.500  -8.194  1.00  0.00    -0.012 C 
ATOM      3  C   UNL     1      -5.010 -13.701  -8.239  1.00  0.00    -0.019 C 
ATOM      4  C   UNL     1      -4.614 -14.827  -7.320  1.00  0.00     0.036 C 
ATOM      5  C   UNL     1      -3.111 -14.769  -6.988  1.00  0.00     0.025 C 
ATOM      6  C   UNL     1      -2.744 -13.389  -6.412  1.00  0.00     0.089 C 
ATOM      7  C   UNL     1      -3.229 -12.291  -7.318  1.00  0.00     0.158 C 
ATOM      8  O   UNL     1      -2.642 -11.176  -7.301  1.00  0.00    -0.295 OA
ENDROOT
BRANCH   5   9
ATOM      9  C   UNL     1      -2.699 -15.897  -6.051  1.00  0.00    -0.077 C 
ATOM     10  C   UNL     1      -1.509 -15.887  -5.426  1.00  0.00     0.008 C 
ATOM     11  C   UNL     1      -3.631 -17.056  -5.808  1.00  0.00     0.039 C 
ENDBRANCH   5   9
TORSDOF 1
ENDMDL
MODEL 3
REMARK VINA RESULT:    -4.529      1.332      1.849
REMARK INTER + INTRA:          -4.891
REMARK INTER:                  -4.796
REMARK INTRA:                  -0.095
REMARK UNBOUND:                -0.098
REMARK SMILES C=C(C)[C@H]1CC=C(C)C(=O)C1
REMARK SMILES IDX 8 1 7 2 6 3 5 4 4 5 11 6 9 7 10 8 2 9 1 10 3 11
REMARK H PARENT
REMARK Flexibility Score: inf
ROOT
ATOM      1  C   UNL     1      -1.689 -16.271  -5.000  1.00  0.00     0.048 C 
ATOM      2  C   UNL     1      -2.553 -15.573  -6.015  1.00  0.00    -0.012 C 
ATOM      3  C   UNL     1      -3.878 -15.791  -6.029  1.00  0.00    -0.019 C 
ATOM      4  C   UNL     1      -4.786 -15.133  -7.034  1.00  0.00     0.036 C 
ATOM      5  C   UNL     1      -4.268 -13.733  -7.417  1.00  0.00     0.025 C 
ATOM      6  C   UNL     1      -2.812 -13.820  -7.913  1.00  0.00     0.089 C 
ATOM      7  C   UNL     1      -1.957 -14.556  -6.918  1.00  0.00     0.158 C 
ATOM      8  O   UNL     1      -0.718 -14.324  -6.882  1.00  0.00    -0.295 OA
ENDROOT
BRANCH   5   9
ATOM      9  C   UNL     1      -5.171 -13.060  -8.441  1.00  0.00    -0.077 C 
ATOM     10  C   UNL     1      -5.024 -11.762  -8.758  1.00  0.00     0.008 C 
ATOM     11  C   UNL     1      -6.257 -13.850  -9.125  1.00  0.00     0.039 C 
ENDBRANCH   5   9
TORSDOF 1
ENDMDL
MODEL 4
REMARK VINA RESULT:    -4.356      1.492      2.182
REMARK INTER + INTRA:          -4.709
REMARK INTER:                  -4.611
REMARK INTRA:                  -0.098
REMARK UNBOUND:                -0.098
REMARK SMILES C=C(C)[C@H]1CC=C(C)C(=O)C1
REMARK SMILES IDX 8 1 7 2 6 3 5 4 4 5 11 6 9 7 10 8 2 9 1 10 3 11
REMARK H PARENT
REMARK Flexibility Score: inf
ROOT
ATOM      1  C   UNL     1      -2.605 -16.864  -5.491  1.00  0.00     0.048 C 
ATOM      2  C   UNL     1      -2.948 -15.551  -6.139  1.00  0.00    -0.012 C 
ATOM      3  C   UNL     1      -2.006 -14.874  -6.817  1.00  0.00    -0.019 C 
ATOM      4  C   UNL     1      -2.290 -13.547  -7.469  1.00  0.00     0.036 C 
ATOM      5  C   UNL     1      -3.747 -13.474  -7.966  1.00  0.00     0.025 C 
ATOM      6  C   UNL     1      -4.720 -13.777  -6.812  1.00  0.00     0.089 C 
ATOM      7  C   UNL     1      -4.352 -15.069  -6.134  1.00  0.00     0.158 C 
ATOM      8  O   UNL     1      -5.245 -15.721  -5.530  1.00  0.00    -0.295 OA
ENDROOT
BRANCH   5   9
ATOM      9  C   UNL     1      -4.051 -12.133  -8.620  1.00  0.00    -0.077 C 
ATOM     10  C   UNL     1      -5.315 -11.700  -8.772  1.00  0.00     0.008 C 
ATOM     11  C   UNL     1      -2.926 -11.260  -9.112  1.00  0.00     0.039 C 
ENDBRANCH   5   9
TORSDOF 1
ENDMDL
MODEL 5
REMARK VINA RESULT:    -3.724      2.157      4.013
REMARK INTER + INTRA:          -4.039
REMARK INTER:                  -3.947
REMARK INTRA:                  -0.092
REMARK UNBOUND:                -0.098
REMARK SMILES C=C(C)[C@H]1CC=C(C)C(=O)C1
REMARK SMILES IDX 8 1 7 2 6 3 5 4 4 5 11 6 9 7 10 8 2 9 1 10 3 11
REMARK H PARENT
REMARK Flexibility Score: inf
ROOT
ATOM      1  C   UNL     1      -6.045 -13.271  -8.656  1.00  0.00     0.048 C 
ATOM      2  C   UNL     1      -4.823 -13.890  -8.035  1.00  0.00    -0.012 C 
ATOM      3  C   UNL     1      -3.623 -13.729  -8.616  1.00  0.00    -0.019 C 
ATOM      4  C   UNL     1      -2.371 -14.343  -8.047  1.00  0.00     0.036 C 
ATOM      5  C   UNL     1      -2.438 -14.415  -6.510  1.00  0.00     0.025 C 
ATOM      6  C   UNL     1      -3.709 -15.163  -6.065  1.00  0.00     0.089 C 
ATOM      7  C   UNL     1      -4.928 -14.572  -6.720  1.00  0.00     0.158 C 
ATOM      8  O   UNL     1      -6.048 -14.692  -6.156  1.00  0.00    -0.295 OA
ENDROOT
BRANCH   5   9
ATOM      9  C   UNL     1      -1.182 -15.042  -5.921  1.00  0.00    -0.077 C 
ATOM     10  C   UNL     1       0.022 -14.462  -6.062  1.00  0.00     0.008 C 
ATOM     11  C   UNL     1      -1.272 -16.340  -5.160  1.00  0.00     0.039 C 
ENDBRANCH   5   9
TORSDOF 1
ENDMDL
MODEL 6
REMARK VINA RESULT:    -3.706      1.978      4.087
REMARK INTER + INTRA:          -4.020
REMARK INTER:                  -3.924
REMARK INTRA:                  -0.096
REMARK UNBOUND:                -0.098
REMARK SMILES C=C(C)[C@H]1CC=C(C)C(=O)C1
REMARK SMILES IDX 8 1 7 2 6 3 5 4 4 5 11 6 9 7 10 8 2 9 1 10 3 11
REMARK H PARENT
REMARK Flexibility Score: inf
ROOT
ATOM      1  C   UNL     1      -5.939 -13.494  -8.242  1.00  0.00     0.048 C 
ATOM      2  C   UNL     1      -4.734 -13.902  -7.439  1.00  0.00    -0.012 C 
ATOM      3  C   UNL     1      -4.707 -15.102  -6.837  1.00  0.00    -0.019 C 
ATOM      4  C   UNL     1      -3.535 -15.553  -6.006  1.00  0.00     0.036 C 
ATOM      5  C   UNL     1      -2.215 -14.976  -6.551  1.00  0.00     0.025 C 
ATOM      6  C   UNL     1      -2.303 -13.442  -6.651  1.00  0.00     0.089 C 
ATOM      7  C   UNL     1      -3.532 -13.031  -7.417  1.00  0.00     0.158 C 
ATOM      8  O   UNL     1      -3.542 -11.920  -8.011  1.00  0.00    -0.295 OA
ENDROOT
BRANCH   5   9
ATOM      9  C   UNL     1      -1.021 -15.416  -5.715  1.00  0.00    -0.077 C 
ATOM     10  C   UNL     1      -1.078 -16.511  -4.936  1.00  0.00     0.008 C 
ATOM     11  C   UNL     1       0.259 -14.622  -5.748  1.00  0.00     0.039 C 
ENDBRANCH   5   9
TORSDOF 1
ENDMDL
MODEL 7
REMARK VINA RESULT:    -3.513      1.520      2.296
REMARK INTER + INTRA:          -3.816
REMARK INTER:                  -3.723
REMARK INTRA:                  -0.094
REMARK UNBOUND:                -0.098
REMARK SMILES C=C(C)[C@H]1CC=C(C)C(=O)C1
REMARK SMILES IDX 8 1 7 2 6 3 5 4 4 5 11 6 9 7 10 8 2 9 1 10 3 11
REMARK H PARENT
REMARK Flexibility Score: inf
ROOT
ATOM      1  C   UNL     1      -0.502 -16.715  -4.581  1.00  0.00     0.048 C 
ATOM      2  C   UNL     1      -1.366 -15.960  -5.554  1.00  0.00    -0.012 C 
ATOM      3  C   UNL     1      -2.653 -16.308  -5.716  1.00  0.00    -0.019 C 
ATOM      4  C   UNL     1      -3.556 -15.600  -6.691  1.00  0.00     0.036 C 
ATOM      5  C   UNL     1      -3.177 -14.112  -6.816  1.00  0.00     0.025 C 
ATOM      6  C   UNL     1      -1.689 -13.970  -7.190  1.00  0.00     0.089 C 
ATOM      7  C   UNL     1      -0.828 -14.759  -6.242  1.00  0.00     0.158 C 
ATOM      8  O   UNL     1       0.370 -14.410  -6.064  1.00  0.00    -0.295 OA
ENDROOT
BRANCH   5   9
ATOM      9  C   UNL     1      -4.076 -13.384  -7.807  1.00  0.00    -0.077 C 
ATOM     10  C   UNL     1      -4.347 -13.903  -9.017  1.00  0.00     0.008 C 
ATOM     11  C   UNL     1      -4.684 -12.055  -7.440  1.00  0.00     0.039 C 
ENDBRANCH   5   9
TORSDOF 1
ENDMDL
