MODEL 1
REMARK VINA RESULT:    -1.262      0.000      0.000
REMARK INTER + INTRA:           3.666
REMARK INTER:                  -1.927
REMARK INTRA:                   5.592
REMARK UNBOUND:                 5.592
REMARK SMILES CC1=CCC[C@@H](C)C(=O)C[C@@H](C(C)C)C(=O)C1
REMARK SMILES IDX 8 1 9 2 6 3 7 4 5 5 4 6 3 7 2 8 1 9 10 11 11 12 15 13 16 14
REMARK SMILES IDX 17 15 12 17 13 18 14 19
REMARK H PARENT
REMARK Flexibility Score: 70.00
ROOT
ATOM      1  C   UNL     1      10.497  23.329  22.363  1.00  0.00     0.136 C 
ATOM      2  O   UNL     1      11.125  24.262  22.843  1.00  0.00    -0.299 OA
ENDROOT
BRANCH   1   3
ATOM      3  C   UNL     1      10.531  23.083  20.870  1.00  0.00     0.053 C 
ATOM      4  C   UNL     1      10.602  24.425  20.136  1.00  0.00     0.016 C 
BRANCH   3   5
ATOM      5  C   UNL     1       9.316  22.265  20.373  1.00  0.00     0.015 C 
BRANCH   5   6
ATOM      6  C   UNL     1       8.125  22.265  21.351  1.00  0.00     0.028 C 
BRANCH   6   7
ATOM      7  C   UNL     1       7.277  23.510  21.198  1.00  0.00    -0.028 C 
ATOM      8  C   UNL     1       7.463  24.692  21.829  1.00  0.00    -0.070 CG0
ATOM      9  C   UNL     1       6.474  25.799  21.559  1.00  0.00     0.039 C 
ATOM     10  G   UNL     1       8.643  24.989  22.733  1.00  0.00     0.000 G0
ENDBRANCH   6   7
ENDBRANCH   5   6
ENDBRANCH   3   5
ENDBRANCH   1   3
BRANCH   1  11
ATOM     11  C   UNL     1       9.713  22.416  23.276  1.00  0.00     0.087 C 
BRANCH  11  12
ATOM     12  C   UNL     1       9.167  23.160  24.514  1.00  0.00     0.066 C 
BRANCH  12  13
ATOM     13  C   UNL     1       8.537  24.480  24.115  1.00  0.00     0.140 C 
ATOM     14  O   UNL     1       7.934  25.145  24.947  1.00  0.00    -0.299 OA
BRANCH  13  15
ATOM     15  C   UNL     1       8.675  25.019  22.717  1.00  0.00     0.106 CG0
ATOM     16  G   UNL     1       7.456  24.649  21.896  1.00  0.00     0.000 G0
ENDBRANCH  13  15
ENDBRANCH  12  13
BRANCH  12  17
ATOM     17  C   UNL     1      10.238  23.313  25.636  1.00  0.00    -0.006 C 
ATOM     18  C   UNL     1       9.702  23.913  26.948  1.00  0.00     0.008 C 
ATOM     19  C   UNL     1      10.939  21.974  25.919  1.00  0.00     0.008 C 
ENDBRANCH  12  17
ENDBRANCH  11  12
ENDBRANCH   1  11
TORSDOF 1
ENDMDL
MODEL 2
REMARK VINA RESULT:     0.065      1.766      4.634
REMARK INTER + INTRA:           5.691
REMARK INTER:                   4.682
REMARK INTRA:                   1.009
REMARK UNBOUND:                 5.592
REMARK SMILES CC1=CCC[C@@H](C)C(=O)C[C@@H](C(C)C)C(=O)C1
REMARK SMILES IDX 8 1 9 2 6 3 7 4 5 5 4 6 3 7 2 8 1 9 10 11 11 12 15 13 16 14
REMARK SMILES IDX 17 15 12 17 13 18 14 19
REMARK H PARENT
REMARK Flexibility Score: 70.00
ROOT
ATOM      1  C   UNL     1       6.991  25.262  21.217  1.00  0.00     0.136 C 
ATOM      2  O   UNL     1       6.109  25.767  21.897  1.00  0.00    -0.299 OA
ENDROOT
BRANCH   1   3
ATOM      3  C   UNL     1       6.739  23.949  20.507  1.00  0.00     0.053 C 
ATOM      4  C   UNL     1       5.312  23.939  19.951  1.00  0.00     0.016 C 
BRANCH   3   5
ATOM      5  C   UNL     1       6.965  22.723  21.423  1.00  0.00     0.015 C 
BRANCH   5   6
ATOM      6  C   UNL     1       8.447  22.458  21.751  1.00  0.00     0.028 C 
BRANCH   6   7
ATOM      7  C   UNL     1       8.739  22.665  23.222  1.00  0.00    -0.028 C 
ATOM      8  C   UNL     1       9.872  23.180  23.752  1.00  0.00    -0.070 CG0
ATOM      9  C   UNL     1       9.972  23.267  25.255  1.00  0.00     0.039 C 
ATOM     10  G   UNL     1      11.012  23.740  22.925  1.00  0.00     0.000 G0
ENDBRANCH   6   7
ENDBRANCH   5   6
ENDBRANCH   3   5
ENDBRANCH   1   3
BRANCH   1  11
ATOM     11  C   UNL     1       8.315  25.972  21.072  1.00  0.00     0.087 C 
BRANCH  11  12
ATOM     12  C   UNL     1       9.487  24.985  20.880  1.00  0.00     0.066 C 
BRANCH  12  13
ATOM     13  C   UNL     1      10.422  25.020  22.074  1.00  0.00     0.140 C 
ATOM     14  O   UNL     1      10.773  26.094  22.543  1.00  0.00    -0.299 OA
BRANCH  13  15
ATOM     15  C   UNL     1      10.896  23.752  22.730  1.00  0.00     0.106 CG0
ATOM     16  G   UNL     1       9.815  23.202  23.638  1.00  0.00     0.000 G0
ENDBRANCH  13  15
ENDBRANCH  12  13
BRANCH  12  17
ATOM     17  C   UNL     1      10.226  25.194  19.524  1.00  0.00    -0.006 C 
ATOM     18  C   UNL     1      11.053  23.983  19.058  1.00  0.00     0.008 C 
ATOM     19  C   UNL     1       9.245  25.617  18.419  1.00  0.00     0.008 C 
ENDBRANCH  12  17
ENDBRANCH  11  12
ENDBRANCH   1  11
TORSDOF 1
ENDMDL
MODEL 3
REMARK VINA RESULT:     0.772      1.495      2.384
REMARK INTER + INTRA:           6.770
REMARK INTER:                   1.244
REMARK INTRA:                   5.527
REMARK UNBOUND:                 5.592
REMARK SMILES CC1=CCC[C@@H](C)C(=O)C[C@@H](C(C)C)C(=O)C1
REMARK SMILES IDX 8 1 9 2 6 3 7 4 5 5 4 6 3 7 2 8 1 9 10 11 11 12 15 13 16 14
REMARK SMILES IDX 17 15 12 17 13 18 14 19
REMARK H PARENT
REMARK Flexibility Score: 70.00
ROOT
ATOM      1  C   UNL     1      10.829  25.064  21.623  1.00  0.00     0.136 C 
ATOM      2  O   UNL     1      10.675  26.125  22.211  1.00  0.00    -0.299 OA
ENDROOT
BRANCH   1   3
ATOM      3  C   UNL     1      10.750  25.018  20.112  1.00  0.00     0.053 C 
ATOM      4  C   UNL     1       9.368  25.500  19.662  1.00  0.00     0.016 C 
BRANCH   3   5
ATOM      5  C   UNL     1      11.038  23.610  19.542  1.00  0.00     0.015 C 
BRANCH   5   6
ATOM      6  C   UNL     1      10.988  22.490  20.600  1.00  0.00     0.028 C 
BRANCH   6   7
ATOM      7  C   UNL     1       9.639  21.805  20.626  1.00  0.00    -0.028 C 
ATOM      8  C   UNL     1       8.508  22.277  21.200  1.00  0.00    -0.070 CG0
ATOM      9  C   UNL     1       7.273  21.413  21.141  1.00  0.00     0.039 C 
ATOM     10  G   UNL     1       8.393  23.649  21.833  1.00  0.00     0.000 G0
ENDBRANCH   6   7
ENDBRANCH   5   6
ENDBRANCH   3   5
ENDBRANCH   1   3
BRANCH   1  11
ATOM     11  C   UNL     1      11.124  23.813  22.415  1.00  0.00     0.087 C 
BRANCH  11  12
ATOM     12  C   UNL     1      10.242  23.703  23.679  1.00  0.00     0.066 C 
BRANCH  12  13
ATOM     13  C   UNL     1       8.777  23.583  23.305  1.00  0.00     0.140 C 
ATOM     14  O   UNL     1       7.930  23.486  24.182  1.00  0.00    -0.299 OA
BRANCH  13  15
ATOM     15  C   UNL     1       8.334  23.628  21.868  1.00  0.00     0.106 CG0
ATOM     16  G   UNL     1       8.521  22.269  21.225  1.00  0.00     0.000 G0
ENDBRANCH  13  15
ENDBRANCH  12  13
BRANCH  12  17
ATOM     17  C   UNL     1      10.517  24.850  24.697  1.00  0.00    -0.006 C 
ATOM     18  C   UNL     1       9.453  25.962  24.704  1.00  0.00     0.008 C 
ATOM     19  C   UNL     1      10.707  24.296  26.118  1.00  0.00     0.008 C 
ENDBRANCH  12  17
ENDBRANCH  11  12
ENDBRANCH   1  11
TORSDOF 1
ENDMDL
