MODEL 1
REMARK VINA RESULT:    -3.711      0.000      0.000
REMARK INTER + INTRA:          -6.287
REMARK INTER:                  -5.446
REMARK INTRA:                  -0.841
REMARK UNBOUND:                -0.841
REMARK SMILES O=C([O-])CCCCCCCC(=O)[O-]
REMARK SMILES IDX 7 1 6 2 5 3 4 4 2 5 1 6 3 7 8 8 9 9 10 10 11 11 12 12 13 13
REMARK H PARENT
REMARK Flexibility Score: inf
ROOT
ATOM      1  C   UNL     1     -22.038 121.142  -1.215  1.00  0.00     0.000 C 
ENDROOT
BRANCH   1   2
ATOM      2  C   UNL     1     -23.069 120.465  -0.301  1.00  0.00     0.000 C 
BRANCH   2   3
ATOM      3  C   UNL     1     -23.376 119.014  -0.718  1.00  0.00     0.006 C 
BRANCH   3   4
ATOM      4  C   UNL     1     -23.524 118.036   0.458  1.00  0.00     0.053 C 
BRANCH   4   5
ATOM      5  C   UNL     1     -22.197 117.546   0.951  1.00  0.00     0.041 C 
ATOM      6  O   UNL     1     -21.566 118.198   1.824  1.00  0.00    -0.550 OA
ATOM      7  O   UNL     1     -21.673 116.355   0.468  1.00  0.00    -0.550 OA
ENDBRANCH   4   5
ENDBRANCH   3   4
ENDBRANCH   2   3
ENDBRANCH   1   2
BRANCH   1   8
ATOM      8  C   UNL     1     -20.610 120.870  -0.728  1.00  0.00     0.000 C 
BRANCH   8   9
ATOM      9  C   UNL     1     -19.797 120.123  -1.796  1.00  0.00     0.006 C 
BRANCH   9  10
ATOM     10  C   UNL     1     -19.774 118.609  -1.554  1.00  0.00     0.053 C 
BRANCH  10  11
ATOM     11  C   UNL     1     -20.405 117.856  -2.686  1.00  0.00     0.041 C 
ATOM     12  O   UNL     1     -21.206 118.435  -3.465  1.00  0.00    -0.550 OA
ATOM     13  O   UNL     1     -20.081 116.521  -2.898  1.00  0.00    -0.550 OA
ENDBRANCH  10  11
ENDBRANCH   9  10
ENDBRANCH   8   9
ENDBRANCH   1   8
TORSDOF 8
ENDMDL
MODEL 2
REMARK VINA RESULT:    -3.547      1.816      3.241
REMARK INTER + INTRA:          -6.047
REMARK INTER:                  -5.252
REMARK INTRA:                  -0.795
REMARK UNBOUND:                -0.841
REMARK SMILES O=C([O-])CCCCCCCC(=O)[O-]
REMARK SMILES IDX 7 1 6 2 5 3 4 4 2 5 1 6 3 7 8 8 9 9 10 10 11 11 12 12 13 13
REMARK H PARENT
REMARK Flexibility Score: inf
ROOT
ATOM      1  C   UNL     1     -20.401 117.632  -2.553  1.00  0.00     0.000 C 
ENDROOT
BRANCH   1   2
ATOM      2  C   UNL     1     -21.228 116.494  -1.938  1.00  0.00     0.000 C 
BRANCH   2   3
ATOM      3  C   UNL     1     -20.876 116.229  -0.462  1.00  0.00     0.006 C 
BRANCH   3   4
ATOM      4  C   UNL     1     -22.086 116.218   0.485  1.00  0.00     0.053 C 
BRANCH   4   5
ATOM      5  C   UNL     1     -22.442 117.595   0.956  1.00  0.00     0.041 C 
ATOM      6  O   UNL     1     -23.556 118.099   0.657  1.00  0.00    -0.550 OA
ATOM      7  O   UNL     1     -21.555 118.308   1.753  1.00  0.00    -0.550 OA
ENDBRANCH   4   5
ENDBRANCH   3   4
ENDBRANCH   2   3
ENDBRANCH   1   2
BRANCH   1   8
ATOM      8  C   UNL     1     -19.757 118.495  -1.461  1.00  0.00     0.000 C 
BRANCH   8   9
ATOM      9  C   UNL     1     -19.902 119.989  -1.785  1.00  0.00     0.006 C 
BRANCH   9  10
ATOM     10  C   UNL     1     -20.862 120.701  -0.823  1.00  0.00     0.053 C 
BRANCH  10  11
ATOM     11  C   UNL     1     -22.251 120.777  -1.381  1.00  0.00     0.041 C 
ATOM     12  O   UNL     1     -23.219 121.077  -0.635  1.00  0.00    -0.550 OA
ATOM     13  O   UNL     1     -22.470 120.546  -2.733  1.00  0.00    -0.550 OA
ENDBRANCH  10  11
ENDBRANCH   9  10
ENDBRANCH   8   9
ENDBRANCH   1   8
TORSDOF 8
ENDMDL
MODEL 3
REMARK VINA RESULT:    -3.540      1.505      2.108
REMARK INTER + INTRA:          -6.036
REMARK INTER:                  -5.131
REMARK INTRA:                  -0.905
REMARK UNBOUND:                -0.841
REMARK SMILES O=C([O-])CCCCCCCC(=O)[O-]
REMARK SMILES IDX 7 1 6 2 5 3 4 4 2 5 1 6 3 7 8 8 9 9 10 10 11 11 12 12 13 13
REMARK H PARENT
REMARK Flexibility Score: inf
ROOT
ATOM      1  C   UNL     1     -20.421 120.778  -2.125  1.00  0.00     0.000 C 
ENDROOT
BRANCH   1   2
ATOM      2  C   UNL     1     -20.385 120.634  -0.597  1.00  0.00     0.000 C 
BRANCH   2   3
ATOM      3  C   UNL     1     -21.700 120.080  -0.017  1.00  0.00     0.006 C 
BRANCH   3   4
ATOM      4  C   UNL     1     -21.529 118.822   0.847  1.00  0.00     0.053 C 
BRANCH   4   5
ATOM      5  C   UNL     1     -22.518 117.755   0.487  1.00  0.00     0.041 C 
ATOM      6  O   UNL     1     -23.674 118.068   0.101  1.00  0.00    -0.550 OA
ATOM      7  O   UNL     1     -22.150 116.417   0.548  1.00  0.00    -0.550 OA
ENDBRANCH   4   5
ENDBRANCH   3   4
ENDBRANCH   2   3
ENDBRANCH   1   2
BRANCH   1   8
ATOM      8  C   UNL     1     -21.690 120.143  -2.707  1.00  0.00     0.000 C 
BRANCH   8   9
ATOM      9  C   UNL     1     -21.342 118.994  -3.664  1.00  0.00     0.006 C 
BRANCH   9  10
ATOM     10  C   UNL     1     -21.389 117.626  -2.970  1.00  0.00     0.053 C 
BRANCH  10  11
ATOM     11  C   UNL     1     -20.016 117.068  -2.752  1.00  0.00     0.041 C 
ATOM     12  O   UNL     1     -19.494 116.308  -3.609  1.00  0.00    -0.550 OA
ATOM     13  O   UNL     1     -19.299 117.414  -1.612  1.00  0.00    -0.550 OA
ENDBRANCH  10  11
ENDBRANCH   9  10
ENDBRANCH   8   9
ENDBRANCH   1   8
TORSDOF 8
ENDMDL
MODEL 4
REMARK VINA RESULT:    -3.528      1.937      4.254
REMARK INTER + INTRA:          -6.019
REMARK INTER:                  -5.308
REMARK INTRA:                  -0.711
REMARK UNBOUND:                -0.841
REMARK SMILES O=C([O-])CCCCCCCC(=O)[O-]
REMARK SMILES IDX 7 1 6 2 5 3 4 4 2 5 1 6 3 7 8 8 9 9 10 10 11 11 12 12 13 13
REMARK H PARENT
REMARK Flexibility Score: inf
ROOT
ATOM      1  C   UNL     1     -20.379 118.132  -2.429  1.00  0.00     0.000 C 
ENDROOT
BRANCH   1   2
ATOM      2  C   UNL     1     -19.683 119.205  -1.579  1.00  0.00     0.000 C 
BRANCH   2   3
ATOM      3  C   UNL     1     -20.129 120.635  -1.939  1.00  0.00     0.006 C 
BRANCH   3   4
ATOM      4  C   UNL     1     -21.173 121.230  -0.982  1.00  0.00     0.053 C 
BRANCH   4   5
ATOM      5  C   UNL     1     -22.574 120.950  -1.435  1.00  0.00     0.041 C 
ATOM      6  O   UNL     1     -23.526 120.992  -0.613  1.00  0.00    -0.550 OA
ATOM      7  O   UNL     1     -22.829 120.673  -2.772  1.00  0.00    -0.550 OA
ENDBRANCH   4   5
ENDBRANCH   3   4
ENDBRANCH   2   3
ENDBRANCH   1   2
BRANCH   1   8
ATOM      8  C   UNL     1     -20.205 116.741  -1.807  1.00  0.00     0.000 C 
BRANCH   8   9
ATOM      9  C   UNL     1     -21.508 116.267  -1.147  1.00  0.00     0.006 C 
BRANCH   9  10
ATOM     10  C   UNL     1     -21.493 116.466   0.374  1.00  0.00     0.053 C 
BRANCH  10  11
ATOM     11  C   UNL     1     -22.163 117.746   0.772  1.00  0.00     0.041 C 
ATOM     12  O   UNL     1     -23.370 117.949   0.480  1.00  0.00    -0.550 OA
ATOM     13  O   UNL     1     -21.459 118.702   1.495  1.00  0.00    -0.550 OA
ENDBRANCH  10  11
ENDBRANCH   9  10
ENDBRANCH   8   9
ENDBRANCH   1   8
TORSDOF 8
ENDMDL
MODEL 5
REMARK VINA RESULT:    -3.496      1.961      3.057
REMARK INTER + INTRA:          -5.972
REMARK INTER:                  -5.468
REMARK INTRA:                  -0.504
REMARK UNBOUND:                -0.841
REMARK SMILES O=C([O-])CCCCCCCC(=O)[O-]
REMARK SMILES IDX 7 1 6 2 5 3 4 4 2 5 1 6 3 7 8 8 9 9 10 10 11 11 12 12 13 13
REMARK H PARENT
REMARK Flexibility Score: inf
ROOT
ATOM      1  C   UNL     1     -21.177 119.948  -3.161  1.00  0.00     0.000 C 
ENDROOT
BRANCH   1   2
ATOM      2  C   UNL     1     -20.142 120.483  -2.161  1.00  0.00     0.000 C 
BRANCH   2   3
ATOM      3  C   UNL     1     -20.786 121.228  -0.976  1.00  0.00     0.006 C 
BRANCH   3   4
ATOM      4  C   UNL     1     -22.246 120.835  -0.701  1.00  0.00     0.053 C 
BRANCH   4   5
ATOM      5  C   UNL     1     -22.346 119.588   0.123  1.00  0.00     0.041 C 
ATOM      6  O   UNL     1     -21.419 119.277   0.916  1.00  0.00    -0.550 OA
ATOM      7  O   UNL     1     -23.478 118.788   0.037  1.00  0.00    -0.550 OA
ENDBRANCH   4   5
ENDBRANCH   3   4
ENDBRANCH   2   3
ENDBRANCH   1   2
BRANCH   1   8
ATOM      8  C   UNL     1     -21.081 118.422  -3.287  1.00  0.00     0.000 C 
BRANCH   8   9
ATOM      9  C   UNL     1     -20.112 117.844  -2.245  1.00  0.00     0.006 C 
BRANCH   9  10
ATOM     10  C   UNL     1     -19.478 116.527  -2.710  1.00  0.00     0.053 C 
BRANCH  10  11
ATOM     11  C   UNL     1     -18.607 115.926  -1.650  1.00  0.00     0.041 C 
ATOM     12  O   UNL     1     -19.042 114.996  -0.921  1.00  0.00    -0.550 OA
ATOM     13  O   UNL     1     -17.301 116.374  -1.487  1.00  0.00    -0.550 OA
ENDBRANCH  10  11
ENDBRANCH   9  10
ENDBRANCH   8   9
ENDBRANCH   1   8
TORSDOF 8
ENDMDL
MODEL 6
REMARK VINA RESULT:    -3.451      2.619      4.101
REMARK INTER + INTRA:          -5.905
REMARK INTER:                  -5.137
REMARK INTRA:                  -0.768
REMARK UNBOUND:                -0.841
REMARK SMILES O=C([O-])CCCCCCCC(=O)[O-]
REMARK SMILES IDX 7 1 6 2 5 3 4 4 2 5 1 6 3 7 8 8 9 9 10 10 11 11 12 12 13 13
REMARK H PARENT
REMARK Flexibility Score: inf
ROOT
ATOM      1  C   UNL     1     -21.971 116.905  -1.413  1.00  0.00     0.000 C 
ENDROOT
BRANCH   1   2
ATOM      2  C   UNL     1     -21.259 117.952  -2.281  1.00  0.00     0.000 C 
BRANCH   2   3
ATOM      3  C   UNL     1     -19.957 118.472  -1.643  1.00  0.00     0.006 C 
BRANCH   3   4
ATOM      4  C   UNL     1     -19.949 119.983  -1.363  1.00  0.00     0.053 C 
BRANCH   4   5
ATOM      5  C   UNL     1     -21.098 120.398  -0.496  1.00  0.00     0.041 C 
ATOM      6  O   UNL     1     -21.235 119.903   0.654  1.00  0.00    -0.550 OA
ATOM      7  O   UNL     1     -21.999 121.354  -0.946  1.00  0.00    -0.550 OA
ENDBRANCH   4   5
ENDBRANCH   3   4
ENDBRANCH   2   3
ENDBRANCH   1   2
BRANCH   1   8
ATOM      8  C   UNL     1     -21.020 116.330  -0.355  1.00  0.00     0.000 C 
BRANCH   8   9
ATOM      9  C   UNL     1     -20.697 114.858  -0.648  1.00  0.00     0.006 C 
BRANCH   9  10
ATOM     10  C   UNL     1     -19.209 114.541  -0.455  1.00  0.00     0.053 C 
BRANCH  10  11
ATOM     11  C   UNL     1     -18.372 115.116  -1.556  1.00  0.00     0.041 C 
ATOM     12  O   UNL     1     -18.753 115.035  -2.753  1.00  0.00    -0.550 OA
ATOM     13  O   UNL     1     -17.184 115.772  -1.256  1.00  0.00    -0.550 OA
ENDBRANCH  10  11
ENDBRANCH   9  10
ENDBRANCH   8   9
ENDBRANCH   1   8
TORSDOF 8
ENDMDL
MODEL 7
REMARK VINA RESULT:    -3.445      2.602      4.178
REMARK INTER + INTRA:          -5.897
REMARK INTER:                  -5.168
REMARK INTRA:                  -0.729
REMARK UNBOUND:                -0.841
REMARK SMILES O=C([O-])CCCCCCCC(=O)[O-]
REMARK SMILES IDX 7 1 6 2 5 3 4 4 2 5 1 6 3 7 8 8 9 9 10 10 11 11 12 12 13 13
REMARK H PARENT
REMARK Flexibility Score: inf
ROOT
ATOM      1  C   UNL     1     -22.040 117.210  -1.807  1.00  0.00     0.000 C 
ENDROOT
BRANCH   1   2
ATOM      2  C   UNL     1     -21.424 116.563  -0.558  1.00  0.00     0.000 C 
BRANCH   2   3
ATOM      3  C   UNL     1     -21.365 115.027  -0.648  1.00  0.00     0.006 C 
BRANCH   3   4
ATOM      4  C   UNL     1     -20.216 114.488  -1.514  1.00  0.00     0.053 C 
BRANCH   4   5
ATOM      5  C   UNL     1     -18.875 114.798  -0.923  1.00  0.00     0.041 C 
ATOM      6  O   UNL     1     -18.101 115.609  -1.497  1.00  0.00    -0.550 OA
ATOM      7  O   UNL     1     -18.494 114.216   0.279  1.00  0.00    -0.550 OA
ENDBRANCH   4   5
ENDBRANCH   3   4
ENDBRANCH   2   3
ENDBRANCH   1   2
BRANCH   1   8
ATOM      8  C   UNL     1     -21.002 118.054  -2.557  1.00  0.00     0.000 C 
BRANCH   8   9
ATOM      9  C   UNL     1     -19.919 118.572  -1.599  1.00  0.00     0.006 C 
BRANCH   9  10
ATOM     10  C   UNL     1     -20.014 120.088  -1.381  1.00  0.00     0.053 C 
BRANCH  10  11
ATOM     11  C   UNL     1     -21.162 120.449  -0.487  1.00  0.00     0.041 C 
ATOM     12  O   UNL     1     -21.273 119.919   0.649  1.00  0.00    -0.550 OA
ATOM     13  O   UNL     1     -22.092 121.395  -0.899  1.00  0.00    -0.550 OA
ENDBRANCH  10  11
ENDBRANCH   9  10
ENDBRANCH   8   9
ENDBRANCH   1   8
TORSDOF 8
ENDMDL
MODEL 8
REMARK VINA RESULT:    -3.428      2.476      3.954
REMARK INTER + INTRA:          -5.873
REMARK INTER:                  -5.235
REMARK INTRA:                  -0.638
REMARK UNBOUND:                -0.841
REMARK SMILES O=C([O-])CCCCCCCC(=O)[O-]
REMARK SMILES IDX 7 1 6 2 5 3 4 4 2 5 1 6 3 7 8 8 9 9 10 10 11 11 12 12 13 13
REMARK H PARENT
REMARK Flexibility Score: inf
ROOT
ATOM      1  C   UNL     1     -20.545 120.257  -2.046  1.00  0.00     0.000 C 
ENDROOT
BRANCH   1   2
ATOM      2  C   UNL     1     -21.097 121.273  -1.036  1.00  0.00     0.000 C 
BRANCH   2   3
ATOM      3  C   UNL     1     -22.575 121.021  -0.682  1.00  0.00     0.006 C 
BRANCH   3   4
ATOM      4  C   UNL     1     -23.515 120.969  -1.897  1.00  0.00     0.053 C 
BRANCH   4   5
ATOM      5  C   UNL     1     -24.952 120.854  -1.489  1.00  0.00     0.041 C 
ATOM      6  O   UNL     1     -25.721 121.846  -1.592  1.00  0.00    -0.550 OA
ATOM      7  O   UNL     1     -25.449 119.643  -1.026  1.00  0.00    -0.550 OA
ENDBRANCH   4   5
ENDBRANCH   3   4
ENDBRANCH   2   3
ENDBRANCH   1   2
BRANCH   1   8
ATOM      8  C   UNL     1     -20.009 119.009  -1.333  1.00  0.00     0.000 C 
BRANCH   8   9
ATOM      9  C   UNL     1     -20.981 117.829  -1.485  1.00  0.00     0.006 C 
BRANCH   9  10
ATOM     10  C   UNL     1     -21.125 117.025  -0.187  1.00  0.00     0.053 C 
BRANCH  10  11
ATOM     11  C   UNL     1     -22.024 117.712   0.794  1.00  0.00     0.041 C 
ATOM     12  O   UNL     1     -23.267 117.754   0.596  1.00  0.00    -0.550 OA
ATOM     13  O   UNL     1     -21.492 118.281   1.945  1.00  0.00    -0.550 OA
ENDBRANCH  10  11
ENDBRANCH   9  10
ENDBRANCH   8   9
ENDBRANCH   1   8
TORSDOF 8
ENDMDL
MODEL 9
REMARK VINA RESULT:    -3.423      2.231      4.407
REMARK INTER + INTRA:          -5.864
REMARK INTER:                  -5.031
REMARK INTRA:                  -0.833
REMARK UNBOUND:                -0.841
REMARK SMILES O=C([O-])CCCCCCCC(=O)[O-]
REMARK SMILES IDX 7 1 6 2 5 3 4 4 2 5 1 6 3 7 8 8 9 9 10 10 11 11 12 12 13 13
REMARK H PARENT
REMARK Flexibility Score: inf
ROOT
ATOM      1  C   UNL     1     -22.578 115.804   0.131  1.00  0.00     0.000 C 
ENDROOT
BRANCH   1   2
ATOM      2  C   UNL     1     -21.480 115.049  -0.632  1.00  0.00     0.000 C 
BRANCH   2   3
ATOM      3  C   UNL     1     -21.631 115.159  -2.161  1.00  0.00     0.006 C 
BRANCH   3   4
ATOM      4  C   UNL     1     -20.420 115.783  -2.871  1.00  0.00     0.053 C 
BRANCH   4   5
ATOM      5  C   UNL     1     -20.281 117.243  -2.563  1.00  0.00     0.041 C 
ATOM      6  O   UNL     1     -21.049 118.081  -3.104  1.00  0.00    -0.550 OA
ATOM      7  O   UNL     1     -19.323 117.673  -1.654  1.00  0.00    -0.550 OA
ENDBRANCH   4   5
ENDBRANCH   3   4
ENDBRANCH   2   3
ENDBRANCH   1   2
BRANCH   1   8
ATOM      8  C   UNL     1     -21.997 117.009   0.880  1.00  0.00     0.000 C 
BRANCH   8   9
ATOM      9  C   UNL     1     -22.428 118.327   0.221  1.00  0.00     0.006 C 
BRANCH   9  10
ATOM     10  C   UNL     1     -21.436 119.465   0.494  1.00  0.00     0.053 C 
BRANCH  10  11
ATOM     11  C   UNL     1     -21.486 120.513  -0.575  1.00  0.00     0.041 C 
ATOM     12  O   UNL     1     -22.583 121.034  -0.903  1.00  0.00    -0.550 OA
ATOM     13  O   UNL     1     -20.312 120.936  -1.189  1.00  0.00    -0.550 OA
ENDBRANCH  10  11
ENDBRANCH   9  10
ENDBRANCH   8   9
ENDBRANCH   1   8
TORSDOF 8
ENDMDL
