MODEL 1
REMARK VINA RESULT:    -2.611      0.000      0.000
REMARK INTER + INTRA:          -3.167
REMARK INTER:                  -3.069
REMARK INTRA:                  -0.098
REMARK UNBOUND:                -0.098
REMARK SMILES CCCCC(=O)[O-]
REMARK SMILES IDX 4 1 5 2 6 3 7 4 3 5 2 6 1 7
REMARK H PARENT
REMARK Flexibility Score: inf
ROOT
ATOM      1  C   UNL     1      58.983  28.747  49.331  1.00  0.00     0.053 C 
ENDROOT
BRANCH   1   2
ATOM      2  C   UNL     1      59.872  27.559  49.523  1.00  0.00     0.041 C 
ATOM      3  O   UNL     1      59.382  26.400  49.563  1.00  0.00    -0.550 OA
ATOM      4  O   UNL     1      61.248  27.727  49.610  1.00  0.00    -0.550 OA
ENDBRANCH   1   2
BRANCH   1   5
ATOM      5  C   UNL     1      58.432  29.225  50.680  1.00  0.00     0.006 C 
BRANCH   5   6
ATOM      6  C   UNL     1      56.896  29.241  50.718  1.00  0.00    -0.003 C 
ATOM      7  C   UNL     1      56.289  27.842  50.614  1.00  0.00     0.004 C 
ENDBRANCH   5   6
ENDBRANCH   1   5
TORSDOF 3
ENDMDL
MODEL 2
REMARK VINA RESULT:    -2.583     11.508     12.245
REMARK INTER + INTRA:          -3.134
REMARK INTER:                  -3.038
REMARK INTRA:                  -0.096
REMARK UNBOUND:                -0.098
REMARK SMILES CCCCC(=O)[O-]
REMARK SMILES IDX 4 1 5 2 6 3 7 4 3 5 2 6 1 7
REMARK H PARENT
REMARK Flexibility Score: inf
ROOT
ATOM      1  C   UNL     1      61.244  30.806  61.666  1.00  0.00     0.053 C 
ENDROOT
BRANCH   1   2
ATOM      2  C   UNL     1      62.402  29.860  61.646  1.00  0.00     0.041 C 
ATOM      3  O   UNL     1      63.582  30.302  61.630  1.00  0.00    -0.550 OA
ATOM      4  O   UNL     1      62.182  28.489  61.693  1.00  0.00    -0.550 OA
ENDBRANCH   1   2
BRANCH   1   5
ATOM      5  C   UNL     1      61.100  31.504  60.308  1.00  0.00     0.006 C 
BRANCH   5   6
ATOM      6  C   UNL     1      61.234  33.031  60.412  1.00  0.00    -0.003 C 
ATOM      7  C   UNL     1      62.686  33.489  60.539  1.00  0.00     0.004 C 
ENDBRANCH   5   6
ENDBRANCH   1   5
TORSDOF 3
ENDMDL
MODEL 3
REMARK VINA RESULT:    -2.565     11.764     12.225
REMARK INTER + INTRA:          -3.113
REMARK INTER:                  -3.034
REMARK INTRA:                  -0.079
REMARK UNBOUND:                -0.098
REMARK SMILES CCCCC(=O)[O-]
REMARK SMILES IDX 4 1 5 2 6 3 7 4 3 5 2 6 1 7
REMARK H PARENT
REMARK Flexibility Score: inf
ROOT
ATOM      1  C   UNL     1      63.161  30.199  60.381  1.00  0.00     0.053 C 
ENDROOT
BRANCH   1   2
ATOM      2  C   UNL     1      64.486  30.854  60.617  1.00  0.00     0.041 C 
ATOM      3  O   UNL     1      65.550  30.187  60.516  1.00  0.00    -0.550 OA
ATOM      4  O   UNL     1      64.549  32.212  60.902  1.00  0.00    -0.550 OA
ENDBRANCH   1   2
BRANCH   1   5
ATOM      5  C   UNL     1      62.407  30.025  61.705  1.00  0.00     0.006 C 
BRANCH   5   6
ATOM      6  C   UNL     1      61.071  30.784  61.726  1.00  0.00    -0.003 C 
ATOM      7  C   UNL     1      60.997  31.881  60.664  1.00  0.00     0.004 C 
ENDBRANCH   5   6
ENDBRANCH   1   5
TORSDOF 3
ENDMDL
MODEL 4
REMARK VINA RESULT:    -2.560     12.005     12.564
REMARK INTER + INTRA:          -3.106
REMARK INTER:                  -3.082
REMARK INTRA:                  -0.024
REMARK UNBOUND:                -0.098
REMARK SMILES CCCCC(=O)[O-]
REMARK SMILES IDX 4 1 5 2 6 3 7 4 3 5 2 6 1 7
REMARK H PARENT
REMARK Flexibility Score: inf
ROOT
ATOM      1  C   UNL     1      62.318  31.752  60.452  1.00  0.00     0.053 C 
ENDROOT
BRANCH   1   2
ATOM      2  C   UNL     1      61.589  30.847  61.394  1.00  0.00     0.041 C 
ATOM      3  O   UNL     1      60.379  31.062  61.671  1.00  0.00    -0.550 OA
ATOM      4  O   UNL     1      62.231  29.738  61.930  1.00  0.00    -0.550 OA
ENDBRANCH   1   2
BRANCH   1   5
ATOM      5  C   UNL     1      61.711  33.160  60.486  1.00  0.00     0.006 C 
BRANCH   5   6
ATOM      6  C   UNL     1      62.780  34.261  60.576  1.00  0.00    -0.003 C 
ATOM      7  C   UNL     1      62.187  35.635  60.886  1.00  0.00     0.004 C 
ENDBRANCH   5   6
ENDBRANCH   1   5
TORSDOF 3
ENDMDL
MODEL 5
REMARK VINA RESULT:    -2.539     12.128     12.512
REMARK INTER + INTRA:          -3.082
REMARK INTER:                  -3.013
REMARK INTRA:                  -0.069
REMARK UNBOUND:                -0.098
REMARK SMILES CCCCC(=O)[O-]
REMARK SMILES IDX 4 1 5 2 6 3 7 4 3 5 2 6 1 7
REMARK H PARENT
REMARK Flexibility Score: inf
ROOT
ATOM      1  C   UNL     1      62.461  32.201  60.117  1.00  0.00     0.053 C 
ENDROOT
BRANCH   1   2
ATOM      2  C   UNL     1      63.057  33.485  60.601  1.00  0.00     0.041 C 
ATOM      3  O   UNL     1      62.336  34.509  60.733  1.00  0.00    -0.550 OA
ATOM      4  O   UNL     1      64.399  33.539  60.955  1.00  0.00    -0.550 OA
ENDBRANCH   1   2
BRANCH   1   5
ATOM      5  C   UNL     1      61.033  32.040  60.652  1.00  0.00     0.006 C 
BRANCH   5   6
ATOM      6  C   UNL     1      60.913  30.904  61.681  1.00  0.00    -0.003 C 
ATOM      7  C   UNL     1      62.155  30.015  61.726  1.00  0.00     0.004 C 
ENDBRANCH   5   6
ENDBRANCH   1   5
TORSDOF 3
ENDMDL
MODEL 6
REMARK VINA RESULT:    -2.522      1.562      1.929
REMARK INTER + INTRA:          -3.062
REMARK INTER:                  -3.007
REMARK INTRA:                  -0.056
REMARK UNBOUND:                -0.098
REMARK SMILES CCCCC(=O)[O-]
REMARK SMILES IDX 4 1 5 2 6 3 7 4 3 5 2 6 1 7
REMARK H PARENT
REMARK Flexibility Score: inf
ROOT
ATOM      1  C   UNL     1      57.743  27.741  50.414  1.00  0.00     0.053 C 
ENDROOT
BRANCH   1   2
ATOM      2  C   UNL     1      58.871  28.318  49.620  1.00  0.00     0.041 C 
ATOM      3  O   UNL     1      58.844  29.526  49.265  1.00  0.00    -0.550 OA
ATOM      4  O   UNL     1      59.977  27.536  49.312  1.00  0.00    -0.550 OA
ENDBRANCH   1   2
BRANCH   1   5
ATOM      5  C   UNL     1      56.723  28.831  50.764  1.00  0.00     0.006 C 
BRANCH   5   6
ATOM      6  C   UNL     1      55.272  28.332  50.680  1.00  0.00    -0.003 C 
ATOM      7  C   UNL     1      55.178  26.850  50.315  1.00  0.00     0.004 C 
ENDBRANCH   5   6
ENDBRANCH   1   5
TORSDOF 3
ENDMDL
MODEL 7
REMARK VINA RESULT:    -2.491      1.716      2.336
REMARK INTER + INTRA:          -3.025
REMARK INTER:                  -2.923
REMARK INTRA:                  -0.102
REMARK UNBOUND:                -0.098
REMARK SMILES CCCCC(=O)[O-]
REMARK SMILES IDX 4 1 5 2 6 3 7 4 3 5 2 6 1 7
REMARK H PARENT
REMARK Flexibility Score: inf
ROOT
ATOM      1  C   UNL     1      59.705  27.028  50.529  1.00  0.00     0.053 C 
ENDROOT
BRANCH   1   2
ATOM      2  C   UNL     1      59.127  25.669  50.286  1.00  0.00     0.041 C 
ATOM      3  O   UNL     1      57.889  25.530  50.101  1.00  0.00    -0.550 OA
ATOM      4  O   UNL     1      59.962  24.561  50.216  1.00  0.00    -0.550 OA
ENDBRANCH   1   2
BRANCH   1   5
ATOM      5  C   UNL     1      59.530  27.912  49.288  1.00  0.00     0.006 C 
BRANCH   5   6
ATOM      6  C   UNL     1      58.856  29.255  49.610  1.00  0.00    -0.003 C 
ATOM      7  C   UNL     1      57.605  29.095  50.474  1.00  0.00     0.004 C 
ENDBRANCH   5   6
ENDBRANCH   1   5
TORSDOF 3
ENDMDL
MODEL 8
REMARK VINA RESULT:    -2.487      2.252      2.894
REMARK INTER + INTRA:          -3.021
REMARK INTER:                  -2.991
REMARK INTRA:                  -0.029
REMARK UNBOUND:                -0.098
REMARK SMILES CCCCC(=O)[O-]
REMARK SMILES IDX 4 1 5 2 6 3 7 4 3 5 2 6 1 7
REMARK H PARENT
REMARK Flexibility Score: inf
ROOT
ATOM      1  C   UNL     1      57.198  27.957  50.403  1.00  0.00     0.053 C 
ENDROOT
BRANCH   1   2
ATOM      2  C   UNL     1      58.129  29.127  50.356  1.00  0.00     0.041 C 
ATOM      3  O   UNL     1      58.779  29.378  49.306  1.00  0.00    -0.550 OA
ATOM      4  O   UNL     1      58.244  29.970  51.454  1.00  0.00    -0.550 OA
ENDBRANCH   1   2
BRANCH   1   5
ATOM      5  C   UNL     1      55.777  28.418  50.749  1.00  0.00     0.006 C 
BRANCH   5   6
ATOM      6  C   UNL     1      54.708  27.390  50.346  1.00  0.00    -0.003 C 
ATOM      7  C   UNL     1      55.293  26.004  50.080  1.00  0.00     0.004 C 
ENDBRANCH   5   6
ENDBRANCH   1   5
TORSDOF 3
ENDMDL
MODEL 9
REMARK VINA RESULT:    -2.447      3.499      4.511
REMARK INTER + INTRA:          -2.974
REMARK INTER:                  -2.951
REMARK INTRA:                  -0.023
REMARK UNBOUND:                -0.098
REMARK SMILES CCCCC(=O)[O-]
REMARK SMILES IDX 4 1 5 2 6 3 7 4 3 5 2 6 1 7
REMARK H PARENT
REMARK Flexibility Score: inf
ROOT
ATOM      1  C   UNL     1      56.260  26.305  50.430  1.00  0.00     0.053 C 
ENDROOT
BRANCH   1   2
ATOM      2  C   UNL     1      54.843  26.268  49.952  1.00  0.00     0.041 C 
ATOM      3  O   UNL     1      54.146  27.317  49.954  1.00  0.00    -0.550 OA
ATOM      4  O   UNL     1      54.305  25.085  49.461  1.00  0.00    -0.550 OA
ENDBRANCH   1   2
BRANCH   1   5
ATOM      5  C   UNL     1      56.740  27.755  50.569  1.00  0.00     0.006 C 
BRANCH   5   6
ATOM      6  C   UNL     1      58.258  27.895  50.379  1.00  0.00    -0.003 C 
ATOM      7  C   UNL     1      58.644  29.170  49.628  1.00  0.00     0.004 C 
ENDBRANCH   5   6
ENDBRANCH   1   5
TORSDOF 3
ENDMDL
