MODEL 1
REMARK VINA RESULT:    -3.848      0.000      0.000
REMARK INTER + INTRA:          -4.965
REMARK INTER:                  -4.635
REMARK INTRA:                  -0.330
REMARK UNBOUND:                -0.330
REMARK SMILES O=c1c(O)c(-c2ccc(O)c(O)c2)oc2cc(O)cc(O)c12
REMARK SMILES IDX 5 1 3 2 2 3 1 4 22 5 20 6 19 7 17 8 16 9 15 10 14 11 6 12
REMARK SMILES IDX 7 13 8 14 9 15 13 16 11 17 10 18 12 20 4 22 21 24 18 26
REMARK H PARENT 10 19 12 21 4 23 21 25 18 27
REMARK Flexibility Score: inf
ROOT
ATOM      1  C   UNL     1     121.684 126.242 125.351  1.00  0.00     0.180 A 
ATOM      2  C   UNL     1     121.548 127.618 125.098  1.00  0.00     0.208 A 
ATOM      3  C   UNL     1     121.297 128.486 126.172  1.00  0.00     0.238 A 
ATOM      4  O   UNL     1     121.103 129.706 125.930  1.00  0.00    -0.285 OA
ATOM      5  C   UNL     1     121.242 127.977 127.492  1.00  0.00     0.111 A 
ATOM      6  C   UNL     1     121.040 128.771 128.662  1.00  0.00     0.134 A 
ATOM      7  C   UNL     1     120.898 128.144 129.906  1.00  0.00     0.093 A 
ATOM      8  C   UNL     1     121.015 126.758 130.033  1.00  0.00     0.123 A 
ATOM      9  C   UNL     1     121.267 125.980 128.906  1.00  0.00     0.094 A 
ATOM     10  C   UNL     1     121.376 126.571 127.645  1.00  0.00     0.146 A 
ATOM     11  O   UNL     1     121.596 125.790 126.596  1.00  0.00    -0.452 OA
ENDROOT
BRANCH   1  12
ATOM     12  C   UNL     1     121.935 125.263 124.269  1.00  0.00     0.025 A 
ATOM     13  C   UNL     1     120.877 124.608 123.614  1.00  0.00     0.016 A 
ATOM     14  C   UNL     1     121.139 123.670 122.612  1.00  0.00     0.051 A 
ATOM     15  C   UNL     1     122.459 123.361 122.260  1.00  0.00     0.157 A 
ATOM     16  C   UNL     1     123.256 124.934 123.928  1.00  0.00     0.062 A 
ATOM     17  C   UNL     1     123.522 123.995 122.924  1.00  0.00     0.158 A 
BRANCH  15  18
ATOM     18  O   UNL     1     122.718 122.426 121.260  1.00  0.00    -0.504 OA
ATOM     19  H   UNL     1     122.861 122.706 120.296  1.00  0.00     0.293 HD
ENDBRANCH  15  18
BRANCH  17  20
ATOM     20  O   UNL     1     124.848 123.704 122.602  1.00  0.00    -0.504 OA
ATOM     21  H   UNL     1     125.111 123.313 121.706  1.00  0.00     0.293 HD
ENDBRANCH  17  20
ENDBRANCH   1  12
BRANCH   2  22
ATOM     22  O   UNL     1     121.681 128.111 123.797  1.00  0.00    -0.502 OA
ATOM     23  H   UNL     1     121.708 129.102 123.592  1.00  0.00     0.293 HD
ENDBRANCH   2  22
BRANCH   6  24
ATOM     24  O   UNL     1     120.996 130.168 128.662  1.00  0.00    -0.507 OA
ATOM     25  H   UNL     1     121.102 130.750 127.845  1.00  0.00     0.293 HD
ENDBRANCH   6  24
BRANCH   8  26
ATOM     26  O   UNL     1     120.889 126.145 131.277  1.00  0.00    -0.508 OA
ATOM     27  H   UNL     1     121.236 125.207 131.444  1.00  0.00     0.293 HD
ENDBRANCH   8  26
TORSDOF 6
ENDMDL
MODEL 2
REMARK VINA RESULT:    -3.805      6.469     11.857
REMARK INTER + INTRA:          -4.914
REMARK INTER:                  -4.612
REMARK INTRA:                  -0.302
REMARK UNBOUND:                -0.330
REMARK SMILES O=c1c(O)c(-c2ccc(O)c(O)c2)oc2cc(O)cc(O)c12
REMARK SMILES IDX 5 1 3 2 2 3 1 4 22 5 20 6 19 7 17 8 16 9 15 10 14 11 6 12
REMARK SMILES IDX 7 13 8 14 9 15 13 16 11 17 10 18 12 20 4 22 21 24 18 26
REMARK H PARENT 10 19 12 21 4 23 21 25 18 27
REMARK Flexibility Score: inf
ROOT
ATOM      1  C   UNL     1     122.523 124.947 135.768  1.00  0.00     0.180 A 
ATOM      2  C   UNL     1     123.293 123.783 135.604  1.00  0.00     0.208 A 
ATOM      3  C   UNL     1     123.450 123.246 134.317  1.00  0.00     0.238 A 
ATOM      4  O   UNL     1     124.079 122.163 134.187  1.00  0.00    -0.285 OA
ATOM      5  C   UNL     1     122.883 123.909 133.202  1.00  0.00     0.111 A 
ATOM      6  C   UNL     1     123.015 123.480 131.846  1.00  0.00     0.134 A 
ATOM      7  C   UNL     1     122.322 124.156 130.836  1.00  0.00     0.093 A 
ATOM      8  C   UNL     1     121.550 125.285 131.123  1.00  0.00     0.123 A 
ATOM      9  C   UNL     1     121.458 125.744 132.434  1.00  0.00     0.094 A 
ATOM     10  C   UNL     1     122.107 125.069 133.470  1.00  0.00     0.146 A 
ATOM     11  O   UNL     1     121.976 125.529 134.707  1.00  0.00    -0.452 OA
ENDROOT
BRANCH   1  12
ATOM     12  C   UNL     1     122.300 125.565 137.095  1.00  0.00     0.025 A 
ATOM     13  C   UNL     1     121.101 125.368 137.802  1.00  0.00     0.016 A 
ATOM     14  C   UNL     1     120.904 125.981 139.043  1.00  0.00     0.051 A 
ATOM     15  C   UNL     1     121.893 126.810 139.587  1.00  0.00     0.157 A 
ATOM     16  C   UNL     1     123.279 126.414 137.635  1.00  0.00     0.062 A 
ATOM     17  C   UNL     1     123.085 127.029 138.877  1.00  0.00     0.158 A 
BRANCH  15  18
ATOM     18  O   UNL     1     121.694 127.419 140.825  1.00  0.00    -0.504 OA
ATOM     19  H   UNL     1     121.115 128.245 140.922  1.00  0.00     0.293 HD
ENDBRANCH  15  18
BRANCH  17  20
ATOM     20  O   UNL     1     124.086 127.855 139.388  1.00  0.00    -0.504 OA
ATOM     21  H   UNL     1     123.926 128.835 139.586  1.00  0.00     0.293 HD
ENDBRANCH  17  20
ENDBRANCH   1  12
BRANCH   2  22
ATOM     22  O   UNL     1     123.909 123.186 136.707  1.00  0.00    -0.502 OA
ATOM     23  H   UNL     1     124.488 122.359 136.625  1.00  0.00     0.293 HD
ENDBRANCH   2  22
BRANCH   6  24
ATOM     24  O   UNL     1     123.830 122.420 131.437  1.00  0.00    -0.507 OA
ATOM     25  H   UNL     1     124.831 122.380 131.557  1.00  0.00     0.293 HD
ENDBRANCH   6  24
BRANCH   8  26
ATOM     26  O   UNL     1     120.876 125.961 130.109  1.00  0.00    -0.508 OA
ATOM     27  H   UNL     1     121.225 125.974 129.157  1.00  0.00     0.293 HD
ENDBRANCH   8  26
TORSDOF 6
ENDMDL
MODEL 3
REMARK VINA RESULT:    -3.610     17.177     18.393
REMARK INTER + INTRA:          -4.678
REMARK INTER:                  -4.364
REMARK INTRA:                  -0.314
REMARK UNBOUND:                -0.330
REMARK SMILES O=c1c(O)c(-c2ccc(O)c(O)c2)oc2cc(O)cc(O)c12
REMARK SMILES IDX 5 1 3 2 2 3 1 4 22 5 20 6 19 7 17 8 16 9 15 10 14 11 6 12
REMARK SMILES IDX 7 13 8 14 9 15 13 16 11 17 10 18 12 20 4 22 21 24 18 26
REMARK H PARENT 10 19 12 21 4 23 21 25 18 27
REMARK Flexibility Score: inf
ROOT
ATOM      1  C   UNL     1     139.595 124.819 126.510  1.00  0.00     0.180 A 
ATOM      2  C   UNL     1     138.921 123.592 126.623  1.00  0.00     0.208 A 
ATOM      3  C   UNL     1     138.801 122.994 127.887  1.00  0.00     0.238 A 
ATOM      4  O   UNL     1     138.262 121.859 127.970  1.00  0.00    -0.285 OA
ATOM      5  C   UNL     1     139.308 123.657 129.031  1.00  0.00     0.111 A 
ATOM      6  C   UNL     1     139.203 123.166 130.368  1.00  0.00     0.134 A 
ATOM      7  C   UNL     1     139.834 123.857 131.409  1.00  0.00     0.093 A 
ATOM      8  C   UNL     1     140.513 125.055 131.172  1.00  0.00     0.123 A 
ATOM      9  C   UNL     1     140.574 125.571 129.879  1.00  0.00     0.094 A 
ATOM     10  C   UNL     1     139.987 124.885 128.814  1.00  0.00     0.146 A 
ATOM     11  O   UNL     1     140.088 125.402 127.596  1.00  0.00    -0.452 OA
ENDROOT
BRANCH   1  12
ATOM     12  C   UNL     1     139.774 125.504 125.209  1.00  0.00     0.025 A 
ATOM     13  C   UNL     1     140.971 125.390 124.480  1.00  0.00     0.016 A 
ATOM     14  C   UNL     1     141.125 126.065 123.266  1.00  0.00     0.051 A 
ATOM     15  C   UNL     1     140.094 126.874 122.770  1.00  0.00     0.157 A 
ATOM     16  C   UNL     1     138.752 126.333 124.718  1.00  0.00     0.062 A 
ATOM     17  C   UNL     1     138.903 127.010 123.502  1.00  0.00     0.158 A 
BRANCH  15  18
ATOM     18  O   UNL     1     140.250 127.545 121.558  1.00  0.00    -0.504 OA
ATOM     19  H   UNL     1     140.957 128.262 121.437  1.00  0.00     0.293 HD
ENDBRANCH  15  18
BRANCH  17  20
ATOM     20  O   UNL     1     137.861 127.813 123.040  1.00  0.00    -0.504 OA
ATOM     21  H   UNL     1     138.008 128.545 122.356  1.00  0.00     0.293 HD
ENDBRANCH  17  20
ENDBRANCH   1  12
BRANCH   2  22
ATOM     22  O   UNL     1     138.361 122.989 125.492  1.00  0.00    -0.502 OA
ATOM     23  H   UNL     1     138.426 121.994 125.318  1.00  0.00     0.293 HD
ENDBRANCH   2  22
BRANCH   6  24
ATOM     24  O   UNL     1     138.475 122.029 130.730  1.00  0.00    -0.507 OA
ATOM     25  H   UNL     1     138.533 121.565 131.623  1.00  0.00     0.293 HD
ENDBRANCH   6  24
BRANCH   8  26
ATOM     26  O   UNL     1     141.124 125.745 132.216  1.00  0.00    -0.508 OA
ATOM     27  H   UNL     1     141.682 126.575 132.050  1.00  0.00     0.293 HD
ENDBRANCH   8  26
TORSDOF 6
ENDMDL
MODEL 4
REMARK VINA RESULT:    -3.527      2.142      6.262
REMARK INTER + INTRA:          -4.578
REMARK INTER:                  -4.449
REMARK INTRA:                  -0.129
REMARK UNBOUND:                -0.330
REMARK SMILES O=c1c(O)c(-c2ccc(O)c(O)c2)oc2cc(O)cc(O)c12
REMARK SMILES IDX 5 1 3 2 2 3 1 4 22 5 20 6 19 7 17 8 16 9 15 10 14 11 6 12
REMARK SMILES IDX 7 13 8 14 9 15 13 16 11 17 10 18 12 20 4 22 21 24 18 26
REMARK H PARENT 10 19 12 21 4 23 21 25 18 27
REMARK Flexibility Score: inf
ROOT
ATOM      1  C   UNL     1     121.729 126.604 128.379  1.00  0.00     0.180 A 
ATOM      2  C   UNL     1     121.859 128.002 128.335  1.00  0.00     0.208 A 
ATOM      3  C   UNL     1     121.796 128.653 127.093  1.00  0.00     0.238 A 
ATOM      4  O   UNL     1     121.987 129.897 127.053  1.00  0.00    -0.285 OA
ATOM      5  C   UNL     1     121.549 127.905 125.917  1.00  0.00     0.111 A 
ATOM      6  C   UNL     1     121.420 128.465 124.609  1.00  0.00     0.134 A 
ATOM      7  C   UNL     1     121.281 127.616 123.504  1.00  0.00     0.093 A 
ATOM      8  C   UNL     1     121.201 126.231 123.666  1.00  0.00     0.123 A 
ATOM      9  C   UNL     1     121.270 125.678 124.942  1.00  0.00     0.094 A 
ATOM     10  C   UNL     1     121.448 126.496 126.060  1.00  0.00     0.146 A 
ATOM     11  O   UNL     1     121.530 125.925 127.255  1.00  0.00    -0.452 OA
ENDROOT
BRANCH   1  12
ATOM     12  C   UNL     1     121.798 125.845 129.649  1.00  0.00     0.025 A 
ATOM     13  C   UNL     1     120.875 126.065 130.686  1.00  0.00     0.016 A 
ATOM     14  C   UNL     1     120.976 125.354 131.884  1.00  0.00     0.051 A 
ATOM     15  C   UNL     1     122.007 124.423 132.070  1.00  0.00     0.157 A 
ATOM     16  C   UNL     1     122.843 124.928 129.848  1.00  0.00     0.062 A 
ATOM     17  C   UNL     1     122.946 124.213 131.047  1.00  0.00     0.158 A 
BRANCH  15  18
ATOM     18  O   UNL     1     122.104 123.715 133.266  1.00  0.00    -0.504 OA
ATOM     19  H   UNL     1     121.884 124.146 134.158  1.00  0.00     0.293 HD
ENDBRANCH  15  18
BRANCH  17  20
ATOM     20  O   UNL     1     123.989 123.299 131.204  1.00  0.00    -0.504 OA
ATOM     21  H   UNL     1     123.859 122.305 131.061  1.00  0.00     0.293 HD
ENDBRANCH  17  20
ENDBRANCH   1  12
BRANCH   2  22
ATOM     22  O   UNL     1     122.026 128.731 129.516  1.00  0.00    -0.502 OA
ATOM     23  H   UNL     1     121.405 128.631 130.309  1.00  0.00     0.293 HD
ENDBRANCH   2  22
BRANCH   6  24
ATOM     24  O   UNL     1     121.397 129.838 124.344  1.00  0.00    -0.507 OA
ATOM     25  H   UNL     1     122.190 130.455 124.422  1.00  0.00     0.293 HD
ENDBRANCH   6  24
BRANCH   8  26
ATOM     26  O   UNL     1     121.046 125.395 122.562  1.00  0.00    -0.508 OA
ATOM     27  H   UNL     1     121.820 125.186 121.942  1.00  0.00     0.293 HD
ENDBRANCH   8  26
TORSDOF 6
ENDMDL
MODEL 5
REMARK VINA RESULT:    -3.525     15.476     17.203
REMARK INTER + INTRA:          -4.576
REMARK INTER:                  -4.256
REMARK INTRA:                  -0.319
REMARK UNBOUND:                -0.330
REMARK SMILES O=c1c(O)c(-c2ccc(O)c(O)c2)oc2cc(O)cc(O)c12
REMARK SMILES IDX 5 1 3 2 2 3 1 4 22 5 20 6 19 7 17 8 16 9 15 10 14 11 6 12
REMARK SMILES IDX 7 13 8 14 9 15 13 16 11 17 10 18 12 20 4 22 21 24 18 26
REMARK H PARENT 10 19 12 21 4 23 21 25 18 27
REMARK Flexibility Score: inf
ROOT
ATOM      1  C   UNL     1     138.358 123.347 125.884  1.00  0.00     0.180 A 
ATOM      2  C   UNL     1     139.245 124.424 126.045  1.00  0.00     0.208 A 
ATOM      3  C   UNL     1     139.774 124.687 127.318  1.00  0.00     0.238 A 
ATOM      4  O   UNL     1     140.509 125.698 127.470  1.00  0.00    -0.285 OA
ATOM      5  C   UNL     1     139.454 123.836 128.403  1.00  0.00     0.111 A 
ATOM      6  C   UNL     1     139.968 123.980 129.728  1.00  0.00     0.134 A 
ATOM      7  C   UNL     1     139.499 123.141 130.746  1.00  0.00     0.093 A 
ATOM      8  C   UNL     1     138.582 122.122 130.475  1.00  0.00     0.123 A 
ATOM      9  C   UNL     1     138.116 121.939 129.176  1.00  0.00     0.094 A 
ATOM     10  C   UNL     1     138.536 122.783 128.146  1.00  0.00     0.146 A 
ATOM     11  O   UNL     1     138.051 122.585 126.927  1.00  0.00    -0.452 OA
ENDROOT
BRANCH   1  12
ATOM     12  C   UNL     1     137.747 123.016 124.576  1.00  0.00     0.025 A 
ATOM     13  C   UNL     1     136.464 123.474 124.229  1.00  0.00     0.016 A 
ATOM     14  C   UNL     1     135.900 123.129 122.998  1.00  0.00     0.051 A 
ATOM     15  C   UNL     1     136.601 122.311 122.103  1.00  0.00     0.157 A 
ATOM     16  C   UNL     1     138.437 122.178 123.685  1.00  0.00     0.062 A 
ATOM     17  C   UNL     1     137.874 121.831 122.451  1.00  0.00     0.158 A 
BRANCH  15  18
ATOM     18  O   UNL     1     136.036 121.969 120.876  1.00  0.00    -0.504 OA
ATOM     19  H   UNL     1     135.229 121.357 120.815  1.00  0.00     0.293 HD
ENDBRANCH  15  18
BRANCH  17  20
ATOM     20  O   UNL     1     138.595 121.008 121.585  1.00  0.00    -0.504 OA
ATOM     21  H   UNL     1     139.236 121.383 120.896  1.00  0.00     0.293 HD
ENDBRANCH  17  20
ENDBRANCH   1  12
BRANCH   2  22
ATOM     22  O   UNL     1     139.608 125.207 124.945  1.00  0.00    -0.502 OA
ATOM     23  H   UNL     1     139.290 126.161 124.828  1.00  0.00     0.293 HD
ENDBRANCH   2  22
BRANCH   6  24
ATOM     24  O   UNL     1     140.951 124.905 130.090  1.00  0.00    -0.507 OA
ATOM     25  H   UNL     1     141.848 124.670 130.487  1.00  0.00     0.293 HD
ENDBRANCH   6  24
BRANCH   8  26
ATOM     26  O   UNL     1     138.133 121.282 131.492  1.00  0.00    -0.508 OA
ATOM     27  H   UNL     1     137.875 121.643 132.403  1.00  0.00     0.293 HD
ENDBRANCH   8  26
TORSDOF 6
ENDMDL
MODEL 6
REMARK VINA RESULT:    -3.407      1.475      2.265
REMARK INTER + INTRA:          -4.434
REMARK INTER:                  -4.139
REMARK INTRA:                  -0.295
REMARK UNBOUND:                -0.330
REMARK SMILES O=c1c(O)c(-c2ccc(O)c(O)c2)oc2cc(O)cc(O)c12
REMARK SMILES IDX 5 1 3 2 2 3 1 4 22 5 20 6 19 7 17 8 16 9 15 10 14 11 6 12
REMARK SMILES IDX 7 13 8 14 9 15 13 16 11 17 10 18 12 20 4 22 21 24 18 26
REMARK H PARENT 10 19 12 21 4 23 21 25 18 27
REMARK Flexibility Score: inf
ROOT
ATOM      1  C   UNL     1     121.910 126.647 127.375  1.00  0.00     0.180 A 
ATOM      2  C   UNL     1     121.721 128.034 127.489  1.00  0.00     0.208 A 
ATOM      3  C   UNL     1     121.393 128.577 128.741  1.00  0.00     0.238 A 
ATOM      4  O   UNL     1     121.151 129.810 128.820  1.00  0.00    -0.285 OA
ATOM      5  C   UNL     1     121.313 127.734 129.875  1.00  0.00     0.111 A 
ATOM      6  C   UNL     1     121.033 128.180 131.203  1.00  0.00     0.134 A 
ATOM      7  C   UNL     1     120.875 127.241 132.229  1.00  0.00     0.093 A 
ATOM      8  C   UNL     1     121.050 125.876 131.990  1.00  0.00     0.123 A 
ATOM      9  C   UNL     1     121.378 125.435 130.711  1.00  0.00     0.094 A 
ATOM     10  C   UNL     1     121.505 126.343 129.658  1.00  0.00     0.146 A 
ATOM     11  O   UNL     1     121.798 125.877 128.450  1.00  0.00    -0.452 OA
ENDROOT
BRANCH   1  12
ATOM     12  C   UNL     1     122.243 125.999 126.085  1.00  0.00     0.025 A 
ATOM     13  C   UNL     1     121.262 125.772 125.104  1.00  0.00     0.016 A 
ATOM     14  C   UNL     1     121.597 125.138 123.905  1.00  0.00     0.051 A 
ATOM     15  C   UNL     1     122.910 124.708 123.674  1.00  0.00     0.157 A 
ATOM     16  C   UNL     1     123.553 125.547 125.858  1.00  0.00     0.062 A 
ATOM     17  C   UNL     1     123.891 124.912 124.658  1.00  0.00     0.158 A 
BRANCH  15  18
ATOM     18  O   UNL     1     123.240 124.077 122.476  1.00  0.00    -0.504 OA
ATOM     19  H   UNL     1     122.609 124.081 121.682  1.00  0.00     0.293 HD
ENDBRANCH  15  18
BRANCH  17  20
ATOM     20  O   UNL     1     125.206 124.489 124.461  1.00  0.00    -0.504 OA
ATOM     21  H   UNL     1     125.458 123.838 123.728  1.00  0.00     0.293 HD
ENDBRANCH  17  20
ENDBRANCH   1  12
BRANCH   2  22
ATOM     22  O   UNL     1     121.878 128.860 126.372  1.00  0.00    -0.502 OA
ATOM     23  H   UNL     1     122.495 128.624 125.604  1.00  0.00     0.293 HD
ENDBRANCH   2  22
BRANCH   6  24
ATOM     24  O   UNL     1     120.926 129.525 131.570  1.00  0.00    -0.507 OA
ATOM     25  H   UNL     1     120.156 130.131 131.330  1.00  0.00     0.293 HD
ENDBRANCH   6  24
BRANCH   8  26
ATOM     26  O   UNL     1     120.907 124.950 133.021  1.00  0.00    -0.508 OA
ATOM     27  H   UNL     1     121.101 123.966 132.881  1.00  0.00     0.293 HD
ENDBRANCH   8  26
TORSDOF 6
ENDMDL
MODEL 7
REMARK VINA RESULT:    -3.395      5.875      9.457
REMARK INTER + INTRA:          -4.419
REMARK INTER:                  -4.400
REMARK INTRA:                  -0.019
REMARK UNBOUND:                -0.330
REMARK SMILES O=c1c(O)c(-c2ccc(O)c(O)c2)oc2cc(O)cc(O)c12
REMARK SMILES IDX 5 1 3 2 2 3 1 4 22 5 20 6 19 7 17 8 16 9 15 10 14 11 6 12
REMARK SMILES IDX 7 13 8 14 9 15 13 16 11 17 10 18 12 20 4 22 21 24 18 26
REMARK H PARENT 10 19 12 21 4 23 21 25 18 27
REMARK Flexibility Score: inf
ROOT
ATOM      1  C   UNL     1     122.704 124.896 133.898  1.00  0.00     0.180 A 
ATOM      2  C   UNL     1     123.868 124.134 134.095  1.00  0.00     0.208 A 
ATOM      3  C   UNL     1     124.287 123.857 135.406  1.00  0.00     0.238 A 
ATOM      4  O   UNL     1     125.369 123.237 135.575  1.00  0.00    -0.285 OA
ATOM      5  C   UNL     1     123.507 124.296 136.503  1.00  0.00     0.111 A 
ATOM      6  C   UNL     1     123.810 124.033 137.873  1.00  0.00     0.134 A 
ATOM      7  C   UNL     1     123.023 124.609 138.878  1.00  0.00     0.093 A 
ATOM      8  C   UNL     1     121.905 125.385 138.562  1.00  0.00     0.123 A 
ATOM      9  C   UNL     1     121.569 125.602 137.228  1.00  0.00     0.094 A 
ATOM     10  C   UNL     1     122.356 125.073 136.203  1.00  0.00     0.146 A 
ATOM     11  O   UNL     1     122.011 125.322 134.946  1.00  0.00    -0.452 OA
ENDROOT
BRANCH   1  12
ATOM     12  C   UNL     1     122.208 125.242 132.546  1.00  0.00     0.025 A 
ATOM     13  C   UNL     1     122.008 124.256 131.564  1.00  0.00     0.016 A 
ATOM     14  C   UNL     1     121.562 124.611 130.288  1.00  0.00     0.051 A 
ATOM     15  C   UNL     1     121.323 125.954 129.970  1.00  0.00     0.157 A 
ATOM     16  C   UNL     1     121.989 126.589 132.215  1.00  0.00     0.062 A 
ATOM     17  C   UNL     1     121.541 126.947 130.938  1.00  0.00     0.158 A 
BRANCH  15  18
ATOM     18  O   UNL     1     120.877 126.304 128.696  1.00  0.00    -0.504 OA
ATOM     19  H   UNL     1     120.171 127.019 128.560  1.00  0.00     0.293 HD
ENDBRANCH  15  18
BRANCH  17  20
ATOM     20  O   UNL     1     121.320 128.294 130.651  1.00  0.00    -0.504 OA
ATOM     21  H   UNL     1     121.047 128.610 129.728  1.00  0.00     0.293 HD
ENDBRANCH  17  20
ENDBRANCH   1  12
BRANCH   2  22
ATOM     22  O   UNL     1     124.583 123.645 132.998  1.00  0.00    -0.502 OA
ATOM     23  H   UNL     1     125.302 124.185 132.533  1.00  0.00     0.293 HD
ENDBRANCH   2  22
BRANCH   6  24
ATOM     24  O   UNL     1     124.849 123.200 138.299  1.00  0.00    -0.507 OA
ATOM     25  H   UNL     1     125.822 123.462 138.336  1.00  0.00     0.293 HD
ENDBRANCH   6  24
BRANCH   8  26
ATOM     26  O   UNL     1     121.118 125.940 139.568  1.00  0.00    -0.508 OA
ATOM     27  H   UNL     1     120.313 126.517 139.355  1.00  0.00     0.293 HD
ENDBRANCH   8  26
TORSDOF 6
ENDMDL
MODEL 8
REMARK VINA RESULT:    -3.331      2.078      7.140
REMARK INTER + INTRA:          -4.342
REMARK INTER:                  -4.010
REMARK INTRA:                  -0.331
REMARK UNBOUND:                -0.330
REMARK SMILES O=c1c(O)c(-c2ccc(O)c(O)c2)oc2cc(O)cc(O)c12
REMARK SMILES IDX 5 1 3 2 2 3 1 4 22 5 20 6 19 7 17 8 16 9 15 10 14 11 6 12
REMARK SMILES IDX 7 13 8 14 9 15 13 16 11 17 10 18 12 20 4 22 21 24 18 26
REMARK H PARENT 10 19 12 21 4 23 21 25 18 27
REMARK Flexibility Score: inf
ROOT
ATOM      1  C   UNL     1     123.006 125.466 125.119  1.00  0.00     0.180 A 
ATOM      2  C   UNL     1     124.271 124.954 125.454  1.00  0.00     0.208 A 
ATOM      3  C   UNL     1     124.709 123.767 124.845  1.00  0.00     0.238 A 
ATOM      4  O   UNL     1     125.810 123.275 125.205  1.00  0.00    -0.285 OA
ATOM      5  C   UNL     1     123.902 123.137 123.868  1.00  0.00     0.111 A 
ATOM      6  C   UNL     1     124.265 121.955 123.152  1.00  0.00     0.134 A 
ATOM      7  C   UNL     1     123.341 121.362 122.284  1.00  0.00     0.093 A 
ATOM      8  C   UNL     1     122.090 121.943 122.055  1.00  0.00     0.123 A 
ATOM      9  C   UNL     1     121.748 123.125 122.706  1.00  0.00     0.094 A 
ATOM     10  C   UNL     1     122.633 123.720 123.608  1.00  0.00     0.146 A 
ATOM     11  O   UNL     1     122.257 124.835 124.222  1.00  0.00    -0.452 OA
ENDROOT
BRANCH   1  12
ATOM     12  C   UNL     1     122.469 126.703 125.729  1.00  0.00     0.025 A 
ATOM     13  C   UNL     1     121.705 126.667 126.909  1.00  0.00     0.016 A 
ATOM     14  C   UNL     1     121.189 127.846 127.453  1.00  0.00     0.051 A 
ATOM     15  C   UNL     1     121.414 129.075 126.820  1.00  0.00     0.157 A 
ATOM     16  C   UNL     1     122.673 127.935 125.086  1.00  0.00     0.062 A 
ATOM     17  C   UNL     1     122.157 129.118 125.629  1.00  0.00     0.158 A 
BRANCH  15  18
ATOM     18  O   UNL     1     120.899 130.249 127.365  1.00  0.00    -0.504 OA
ATOM     19  H   UNL     1     120.041 130.251 127.907  1.00  0.00     0.293 HD
ENDBRANCH  15  18
BRANCH  17  20
ATOM     20  O   UNL     1     122.393 130.325 124.970  1.00  0.00    -0.504 OA
ATOM     21  H   UNL     1     121.683 130.779 124.409  1.00  0.00     0.293 HD
ENDBRANCH  17  20
ENDBRANCH   1  12
BRANCH   2  22
ATOM     22  O   UNL     1     125.085 125.632 126.366  1.00  0.00    -0.502 OA
ATOM     23  H   UNL     1     124.806 125.799 127.325  1.00  0.00     0.293 HD
ENDBRANCH   2  22
BRANCH   6  24
ATOM     24  O   UNL     1     125.519 121.343 123.237  1.00  0.00    -0.507 OA
ATOM     25  H   UNL     1     126.081 121.291 124.073  1.00  0.00     0.293 HD
ENDBRANCH   6  24
BRANCH   8  26
ATOM     26  O   UNL     1     121.184 121.354 121.177  1.00  0.00    -0.508 OA
ATOM     27  H   UNL     1     120.634 120.545 121.444  1.00  0.00     0.293 HD
ENDBRANCH   8  26
TORSDOF 6
ENDMDL
MODEL 9
REMARK VINA RESULT:    -2.485      1.894      3.863
REMARK INTER + INTRA:          -3.323
REMARK INTER:                  -3.129
REMARK INTRA:                  -0.194
REMARK UNBOUND:                -0.330
REMARK SMILES O=c1c(O)c(-c2ccc(O)c(O)c2)oc2cc(O)cc(O)c12
REMARK SMILES IDX 5 1 3 2 2 3 1 4 22 5 20 6 19 7 17 8 16 9 15 10 14 11 6 12
REMARK SMILES IDX 7 13 8 14 9 15 13 16 11 17 10 18 12 20 4 22 21 24 18 26
REMARK H PARENT 10 19 12 21 4 23 21 25 18 27
REMARK Flexibility Score: inf
ROOT
ATOM      1  C   UNL     1     121.655 126.899 124.408  1.00  0.00     0.180 A 
ATOM      2  C   UNL     1     121.655 126.965 125.812  1.00  0.00     0.208 A 
ATOM      3  C   UNL     1     121.489 128.211 126.436  1.00  0.00     0.238 A 
ATOM      4  O   UNL     1     121.564 128.272 127.691  1.00  0.00    -0.285 OA
ATOM      5  C   UNL     1     121.268 129.368 125.651  1.00  0.00     0.111 A 
ATOM      6  C   UNL     1     121.042 130.677 126.177  1.00  0.00     0.134 A 
ATOM      7  C   UNL     1     120.940 131.765 125.303  1.00  0.00     0.093 A 
ATOM      8  C   UNL     1     120.993 131.585 123.918  1.00  0.00     0.123 A 
ATOM      9  C   UNL     1     121.159 130.306 123.394  1.00  0.00     0.094 A 
ATOM     10  C   UNL     1     121.301 129.205 124.240  1.00  0.00     0.146 A 
ATOM     11  O   UNL     1     121.478 128.007 123.698  1.00  0.00    -0.452 OA
ENDROOT
BRANCH   1  12
ATOM     12  C   UNL     1     121.839 125.624 123.678  1.00  0.00     0.025 A 
ATOM     13  C   UNL     1     120.875 124.602 123.732  1.00  0.00     0.016 A 
ATOM     14  C   UNL     1     121.083 123.399 123.053  1.00  0.00     0.051 A 
ATOM     15  C   UNL     1     122.261 123.192 122.324  1.00  0.00     0.157 A 
ATOM     16  C   UNL     1     123.028 125.404 122.964  1.00  0.00     0.062 A 
ATOM     17  C   UNL     1     123.239 124.199 122.283  1.00  0.00     0.158 A 
BRANCH  15  18
ATOM     18  O   UNL     1     122.465 121.990 121.648  1.00  0.00    -0.504 OA
ATOM     19  H   UNL     1     123.057 121.261 122.030  1.00  0.00     0.293 HD
ENDBRANCH  15  18
BRANCH  17  20
ATOM     20  O   UNL     1     124.426 124.021 121.572  1.00  0.00    -0.504 OA
ATOM     21  H   UNL     1     124.679 124.614 120.791  1.00  0.00     0.293 HD
ENDBRANCH  17  20
ENDBRANCH   1  12
BRANCH   2  22
ATOM     22  O   UNL     1     121.798 125.799 126.570  1.00  0.00    -0.502 OA
ATOM     23  H   UNL     1     121.290 125.646 127.432  1.00  0.00     0.293 HD
ENDBRANCH   2  22
BRANCH   6  24
ATOM     24  O   UNL     1     120.884 130.956 127.538  1.00  0.00    -0.507 OA
ATOM     25  H   UNL     1     121.033 130.296 128.285  1.00  0.00     0.293 HD
ENDBRANCH   6  24
BRANCH   8  26
ATOM     26  O   UNL     1     120.875 132.672 123.056  1.00  0.00    -0.508 OA
ATOM     27  H   UNL     1     121.282 132.660 122.127  1.00  0.00     0.293 HD
ENDBRANCH   8  26
TORSDOF 6
ENDMDL
