MODEL 1
REMARK VINA RESULT:    -3.790      0.000      0.000
REMARK INTER + INTRA:          -8.421
REMARK INTER:                  -6.671
REMARK INTRA:                  -1.749
REMARK UNBOUND:                -1.749
REMARK SMILES CCCCCCCCCCCCCCC(=O)[O-]
REMARK SMILES IDX 9 1 10 2 11 3 12 4 13 5 14 6 15 7 16 8 17 9 8 10 7 11 6 12
REMARK SMILES IDX 5 13 4 14 3 15 2 16 1 17
REMARK H PARENT
REMARK Flexibility Score: inf
ROOT
ATOM      1  C   UNL     1      33.518  18.110 -18.605  1.00  0.00     0.000 C 
ENDROOT
BRANCH   1   2
ATOM      2  C   UNL     1      33.054  17.422 -19.898  1.00  0.00     0.000 C 
BRANCH   2   3
ATOM      3  C   UNL     1      31.524  17.265 -19.968  1.00  0.00     0.000 C 
BRANCH   3   4
ATOM      4  C   UNL     1      30.833  17.623 -18.644  1.00  0.00     0.000 C 
BRANCH   4   5
ATOM      5  C   UNL     1      29.299  17.596 -18.752  1.00  0.00     0.006 C 
BRANCH   5   6
ATOM      6  C   UNL     1      28.628  18.500 -17.708  1.00  0.00     0.053 C 
BRANCH   6   7
ATOM      7  C   UNL     1      27.501  19.289 -18.300  1.00  0.00     0.041 C 
ATOM      8  O   UNL     1      27.529  19.620 -19.515  1.00  0.00    -0.550 OA
ATOM      9  O   UNL     1      26.404  19.629 -17.519  1.00  0.00    -0.550 OA
ENDBRANCH   6   7
ENDBRANCH   5   6
ENDBRANCH   4   5
ENDBRANCH   3   4
ENDBRANCH   2   3
ENDBRANCH   1   2
BRANCH   1  10
ATOM     10  C   UNL     1      34.638  17.335 -17.893  1.00  0.00     0.000 C 
BRANCH  10  11
ATOM     11  C   UNL     1      34.450  15.822 -18.058  1.00  0.00    -0.000 C 
BRANCH  11  12
ATOM     12  C   UNL     1      34.541  15.106 -16.702  1.00  0.00    -0.000 C 
BRANCH  12  13
ATOM     13  C   UNL     1      33.294  14.263 -16.393  1.00  0.00    -0.000 C 
BRANCH  13  14
ATOM     14  C   UNL     1      32.391  14.071 -17.625  1.00  0.00    -0.000 C 
BRANCH  14  15
ATOM     15  C   UNL     1      30.900  14.253 -17.297  1.00  0.00    -0.000 C 
BRANCH  15  16
ATOM     16  C   UNL     1      30.644  14.432 -15.794  1.00  0.00    -0.003 C 
ATOM     17  C   UNL     1      29.344  15.190 -15.544  1.00  0.00     0.004 C 
ENDBRANCH  15  16
ENDBRANCH  14  15
ENDBRANCH  13  14
ENDBRANCH  12  13
ENDBRANCH  11  12
ENDBRANCH  10  11
ENDBRANCH   1  10
TORSDOF 13
ENDMDL
MODEL 2
REMARK VINA RESULT:    -3.780      1.998      4.811
REMARK INTER + INTRA:          -8.402
REMARK INTER:                  -7.051
REMARK INTRA:                  -1.351
REMARK UNBOUND:                -1.749
REMARK SMILES CCCCCCCCCCCCCCC(=O)[O-]
REMARK SMILES IDX 9 1 10 2 11 3 12 4 13 5 14 6 15 7 16 8 17 9 8 10 7 11 6 12
REMARK SMILES IDX 5 13 4 14 3 15 2 16 1 17
REMARK H PARENT
REMARK Flexibility Score: inf
ROOT
ATOM      1  C   UNL     1      34.642  17.264 -17.885  1.00  0.00     0.000 C 
ENDROOT
BRANCH   1   2
ATOM      2  C   UNL     1      34.298  15.768 -17.929  1.00  0.00     0.000 C 
BRANCH   2   3
ATOM      3  C   UNL     1      34.659  15.039 -16.622  1.00  0.00     0.000 C 
BRANCH   3   4
ATOM      4  C   UNL     1      33.570  14.050 -16.179  1.00  0.00     0.000 C 
BRANCH   4   5
ATOM      5  C   UNL     1      32.198  14.364 -16.800  1.00  0.00     0.006 C 
BRANCH   5   6
ATOM      6  C   UNL     1      31.053  14.195 -15.792  1.00  0.00     0.053 C 
BRANCH   6   7
ATOM      7  C   UNL     1      29.788  14.832 -16.278  1.00  0.00     0.041 C 
ATOM      8  O   UNL     1      29.333  14.548 -17.418  1.00  0.00    -0.550 OA
ATOM      9  O   UNL     1      29.091  15.712 -15.459  1.00  0.00    -0.550 OA
ENDBRANCH   6   7
ENDBRANCH   5   6
ENDBRANCH   4   5
ENDBRANCH   3   4
ENDBRANCH   2   3
ENDBRANCH   1   2
BRANCH   1  10
ATOM     10  C   UNL     1      33.561  18.139 -18.539  1.00  0.00     0.000 C 
BRANCH  10  11
ATOM     11  C   UNL     1      32.491  17.274 -19.217  1.00  0.00    -0.000 C 
BRANCH  11  12
ATOM     12  C   UNL     1      31.100  17.565 -18.635  1.00  0.00    -0.000 C 
BRANCH  12  13
ATOM     13  C   UNL     1      29.972  17.325 -19.651  1.00  0.00    -0.000 C 
BRANCH  13  14
ATOM     14  C   UNL     1      28.574  17.534 -19.042  1.00  0.00    -0.000 C 
BRANCH  14  15
ATOM     15  C   UNL     1      28.608  18.406 -17.776  1.00  0.00    -0.000 C 
BRANCH  15  16
ATOM     16  C   UNL     1      27.307  19.194 -17.568  1.00  0.00    -0.003 C 
ATOM     17  C   UNL     1      27.015  20.099 -18.761  1.00  0.00     0.004 C 
ENDBRANCH  15  16
ENDBRANCH  14  15
ENDBRANCH  13  14
ENDBRANCH  12  13
ENDBRANCH  11  12
ENDBRANCH  10  11
ENDBRANCH   1  10
TORSDOF 13
ENDMDL
MODEL 3
REMARK VINA RESULT:    -3.694      1.006      3.293
REMARK INTER + INTRA:          -8.251
REMARK INTER:                  -6.521
REMARK INTRA:                  -1.730
REMARK UNBOUND:                -1.749
REMARK SMILES CCCCCCCCCCCCCCC(=O)[O-]
REMARK SMILES IDX 9 1 10 2 11 3 12 4 13 5 14 6 15 7 16 8 17 9 8 10 7 11 6 12
REMARK SMILES IDX 5 13 4 14 3 15 2 16 1 17
REMARK H PARENT
REMARK Flexibility Score: inf
ROOT
ATOM      1  C   UNL     1      30.213  15.185 -16.748  1.00  0.00     0.000 C 
ENDROOT
BRANCH   1   2
ATOM      2  C   UNL     1      30.293  14.850 -18.246  1.00  0.00     0.000 C 
BRANCH   2   3
ATOM      3  C   UNL     1      30.340  16.108 -19.132  1.00  0.00     0.000 C 
BRANCH   3   4
ATOM      4  C   UNL     1      30.024  17.392 -18.350  1.00  0.00     0.000 C 
BRANCH   4   5
ATOM      5  C   UNL     1      28.825  18.159 -18.933  1.00  0.00     0.006 C 
BRANCH   5   6
ATOM      6  C   UNL     1      27.683  18.307 -17.919  1.00  0.00     0.053 C 
BRANCH   6   7
ATOM      7  C   UNL     1      26.977  19.619 -18.066  1.00  0.00     0.041 C 
ATOM      8  O   UNL     1      26.251  20.057 -17.134  1.00  0.00    -0.550 OA
ATOM      9  O   UNL     1      27.148  20.377 -19.218  1.00  0.00    -0.550 OA
ENDBRANCH   6   7
ENDBRANCH   5   6
ENDBRANCH   4   5
ENDBRANCH   3   4
ENDBRANCH   2   3
ENDBRANCH   1   2
BRANCH   1  10
ATOM     10  C   UNL     1      31.128  14.294 -15.894  1.00  0.00     0.000 C 
BRANCH  10  11
ATOM     11  C   UNL     1      32.269  13.710 -16.736  1.00  0.00    -0.000 C 
BRANCH  11  12
ATOM     12  C   UNL     1      33.630  13.968 -16.073  1.00  0.00    -0.000 C 
BRANCH  12  13
ATOM     13  C   UNL     1      34.469  15.010 -16.830  1.00  0.00    -0.000 C 
BRANCH  13  14
ATOM     14  C   UNL     1      34.281  14.924 -18.355  1.00  0.00    -0.000 C 
BRANCH  14  15
ATOM     15  C   UNL     1      33.905  16.277 -18.980  1.00  0.00    -0.000 C 
BRANCH  15  16
ATOM     16  C   UNL     1      34.144  17.455 -18.025  1.00  0.00    -0.003 C 
ATOM     17  C   UNL     1      33.462  18.722 -18.533  1.00  0.00     0.004 C 
ENDBRANCH  15  16
ENDBRANCH  14  15
ENDBRANCH  13  14
ENDBRANCH  12  13
ENDBRANCH  11  12
ENDBRANCH  10  11
ENDBRANCH   1  10
TORSDOF 13
ENDMDL
MODEL 4
REMARK VINA RESULT:    -3.646      1.947      4.244
REMARK INTER + INTRA:          -8.166
REMARK INTER:                  -6.541
REMARK INTRA:                  -1.625
REMARK UNBOUND:                -1.749
REMARK SMILES CCCCCCCCCCCCCCC(=O)[O-]
REMARK SMILES IDX 9 1 10 2 11 3 12 4 13 5 14 6 15 7 16 8 17 9 8 10 7 11 6 12
REMARK SMILES IDX 5 13 4 14 3 15 2 16 1 17
REMARK H PARENT
REMARK Flexibility Score: inf
ROOT
ATOM      1  C   UNL     1      34.303  15.259 -17.712  1.00  0.00     0.000 C 
ENDROOT
BRANCH   1   2
ATOM      2  C   UNL     1      34.363  14.468 -16.396  1.00  0.00     0.000 C 
BRANCH   2   3
ATOM      3  C   UNL     1      33.046  13.732 -16.088  1.00  0.00     0.000 C 
BRANCH   3   4
ATOM      4  C   UNL     1      31.821  14.442 -16.682  1.00  0.00     0.000 C 
BRANCH   4   5
ATOM      5  C   UNL     1      30.571  14.306 -15.796  1.00  0.00     0.006 C 
BRANCH   5   6
ATOM      6  C   UNL     1      29.272  14.355 -16.612  1.00  0.00     0.053 C 
BRANCH   6   7
ATOM      7  C   UNL     1      28.260  15.267 -15.992  1.00  0.00     0.041 C 
ATOM      8  O   UNL     1      28.630  16.198 -15.228  1.00  0.00    -0.550 OA
ATOM      9  O   UNL     1      26.911  15.112 -16.284  1.00  0.00    -0.550 OA
ENDBRANCH   6   7
ENDBRANCH   5   6
ENDBRANCH   4   5
ENDBRANCH   3   4
ENDBRANCH   2   3
ENDBRANCH   1   2
BRANCH   1  10
ATOM     10  C   UNL     1      34.627  16.749 -17.521  1.00  0.00     0.000 C 
BRANCH  10  11
ATOM     11  C   UNL     1      34.174  17.569 -18.735  1.00  0.00    -0.000 C 
BRANCH  11  12
ATOM     12  C   UNL     1      32.658  17.808 -18.701  1.00  0.00    -0.000 C 
BRANCH  12  13
ATOM     13  C   UNL     1      31.923  17.111 -19.859  1.00  0.00    -0.000 C 
BRANCH  13  14
ATOM     14  C   UNL     1      30.472  16.745 -19.501  1.00  0.00    -0.000 C 
BRANCH  14  15
ATOM     15  C   UNL     1      29.889  17.651 -18.405  1.00  0.00    -0.000 C 
BRANCH  15  16
ATOM     16  C   UNL     1      28.381  17.887 -18.575  1.00  0.00    -0.003 C 
ATOM     17  C   UNL     1      27.857  18.868 -17.530  1.00  0.00     0.004 C 
ENDBRANCH  15  16
ENDBRANCH  14  15
ENDBRANCH  13  14
ENDBRANCH  12  13
ENDBRANCH  11  12
ENDBRANCH  10  11
ENDBRANCH   1  10
TORSDOF 13
ENDMDL
MODEL 5
REMARK VINA RESULT:    -3.567      2.475      5.728
REMARK INTER + INTRA:          -8.028
REMARK INTER:                  -7.068
REMARK INTRA:                  -0.959
REMARK UNBOUND:                -1.749
REMARK SMILES CCCCCCCCCCCCCCC(=O)[O-]
REMARK SMILES IDX 9 1 10 2 11 3 12 4 13 5 14 6 15 7 16 8 17 9 8 10 7 11 6 12
REMARK SMILES IDX 5 13 4 14 3 15 2 16 1 17
REMARK H PARENT
REMARK Flexibility Score: inf
ROOT
ATOM      1  C   UNL     1      31.272  13.077 -15.956  1.00  0.00     0.000 C 
ENDROOT
BRANCH   1   2
ATOM      2  C   UNL     1      32.281  14.235 -15.958  1.00  0.00     0.000 C 
BRANCH   2   3
ATOM      3  C   UNL     1      33.731  13.756 -16.155  1.00  0.00     0.000 C 
BRANCH   3   4
ATOM      4  C   UNL     1      34.655  14.871 -16.668  1.00  0.00     0.000 C 
BRANCH   4   5
ATOM      5  C   UNL     1      33.995  15.731 -17.759  1.00  0.00     0.006 C 
BRANCH   5   6
ATOM      6  C   UNL     1      34.625  17.127 -17.858  1.00  0.00     0.053 C 
BRANCH   6   7
ATOM      7  C   UNL     1      33.834  18.031 -18.751  1.00  0.00     0.041 C 
ATOM      8  O   UNL     1      33.666  17.736 -19.963  1.00  0.00    -0.550 OA
ATOM      9  O   UNL     1      33.252  19.183 -18.237  1.00  0.00    -0.550 OA
ENDBRANCH   6   7
ENDBRANCH   5   6
ENDBRANCH   4   5
ENDBRANCH   3   4
ENDBRANCH   2   3
ENDBRANCH   1   2
BRANCH   1  10
ATOM     10  C   UNL     1      29.847  13.535 -15.607  1.00  0.00     0.000 C 
BRANCH  10  11
ATOM     11  C   UNL     1      29.731  15.063 -15.669  1.00  0.00    -0.000 C 
BRANCH  11  12
ATOM     12  C   UNL     1      28.994  15.507 -16.942  1.00  0.00    -0.000 C 
BRANCH  12  13
ATOM     13  C   UNL     1      29.896  16.302 -17.900  1.00  0.00    -0.000 C 
BRANCH  13  14
ATOM     14  C   UNL     1      29.158  17.476 -18.567  1.00  0.00    -0.000 C 
BRANCH  14  15
ATOM     15  C   UNL     1      28.573  18.462 -17.544  1.00  0.00    -0.000 C 
BRANCH  15  16
ATOM     16  C   UNL     1      27.098  18.788 -17.814  1.00  0.00    -0.003 C 
ATOM     17  C   UNL     1      26.960  20.042 -18.672  1.00  0.00     0.004 C 
ENDBRANCH  15  16
ENDBRANCH  14  15
ENDBRANCH  13  14
ENDBRANCH  12  13
ENDBRANCH  11  12
ENDBRANCH  10  11
ENDBRANCH   1  10
TORSDOF 13
ENDMDL
MODEL 6
REMARK VINA RESULT:    -3.393     12.235     14.372
REMARK INTER + INTRA:          -7.722
REMARK INTER:                  -5.715
REMARK INTRA:                  -2.006
REMARK UNBOUND:                -1.749
REMARK SMILES CCCCCCCCCCCCCCC(=O)[O-]
REMARK SMILES IDX 9 1 10 2 11 3 12 4 13 5 14 6 15 7 16 8 17 9 8 10 7 11 6 12
REMARK SMILES IDX 5 13 4 14 3 15 2 16 1 17
REMARK H PARENT
REMARK Flexibility Score: inf
ROOT
ATOM      1  C   UNL     1      27.877  28.412 -18.632  1.00  0.00     0.000 C 
ENDROOT
BRANCH   1   2
ATOM      2  C   UNL     1      28.094  29.890 -18.273  1.00  0.00     0.000 C 
BRANCH   2   3
ATOM      3  C   UNL     1      26.917  30.783 -18.705  1.00  0.00     0.000 C 
BRANCH   3   4
ATOM      4  C   UNL     1      26.122  31.330 -17.510  1.00  0.00     0.000 C 
BRANCH   4   5
ATOM      5  C   UNL     1      25.148  32.451 -17.911  1.00  0.00     0.006 C 
BRANCH   5   6
ATOM      6  C   UNL     1      23.731  31.922 -18.172  1.00  0.00     0.053 C 
BRANCH   6   7
ATOM      7  C   UNL     1      22.833  32.138 -16.994  1.00  0.00     0.041 C 
ATOM      8  O   UNL     1      21.876  32.953 -17.067  1.00  0.00    -0.550 OA
ATOM      9  O   UNL     1      23.030  31.412 -15.825  1.00  0.00    -0.550 OA
ENDBRANCH   6   7
ENDBRANCH   5   6
ENDBRANCH   4   5
ENDBRANCH   3   4
ENDBRANCH   2   3
ENDBRANCH   1   2
BRANCH   1  10
ATOM     10  C   UNL     1      27.053  28.231 -19.916  1.00  0.00     0.000 C 
BRANCH  10  11
ATOM     11  C   UNL     1      26.540  26.791 -20.041  1.00  0.00    -0.000 C 
BRANCH  11  12
ATOM     12  C   UNL     1      25.030  26.721 -19.770  1.00  0.00    -0.000 C 
BRANCH  12  13
ATOM     13  C   UNL     1      24.398  28.109 -19.578  1.00  0.00    -0.000 C 
BRANCH  13  14
ATOM     14  C   UNL     1      23.931  28.350 -18.131  1.00  0.00    -0.000 C 
BRANCH  14  15
ATOM     15  C   UNL     1      24.470  27.293 -17.155  1.00  0.00    -0.000 C 
BRANCH  15  16
ATOM     16  C   UNL     1      25.492  27.870 -16.165  1.00  0.00    -0.003 C 
ATOM     17  C   UNL     1      24.802  28.421 -14.921  1.00  0.00     0.004 C 
ENDBRANCH  15  16
ENDBRANCH  14  15
ENDBRANCH  13  14
ENDBRANCH  12  13
ENDBRANCH  11  12
ENDBRANCH  10  11
ENDBRANCH   1  10
TORSDOF 13
ENDMDL
MODEL 7
REMARK VINA RESULT:    -3.366     11.852     14.550
REMARK INTER + INTRA:          -7.674
REMARK INTER:                  -5.571
REMARK INTRA:                  -2.102
REMARK UNBOUND:                -1.749
REMARK SMILES CCCCCCCCCCCCCCC(=O)[O-]
REMARK SMILES IDX 9 1 10 2 11 3 12 4 13 5 14 6 15 7 16 8 17 9 8 10 7 11 6 12
REMARK SMILES IDX 5 13 4 14 3 15 2 16 1 17
REMARK H PARENT
REMARK Flexibility Score: inf
ROOT
ATOM      1  C   UNL     1      27.475  28.837 -19.863  1.00  0.00     0.000 C 
ENDROOT
BRANCH   1   2
ATOM      2  C   UNL     1      27.130  27.347 -20.010  1.00  0.00     0.000 C 
BRANCH   2   3
ATOM      3  C   UNL     1      26.433  26.775 -18.762  1.00  0.00     0.000 C 
BRANCH   3   4
ATOM      4  C   UNL     1      24.902  26.867 -18.847  1.00  0.00     0.000 C 
BRANCH   4   5
ATOM      5  C   UNL     1      24.292  27.661 -17.680  1.00  0.00     0.006 C 
BRANCH   5   6
ATOM      6  C   UNL     1      25.255  27.778 -16.491  1.00  0.00     0.053 C 
BRANCH   6   7
ATOM      7  C   UNL     1      25.004  29.020 -15.693  1.00  0.00     0.041 C 
ATOM      8  O   UNL     1      25.117  29.001 -14.439  1.00  0.00    -0.550 OA
ATOM      9  O   UNL     1      24.681  30.208 -16.337  1.00  0.00    -0.550 OA
ENDBRANCH   6   7
ENDBRANCH   5   6
ENDBRANCH   4   5
ENDBRANCH   3   4
ENDBRANCH   2   3
ENDBRANCH   1   2
BRANCH   1  10
ATOM     10  C   UNL     1      27.981  29.191 -18.456  1.00  0.00     0.000 C 
BRANCH  10  11
ATOM     11  C   UNL     1      27.665  30.650 -18.110  1.00  0.00    -0.000 C 
BRANCH  11  12
ATOM     12  C   UNL     1      27.002  31.366 -19.296  1.00  0.00    -0.000 C 
BRANCH  12  13
ATOM     13  C   UNL     1      25.866  32.306 -18.861  1.00  0.00    -0.000 C 
BRANCH  13  14
ATOM     14  C   UNL     1      24.571  32.076 -19.660  1.00  0.00    -0.000 C 
BRANCH  14  15
ATOM     15  C   UNL     1      24.350  30.595 -20.010  1.00  0.00    -0.000 C 
BRANCH  15  16
ATOM     16  C   UNL     1      22.883  30.168 -19.864  1.00  0.00    -0.003 C 
ATOM     17  C   UNL     1      22.217  30.879 -18.689  1.00  0.00     0.004 C 
ENDBRANCH  15  16
ENDBRANCH  14  15
ENDBRANCH  13  14
ENDBRANCH  12  13
ENDBRANCH  11  12
ENDBRANCH  10  11
ENDBRANCH   1  10
TORSDOF 13
ENDMDL
MODEL 8
REMARK VINA RESULT:    -3.353      3.681      5.908
REMARK INTER + INTRA:          -7.650
REMARK INTER:                  -5.982
REMARK INTRA:                  -1.669
REMARK UNBOUND:                -1.749
REMARK SMILES CCCCCCCCCCCCCCC(=O)[O-]
REMARK SMILES IDX 9 1 10 2 11 3 12 4 13 5 14 6 15 7 16 8 17 9 8 10 7 11 6 12
REMARK SMILES IDX 5 13 4 14 3 15 2 16 1 17
REMARK H PARENT
REMARK Flexibility Score: inf
ROOT
ATOM      1  C   UNL     1      31.191  17.729 -18.767  1.00  0.00     0.000 C 
ENDROOT
BRANCH   1   2
ATOM      2  C   UNL     1      32.623  17.692 -19.325  1.00  0.00     0.000 C 
BRANCH   2   3
ATOM      3  C   UNL     1      33.661  18.234 -18.327  1.00  0.00     0.000 C 
BRANCH   3   4
ATOM      4  C   UNL     1      34.768  17.216 -18.015  1.00  0.00     0.000 C 
BRANCH   4   5
ATOM      5  C   UNL     1      34.305  15.762 -18.211  1.00  0.00     0.006 C 
BRANCH   5   6
ATOM      6  C   UNL     1      33.919  15.092 -16.885  1.00  0.00     0.053 C 
BRANCH   6   7
ATOM      7  C   UNL     1      34.595  13.767 -16.715  1.00  0.00     0.041 C 
ATOM      8  O   UNL     1      35.474  13.394 -17.536  1.00  0.00    -0.550 OA
ATOM      9  O   UNL     1      34.281  12.959 -15.630  1.00  0.00    -0.550 OA
ENDBRANCH   6   7
ENDBRANCH   5   6
ENDBRANCH   4   5
ENDBRANCH   3   4
ENDBRANCH   2   3
ENDBRANCH   1   2
BRANCH   1  10
ATOM     10  C   UNL     1      30.133  17.400 -19.832  1.00  0.00     0.000 C 
BRANCH  10  11
ATOM     11  C   UNL     1      28.787  18.048 -19.488  1.00  0.00    -0.000 C 
BRANCH  11  12
ATOM     12  C   UNL     1      28.649  18.258 -17.972  1.00  0.00    -0.000 C 
BRANCH  12  13
ATOM     13  C   UNL     1      27.477  17.466 -17.370  1.00  0.00    -0.000 C 
BRANCH  13  14
ATOM     14  C   UNL     1      27.804  15.974 -17.188  1.00  0.00    -0.000 C 
BRANCH  14  15
ATOM     15  C   UNL     1      28.740  15.717 -15.996  1.00  0.00    -0.000 C 
BRANCH  15  16
ATOM     16  C   UNL     1      30.066  15.068 -16.415  1.00  0.00    -0.003 C 
ATOM     17  C   UNL     1      29.910  14.293 -17.720  1.00  0.00     0.004 C 
ENDBRANCH  15  16
ENDBRANCH  14  15
ENDBRANCH  13  14
ENDBRANCH  12  13
ENDBRANCH  11  12
ENDBRANCH  10  11
ENDBRANCH   1  10
TORSDOF 13
ENDMDL
