MODEL 1
REMARK VINA RESULT:    -4.011      0.000      0.000
REMARK INTER + INTRA:          -5.333
REMARK INTER:                  -4.949
REMARK INTRA:                  -0.384
REMARK UNBOUND:                -0.384
REMARK SMILES Oc1cc(O)c2cc(O)c(-c3cc(O)c(O)c(O)c3)[o+]c2c1
REMARK SMILES IDX 10 1 20 2 21 3 22 4 2 5 3 6 4 7 6 8 7 9 8 10 11 11 12 12
REMARK SMILES IDX 13 13 19 14 15 15 17 16 14 17 16 19 18 21 9 23 1 25 5 27
REMARK H PARENT 14 18 16 20 18 22 9 24 1 26 5 28
REMARK Flexibility Score: inf
ROOT
ATOM      1  C   UNL     1     -20.724  14.284 -19.221  1.00  0.00     0.402 A 
ATOM      2  O   UNL     1     -21.398  14.309 -20.368  1.00  0.00    -0.202 OA
ATOM      3  C   UNL     1     -20.815  14.233 -21.560  1.00  0.00     0.368 A 
ATOM      4  C   UNL     1     -21.608  14.270 -22.709  1.00  0.00     0.162 A 
ATOM      5  C   UNL     1     -21.019  14.196 -23.975  1.00  0.00     0.128 A 
ATOM      6  C   UNL     1     -19.633  14.085 -24.092  1.00  0.00     0.093 A 
ATOM      7  C   UNL     1     -18.815  14.045 -22.955  1.00  0.00     0.136 A 
ATOM      8  C   UNL     1     -19.407  14.118 -21.667  1.00  0.00     0.125 A 
ATOM      9  C   UNL     1     -18.669  14.073 -20.474  1.00  0.00     0.078 A 
ATOM     10  C   UNL     1     -19.323  14.146 -19.241  1.00  0.00     0.223 A 
ENDROOT
BRANCH   1  11
ATOM     11  C   UNL     1     -21.488  14.385 -17.957  1.00  0.00     0.091 A 
ATOM     12  C   UNL     1     -21.758  15.628 -17.364  1.00  0.00     0.068 A 
ATOM     13  C   UNL     1     -22.501  15.705 -16.180  1.00  0.00     0.162 A 
ATOM     14  C   UNL     1     -22.004  13.223 -17.367  1.00  0.00     0.068 A 
ATOM     15  C   UNL     1     -22.996  14.538 -15.578  1.00  0.00     0.200 A 
ATOM     16  C   UNL     1     -22.748  13.283 -16.183  1.00  0.00     0.162 A 
BRANCH  13  17
ATOM     17  O   UNL     1     -22.759  16.943 -15.592  1.00  0.00    -0.504 OA
ATOM     18  H   UNL     1     -23.327  17.643 -16.056  1.00  0.00     0.293 HD
ENDBRANCH  13  17
BRANCH  15  19
ATOM     19  O   UNL     1     -23.725  14.670 -14.394  1.00  0.00    -0.502 OA
ATOM     20  H   UNL     1     -23.953  13.901 -13.780  1.00  0.00     0.293 HD
ENDBRANCH  15  19
BRANCH  16  21
ATOM     21  O   UNL     1     -23.218  12.082 -15.648  1.00  0.00    -0.504 OA
ATOM     22  H   UNL     1     -22.716  11.207 -15.694  1.00  0.00     0.293 HD
ENDBRANCH  16  21
ENDBRANCH   1  11
BRANCH  10  23
ATOM     23  O   UNL     1     -18.595  14.051 -18.055  1.00  0.00    -0.500 OA
ATOM     24  H   UNL     1     -17.603  14.257 -18.022  1.00  0.00     0.294 HD
ENDBRANCH  10  23
BRANCH   5  25
ATOM     25  O   UNL     1     -21.804  14.232 -25.125  1.00  0.00    -0.507 OA
ATOM     26  H   UNL     1     -22.813  14.148 -25.081  1.00  0.00     0.293 HD
ENDBRANCH   5  25
BRANCH   7  27
ATOM     27  O   UNL     1     -17.436  13.938 -23.157  1.00  0.00    -0.507 OA
ATOM     28  H   UNL     1     -16.830  13.318 -22.640  1.00  0.00     0.293 HD
ENDBRANCH   7  27
TORSDOF 7
ENDMDL
MODEL 2
REMARK VINA RESULT:    -3.971     13.808     15.889
REMARK INTER + INTRA:          -5.284
REMARK INTER:                  -4.939
REMARK INTRA:                  -0.345
REMARK UNBOUND:                -0.384
REMARK SMILES Oc1cc(O)c2cc(O)c(-c3cc(O)c(O)c(O)c3)[o+]c2c1
REMARK SMILES IDX 10 1 20 2 21 3 22 4 2 5 3 6 4 7 6 8 7 9 8 10 11 11 12 12
REMARK SMILES IDX 13 13 19 14 15 15 17 16 14 17 16 19 18 21 9 23 1 25 5 27
REMARK H PARENT 14 18 16 20 18 22 9 24 1 26 5 28
REMARK Flexibility Score: inf
ROOT
ATOM      1  C   UNL     1     -19.150  28.569 -20.810  1.00  0.00     0.402 A 
ATOM      2  O   UNL     1     -20.351  28.468 -21.375  1.00  0.00    -0.202 OA
ATOM      3  C   UNL     1     -21.488  28.546 -20.691  1.00  0.00     0.368 A 
ATOM      4  C   UNL     1     -22.701  28.425 -21.372  1.00  0.00     0.162 A 
ATOM      5  C   UNL     1     -23.912  28.500 -20.677  1.00  0.00     0.128 A 
ATOM      6  C   UNL     1     -23.908  28.696 -19.295  1.00  0.00     0.093 A 
ATOM      7  C   UNL     1     -22.706  28.821 -18.588  1.00  0.00     0.136 A 
ATOM      8  C   UNL     1     -21.474  28.748 -19.290  1.00  0.00     0.125 A 
ATOM      9  C   UNL     1     -20.222  28.875 -18.667  1.00  0.00     0.078 A 
ATOM     10  C   UNL     1     -19.050  28.796 -19.425  1.00  0.00     0.223 A 
ENDROOT
BRANCH   1  11
ATOM     11  C   UNL     1     -17.956  28.456 -21.679  1.00  0.00     0.091 A 
ATOM     12  C   UNL     1     -17.497  27.209 -22.131  1.00  0.00     0.068 A 
ATOM     13  C   UNL     1     -16.379  27.124 -22.970  1.00  0.00     0.162 A 
ATOM     14  C   UNL     1     -17.302  29.619 -22.107  1.00  0.00     0.068 A 
ATOM     15  C   UNL     1     -15.712  28.288 -23.378  1.00  0.00     0.200 A 
ATOM     16  C   UNL     1     -16.182  29.550 -22.945  1.00  0.00     0.162 A 
BRANCH  13  17
ATOM     17  O   UNL     1     -15.925  25.881 -23.409  1.00  0.00    -0.504 OA
ATOM     18  H   UNL     1     -15.365  25.281 -22.815  1.00  0.00     0.293 HD
ENDBRANCH  13  17
BRANCH  15  19
ATOM     19  O   UNL     1     -14.597  28.147 -24.209  1.00  0.00    -0.502 OA
ATOM     20  H   UNL     1     -14.530  28.537 -25.138  1.00  0.00     0.293 HD
ENDBRANCH  15  19
BRANCH  16  21
ATOM     21  O   UNL     1     -15.576  30.750 -23.320  1.00  0.00    -0.504 OA
ATOM     22  H   UNL     1     -16.004  31.659 -23.213  1.00  0.00     0.293 HD
ENDBRANCH  16  21
ENDBRANCH   1  11
BRANCH  10  23
ATOM     23  O   UNL     1     -17.808  28.973 -18.815  1.00  0.00    -0.500 OA
ATOM     24  H   UNL     1     -16.944  28.915 -19.342  1.00  0.00     0.294 HD
ENDBRANCH  10  23
BRANCH   5  25
ATOM     25  O   UNL     1     -25.125  28.380 -21.350  1.00  0.00    -0.507 OA
ATOM     26  H   UNL     1     -25.242  28.721 -22.297  1.00  0.00     0.293 HD
ENDBRANCH   5  25
BRANCH   7  27
ATOM     27  O   UNL     1     -22.788  29.011 -17.206  1.00  0.00    -0.507 OA
ATOM     28  H   UNL     1     -22.063  29.433 -16.643  1.00  0.00     0.293 HD
ENDBRANCH   7  27
TORSDOF 7
ENDMDL
MODEL 3
REMARK VINA RESULT:    -3.952     13.839     15.813
REMARK INTER + INTRA:          -5.260
REMARK INTER:                  -4.899
REMARK INTRA:                  -0.362
REMARK UNBOUND:                -0.384
REMARK SMILES Oc1cc(O)c2cc(O)c(-c3cc(O)c(O)c(O)c3)[o+]c2c1
REMARK SMILES IDX 10 1 20 2 21 3 22 4 2 5 3 6 4 7 6 8 7 9 8 10 11 11 12 12
REMARK SMILES IDX 13 13 19 14 15 15 17 16 14 17 16 19 18 21 9 23 1 25 5 27
REMARK H PARENT 14 18 16 20 18 22 9 24 1 26 5 28
REMARK Flexibility Score: inf
ROOT
ATOM      1  C   UNL     1     -19.152  28.628 -20.804  1.00  0.00     0.402 A 
ATOM      2  O   UNL     1     -20.352  28.527 -21.369  1.00  0.00    -0.202 OA
ATOM      3  C   UNL     1     -21.489  28.571 -20.681  1.00  0.00     0.368 A 
ATOM      4  C   UNL     1     -22.702  28.453 -21.364  1.00  0.00     0.162 A 
ATOM      5  C   UNL     1     -23.912  28.493 -20.664  1.00  0.00     0.128 A 
ATOM      6  C   UNL     1     -23.908  28.650 -19.277  1.00  0.00     0.093 A 
ATOM      7  C   UNL     1     -22.705  28.771 -18.569  1.00  0.00     0.136 A 
ATOM      8  C   UNL     1     -21.474  28.734 -19.275  1.00  0.00     0.125 A 
ATOM      9  C   UNL     1     -20.223  28.860 -18.651  1.00  0.00     0.078 A 
ATOM     10  C   UNL     1     -19.052  28.818 -19.413  1.00  0.00     0.223 A 
ENDROOT
BRANCH   1  11
ATOM     11  C   UNL     1     -17.958  28.555 -21.678  1.00  0.00     0.091 A 
ATOM     12  C   UNL     1     -17.312  29.715 -22.131  1.00  0.00     0.068 A 
ATOM     13  C   UNL     1     -16.172  29.625 -22.939  1.00  0.00     0.162 A 
ATOM     14  C   UNL     1     -17.427  27.303 -22.016  1.00  0.00     0.068 A 
ATOM     15  C   UNL     1     -15.655  28.370 -23.295  1.00  0.00     0.200 A 
ATOM     16  C   UNL     1     -16.288  27.196 -22.824  1.00  0.00     0.162 A 
BRANCH  13  17
ATOM     17  O   UNL     1     -15.540  30.782 -23.391  1.00  0.00    -0.504 OA
ATOM     18  H   UNL     1     -16.048  31.507 -23.885  1.00  0.00     0.293 HD
ENDBRANCH  13  17
BRANCH  15  19
ATOM     19  O   UNL     1     -14.520  28.336 -24.110  1.00  0.00    -0.502 OA
ATOM     20  H   UNL     1     -13.859  27.574 -24.127  1.00  0.00     0.293 HD
ENDBRANCH  15  19
BRANCH  16  21
ATOM     21  O   UNL     1     -15.824  25.915 -23.128  1.00  0.00    -0.504 OA
ATOM     22  H   UNL     1     -14.930  25.723 -23.556  1.00  0.00     0.293 HD
ENDBRANCH  16  21
ENDBRANCH   1  11
BRANCH  10  23
ATOM     23  O   UNL     1     -17.810  28.993 -18.801  1.00  0.00    -0.500 OA
ATOM     24  H   UNL     1     -17.721  29.080 -17.795  1.00  0.00     0.294 HD
ENDBRANCH  10  23
BRANCH   5  25
ATOM     25  O   UNL     1     -25.125  28.376 -21.338  1.00  0.00    -0.507 OA
ATOM     26  H   UNL     1     -25.303  27.613 -21.982  1.00  0.00     0.293 HD
ENDBRANCH   5  25
BRANCH   7  27
ATOM     27  O   UNL     1     -22.787  28.921 -17.182  1.00  0.00    -0.507 OA
ATOM     28  H   UNL     1     -22.889  29.807 -16.708  1.00  0.00     0.293 HD
ENDBRANCH   7  27
TORSDOF 7
ENDMDL
MODEL 4
REMARK VINA RESULT:    -3.935      1.367      7.067
REMARK INTER + INTRA:          -5.240
REMARK INTER:                  -4.874
REMARK INTRA:                  -0.366
REMARK UNBOUND:                -0.384
REMARK SMILES Oc1cc(O)c2cc(O)c(-c3cc(O)c(O)c(O)c3)[o+]c2c1
REMARK SMILES IDX 10 1 20 2 21 3 22 4 2 5 3 6 4 7 6 8 7 9 8 10 11 11 12 12
REMARK SMILES IDX 13 13 19 14 15 15 17 16 14 17 16 19 18 21 9 23 1 25 5 27
REMARK H PARENT 14 18 16 20 18 22 9 24 1 26 5 28
REMARK Flexibility Score: inf
ROOT
ATOM      1  C   UNL     1     -20.722  14.749 -19.503  1.00  0.00     0.402 A 
ATOM      2  O   UNL     1     -21.529  13.890 -18.885  1.00  0.00    -0.202 OA
ATOM      3  C   UNL     1     -21.790  13.942 -17.582  1.00  0.00     0.368 A 
ATOM      4  C   UNL     1     -22.649  12.993 -17.023  1.00  0.00     0.162 A 
ATOM      5  C   UNL     1     -22.938  13.023 -15.655  1.00  0.00     0.128 A 
ATOM      6  C   UNL     1     -22.365  14.005 -14.845  1.00  0.00     0.093 A 
ATOM      7  C   UNL     1     -21.502  14.968 -15.381  1.00  0.00     0.136 A 
ATOM      8  C   UNL     1     -21.206  14.944 -16.770  1.00  0.00     0.125 A 
ATOM      9  C   UNL     1     -20.363  15.875 -17.396  1.00  0.00     0.078 A 
ATOM     10  C   UNL     1     -20.122  15.790 -18.770  1.00  0.00     0.223 A 
ENDROOT
BRANCH   1  11
ATOM     11  C   UNL     1     -20.503  14.580 -20.958  1.00  0.00     0.091 A 
ATOM     12  C   UNL     1     -19.338  13.977 -21.456  1.00  0.00     0.068 A 
ATOM     13  C   UNL     1     -19.159  13.807 -22.835  1.00  0.00     0.162 A 
ATOM     14  C   UNL     1     -21.502  14.980 -21.857  1.00  0.00     0.068 A 
ATOM     15  C   UNL     1     -20.150  14.228 -23.734  1.00  0.00     0.200 A 
ATOM     16  C   UNL     1     -21.337  14.818 -23.238  1.00  0.00     0.162 A 
BRANCH  13  17
ATOM     17  O   UNL     1     -17.996  13.213 -23.322  1.00  0.00    -0.504 OA
ATOM     18  H   UNL     1     -17.952  12.820 -24.256  1.00  0.00     0.293 HD
ENDBRANCH  13  17
BRANCH  15  19
ATOM     19  O   UNL     1     -19.918  14.042 -25.099  1.00  0.00    -0.502 OA
ATOM     20  H   UNL     1     -20.573  13.605 -25.730  1.00  0.00     0.293 HD
ENDBRANCH  15  19
BRANCH  16  21
ATOM     21  O   UNL     1     -22.370  15.250 -24.071  1.00  0.00    -0.504 OA
ATOM     22  H   UNL     1     -23.287  15.516 -23.744  1.00  0.00     0.293 HD
ENDBRANCH  16  21
ENDBRANCH   1  11
BRANCH  10  23
ATOM     23  O   UNL     1     -19.325  16.745 -19.402  1.00  0.00    -0.500 OA
ATOM     24  H   UNL     1     -19.589  17.723 -19.431  1.00  0.00     0.294 HD
ENDBRANCH  10  23
BRANCH   5  25
ATOM     25  O   UNL     1     -23.793  12.079 -15.091  1.00  0.00    -0.507 OA
ATOM     26  H   UNL     1     -24.162  12.191 -14.153  1.00  0.00     0.293 HD
ENDBRANCH   5  25
BRANCH   7  27
ATOM     27  O   UNL     1     -20.967  15.914 -14.503  1.00  0.00    -0.507 OA
ATOM     28  H   UNL     1     -20.748  15.735 -13.534  1.00  0.00     0.293 HD
ENDBRANCH   7  27
TORSDOF 7
ENDMDL
MODEL 5
REMARK VINA RESULT:    -3.927      2.680      3.442
REMARK INTER + INTRA:          -5.229
REMARK INTER:                  -4.854
REMARK INTRA:                  -0.375
REMARK UNBOUND:                -0.384
REMARK SMILES Oc1cc(O)c2cc(O)c(-c3cc(O)c(O)c(O)c3)[o+]c2c1
REMARK SMILES IDX 10 1 20 2 21 3 22 4 2 5 3 6 4 7 6 8 7 9 8 10 11 11 12 12
REMARK SMILES IDX 13 13 19 14 15 15 17 16 14 17 16 19 18 21 9 23 1 25 5 27
REMARK H PARENT 14 18 16 20 18 22 9 24 1 26 5 28
REMARK Flexibility Score: inf
ROOT
ATOM      1  C   UNL     1     -19.541  13.979 -19.710  1.00  0.00     0.402 A 
ATOM      2  O   UNL     1     -18.614  13.755 -20.638  1.00  0.00    -0.202 OA
ATOM      3  C   UNL     1     -18.830  13.915 -21.939  1.00  0.00     0.368 A 
ATOM      4  C   UNL     1     -17.795  13.651 -22.839  1.00  0.00     0.162 A 
ATOM      5  C   UNL     1     -17.997  13.808 -24.213  1.00  0.00     0.128 A 
ATOM      6  C   UNL     1     -19.239  14.230 -24.689  1.00  0.00     0.093 A 
ATOM      7  C   UNL     1     -20.294  14.502 -23.809  1.00  0.00     0.136 A 
ATOM      8  C   UNL     1     -20.094  14.346 -22.412  1.00  0.00     0.125 A 
ATOM      9  C   UNL     1     -21.088  14.607 -21.456  1.00  0.00     0.078 A 
ATOM     10  C   UNL     1     -20.815  14.435 -20.096  1.00  0.00     0.223 A 
ENDROOT
BRANCH   1  11
ATOM     11  C   UNL     1     -19.180  13.755 -18.291  1.00  0.00     0.091 A 
ATOM     12  C   UNL     1     -18.705  14.800 -17.484  1.00  0.00     0.068 A 
ATOM     13  C   UNL     1     -18.390  14.573 -16.138  1.00  0.00     0.162 A 
ATOM     14  C   UNL     1     -19.368  12.487 -17.724  1.00  0.00     0.068 A 
ATOM     15  C   UNL     1     -18.557  13.298 -15.579  1.00  0.00     0.200 A 
ATOM     16  C   UNL     1     -19.055  12.244 -16.380  1.00  0.00     0.162 A 
BRANCH  13  17
ATOM     17  O   UNL     1     -17.912  15.615 -15.345  1.00  0.00    -0.504 OA
ATOM     18  H   UNL     1     -17.202  16.256 -15.681  1.00  0.00     0.293 HD
ENDBRANCH  13  17
BRANCH  15  19
ATOM     19  O   UNL     1     -18.219  13.123 -14.234  1.00  0.00    -0.502 OA
ATOM     20  H   UNL     1     -17.881  13.862 -13.635  1.00  0.00     0.293 HD
ENDBRANCH  15  19
BRANCH  16  21
ATOM     21  O   UNL     1     -19.258  10.953 -15.889  1.00  0.00    -0.504 OA
ATOM     22  H   UNL     1     -19.728  10.745 -15.020  1.00  0.00     0.293 HD
ENDBRANCH  16  21
ENDBRANCH   1  11
BRANCH  10  23
ATOM     23  O   UNL     1     -21.786  14.742 -19.142  1.00  0.00    -0.500 OA
ATOM     24  H   UNL     1     -22.446  14.046 -18.812  1.00  0.00     0.294 HD
ENDBRANCH  10  23
BRANCH   5  25
ATOM     25  O   UNL     1     -16.968  13.547 -25.115  1.00  0.00    -0.507 OA
ATOM     26  H   UNL     1     -16.713  14.212 -25.836  1.00  0.00     0.293 HD
ENDBRANCH   5  25
BRANCH   7  27
ATOM     27  O   UNL     1     -21.507  14.915 -24.365  1.00  0.00    -0.507 OA
ATOM     28  H   UNL     1     -21.843  14.637 -25.276  1.00  0.00     0.293 HD
ENDBRANCH   7  27
TORSDOF 7
ENDMDL
MODEL 6
REMARK VINA RESULT:    -3.915     13.630     14.608
REMARK INTER + INTRA:          -5.215
REMARK INTER:                  -4.831
REMARK INTRA:                  -0.384
REMARK UNBOUND:                -0.384
REMARK SMILES Oc1cc(O)c2cc(O)c(-c3cc(O)c(O)c(O)c3)[o+]c2c1
REMARK SMILES IDX 10 1 20 2 21 3 22 4 2 5 3 6 4 7 6 8 7 9 8 10 11 11 12 12
REMARK SMILES IDX 13 13 19 14 15 15 17 16 14 17 16 19 18 21 9 23 1 25 5 27
REMARK H PARENT 14 18 16 20 18 22 9 24 1 26 5 28
REMARK Flexibility Score: inf
ROOT
ATOM      1  C   UNL     1     -19.655  28.016 -20.678  1.00  0.00     0.402 A 
ATOM      2  O   UNL     1     -19.010  28.950 -21.373  1.00  0.00    -0.202 OA
ATOM      3  C   UNL     1     -17.732  28.846 -21.724  1.00  0.00     0.368 A 
ATOM      4  C   UNL     1     -17.141  29.882 -22.451  1.00  0.00     0.162 A 
ATOM      5  C   UNL     1     -15.798  29.800 -22.831  1.00  0.00     0.128 A 
ATOM      6  C   UNL     1     -15.043  28.679 -22.480  1.00  0.00     0.093 A 
ATOM      7  C   UNL     1     -15.613  27.627 -21.752  1.00  0.00     0.136 A 
ATOM      8  C   UNL     1     -16.977  27.704 -21.366  1.00  0.00     0.125 A 
ATOM      9  C   UNL     1     -17.634  26.693 -20.646  1.00  0.00     0.078 A 
ATOM     10  C   UNL     1     -18.981  26.838 -20.305  1.00  0.00     0.223 A 
ENDROOT
BRANCH   1  11
ATOM     11  C   UNL     1     -21.077  28.253 -20.339  1.00  0.00     0.091 A 
ATOM     12  C   UNL     1     -21.449  28.847 -19.124  1.00  0.00     0.068 A 
ATOM     13  C   UNL     1     -22.799  29.083 -18.831  1.00  0.00     0.162 A 
ATOM     14  C   UNL     1     -22.071  27.929 -21.273  1.00  0.00     0.068 A 
ATOM     15  C   UNL     1     -23.794  28.736 -19.757  1.00  0.00     0.200 A 
ATOM     16  C   UNL     1     -23.425  28.156 -20.994  1.00  0.00     0.162 A 
BRANCH  13  17
ATOM     17  O   UNL     1     -23.161  29.667 -17.619  1.00  0.00    -0.504 OA
ATOM     18  H   UNL     1     -24.123  29.913 -17.414  1.00  0.00     0.293 HD
ENDBRANCH  13  17
BRANCH  15  19
ATOM     19  O   UNL     1     -25.125  28.985 -19.412  1.00  0.00    -0.502 OA
ATOM     20  H   UNL     1     -25.503  29.906 -19.242  1.00  0.00     0.293 HD
ENDBRANCH  15  19
BRANCH  16  21
ATOM     21  O   UNL     1     -24.358  27.797 -21.967  1.00  0.00    -0.504 OA
ATOM     22  H   UNL     1     -25.205  27.280 -21.776  1.00  0.00     0.293 HD
ENDBRANCH  16  21
ENDBRANCH   1  11
BRANCH  10  23
ATOM     23  O   UNL     1     -19.649  25.812 -19.634  1.00  0.00    -0.500 OA
ATOM     24  H   UNL     1     -19.347  25.489 -18.722  1.00  0.00     0.294 HD
ENDBRANCH  10  23
BRANCH   5  25
ATOM     25  O   UNL     1     -15.202  30.829 -23.556  1.00  0.00    -0.507 OA
ATOM     26  H   UNL     1     -15.558  31.116 -24.460  1.00  0.00     0.293 HD
ENDBRANCH   5  25
BRANCH   7  27
ATOM     27  O   UNL     1     -14.790  26.542 -21.437  1.00  0.00    -0.507 OA
ATOM     28  H   UNL     1     -13.852  26.415 -21.789  1.00  0.00     0.293 HD
ENDBRANCH   7  27
TORSDOF 7
ENDMDL
MODEL 7
REMARK VINA RESULT:    -3.912     13.927     14.980
REMARK INTER + INTRA:          -5.211
REMARK INTER:                  -5.075
REMARK INTRA:                  -0.136
REMARK UNBOUND:                -0.384
REMARK SMILES Oc1cc(O)c2cc(O)c(-c3cc(O)c(O)c(O)c3)[o+]c2c1
REMARK SMILES IDX 10 1 20 2 21 3 22 4 2 5 3 6 4 7 6 8 7 9 8 10 11 11 12 12
REMARK SMILES IDX 13 13 19 14 15 15 17 16 14 17 16 19 18 21 9 23 1 25 5 27
REMARK H PARENT 14 18 16 20 18 22 9 24 1 26 5 28
REMARK Flexibility Score: inf
ROOT
ATOM      1  C   UNL     1     -19.446  28.433 -20.391  1.00  0.00     0.402 A 
ATOM      2  O   UNL     1     -18.876  29.143 -21.361  1.00  0.00    -0.202 OA
ATOM      3  C   UNL     1     -17.561  29.199 -21.548  1.00  0.00     0.368 A 
ATOM      4  C   UNL     1     -17.055  29.976 -22.593  1.00  0.00     0.162 A 
ATOM      5  C   UNL     1     -15.676  30.054 -22.810  1.00  0.00     0.128 A 
ATOM      6  C   UNL     1     -14.801  29.353 -21.979  1.00  0.00     0.093 A 
ATOM      7  C   UNL     1     -15.282  28.567 -20.925  1.00  0.00     0.136 A 
ATOM      8  C   UNL     1     -16.681  28.482 -20.702  1.00  0.00     0.125 A 
ATOM      9  C   UNL     1     -17.254  27.709 -19.679  1.00  0.00     0.078 A 
ATOM     10  C   UNL     1     -18.643  27.671 -19.522  1.00  0.00     0.223 A 
ENDROOT
BRANCH   1  11
ATOM     11  C   UNL     1     -20.923  28.460 -20.279  1.00  0.00     0.091 A 
ATOM     12  C   UNL     1     -21.744  28.057 -21.344  1.00  0.00     0.068 A 
ATOM     13  C   UNL     1     -23.138  28.068 -21.211  1.00  0.00     0.162 A 
ATOM     14  C   UNL     1     -21.516  28.841 -19.068  1.00  0.00     0.068 A 
ATOM     15  C   UNL     1     -23.730  28.473 -20.005  1.00  0.00     0.200 A 
ATOM     16  C   UNL     1     -22.908  28.860 -18.920  1.00  0.00     0.162 A 
BRANCH  13  17
ATOM     17  O   UNL     1     -23.947  27.674 -22.275  1.00  0.00    -0.504 OA
ATOM     18  H   UNL     1     -23.991  28.208 -23.136  1.00  0.00     0.293 HD
ENDBRANCH  13  17
BRANCH  15  19
ATOM     19  O   UNL     1     -25.125  28.474 -19.928  1.00  0.00    -0.502 OA
ATOM     20  H   UNL     1     -25.736  28.388 -20.728  1.00  0.00     0.293 HD
ENDBRANCH  15  19
BRANCH  16  21
ATOM     21  O   UNL     1     -23.426  29.262 -17.688  1.00  0.00    -0.504 OA
ATOM     22  H   UNL     1     -23.561  30.226 -17.418  1.00  0.00     0.293 HD
ENDBRANCH  16  21
ENDBRANCH   1  11
BRANCH  10  23
ATOM     23  O   UNL     1     -19.215  26.864 -18.538  1.00  0.00    -0.500 OA
ATOM     24  H   UNL     1     -18.903  26.898 -17.575  1.00  0.00     0.294 HD
ENDBRANCH  10  23
BRANCH   5  25
ATOM     25  O   UNL     1     -15.166  30.827 -23.850  1.00  0.00    -0.507 OA
ATOM     26  H   UNL     1     -15.688  30.979 -24.705  1.00  0.00     0.293 HD
ENDBRANCH   5  25
BRANCH   7  27
ATOM     27  O   UNL     1     -14.341  27.900 -20.137  1.00  0.00    -0.507 OA
ATOM     28  H   UNL     1     -14.090  28.167 -19.197  1.00  0.00     0.293 HD
ENDBRANCH   7  27
TORSDOF 7
ENDMDL
MODEL 8
REMARK VINA RESULT:    -3.752      1.172      7.221
REMARK INTER + INTRA:          -5.013
REMARK INTER:                  -4.638
REMARK INTRA:                  -0.375
REMARK UNBOUND:                -0.384
REMARK SMILES Oc1cc(O)c2cc(O)c(-c3cc(O)c(O)c(O)c3)[o+]c2c1
REMARK SMILES IDX 10 1 20 2 21 3 22 4 2 5 3 6 4 7 6 8 7 9 8 10 11 11 12 12
REMARK SMILES IDX 13 13 19 14 15 15 17 16 14 17 16 19 18 21 9 23 1 25 5 27
REMARK H PARENT 14 18 16 20 18 22 9 24 1 26 5 28
REMARK Flexibility Score: inf
ROOT
ATOM      1  C   UNL     1     -21.017  14.625 -19.932  1.00  0.00     0.402 A 
ATOM      2  O   UNL     1     -21.374  13.671 -19.076  1.00  0.00    -0.202 OA
ATOM      3  C   UNL     1     -21.944  13.919 -17.902  1.00  0.00     0.368 A 
ATOM      4  C   UNL     1     -22.280  12.849 -17.069  1.00  0.00     0.162 A 
ATOM      5  C   UNL     1     -22.878  13.082 -15.827  1.00  0.00     0.128 A 
ATOM      6  C   UNL     1     -23.140  14.390 -15.416  1.00  0.00     0.093 A 
ATOM      7  C   UNL     1     -22.813  15.480 -16.232  1.00  0.00     0.136 A 
ATOM      8  C   UNL     1     -22.208  15.249 -17.496  1.00  0.00     0.125 A 
ATOM      9  C   UNL     1     -21.858  16.279 -18.384  1.00  0.00     0.078 A 
ATOM     10  C   UNL     1     -21.268  15.973 -19.614  1.00  0.00     0.223 A 
ENDROOT
BRANCH   1  11
ATOM     11  C   UNL     1     -20.380  14.221 -21.207  1.00  0.00     0.091 A 
ATOM     12  C   UNL     1     -21.148  13.890 -22.334  1.00  0.00     0.068 A 
ATOM     13  C   UNL     1     -20.526  13.532 -23.537  1.00  0.00     0.162 A 
ATOM     14  C   UNL     1     -18.982  14.223 -21.310  1.00  0.00     0.068 A 
ATOM     15  C   UNL     1     -19.127  13.511 -23.631  1.00  0.00     0.200 A 
ATOM     16  C   UNL     1     -18.347  13.865 -22.505  1.00  0.00     0.162 A 
BRANCH  13  17
ATOM     17  O   UNL     1     -21.295  13.197 -24.650  1.00  0.00    -0.504 OA
ATOM     18  H   UNL     1     -21.978  13.838 -25.036  1.00  0.00     0.293 HD
ENDBRANCH  13  17
BRANCH  15  19
ATOM     19  O   UNL     1     -18.558  13.139 -24.852  1.00  0.00    -0.502 OA
ATOM     20  H   UNL     1     -18.317  12.189 -25.098  1.00  0.00     0.293 HD
ENDBRANCH  15  19
BRANCH  16  21
ATOM     21  O   UNL     1     -16.951  13.879 -22.528  1.00  0.00    -0.504 OA
ATOM     22  H   UNL     1     -16.375  14.200 -21.764  1.00  0.00     0.293 HD
ENDBRANCH  16  21
ENDBRANCH   1  11
BRANCH  10  23
ATOM     23  O   UNL     1     -20.967  16.992 -20.519  1.00  0.00    -0.500 OA
ATOM     24  H   UNL     1     -21.051  17.969 -20.266  1.00  0.00     0.294 HD
ENDBRANCH  10  23
BRANCH   5  25
ATOM     25  O   UNL     1     -23.216  12.020 -14.992  1.00  0.00    -0.507 OA
ATOM     26  H   UNL     1     -23.725  12.165 -14.128  1.00  0.00     0.293 HD
ENDBRANCH   5  25
BRANCH   7  27
ATOM     27  O   UNL     1     -23.104  16.758 -15.747  1.00  0.00    -0.507 OA
ATOM     28  H   UNL     1     -23.834  17.354 -16.108  1.00  0.00     0.293 HD
ENDBRANCH   7  27
TORSDOF 7
ENDMDL
MODEL 9
REMARK VINA RESULT:    -3.625      1.641      7.065
REMARK INTER + INTRA:          -4.857
REMARK INTER:                  -4.623
REMARK INTRA:                  -0.234
REMARK UNBOUND:                -0.384
REMARK SMILES Oc1cc(O)c2cc(O)c(-c3cc(O)c(O)c(O)c3)[o+]c2c1
REMARK SMILES IDX 10 1 20 2 21 3 22 4 2 5 3 6 4 7 6 8 7 9 8 10 11 11 12 12
REMARK SMILES IDX 13 13 19 14 15 15 17 16 14 17 16 19 18 21 9 23 1 25 5 27
REMARK H PARENT 14 18 16 20 18 22 9 24 1 26 5 28
REMARK Flexibility Score: inf
ROOT
ATOM      1  C   UNL     1     -20.819  13.861 -18.538  1.00  0.00     0.402 A 
ATOM      2  O   UNL     1     -21.816  14.557 -17.998  1.00  0.00    -0.202 OA
ATOM      3  C   UNL     1     -22.405  14.222 -16.854  1.00  0.00     0.368 A 
ATOM      4  C   UNL     1     -23.447  15.015 -16.368  1.00  0.00     0.162 A 
ATOM      5  C   UNL     1     -24.085  14.683 -15.169  1.00  0.00     0.128 A 
ATOM      6  C   UNL     1     -23.681  13.553 -14.456  1.00  0.00     0.093 A 
ATOM      7  C   UNL     1     -22.639  12.742 -14.922  1.00  0.00     0.136 A 
ATOM      8  C   UNL     1     -21.985  13.076 -16.137  1.00  0.00     0.125 A 
ATOM      9  C   UNL     1     -20.924  12.329 -16.673  1.00  0.00     0.078 A 
ATOM     10  C   UNL     1     -20.326  12.722 -17.874  1.00  0.00     0.223 A 
ENDROOT
BRANCH   1  11
ATOM     11  C   UNL     1     -20.252  14.332 -19.823  1.00  0.00     0.091 A 
ATOM     12  C   UNL     1     -21.013  14.331 -21.002  1.00  0.00     0.068 A 
ATOM     13  C   UNL     1     -20.466  14.801 -22.202  1.00  0.00     0.162 A 
ATOM     14  C   UNL     1     -18.946  14.841 -19.855  1.00  0.00     0.068 A 
ATOM     15  C   UNL     1     -19.151  15.289 -22.237  1.00  0.00     0.200 A 
ATOM     16  C   UNL     1     -18.385  15.313 -21.048  1.00  0.00     0.162 A 
BRANCH  13  17
ATOM     17  O   UNL     1     -21.226  14.791 -23.370  1.00  0.00    -0.504 OA
ATOM     18  H   UNL     1     -21.016  15.409 -24.146  1.00  0.00     0.293 HD
ENDBRANCH  13  17
BRANCH  15  19
ATOM     19  O   UNL     1     -18.651  15.738 -23.462  1.00  0.00    -0.502 OA
ATOM     20  H   UNL     1     -19.122  16.406 -24.055  1.00  0.00     0.293 HD
ENDBRANCH  15  19
BRANCH  16  21
ATOM     21  O   UNL     1     -17.075  15.794 -21.004  1.00  0.00    -0.504 OA
ATOM     22  H   UNL     1     -16.255  15.214 -21.101  1.00  0.00     0.293 HD
ENDBRANCH  16  21
ENDBRANCH   1  11
BRANCH  10  23
ATOM     23  O   UNL     1     -19.239  12.010 -18.382  1.00  0.00    -0.500 OA
ATOM     24  H   UNL     1     -18.558  12.444 -18.994  1.00  0.00     0.294 HD
ENDBRANCH  10  23
BRANCH   5  25
ATOM     25  O   UNL     1     -25.125  15.469 -14.679  1.00  0.00    -0.507 OA
ATOM     26  H   UNL     1     -25.776  15.935 -15.299  1.00  0.00     0.293 HD
ENDBRANCH   5  25
BRANCH   7  27
ATOM     27  O   UNL     1     -22.297  11.627 -14.151  1.00  0.00    -0.507 OA
ATOM     28  H   UNL     1     -22.753  11.366 -13.290  1.00  0.00     0.293 HD
ENDBRANCH   7  27
TORSDOF 7
ENDMDL
