MODEL 1
REMARK VINA RESULT:    -3.167      0.000      0.000
REMARK INTER + INTRA:          -3.846
REMARK INTER:                  -3.722
REMARK INTRA:                  -0.124
REMARK UNBOUND:                -0.124
REMARK SMILES O=C([O-])CCC(=O)[O-]
REMARK SMILES IDX 4 1 2 2 1 3 3 4 5 5 6 6 7 7 8 8
REMARK H PARENT
REMARK Flexibility Score: inf
ROOT
ATOM      1  C   UNL     1      -5.718 -12.953  -4.697  1.00  0.00     0.059 C 
ENDROOT
BRANCH   1   2
ATOM      2  C   UNL     1      -6.915 -13.012  -3.800  1.00  0.00     0.042 C 
ATOM      3  O   UNL     1      -7.617 -14.056  -3.746  1.00  0.00    -0.550 OA
ATOM      4  O   UNL     1      -7.278 -11.899  -3.051  1.00  0.00    -0.550 OA
ENDBRANCH   1   2
BRANCH   1   5
ATOM      5  C   UNL     1      -5.821 -11.799  -5.701  1.00  0.00     0.059 C 
BRANCH   5   6
ATOM      6  C   UNL     1      -6.629 -12.183  -6.903  1.00  0.00     0.042 C 
ATOM      7  O   UNL     1      -7.830 -11.822  -6.999  1.00  0.00    -0.550 OA
ATOM      8  O   UNL     1      -6.041 -12.904  -7.934  1.00  0.00    -0.550 OA
ENDBRANCH   5   6
ENDBRANCH   1   5
TORSDOF 3
ENDMDL
MODEL 2
REMARK VINA RESULT:    -3.163      0.159      3.507
REMARK INTER + INTRA:          -3.842
REMARK INTER:                  -3.704
REMARK INTRA:                  -0.138
REMARK UNBOUND:                -0.124
REMARK SMILES O=C([O-])CCC(=O)[O-]
REMARK SMILES IDX 4 1 2 2 1 3 3 4 5 5 6 6 7 7 8 8
REMARK H PARENT
REMARK Flexibility Score: inf
ROOT
ATOM      1  C   UNL     1      -5.756 -11.839  -5.730  1.00  0.00     0.059 C 
ENDROOT
BRANCH   1   2
ATOM      2  C   UNL     1      -6.586 -12.231  -6.913  1.00  0.00     0.042 C 
ATOM      3  O   UNL     1      -6.100 -12.962  -7.816  1.00  0.00    -0.550 OA
ATOM      4  O   UNL     1      -7.886 -11.755  -7.039  1.00  0.00    -0.550 OA
ENDBRANCH   1   2
BRANCH   1   5
ATOM      5  C   UNL     1      -5.755 -12.932  -4.655  1.00  0.00     0.059 C 
BRANCH   5   6
ATOM      6  C   UNL     1      -6.994 -12.883  -3.815  1.00  0.00     0.042 C 
ATOM      7  O   UNL     1      -7.218 -11.890  -3.076  1.00  0.00    -0.550 OA
ATOM      8  O   UNL     1      -7.920 -13.916  -3.881  1.00  0.00    -0.550 OA
ENDBRANCH   5   6
ENDBRANCH   1   5
TORSDOF 3
ENDMDL
MODEL 3
REMARK VINA RESULT:    -3.088     15.261     16.064
REMARK INTER + INTRA:          -3.754
REMARK INTER:                  -3.646
REMARK INTRA:                  -0.108
REMARK UNBOUND:                -0.124
REMARK SMILES O=C([O-])CCC(=O)[O-]
REMARK SMILES IDX 4 1 2 2 1 3 3 4 5 5 6 6 7 7 8 8
REMARK H PARENT
REMARK Flexibility Score: inf
ROOT
ATOM      1  C   UNL     1       2.873   0.135  -4.220  1.00  0.00     0.059 C 
ENDROOT
BRANCH   1   2
ATOM      2  C   UNL     1       2.900   1.104  -5.362  1.00  0.00     0.042 C 
ATOM      3  O   UNL     1       2.148   2.114  -5.355  1.00  0.00    -0.550 OA
ATOM      4  O   UNL     1       3.728   0.870  -6.453  1.00  0.00    -0.550 OA
ENDBRANCH   1   2
BRANCH   1   5
ATOM      5  C   UNL     1       4.123  -0.750  -4.202  1.00  0.00     0.059 C 
BRANCH   5   6
ATOM      6  C   UNL     1       3.811  -2.158  -4.606  1.00  0.00     0.042 C 
ATOM      7  O   UNL     1       2.968  -2.383  -5.514  1.00  0.00    -0.550 OA
ATOM      8  O   UNL     1       4.480  -3.218  -4.010  1.00  0.00    -0.550 OA
ENDBRANCH   5   6
ENDBRANCH   1   5
TORSDOF 3
ENDMDL
MODEL 4
REMARK VINA RESULT:    -3.071     15.289     15.916
REMARK INTER + INTRA:          -3.733
REMARK INTER:                  -3.624
REMARK INTRA:                  -0.109
REMARK UNBOUND:                -0.124
REMARK SMILES O=C([O-])CCC(=O)[O-]
REMARK SMILES IDX 4 1 2 2 1 3 3 4 5 5 6 6 7 7 8 8
REMARK H PARENT
REMARK Flexibility Score: inf
ROOT
ATOM      1  C   UNL     1       4.129  -0.744  -4.201  1.00  0.00     0.059 C 
ENDROOT
BRANCH   1   2
ATOM      2  C   UNL     1       3.828  -2.148  -4.628  1.00  0.00     0.042 C 
ATOM      3  O   UNL     1       2.965  -2.369  -5.518  1.00  0.00    -0.550 OA
ATOM      4  O   UNL     1       4.475  -3.215  -4.016  1.00  0.00    -0.550 OA
ENDBRANCH   1   2
BRANCH   1   5
ATOM      5  C   UNL     1       2.875   0.136  -4.231  1.00  0.00     0.059 C 
BRANCH   5   6
ATOM      6  C   UNL     1       2.921   1.124  -5.356  1.00  0.00     0.042 C 
ATOM      7  O   UNL     1       2.170   2.134  -5.341  1.00  0.00    -0.550 OA
ATOM      8  O   UNL     1       3.822   0.951  -6.398  1.00  0.00    -0.550 OA
ENDBRANCH   5   6
ENDBRANCH   1   5
TORSDOF 3
ENDMDL
MODEL 5
REMARK VINA RESULT:    -3.011      1.645      3.816
REMARK INTER + INTRA:          -3.663
REMARK INTER:                  -3.634
REMARK INTRA:                  -0.029
REMARK UNBOUND:                -0.124
REMARK SMILES O=C([O-])CCC(=O)[O-]
REMARK SMILES IDX 4 1 2 2 1 3 3 4 5 5 6 6 7 7 8 8
REMARK H PARENT
REMARK Flexibility Score: inf
ROOT
ATOM      1  C   UNL     1      -5.349 -12.516  -5.615  1.00  0.00     0.059 C 
ENDROOT
BRANCH   1   2
ATOM      2  C   UNL     1      -4.459 -13.397  -6.436  1.00  0.00     0.042 C 
ATOM      3  O   UNL     1      -3.331 -13.746  -5.998  1.00  0.00    -0.550 OA
ATOM      4  O   UNL     1      -4.860 -13.802  -7.704  1.00  0.00    -0.550 OA
ENDBRANCH   1   2
BRANCH   1   5
ATOM      5  C   UNL     1      -5.778 -13.203  -4.315  1.00  0.00     0.059 C 
BRANCH   5   6
ATOM      6  C   UNL     1      -7.126 -12.734  -3.860  1.00  0.00     0.042 C 
ATOM      7  O   UNL     1      -7.222 -11.879  -2.942  1.00  0.00    -0.550 OA
ATOM      8  O   UNL     1      -8.274 -13.211  -4.479  1.00  0.00    -0.550 OA
ENDBRANCH   5   6
ENDBRANCH   1   5
TORSDOF 3
ENDMDL
MODEL 6
REMARK VINA RESULT:    -2.981      1.541      3.727
REMARK INTER + INTRA:          -3.628
REMARK INTER:                  -3.508
REMARK INTRA:                  -0.120
REMARK UNBOUND:                -0.124
REMARK SMILES O=C([O-])CCC(=O)[O-]
REMARK SMILES IDX 4 1 2 2 1 3 3 4 5 5 6 6 7 7 8 8
REMARK H PARENT
REMARK Flexibility Score: inf
ROOT
ATOM      1  C   UNL     1      -5.800 -13.376  -4.227  1.00  0.00     0.059 C 
ENDROOT
BRANCH   1   2
ATOM      2  C   UNL     1      -5.496 -12.547  -5.436  1.00  0.00     0.042 C 
ATOM      3  O   UNL     1      -4.551 -12.867  -6.205  1.00  0.00    -0.550 OA
ATOM      4  O   UNL     1      -6.234 -11.398  -5.694  1.00  0.00    -0.550 OA
ENDBRANCH   1   2
BRANCH   1   5
ATOM      5  C   UNL     1      -7.247 -13.882  -4.238  1.00  0.00     0.059 C 
BRANCH   5   6
ATOM      6  C   UNL     1      -8.073 -13.216  -3.181  1.00  0.00     0.042 C 
ATOM      7  O   UNL     1      -9.039 -13.827  -2.655  1.00  0.00    -0.550 OA
ATOM      8  O   UNL     1      -7.751 -11.935  -2.750  1.00  0.00    -0.550 OA
ENDBRANCH   5   6
ENDBRANCH   1   5
TORSDOF 3
ENDMDL
MODEL 7
REMARK VINA RESULT:    -2.968      1.555      2.168
REMARK INTER + INTRA:          -3.613
REMARK INTER:                  -3.518
REMARK INTRA:                  -0.095
REMARK UNBOUND:                -0.124
REMARK SMILES O=C([O-])CCC(=O)[O-]
REMARK SMILES IDX 4 1 2 2 1 3 3 4 5 5 6 6 7 7 8 8
REMARK H PARENT
REMARK Flexibility Score: inf
ROOT
ATOM      1  C   UNL     1      -7.296 -13.892  -4.118  1.00  0.00     0.059 C 
ENDROOT
BRANCH   1   2
ATOM      2  C   UNL     1      -8.445 -13.387  -3.302  1.00  0.00     0.042 C 
ATOM      3  O   UNL     1      -8.340 -12.312  -2.655  1.00  0.00    -0.550 OA
ATOM      4  O   UNL     1      -9.620 -14.125  -3.224  1.00  0.00    -0.550 OA
ENDBRANCH   1   2
BRANCH   1   5
ATOM      5  C   UNL     1      -6.094 -12.944  -4.047  1.00  0.00     0.059 C 
BRANCH   5   6
ATOM      6  C   UNL     1      -5.743 -12.394  -5.396  1.00  0.00     0.042 C 
ATOM      7  O   UNL     1      -6.433 -11.471  -5.901  1.00  0.00    -0.550 OA
ATOM      8  O   UNL     1      -4.630 -12.873  -6.075  1.00  0.00    -0.550 OA
ENDBRANCH   5   6
ENDBRANCH   1   5
TORSDOF 3
ENDMDL
MODEL 8
REMARK VINA RESULT:    -2.889     11.158     13.179
REMARK INTER + INTRA:          -3.520
REMARK INTER:                  -3.407
REMARK INTRA:                  -0.112
REMARK UNBOUND:                -0.124
REMARK SMILES O=C([O-])CCC(=O)[O-]
REMARK SMILES IDX 4 1 2 2 1 3 3 4 5 5 6 6 7 7 8 8
REMARK H PARENT
REMARK Flexibility Score: inf
ROOT
ATOM      1  C   UNL     1     -11.412 -10.199   5.192  1.00  0.00     0.059 C 
ENDROOT
BRANCH   1   2
ATOM      2  C   UNL     1     -11.412 -11.658   4.858  1.00  0.00     0.042 C 
ATOM      3  O   UNL     1     -10.646 -12.450   5.468  1.00  0.00    -0.550 OA
ATOM      4  O   UNL     1     -12.232 -12.139   3.844  1.00  0.00    -0.550 OA
ENDBRANCH   1   2
BRANCH   1   5
ATOM      5  C   UNL     1     -12.547  -9.841   6.158  1.00  0.00     0.059 C 
BRANCH   5   6
ATOM      6  C   UNL     1     -12.028  -9.527   7.528  1.00  0.00     0.042 C 
ATOM      7  O   UNL     1     -12.474  -8.536   8.161  1.00  0.00    -0.550 OA
ATOM      8  O   UNL     1     -11.082 -10.354   8.120  1.00  0.00    -0.550 OA
ENDBRANCH   5   6
ENDBRANCH   1   5
TORSDOF 3
ENDMDL
MODEL 9
REMARK VINA RESULT:    -2.882     11.170     12.937
REMARK INTER + INTRA:          -3.511
REMARK INTER:                  -3.397
REMARK INTRA:                  -0.114
REMARK UNBOUND:                -0.124
REMARK SMILES O=C([O-])CCC(=O)[O-]
REMARK SMILES IDX 4 1 2 2 1 3 3 4 5 5 6 6 7 7 8 8
REMARK H PARENT
REMARK Flexibility Score: inf
ROOT
ATOM      1  C   UNL     1     -12.581  -9.839   6.172  1.00  0.00     0.059 C 
ENDROOT
BRANCH   1   2
ATOM      2  C   UNL     1     -12.087  -9.511   7.547  1.00  0.00     0.042 C 
ATOM      3  O   UNL     1     -12.535  -8.506   8.160  1.00  0.00    -0.550 OA
ATOM      4  O   UNL     1     -11.102 -10.294   8.137  1.00  0.00    -0.550 OA
ENDBRANCH   1   2
BRANCH   1   5
ATOM      5  C   UNL     1     -11.425 -10.161   5.219  1.00  0.00     0.059 C 
BRANCH   5   6
ATOM      6  C   UNL     1     -11.390 -11.615   4.863  1.00  0.00     0.042 C 
ATOM      7  O   UNL     1     -10.625 -12.400   5.482  1.00  0.00    -0.550 OA
ATOM      8  O   UNL     1     -12.231 -12.110   3.875  1.00  0.00    -0.550 OA
ENDBRANCH   5   6
ENDBRANCH   1   5
TORSDOF 3
ENDMDL
