MODEL 1
REMARK VINA RESULT:     8.242      0.000      0.000
REMARK INTER + INTRA:          12.129
REMARK INTER:                  12.097
REMARK INTRA:                   0.033
REMARK UNBOUND:                 0.033
REMARK SMILES O=C([O-])CCCCCCCC(=O)[O-]
REMARK SMILES IDX 7 1 6 2 5 3 4 4 2 5 1 6 3 7 8 8 9 9 10 10 11 11 12 12 13 13
REMARK H PARENT
REMARK Flexibility Score: inf
ROOT
ATOM      1  C   UNL     1      13.984   5.826   8.127  1.00  0.00     0.000 C 
ENDROOT
BRANCH   1   2
ATOM      2  C   UNL     1      13.272   7.134   7.750  1.00  0.00     0.000 C 
BRANCH   2   3
ATOM      3  C   UNL     1      11.793   6.924   7.376  1.00  0.00     0.006 C 
BRANCH   3   4
ATOM      4  C   UNL     1      11.011   6.038   8.358  1.00  0.00     0.053 C 
BRANCH   4   5
ATOM      5  C   UNL     1      10.624   4.727   7.745  1.00  0.00     0.041 C 
ATOM      6  O   UNL     1      10.935   3.645   8.308  1.00  0.00    -0.550 OA
ATOM      7  O   UNL     1       9.947   4.701   6.531  1.00  0.00    -0.550 OA
ENDBRANCH   4   5
ENDBRANCH   3   4
ENDBRANCH   2   3
ENDBRANCH   1   2
BRANCH   1   8
ATOM      8  C   UNL     1      15.345   5.721   7.423  1.00  0.00     0.000 C 
BRANCH   8   9
ATOM      9  C   UNL     1      16.505   6.223   8.298  1.00  0.00     0.006 C 
BRANCH   9  10
ATOM     10  C   UNL     1      16.069   7.309   9.290  1.00  0.00     0.053 C 
BRANCH  10  11
ATOM     11  C   UNL     1      17.264   8.014   9.851  1.00  0.00     0.041 C 
ATOM     12  O   UNL     1      18.122   7.375  10.515  1.00  0.00    -0.550 OA
ATOM     13  O   UNL     1      17.404   9.386   9.682  1.00  0.00    -0.550 OA
ENDBRANCH  10  11
ENDBRANCH   9  10
ENDBRANCH   8   9
ENDBRANCH   1   8
TORSDOF 8
ENDMDL
MODEL 2
REMARK VINA RESULT:     8.555      0.358      6.515
REMARK INTER + INTRA:          12.589
REMARK INTER:                  12.619
REMARK INTRA:                  -0.030
REMARK UNBOUND:                 0.033
REMARK SMILES O=C([O-])CCCCCCCC(=O)[O-]
REMARK SMILES IDX 7 1 6 2 5 3 4 4 2 5 1 6 3 7 8 8 9 9 10 10 11 11 12 12 13 13
REMARK H PARENT
REMARK Flexibility Score: inf
ROOT
ATOM      1  C   UNL     1      13.946   5.781   8.089  1.00  0.00     0.000 C 
ENDROOT
BRANCH   1   2
ATOM      2  C   UNL     1      15.301   5.840   7.370  1.00  0.00     0.000 C 
BRANCH   2   3
ATOM      3  C   UNL     1      16.446   6.303   8.289  1.00  0.00     0.006 C 
BRANCH   3   4
ATOM      4  C   UNL     1      16.003   7.220   9.440  1.00  0.00     0.053 C 
BRANCH   4   5
ATOM      5  C   UNL     1      17.117   8.102   9.915  1.00  0.00     0.041 C 
ATOM      6  O   UNL     1      17.162   9.311   9.568  1.00  0.00    -0.550 OA
ATOM      7  O   UNL     1      18.125   7.578  10.716  1.00  0.00    -0.550 OA
ENDBRANCH   4   5
ENDBRANCH   3   4
ENDBRANCH   2   3
ENDBRANCH   1   2
BRANCH   1   8
ATOM      8  C   UNL     1      13.134   7.061   7.834  1.00  0.00     0.000 C 
BRANCH   8   9
ATOM      9  C   UNL     1      11.664   6.772   7.494  1.00  0.00     0.006 C 
BRANCH   9  10
ATOM     10  C   UNL     1      10.944   5.987   8.600  1.00  0.00     0.053 C 
BRANCH  10  11
ATOM     11  C   UNL     1      10.665   4.587   8.150  1.00  0.00     0.041 C 
ATOM     12  O   UNL     1      10.632   3.648   8.988  1.00  0.00    -0.550 OA
ATOM     13  O   UNL     1      10.493   4.313   6.799  1.00  0.00    -0.550 OA
ENDBRANCH  10  11
ENDBRANCH   9  10
ENDBRANCH   8   9
ENDBRANCH   1   8
TORSDOF 8
ENDMDL
MODEL 3
REMARK VINA RESULT:     8.946      2.015      5.699
REMARK INTER + INTRA:          13.162
REMARK INTER:                  11.366
REMARK INTRA:                   1.797
REMARK UNBOUND:                 0.033
REMARK SMILES O=C([O-])CCCCCCCC(=O)[O-]
REMARK SMILES IDX 7 1 6 2 5 3 4 4 2 5 1 6 3 7 8 8 9 9 10 10 11 11 12 12 13 13
REMARK H PARENT
REMARK Flexibility Score: inf
ROOT
ATOM      1  C   UNL     1      17.217   4.684   6.733  1.00  0.00     0.000 C 
ENDROOT
BRANCH   1   2
ATOM      2  C   UNL     1      18.119   5.605   7.567  1.00  0.00     0.000 C 
BRANCH   2   3
ATOM      3  C   UNL     1      17.582   5.838   8.992  1.00  0.00     0.006 C 
BRANCH   3   4
ATOM      4  C   UNL     1      18.125   7.104   9.674  1.00  0.00     0.053 C 
BRANCH   4   5
ATOM      5  C   UNL     1      17.061   8.144   9.852  1.00  0.00     0.041 C 
ATOM      6  O   UNL     1      15.885   7.806  10.142  1.00  0.00    -0.550 OA
ATOM      7  O   UNL     1      17.365   9.487   9.664  1.00  0.00    -0.550 OA
ENDBRANCH   4   5
ENDBRANCH   3   4
ENDBRANCH   2   3
ENDBRANCH   1   2
BRANCH   1   8
ATOM      8  C   UNL     1      15.835   5.320   6.515  1.00  0.00     0.000 C 
BRANCH   8   9
ATOM      9  C   UNL     1      15.532   6.437   7.526  1.00  0.00     0.006 C 
BRANCH   9  10
ATOM     10  C   UNL     1      14.233   6.192   8.306  1.00  0.00     0.053 C 
BRANCH  10  11
ATOM     11  C   UNL     1      13.120   7.017   7.739  1.00  0.00     0.041 C 
ATOM     12  O   UNL     1      11.927   6.627   7.840  1.00  0.00    -0.550 OA
ATOM     13  O   UNL     1      13.406   8.192   7.055  1.00  0.00    -0.550 OA
ENDBRANCH  10  11
ENDBRANCH   9  10
ENDBRANCH   8   9
ENDBRANCH   1   8
TORSDOF 8
ENDMDL
MODEL 4
REMARK VINA RESULT:    10.627      2.072      3.110
REMARK INTER + INTRA:          15.630
REMARK INTER:                  15.005
REMARK INTRA:                   0.625
REMARK UNBOUND:                 0.033
REMARK SMILES O=C([O-])CCCCCCCC(=O)[O-]
REMARK SMILES IDX 7 1 6 2 5 3 4 4 2 5 1 6 3 7 8 8 9 9 10 10 11 11 12 12 13 13
REMARK H PARENT
REMARK Flexibility Score: inf
ROOT
ATOM      1  C   UNL     1      17.388   4.643   6.383  1.00  0.00     0.000 C 
ENDROOT
BRANCH   1   2
ATOM      2  C   UNL     1      15.893   4.995   6.351  1.00  0.00     0.000 C 
BRANCH   2   3
ATOM      3  C   UNL     1      15.477   5.936   7.497  1.00  0.00     0.006 C 
BRANCH   3   4
ATOM      4  C   UNL     1      14.087   5.642   8.084  1.00  0.00     0.053 C 
BRANCH   4   5
ATOM      5  C   UNL     1      13.128   6.769   7.847  1.00  0.00     0.041 C 
ATOM      6  O   UNL     1      13.462   7.745   7.126  1.00  0.00    -0.550 OA
ATOM      7  O   UNL     1      11.876   6.755   8.450  1.00  0.00    -0.550 OA
ENDBRANCH   4   5
ENDBRANCH   3   4
ENDBRANCH   2   3
ENDBRANCH   1   2
BRANCH   1   8
ATOM      8  C   UNL     1      17.987   4.919   7.770  1.00  0.00     0.000 C 
BRANCH   8   9
ATOM      9  C   UNL     1      18.125   6.420   8.068  1.00  0.00     0.006 C 
BRANCH   9  10
ATOM     10  C   UNL     1      18.101   6.729   9.571  1.00  0.00     0.053 C 
BRANCH  10  11
ATOM     11  C   UNL     1      17.115   7.816   9.865  1.00  0.00     0.041 C 
ATOM     12  O   UNL     1      17.424   9.021   9.672  1.00  0.00    -0.550 OA
ATOM     13  O   UNL     1      15.872   7.500  10.400  1.00  0.00    -0.550 OA
ENDBRANCH  10  11
ENDBRANCH   9  10
ENDBRANCH   8   9
ENDBRANCH   1   8
TORSDOF 8
ENDMDL
