MODEL 1
REMARK VINA RESULT:    17.113      0.000      0.000
REMARK INTER + INTRA:          24.900
REMARK INTER:                  24.116
REMARK INTRA:                   0.784
REMARK UNBOUND:                 0.784
REMARK SMILES CC1=CCC(=C(C)C)C(=O)CC(C)=CCC1
REMARK SMILES IDX 12 1 14 2 13 3 15 4 16 5 2 6 1 7 3 8 11 10 9 11 10 12 5 13
REMARK SMILES IDX 6 14 7 15 8 16 4 17
REMARK H PARENT
REMARK Flexibility Score: 60.00
ROOT
ATOM      1  C   UNL     1      32.703  11.371  40.997  1.00  0.00    -0.070 C 
ATOM      2  C   UNL     1      32.982  10.061  40.779  1.00  0.00    -0.027 C 
ATOM      3  C   UNL     1      31.947  11.714  42.258  1.00  0.00     0.039 C 
ENDROOT
BRANCH   2   4
ATOM      4  C   UNL     1      33.839   9.503  39.671  1.00  0.00     0.032 C 
BRANCH   4   5
ATOM      5  C   UNL     1      35.248   9.094  40.125  1.00  0.00     0.034 C 
BRANCH   5   6
ATOM      6  C   UNL     1      36.269  10.147  39.754  1.00  0.00    -0.077 C 
ATOM      7  C   UNL     1      37.119   9.934  38.527  1.00  0.00     0.039 C 
ATOM      8  C   UNL     1      36.449  11.288  40.463  1.00  0.00    -0.023 CG0
ATOM      9  G   UNL     1      35.709  11.690  41.725  1.00  0.00     0.000 G0
ENDBRANCH   5   6
ENDBRANCH   4   5
ENDBRANCH   2   4
BRANCH   1  10
ATOM     10  C   UNL     1      33.035  12.491  40.022  1.00  0.00     0.111 C 
BRANCH  10  11
ATOM     11  C   UNL     1      34.168  13.374  40.486  1.00  0.00     0.163 C 
ATOM     12  O   UNL     1      34.392  14.408  39.799  1.00  0.00    -0.294 OA
BRANCH  11  13
ATOM     13  C   UNL     1      35.047  13.069  41.670  1.00  0.00    -0.002 C 
ATOM     14  C   UNL     1      35.292  14.025  42.623  1.00  0.00    -0.069 C 
ATOM     15  C   UNL     1      34.526  15.329  42.659  1.00  0.00     0.039 C 
ATOM     16  C   UNL     1      36.300  13.816  43.732  1.00  0.00     0.039 C 
BRANCH  13  17
ATOM     17  C   UNL     1      35.734  11.704  41.743  1.00  0.00     0.066 CG0
ATOM     18  G   UNL     1      36.445  11.303  40.465  1.00  0.00     0.000 G0
ENDBRANCH  13  17
ENDBRANCH  11  13
ENDBRANCH  10  11
ENDBRANCH   1  10
TORSDOF 0
ENDMDL
MODEL 2
REMARK VINA RESULT:    19.888      1.713      3.280
REMARK INTER + INTRA:          28.811
REMARK INTER:                  27.741
REMARK INTRA:                   1.070
REMARK UNBOUND:                 0.784
REMARK SMILES CC1=CCC(=C(C)C)C(=O)CC(C)=CCC1
REMARK SMILES IDX 12 1 14 2 13 3 15 4 16 5 2 6 1 7 3 8 11 10 9 11 10 12 5 13
REMARK SMILES IDX 6 14 7 15 8 16 4 17
REMARK H PARENT
REMARK Flexibility Score: 60.00
ROOT
ATOM      1  C   UNL     1      34.212  10.206  40.891  1.00  0.00    -0.070 C 
ATOM      2  C   UNL     1      32.857  10.284  40.898  1.00  0.00    -0.027 C 
ATOM      3  C   UNL     1      34.842   9.244  39.912  1.00  0.00     0.039 C 
ENDROOT
BRANCH   2   4
ATOM      4  C   UNL     1      32.024  11.266  41.682  1.00  0.00     0.032 C 
BRANCH   4   5
ATOM      5  C   UNL     1      31.687  12.549  40.907  1.00  0.00     0.034 C 
BRANCH   5   6
ATOM      6  C   UNL     1      32.553  12.687  39.674  1.00  0.00    -0.077 C 
ATOM      7  C   UNL     1      32.184  11.908  38.437  1.00  0.00     0.039 C 
ATOM      8  C   UNL     1      33.641  13.492  39.618  1.00  0.00    -0.023 CG0
ATOM      9  G   UNL     1      34.186  14.349  40.745  1.00  0.00     0.000 G0
ENDBRANCH   5   6
ENDBRANCH   4   5
ENDBRANCH   2   4
BRANCH   1  10
ATOM     10  C   UNL     1      35.119  10.963  41.850  1.00  0.00     0.111 C 
BRANCH  10  11
ATOM     11  C   UNL     1      35.651  12.255  41.280  1.00  0.00     0.163 C 
ATOM     12  O   UNL     1      36.596  12.155  40.450  1.00  0.00    -0.294 OA
BRANCH  11  13
ATOM     13  C   UNL     1      35.154  13.621  41.672  1.00  0.00    -0.002 C 
ATOM     14  C   UNL     1      35.504  14.172  42.879  1.00  0.00    -0.069 C 
ATOM     15  C   UNL     1      36.569  13.555  43.759  1.00  0.00     0.039 C 
ATOM     16  C   UNL     1      34.892  15.461  43.382  1.00  0.00     0.039 C 
BRANCH  13  17
ATOM     17  C   UNL     1      34.180  14.343  40.741  1.00  0.00     0.066 CG0
ATOM     18  G   UNL     1      33.632  13.472  39.627  1.00  0.00     0.000 G0
ENDBRANCH  13  17
ENDBRANCH  11  13
ENDBRANCH  10  11
ENDBRANCH   1  10
TORSDOF 0
ENDMDL
