MODEL 1
REMARK VINA RESULT:    -5.158      0.000      0.000
REMARK INTER + INTRA:          -7.929
REMARK INTER:                  -6.364
REMARK INTRA:                  -1.565
REMARK UNBOUND:                -1.565
REMARK SMILES CC(C)=CCC[C@@H](C)c1ccc(C)cc1
REMARK SMILES IDX 6 1 7 2 8 3 9 4 13 5 12 6 11 7 14 8 10 9 15 10 5 11 4 12
REMARK SMILES IDX 2 13 1 14 3 15
REMARK H PARENT
REMARK Flexibility Score: inf
ROOT
ATOM      1  C   UNL     1     -97.800 197.826 -14.354  1.00  0.00     0.012 C 
ENDROOT
BRANCH   1   2
ATOM      2  C   UNL     1     -98.492 197.298 -15.631  1.00  0.00     0.016 C 
ATOM      3  C   UNL     1     -98.287 198.226 -16.841  1.00  0.00     0.013 C 
BRANCH   2   4
ATOM      4  C   UNL     1     -98.134 195.842 -15.902  1.00  0.00    -0.045 A 
ATOM      5  C   UNL     1     -96.932 191.733 -16.497  1.00  0.00     0.044 C 
ATOM      6  C   UNL     1     -97.379 193.151 -16.296  1.00  0.00    -0.051 A 
ATOM      7  C   UNL     1     -97.712 193.612 -15.016  1.00  0.00     0.004 A 
ATOM      8  C   UNL     1     -97.394 194.046 -17.374  1.00  0.00     0.004 A 
ATOM      9  C   UNL     1     -98.087 194.944 -14.820  1.00  0.00     0.004 A 
ATOM     10  C   UNL     1     -97.769 195.378 -17.182  1.00  0.00     0.004 A 
ENDBRANCH   2   4
ENDBRANCH   1   2
BRANCH   1  11
ATOM     11  C   UNL     1     -96.302 198.133 -14.527  1.00  0.00     0.028 C 
BRANCH  11  12
ATOM     12  C   UNL     1     -95.460 197.024 -13.947  1.00  0.00    -0.028 C 
ATOM     13  C   UNL     1     -94.647 196.228 -14.678  1.00  0.00    -0.080 C 
ATOM     14  C   UNL     1     -93.887 195.135 -13.972  1.00  0.00     0.039 C 
ATOM     15  C   UNL     1     -94.469 196.419 -16.168  1.00  0.00     0.039 C 
ENDBRANCH  11  12
ENDBRANCH   1  11
TORSDOF 4
ENDMDL
MODEL 2
REMARK VINA RESULT:    -4.993      1.648      4.737
REMARK INTER + INTRA:          -7.725
REMARK INTER:                  -6.684
REMARK INTRA:                  -1.040
REMARK UNBOUND:                -1.565
REMARK SMILES CC(C)=CCC[C@@H](C)c1ccc(C)cc1
REMARK SMILES IDX 6 1 7 2 8 3 9 4 13 5 12 6 11 7 14 8 10 9 15 10 5 11 4 12
REMARK SMILES IDX 2 13 1 14 3 15
REMARK H PARENT
REMARK Flexibility Score: inf
ROOT
ATOM      1  C   UNL     1     -98.122 195.200 -14.778  1.00  0.00     0.012 C 
ENDROOT
BRANCH   1   2
ATOM      2  C   UNL     1     -97.691 196.502 -15.491  1.00  0.00     0.016 C 
ATOM      3  C   UNL     1     -98.751 197.008 -16.486  1.00  0.00     0.013 C 
BRANCH   2   4
ATOM      4  C   UNL     1     -97.223 197.557 -14.497  1.00  0.00    -0.045 A 
ATOM      5  C   UNL     1     -95.982 200.729 -11.836  1.00  0.00     0.044 C 
ATOM      6  C   UNL     1     -96.418 199.610 -12.734  1.00  0.00    -0.051 A 
ATOM      7  C   UNL     1     -97.751 199.523 -13.157  1.00  0.00     0.004 A 
ATOM      8  C   UNL     1     -95.481 198.687 -13.220  1.00  0.00     0.004 A 
ATOM      9  C   UNL     1     -98.150 198.506 -14.029  1.00  0.00     0.004 A 
ATOM     10  C   UNL     1     -95.878 197.669 -14.091  1.00  0.00     0.004 A 
ENDBRANCH   2   4
ENDBRANCH   1   2
BRANCH   1  11
ATOM     11  C   UNL     1     -97.281 193.966 -15.149  1.00  0.00     0.028 C 
BRANCH  11  12
ATOM     12  C   UNL     1     -96.096 194.363 -15.993  1.00  0.00    -0.028 C 
ATOM     13  C   UNL     1     -94.848 194.548 -15.508  1.00  0.00    -0.080 C 
ATOM     14  C   UNL     1     -93.762 194.977 -16.461  1.00  0.00     0.039 C 
ATOM     15  C   UNL     1     -94.513 194.320 -14.050  1.00  0.00     0.039 C 
ENDBRANCH  11  12
ENDBRANCH   1  11
TORSDOF 4
ENDMDL
MODEL 3
REMARK VINA RESULT:    -4.793      2.181      3.610
REMARK INTER + INTRA:          -7.479
REMARK INTER:                  -6.809
REMARK INTRA:                  -0.669
REMARK UNBOUND:                -1.565
REMARK SMILES CC(C)=CCC[C@@H](C)c1ccc(C)cc1
REMARK SMILES IDX 6 1 7 2 8 3 9 4 13 5 12 6 11 7 14 8 10 9 15 10 5 11 4 12
REMARK SMILES IDX 2 13 1 14 3 15
REMARK H PARENT
REMARK Flexibility Score: inf
ROOT
ATOM      1  C   UNL     1     -97.092 197.756 -13.953  1.00  0.00     0.012 C 
ENDROOT
BRANCH   1   2
ATOM      2  C   UNL     1     -95.872 197.040 -14.574  1.00  0.00     0.016 C 
ATOM      3  C   UNL     1     -94.615 197.142 -13.691  1.00  0.00     0.013 C 
BRANCH   2   4
ATOM      4  C   UNL     1     -96.213 195.618 -15.000  1.00  0.00    -0.045 A 
ATOM      5  C   UNL     1     -97.072 191.631 -16.432  1.00  0.00     0.044 C 
ATOM      6  C   UNL     1     -96.771 193.003 -15.906  1.00  0.00    -0.051 A 
ATOM      7  C   UNL     1     -95.456 193.487 -15.909  1.00  0.00     0.004 A 
ATOM      8  C   UNL     1     -97.810 193.840 -15.479  1.00  0.00     0.004 A 
ATOM      9  C   UNL     1     -95.180 194.781 -15.459  1.00  0.00     0.004 A 
ATOM     10  C   UNL     1     -97.537 195.134 -15.028  1.00  0.00     0.004 A 
ENDBRANCH   2   4
ENDBRANCH   1   2
BRANCH   1  11
ATOM     11  C   UNL     1     -97.063 199.289 -14.088  1.00  0.00     0.028 C 
BRANCH  11  12
ATOM     12  C   UNL     1     -97.444 199.946 -12.785  1.00  0.00    -0.028 C 
ATOM     13  C   UNL     1     -96.554 200.438 -11.895  1.00  0.00    -0.080 C 
ATOM     14  C   UNL     1     -97.074 201.040 -10.615  1.00  0.00     0.039 C 
ATOM     15  C   UNL     1     -95.064 200.417 -12.158  1.00  0.00     0.039 C 
ENDBRANCH  11  12
ENDBRANCH   1  11
TORSDOF 4
ENDMDL
MODEL 4
REMARK VINA RESULT:    -4.481      1.888      5.479
REMARK INTER + INTRA:          -7.094
REMARK INTER:                  -5.940
REMARK INTRA:                  -1.154
REMARK UNBOUND:                -1.565
REMARK SMILES CC(C)=CCC[C@@H](C)c1ccc(C)cc1
REMARK SMILES IDX 6 1 7 2 8 3 9 4 13 5 12 6 11 7 14 8 10 9 15 10 5 11 4 12
REMARK SMILES IDX 2 13 1 14 3 15
REMARK H PARENT
REMARK Flexibility Score: inf
ROOT
ATOM      1  C   UNL     1     -93.717 195.951 -13.649  1.00  0.00     0.012 C 
ENDROOT
BRANCH   1   2
ATOM      2  C   UNL     1     -93.639 197.428 -14.099  1.00  0.00     0.016 C 
ATOM      3  C   UNL     1     -93.389 197.571 -15.611  1.00  0.00     0.013 C 
BRANCH   2   4
ATOM      4  C   UNL     1     -94.828 198.232 -13.590  1.00  0.00    -0.045 A 
ATOM      5  C   UNL     1     -98.257 200.572 -12.387  1.00  0.00     0.044 C 
ATOM      6  C   UNL     1     -97.072 199.741 -12.780  1.00  0.00    -0.051 A 
ATOM      7  C   UNL     1     -97.220 198.687 -13.691  1.00  0.00     0.004 A 
ATOM      8  C   UNL     1     -95.795 200.060 -12.300  1.00  0.00     0.004 A 
ATOM      9  C   UNL     1     -96.109 197.938 -14.091  1.00  0.00     0.004 A 
ATOM     10  C   UNL     1     -94.683 199.313 -12.698  1.00  0.00     0.004 A 
ENDBRANCH   2   4
ENDBRANCH   1   2
BRANCH   1  11
ATOM     11  C   UNL     1     -94.016 194.957 -14.785  1.00  0.00     0.028 C 
BRANCH  11  12
ATOM     12  C   UNL     1     -95.375 194.330 -14.601  1.00  0.00    -0.028 C 
ATOM     13  C   UNL     1     -96.411 194.502 -15.453  1.00  0.00    -0.080 C 
ATOM     14  C   UNL     1     -97.726 193.841 -15.128  1.00  0.00     0.039 C 
ATOM     15  C   UNL     1     -96.278 195.316 -16.721  1.00  0.00     0.039 C 
ENDBRANCH  11  12
ENDBRANCH   1  11
TORSDOF 4
ENDMDL
MODEL 5
REMARK VINA RESULT:    -4.414      1.622      5.386
REMARK INTER + INTRA:          -7.011
REMARK INTER:                  -6.298
REMARK INTRA:                  -0.714
REMARK UNBOUND:                -1.565
REMARK SMILES CC(C)=CCC[C@@H](C)c1ccc(C)cc1
REMARK SMILES IDX 6 1 7 2 8 3 9 4 13 5 12 6 11 7 14 8 10 9 15 10 5 11 4 12
REMARK SMILES IDX 2 13 1 14 3 15
REMARK H PARENT
REMARK Flexibility Score: inf
ROOT
ATOM      1  C   UNL     1     -95.049 194.723 -14.682  1.00  0.00     0.012 C 
ENDROOT
BRANCH   1   2
ATOM      2  C   UNL     1     -94.322 196.040 -14.326  1.00  0.00     0.016 C 
ATOM      3  C   UNL     1     -93.242 196.414 -15.356  1.00  0.00     0.013 C 
BRANCH   2   4
ATOM      4  C   UNL     1     -95.308 197.162 -14.029  1.00  0.00    -0.045 A 
ATOM      5  C   UNL     1     -98.052 200.318 -12.938  1.00  0.00     0.044 C 
ATOM      6  C   UNL     1     -97.094 199.238 -13.343  1.00  0.00    -0.051 A 
ATOM      7  C   UNL     1     -95.753 199.296 -12.940  1.00  0.00     0.004 A 
ATOM      8  C   UNL     1     -97.547 198.124 -14.062  1.00  0.00     0.004 A 
ATOM      9  C   UNL     1     -94.868 198.270 -13.281  1.00  0.00     0.004 A 
ATOM     10  C   UNL     1     -96.664 197.096 -14.404  1.00  0.00     0.004 A 
ENDBRANCH   2   4
ENDBRANCH   1   2
BRANCH   1  11
ATOM     11  C   UNL     1     -94.753 194.198 -16.098  1.00  0.00     0.028 C 
BRANCH  11  12
ATOM     12  C   UNL     1     -95.938 194.415 -17.005  1.00  0.00    -0.028 C 
ATOM     13  C   UNL     1     -96.948 193.529 -17.157  1.00  0.00    -0.080 C 
ATOM     14  C   UNL     1     -98.055 193.860 -18.124  1.00  0.00     0.039 C 
ATOM     15  C   UNL     1     -97.004 192.236 -16.373  1.00  0.00     0.039 C 
ENDBRANCH  11  12
ENDBRANCH   1  11
TORSDOF 4
ENDMDL
MODEL 6
REMARK VINA RESULT:    -4.116      1.462      3.344
REMARK INTER + INTRA:          -6.643
REMARK INTER:                  -5.833
REMARK INTRA:                  -0.810
REMARK UNBOUND:                -1.565
REMARK SMILES CC(C)=CCC[C@@H](C)c1ccc(C)cc1
REMARK SMILES IDX 6 1 7 2 8 3 9 4 13 5 12 6 11 7 14 8 10 9 15 10 5 11 4 12
REMARK SMILES IDX 2 13 1 14 3 15
REMARK H PARENT
REMARK Flexibility Score: inf
ROOT
ATOM      1  C   UNL     1     -97.370 197.802 -14.010  1.00  0.00     0.012 C 
ENDROOT
BRANCH   1   2
ATOM      2  C   UNL     1     -96.078 197.165 -14.572  1.00  0.00     0.016 C 
ATOM      3  C   UNL     1     -94.871 197.358 -13.638  1.00  0.00     0.013 C 
BRANCH   2   4
ATOM      4  C   UNL     1     -96.305 195.720 -14.997  1.00  0.00    -0.045 A 
ATOM      5  C   UNL     1     -96.834 191.674 -16.425  1.00  0.00     0.044 C 
ATOM      6  C   UNL     1     -96.647 193.067 -15.900  1.00  0.00    -0.051 A 
ATOM      7  C   UNL     1     -95.370 193.640 -15.856  1.00  0.00     0.004 A 
ATOM      8  C   UNL     1     -97.757 193.834 -15.522  1.00  0.00     0.004 A 
ATOM      9  C   UNL     1     -95.200 194.953 -15.408  1.00  0.00     0.004 A 
ATOM     10  C   UNL     1     -97.591 195.147 -15.073  1.00  0.00     0.004 A 
ENDBRANCH   2   4
ENDBRANCH   1   2
BRANCH   1  11
ATOM     11  C   UNL     1     -97.717 199.172 -14.619  1.00  0.00     0.028 C 
BRANCH  11  12
ATOM     12  C   UNL     1     -96.802 199.489 -15.775  1.00  0.00    -0.028 C 
ATOM     13  C   UNL     1     -97.203 199.546 -17.065  1.00  0.00    -0.080 C 
ATOM     14  C   UNL     1     -96.174 199.842 -18.125  1.00  0.00     0.039 C 
ATOM     15  C   UNL     1     -98.648 199.342 -17.464  1.00  0.00     0.039 C 
ENDBRANCH  11  12
ENDBRANCH   1  11
TORSDOF 4
ENDMDL
MODEL 7
REMARK VINA RESULT:    -4.097      1.324      3.223
REMARK INTER + INTRA:          -6.620
REMARK INTER:                  -5.492
REMARK INTRA:                  -1.128
REMARK UNBOUND:                -1.565
REMARK SMILES CC(C)=CCC[C@@H](C)c1ccc(C)cc1
REMARK SMILES IDX 6 1 7 2 8 3 9 4 13 5 12 6 11 7 14 8 10 9 15 10 5 11 4 12
REMARK SMILES IDX 2 13 1 14 3 15
REMARK H PARENT
REMARK Flexibility Score: inf
ROOT
ATOM      1  C   UNL     1     -95.169 196.924 -13.998  1.00  0.00     0.012 C 
ENDROOT
BRANCH   1   2
ATOM      2  C   UNL     1     -94.748 196.703 -15.469  1.00  0.00     0.016 C 
ATOM      3  C   UNL     1     -93.220 196.694 -15.650  1.00  0.00     0.013 C 
BRANCH   2   4
ATOM      4  C   UNL     1     -95.450 195.497 -16.078  1.00  0.00    -0.045 A 
ATOM      5  C   UNL     1     -97.259 191.926 -17.708  1.00  0.00     0.044 C 
ATOM      6  C   UNL     1     -96.660 193.177 -17.139  1.00  0.00    -0.051 A 
ATOM      7  C   UNL     1     -96.402 193.275 -15.766  1.00  0.00     0.004 A 
ATOM      8  C   UNL     1     -96.283 194.228 -17.986  1.00  0.00     0.004 A 
ATOM      9  C   UNL     1     -95.804 194.424 -15.240  1.00  0.00     0.004 A 
ATOM     10  C   UNL     1     -95.685 195.378 -17.463  1.00  0.00     0.004 A 
ENDBRANCH   2   4
ENDBRANCH   1   2
BRANCH   1  11
ATOM     11  C   UNL     1     -96.159 198.083 -13.789  1.00  0.00     0.028 C 
BRANCH  11  12
ATOM     12  C   UNL     1     -96.816 198.465 -15.091  1.00  0.00    -0.028 C 
ATOM     13  C   UNL     1     -97.939 197.886 -15.572  1.00  0.00    -0.080 C 
ATOM     14  C   UNL     1     -98.470 198.343 -16.906  1.00  0.00     0.039 C 
ATOM     15  C   UNL     1     -98.680 196.815 -14.802  1.00  0.00     0.039 C 
ENDBRANCH  11  12
ENDBRANCH   1  11
TORSDOF 4
ENDMDL
MODEL 8
REMARK VINA RESULT:    -4.097     16.326     18.013
REMARK INTER + INTRA:          -6.620
REMARK INTER:                  -5.122
REMARK INTRA:                  -1.498
REMARK UNBOUND:                -1.565
REMARK SMILES CC(C)=CCC[C@@H](C)c1ccc(C)cc1
REMARK SMILES IDX 6 1 7 2 8 3 9 4 13 5 12 6 11 7 14 8 10 9 15 10 5 11 4 12
REMARK SMILES IDX 2 13 1 14 3 15
REMARK H PARENT
REMARK Flexibility Score: inf
ROOT
ATOM      1  C   UNL     1    -104.433 196.951   1.281  1.00  0.00     0.012 C 
ENDROOT
BRANCH   1   2
ATOM      2  C   UNL     1    -103.829 196.855  -0.138  1.00  0.00     0.016 C 
ATOM      3  C   UNL     1    -102.596 195.936  -0.194  1.00  0.00     0.013 C 
BRANCH   2   4
ATOM      4  C   UNL     1    -104.891 196.528  -1.179  1.00  0.00    -0.045 A 
ATOM      5  C   UNL     1    -108.019 195.819  -4.078  1.00  0.00     0.044 C 
ATOM      6  C   UNL     1    -106.913 196.049  -3.091  1.00  0.00    -0.051 A 
ATOM      7  C   UNL     1    -106.143 197.218  -3.153  1.00  0.00     0.004 A 
ATOM      8  C   UNL     1    -106.692 195.136  -2.052  1.00  0.00     0.004 A 
ATOM      9  C   UNL     1    -105.141 197.455  -2.208  1.00  0.00     0.004 A 
ATOM     10  C   UNL     1    -105.690 195.369  -1.106  1.00  0.00     0.004 A 
ENDBRANCH   2   4
ENDBRANCH   1   2
BRANCH   1  11
ATOM     11  C   UNL     1    -105.560 197.989   1.421  1.00  0.00     0.028 C 
BRANCH  11  12
ATOM     12  C   UNL     1    -106.823 197.340   1.930  1.00  0.00    -0.028 C 
ATOM     13  C   UNL     1    -108.007 197.370   1.278  1.00  0.00    -0.080 C 
ATOM     14  C   UNL     1    -109.198 196.706   1.919  1.00  0.00     0.039 C 
ATOM     15  C   UNL     1    -108.159 198.029  -0.075  1.00  0.00     0.039 C 
ENDBRANCH  11  12
ENDBRANCH   1  11
TORSDOF 4
ENDMDL
MODEL 9
REMARK VINA RESULT:    -3.999     16.354     17.649
REMARK INTER + INTRA:          -6.499
REMARK INTER:                  -4.917
REMARK INTRA:                  -1.582
REMARK UNBOUND:                -1.565
REMARK SMILES CC(C)=CCC[C@@H](C)c1ccc(C)cc1
REMARK SMILES IDX 6 1 7 2 8 3 9 4 13 5 12 6 11 7 14 8 10 9 15 10 5 11 4 12
REMARK SMILES IDX 2 13 1 14 3 15
REMARK H PARENT
REMARK Flexibility Score: inf
ROOT
ATOM      1  C   UNL     1    -106.959 197.163   1.589  1.00  0.00     0.012 C 
ENDROOT
BRANCH   1   2
ATOM      2  C   UNL     1    -107.806 197.098   0.298  1.00  0.00     0.016 C 
ATOM      3  C   UNL     1    -107.844 198.442  -0.451  1.00  0.00     0.013 C 
BRANCH   2   4
ATOM      4  C   UNL     1    -107.408 195.916  -0.576  1.00  0.00    -0.045 A 
ATOM      5  C   UNL     1    -106.071 192.531  -2.908  1.00  0.00     0.044 C 
ATOM      6  C   UNL     1    -106.565 193.697  -2.104  1.00  0.00    -0.051 A 
ATOM      7  C   UNL     1    -106.742 193.576  -0.720  1.00  0.00     0.004 A 
ATOM      8  C   UNL     1    -106.779 194.938  -2.718  1.00  0.00     0.004 A 
ATOM      9  C   UNL     1    -107.161 194.674   0.037  1.00  0.00     0.004 A 
ATOM     10  C   UNL     1    -107.199 196.037  -1.964  1.00  0.00     0.004 A 
ENDBRANCH   2   4
ENDBRANCH   1   2
BRANCH   1  11
ATOM     11  C   UNL     1    -105.638 197.938   1.442  1.00  0.00     0.028 C 
BRANCH  11  12
ATOM     12  C   UNL     1    -104.493 196.995   1.174  1.00  0.00    -0.028 C 
ATOM     13  C   UNL     1    -103.863 196.886  -0.017  1.00  0.00    -0.080 C 
ATOM     14  C   UNL     1    -102.753 195.875  -0.153  1.00  0.00     0.039 C 
ATOM     15  C   UNL     1    -104.227 197.758  -1.198  1.00  0.00     0.039 C 
ENDBRANCH  11  12
ENDBRANCH   1  11
TORSDOF 4
ENDMDL
