MODEL 1
REMARK VINA RESULT:    -1.878      0.000      0.000
REMARK INTER + INTRA:          -1.878
REMARK INTER:                  -1.878
REMARK INTRA:                   0.000
REMARK UNBOUND:                 0.000
REMARK SMILES CC(=O)[O-]
REMARK SMILES IDX 1 1 2 2 3 3 4 4
REMARK H PARENT
REMARK Flexibility Score: inf
ROOT
ATOM      1  C   UNL     1     -17.350   7.591 -27.124  1.00  0.00     0.063 C 
ATOM      2  C   UNL     1     -17.615   6.313 -26.403  1.00  0.00     0.038 C 
ATOM      3  O   UNL     1     -18.591   6.223 -25.613  1.00  0.00    -0.550 OA
ATOM      4  O   UNL     1     -16.816   5.201 -26.640  1.00  0.00    -0.550 OA
ENDROOT
TORSDOF 0
ENDMDL
MODEL 2
REMARK VINA RESULT:    -1.836     21.246     21.531
REMARK INTER + INTRA:          -1.836
REMARK INTER:                  -1.836
REMARK INTRA:                   0.000
REMARK UNBOUND:                 0.000
REMARK SMILES CC(=O)[O-]
REMARK SMILES IDX 1 1 2 2 3 3 4 4
REMARK H PARENT
REMARK Flexibility Score: inf
ROOT
ATOM      1  C   UNL     1     -33.796  -3.789 -33.490  1.00  0.00     0.063 C 
ATOM      2  C   UNL     1     -34.555  -5.059 -33.303  1.00  0.00     0.038 C 
ATOM      3  O   UNL     1     -35.464  -5.377 -34.113  1.00  0.00    -0.550 OA
ATOM      4  O   UNL     1     -34.224  -5.921 -32.264  1.00  0.00    -0.550 OA
ENDROOT
TORSDOF 0
ENDMDL
MODEL 3
REMARK VINA RESULT:    -1.827     20.993     21.264
REMARK INTER + INTRA:          -1.827
REMARK INTER:                  -1.827
REMARK INTRA:                   0.000
REMARK UNBOUND:                 0.000
REMARK SMILES CC(=O)[O-]
REMARK SMILES IDX 1 1 2 2 3 3 4 4
REMARK H PARENT
REMARK Flexibility Score: inf
ROOT
ATOM      1  C   UNL     1     -26.944  -8.897 -36.460  1.00  0.00     0.063 C 
ATOM      2  C   UNL     1     -28.420  -8.805 -36.644  1.00  0.00     0.038 C 
ATOM      3  O   UNL     1     -29.031  -9.688 -37.302  1.00  0.00    -0.550 OA
ATOM      4  O   UNL     1     -29.134  -7.774 -36.046  1.00  0.00    -0.550 OA
ENDROOT
TORSDOF 0
ENDMDL
MODEL 4
REMARK VINA RESULT:    -1.816     21.315     21.639
REMARK INTER + INTRA:          -1.816
REMARK INTER:                  -1.816
REMARK INTRA:                   0.000
REMARK UNBOUND:                 0.000
REMARK SMILES CC(=O)[O-]
REMARK SMILES IDX 1 1 2 2 3 3 4 4
REMARK H PARENT
REMARK Flexibility Score: inf
ROOT
ATOM      1  C   UNL     1     -34.357  -5.669 -32.079  1.00  0.00     0.063 C 
ATOM      2  C   UNL     1     -34.603  -4.995 -33.387  1.00  0.00     0.038 C 
ATOM      3  O   UNL     1     -35.504  -5.419 -34.156  1.00  0.00    -0.550 OA
ATOM      4  O   UNL     1     -33.873  -3.866 -33.735  1.00  0.00    -0.550 OA
ENDROOT
TORSDOF 0
ENDMDL
MODEL 5
REMARK VINA RESULT:    -1.808     21.619     21.969
REMARK INTER + INTRA:          -1.808
REMARK INTER:                  -1.808
REMARK INTRA:                   0.000
REMARK UNBOUND:                 0.000
REMARK SMILES CC(=O)[O-]
REMARK SMILES IDX 1 1 2 2 3 3 4 4
REMARK H PARENT
REMARK Flexibility Score: inf
ROOT
ATOM      1  C   UNL     1     -35.762  -6.456 -31.541  1.00  0.00     0.063 C 
ATOM      2  C   UNL     1     -34.774  -5.730 -32.390  1.00  0.00     0.038 C 
ATOM      3  O   UNL     1     -33.593  -5.567 -31.987  1.00  0.00    -0.550 OA
ATOM      4  O   UNL     1     -35.141  -5.276 -33.652  1.00  0.00    -0.550 OA
ENDROOT
TORSDOF 0
ENDMDL
MODEL 6
REMARK VINA RESULT:    -1.767     21.794     22.112
REMARK INTER + INTRA:          -1.767
REMARK INTER:                  -1.767
REMARK INTRA:                   0.000
REMARK UNBOUND:                 0.000
REMARK SMILES CC(=O)[O-]
REMARK SMILES IDX 1 1 2 2 3 3 4 4
REMARK H PARENT
REMARK Flexibility Score: inf
ROOT
ATOM      1  C   UNL     1     -35.873  -6.651 -31.343  1.00  0.00     0.063 C 
ATOM      2  C   UNL     1     -34.425  -6.881 -31.619  1.00  0.00     0.038 C 
ATOM      3  O   UNL     1     -33.664  -5.905 -31.851  1.00  0.00    -0.550 OA
ATOM      4  O   UNL     1     -33.902  -8.167 -31.568  1.00  0.00    -0.550 OA
ENDROOT
TORSDOF 0
ENDMDL
MODEL 7
REMARK VINA RESULT:    -1.760      1.630      1.906
REMARK INTER + INTRA:          -1.760
REMARK INTER:                  -1.760
REMARK INTRA:                   0.000
REMARK UNBOUND:                 0.000
REMARK SMILES CC(=O)[O-]
REMARK SMILES IDX 1 1 2 2 3 3 4 4
REMARK H PARENT
REMARK Flexibility Score: inf
ROOT
ATOM      1  C   UNL     1     -18.260   6.173 -25.717  1.00  0.00     0.063 C 
ATOM      2  C   UNL     1     -17.287   6.801 -26.657  1.00  0.00     0.038 C 
ATOM      3  O   UNL     1     -17.698   7.531 -27.597  1.00  0.00    -0.550 OA
ATOM      4  O   UNL     1     -15.922   6.627 -26.466  1.00  0.00    -0.550 OA
ENDROOT
TORSDOF 0
ENDMDL
MODEL 8
REMARK VINA RESULT:    -1.754      6.879      7.117
REMARK INTER + INTRA:          -1.754
REMARK INTER:                  -1.754
REMARK INTRA:                   0.000
REMARK UNBOUND:                 0.000
REMARK SMILES CC(=O)[O-]
REMARK SMILES IDX 1 1 2 2 3 3 4 4
REMARK H PARENT
REMARK Flexibility Score: inf
ROOT
ATOM      1  C   UNL     1     -24.635   8.014 -28.876  1.00  0.00     0.063 C 
ATOM      2  C   UNL     1     -24.021   6.686 -29.166  1.00  0.00     0.038 C 
ATOM      3  O   UNL     1     -23.972   5.803 -28.271  1.00  0.00    -0.550 OA
ATOM      4  O   UNL     1     -23.551   6.401 -30.442  1.00  0.00    -0.550 OA
ENDROOT
TORSDOF 0
ENDMDL
MODEL 9
REMARK VINA RESULT:    -1.715      8.758      9.114
REMARK INTER + INTRA:          -1.715
REMARK INTER:                  -1.715
REMARK INTRA:                   0.000
REMARK UNBOUND:                 0.000
REMARK SMILES CC(=O)[O-]
REMARK SMILES IDX 1 1 2 2 3 3 4 4
REMARK H PARENT
REMARK Flexibility Score: inf
ROOT
ATOM      1  C   UNL     1     -19.902  -0.536 -31.670  1.00  0.00     0.063 C 
ATOM      2  C   UNL     1     -20.114   0.520 -32.701  1.00  0.00     0.038 C 
ATOM      3  O   UNL     1     -20.198   1.729 -32.359  1.00  0.00    -0.550 OA
ATOM      4  O   UNL     1     -20.166   0.180 -34.047  1.00  0.00    -0.550 OA
ENDROOT
TORSDOF 0
ENDMDL
