MODEL 1
REMARK VINA RESULT:    -4.031      0.000      0.000
REMARK INTER + INTRA:          -5.113
REMARK INTER:                  -4.974
REMARK INTRA:                  -0.139
REMARK UNBOUND:                -0.139
REMARK SMILES CCCCCC(=O)[O-]
REMARK SMILES IDX 4 1 5 2 6 3 7 4 8 5 3 6 2 7 1 8
REMARK H PARENT
REMARK Flexibility Score: inf
ROOT
ATOM      1  C   UNL     1      18.768  25.495  36.376  1.00  0.00     0.006 C 
ENDROOT
BRANCH   1   2
ATOM      2  C   UNL     1      18.479  24.510  35.240  1.00  0.00     0.053 C 
BRANCH   2   3
ATOM      3  C   UNL     1      19.666  24.392  34.335  1.00  0.00     0.041 C 
ATOM      4  O   UNL     1      20.827  24.578  34.785  1.00  0.00    -0.550 OA
ATOM      5  O   UNL     1      19.492  24.027  33.006  1.00  0.00    -0.550 OA
ENDBRANCH   2   3
ENDBRANCH   1   2
BRANCH   1   6
ATOM      6  C   UNL     1      17.675  26.566  36.466  1.00  0.00     0.000 C 
BRANCH   6   7
ATOM      7  C   UNL     1      18.269  27.930  36.834  1.00  0.00    -0.003 C 
ATOM      8  C   UNL     1      19.786  27.933  36.675  1.00  0.00     0.004 C 
ENDBRANCH   6   7
ENDBRANCH   1   6
TORSDOF 4
ENDMDL
MODEL 2
REMARK VINA RESULT:    -3.583      6.932      8.467
REMARK INTER + INTRA:          -4.560
REMARK INTER:                  -4.450
REMARK INTRA:                  -0.110
REMARK UNBOUND:                -0.139
REMARK SMILES CCCCCC(=O)[O-]
REMARK SMILES IDX 4 1 5 2 6 3 7 4 8 5 3 6 2 7 1 8
REMARK H PARENT
REMARK Flexibility Score: inf
ROOT
ATOM      1  C   UNL     1      21.536  34.025  34.532  1.00  0.00     0.006 C 
ENDROOT
BRANCH   1   2
ATOM      2  C   UNL     1      22.354  33.040  35.372  1.00  0.00     0.053 C 
BRANCH   2   3
ATOM      3  C   UNL     1      21.450  32.176  36.194  1.00  0.00     0.041 C 
ATOM      4  O   UNL     1      20.638  32.697  37.003  1.00  0.00    -0.550 OA
ATOM      5  O   UNL     1      21.469  30.796  36.030  1.00  0.00    -0.550 OA
ENDBRANCH   2   3
ENDBRANCH   1   2
BRANCH   1   6
ATOM      6  C   UNL     1      21.256  33.456  33.137  1.00  0.00     0.000 C 
BRANCH   6   7
ATOM      7  C   UNL     1      20.497  34.469  32.271  1.00  0.00    -0.003 C 
ATOM      8  C   UNL     1      19.363  35.123  33.053  1.00  0.00     0.004 C 
ENDBRANCH   6   7
ENDBRANCH   1   6
TORSDOF 4
ENDMDL
MODEL 3
REMARK VINA RESULT:    -3.449     15.471     16.566
REMARK INTER + INTRA:          -4.394
REMARK INTER:                  -4.255
REMARK INTRA:                  -0.139
REMARK UNBOUND:                -0.139
REMARK SMILES CCCCCC(=O)[O-]
REMARK SMILES IDX 4 1 5 2 6 3 7 4 8 5 3 6 2 7 1 8
REMARK H PARENT
REMARK Flexibility Score: inf
ROOT
ATOM      1  C   UNL     1      21.526  22.738  18.612  1.00  0.00     0.006 C 
ENDROOT
BRANCH   1   2
ATOM      2  C   UNL     1      21.166  24.200  18.337  1.00  0.00     0.053 C 
BRANCH   2   3
ATOM      3  C   UNL     1      19.955  24.598  19.121  1.00  0.00     0.041 C 
ATOM      4  O   UNL     1      18.808  24.250  18.734  1.00  0.00    -0.550 OA
ATOM      5  O   UNL     1      20.097  25.310  20.306  1.00  0.00    -0.550 OA
ENDBRANCH   2   3
ENDBRANCH   1   2
BRANCH   1   6
ATOM      6  C   UNL     1      22.494  22.622  19.795  1.00  0.00     0.000 C 
BRANCH   6   7
ATOM      7  C   UNL     1      21.847  21.873  20.965  1.00  0.00    -0.003 C 
ATOM      8  C   UNL     1      22.645  20.626  21.332  1.00  0.00     0.004 C 
ENDBRANCH   6   7
ENDBRANCH   1   6
TORSDOF 4
ENDMDL
MODEL 4
REMARK VINA RESULT:    -3.413     14.311     15.965
REMARK INTER + INTRA:          -4.350
REMARK INTER:                  -4.097
REMARK INTRA:                  -0.253
REMARK UNBOUND:                -0.139
REMARK SMILES CCCCCC(=O)[O-]
REMARK SMILES IDX 4 1 5 2 6 3 7 4 8 5 3 6 2 7 1 8
REMARK H PARENT
REMARK Flexibility Score: inf
ROOT
ATOM      1  C   UNL     1      19.495  24.298  20.100  1.00  0.00     0.006 C 
ENDROOT
BRANCH   1   2
ATOM      2  C   UNL     1      19.980  23.791  21.461  1.00  0.00     0.053 C 
BRANCH   2   3
ATOM      3  C   UNL     1      20.920  22.640  21.287  1.00  0.00     0.041 C 
ATOM      4  O   UNL     1      22.085  22.696  21.764  1.00  0.00    -0.550 OA
ATOM      5  O   UNL     1      20.494  21.486  20.642  1.00  0.00    -0.550 OA
ENDBRANCH   2   3
ENDBRANCH   1   2
BRANCH   1   6
ATOM      6  C   UNL     1      20.635  24.973  19.328  1.00  0.00     0.000 C 
BRANCH   6   7
ATOM      7  C   UNL     1      20.610  24.574  17.848  1.00  0.00    -0.003 C 
ATOM      8  C   UNL     1      21.341  23.255  17.620  1.00  0.00     0.004 C 
ENDBRANCH   6   7
ENDBRANCH   1   6
TORSDOF 4
ENDMDL
MODEL 5
REMARK VINA RESULT:    -3.407     15.232     16.497
REMARK INTER + INTRA:          -4.342
REMARK INTER:                  -4.084
REMARK INTRA:                  -0.258
REMARK UNBOUND:                -0.139
REMARK SMILES CCCCCC(=O)[O-]
REMARK SMILES IDX 4 1 5 2 6 3 7 4 8 5 3 6 2 7 1 8
REMARK H PARENT
REMARK Flexibility Score: inf
ROOT
ATOM      1  C   UNL     1      21.479  22.973  18.394  1.00  0.00     0.006 C 
ENDROOT
BRANCH   1   2
ATOM      2  C   UNL     1      22.392  22.495  19.527  1.00  0.00     0.053 C 
BRANCH   2   3
ATOM      3  C   UNL     1      21.592  22.216  20.761  1.00  0.00     0.041 C 
ATOM      4  O   UNL     1      21.805  22.872  21.815  1.00  0.00    -0.550 OA
ATOM      5  O   UNL     1      20.579  21.266  20.733  1.00  0.00    -0.550 OA
ENDBRANCH   2   3
ENDBRANCH   1   2
BRANCH   1   6
ATOM      6  C   UNL     1      20.983  24.400  18.653  1.00  0.00     0.000 C 
BRANCH   6   7
ATOM      7  C   UNL     1      19.488  24.529  18.336  1.00  0.00    -0.003 C 
ATOM      8  C   UNL     1      18.811  23.163  18.299  1.00  0.00     0.004 C 
ENDBRANCH   6   7
ENDBRANCH   1   6
TORSDOF 4
ENDMDL
MODEL 6
REMARK VINA RESULT:    -3.403     14.513     16.131
REMARK INTER + INTRA:          -4.338
REMARK INTER:                  -4.065
REMARK INTRA:                  -0.273
REMARK UNBOUND:                -0.139
REMARK SMILES CCCCCC(=O)[O-]
REMARK SMILES IDX 4 1 5 2 6 3 7 4 8 5 3 6 2 7 1 8
REMARK H PARENT
REMARK Flexibility Score: inf
ROOT
ATOM      1  C   UNL     1      22.256  22.747  19.723  1.00  0.00     0.006 C 
ENDROOT
BRANCH   1   2
ATOM      2  C   UNL     1      21.540  21.941  20.810  1.00  0.00     0.053 C 
BRANCH   2   3
ATOM      3  C   UNL     1      20.386  22.717  21.363  1.00  0.00     0.041 C 
ATOM      4  O   UNL     1      20.563  23.878  21.817  1.00  0.00    -0.550 OA
ATOM      5  O   UNL     1      19.107  22.176  21.333  1.00  0.00    -0.550 OA
ENDBRANCH   2   3
ENDBRANCH   1   2
BRANCH   1   6
ATOM      6  C   UNL     1      21.430  22.785  18.432  1.00  0.00     0.000 C 
BRANCH   6   7
ATOM      7  C   UNL     1      21.081  24.227  18.044  1.00  0.00    -0.003 C 
ATOM      8  C   UNL     1      19.593  24.504  18.229  1.00  0.00     0.004 C 
ENDBRANCH   6   7
ENDBRANCH   1   6
TORSDOF 4
ENDMDL
MODEL 7
REMARK VINA RESULT:    -3.358     14.309     16.161
REMARK INTER + INTRA:          -4.282
REMARK INTER:                  -4.025
REMARK INTRA:                  -0.257
REMARK UNBOUND:                -0.139
REMARK SMILES CCCCCC(=O)[O-]
REMARK SMILES IDX 4 1 5 2 6 3 7 4 8 5 3 6 2 7 1 8
REMARK H PARENT
REMARK Flexibility Score: inf
ROOT
ATOM      1  C   UNL     1      19.702  24.639  19.213  1.00  0.00     0.006 C 
ENDROOT
BRANCH   1   2
ATOM      2  C   UNL     1      19.996  24.945  20.684  1.00  0.00     0.053 C 
BRANCH   2   3
ATOM      3  C   UNL     1      19.967  23.689  21.496  1.00  0.00     0.041 C 
ATOM      4  O   UNL     1      18.950  23.399  22.179  1.00  0.00    -0.550 OA
ATOM      5  O   UNL     1      21.046  22.813  21.460  1.00  0.00    -0.550 OA
ENDBRANCH   2   3
ENDBRANCH   1   2
BRANCH   1   6
ATOM      6  C   UNL     1      20.993  24.624  18.386  1.00  0.00     0.000 C 
BRANCH   6   7
ATOM      7  C   UNL     1      21.315  23.208  17.895  1.00  0.00    -0.003 C 
ATOM      8  C   UNL     1      20.098  22.295  18.004  1.00  0.00     0.004 C 
ENDBRANCH   6   7
ENDBRANCH   1   6
TORSDOF 4
ENDMDL
MODEL 8
REMARK VINA RESULT:    -3.251     14.813     15.980
REMARK INTER + INTRA:          -4.150
REMARK INTER:                  -3.890
REMARK INTRA:                  -0.260
REMARK UNBOUND:                -0.139
REMARK SMILES CCCCCC(=O)[O-]
REMARK SMILES IDX 4 1 5 2 6 3 7 4 8 5 3 6 2 7 1 8
REMARK H PARENT
REMARK Flexibility Score: inf
ROOT
ATOM      1  C   UNL     1      20.920  24.221  18.948  1.00  0.00     0.006 C 
ENDROOT
BRANCH   1   2
ATOM      2  C   UNL     1      19.437  24.310  19.317  1.00  0.00     0.053 C 
BRANCH   2   3
ATOM      3  C   UNL     1      19.207  23.776  20.696  1.00  0.00     0.041 C 
ATOM      4  O   UNL     1      18.391  22.834  20.882  1.00  0.00    -0.550 OA
ATOM      5  O   UNL     1      19.929  24.284  21.768  1.00  0.00    -0.550 OA
ENDBRANCH   2   3
ENDBRANCH   1   2
BRANCH   1   6
ATOM      6  C   UNL     1      21.388  22.761  18.901  1.00  0.00     0.000 C 
BRANCH   6   7
ATOM      7  C   UNL     1      22.543  22.521  19.880  1.00  0.00    -0.003 C 
ATOM      8  C   UNL     1      22.126  21.582  21.007  1.00  0.00     0.004 C 
ENDBRANCH   6   7
ENDBRANCH   1   6
TORSDOF 4
ENDMDL
MODEL 9
REMARK VINA RESULT:    -3.202      7.852      8.996
REMARK INTER + INTRA:          -4.090
REMARK INTER:                  -3.908
REMARK INTRA:                  -0.182
REMARK UNBOUND:                -0.139
REMARK SMILES CCCCCC(=O)[O-]
REMARK SMILES IDX 4 1 5 2 6 3 7 4 8 5 3 6 2 7 1 8
REMARK H PARENT
REMARK Flexibility Score: inf
ROOT
ATOM      1  C   UNL     1      21.679  33.227  33.999  1.00  0.00     0.006 C 
ENDROOT
BRANCH   1   2
ATOM      2  C   UNL     1      21.312  34.712  33.925  1.00  0.00     0.053 C 
BRANCH   2   3
ATOM      3  C   UNL     1      19.836  34.878  33.747  1.00  0.00     0.041 C 
ATOM      4  O   UNL     1      19.345  34.987  32.592  1.00  0.00    -0.550 OA
ATOM      5  O   UNL     1      18.996  34.863  34.854  1.00  0.00    -0.550 OA
ENDBRANCH   2   3
ENDBRANCH   1   2
BRANCH   1   6
ATOM      6  C   UNL     1      22.448  32.915  35.289  1.00  0.00     0.000 C 
BRANCH   6   7
ATOM      7  C   UNL     1      21.734  31.832  36.107  1.00  0.00    -0.003 C 
ATOM      8  C   UNL     1      20.534  32.406  36.853  1.00  0.00     0.004 C 
ENDBRANCH   6   7
ENDBRANCH   1   6
TORSDOF 4
ENDMDL
