MODEL 1
REMARK VINA RESULT:    -5.366      0.000      0.000
REMARK INTER + INTRA:          -8.731
REMARK INTER:                  -7.405
REMARK INTRA:                  -1.325
REMARK UNBOUND:                -1.325
REMARK SMILES O=C([O-])[C@H]1O[C@H](Oc2cc3oc(-c4ccccc4)cc(=O)c3c(O)c2O)[C@@H](O)[C@H](O)[C@H]1O
REMARK SMILES IDX 7 1 6 2 4 3 31 4 5 5 29 6 27 7 2 8 1 9 3 10 32 11 30 13
REMARK SMILES IDX 28 15 8 17 25 18 9 19 23 20 10 21 22 22 11 23 20 24 12 25
REMARK SMILES IDX 19 26 21 27 26 28 24 30 13 32 14 33 18 34 15 35 17 36 16 37
REMARK H PARENT 32 12 30 14 28 16 26 29 24 31
REMARK Flexibility Score: inf
ROOT
ATOM      1  O   UNL     1       7.793  10.536   7.173  1.00  0.00    -0.458 OA
ENDROOT
BRANCH   1   2
ATOM      2  C   UNL     1       8.065  11.726   7.924  1.00  0.00     0.339 C 
ATOM      3  C   UNL     1       5.784  12.261   8.093  1.00  0.00     0.199 C 
ATOM      4  C   UNL     1       5.742  12.062   9.621  1.00  0.00     0.180 C 
ATOM      5  O   UNL     1       7.066  12.705   7.674  1.00  0.00    -0.328 OA
ATOM      6  C   UNL     1       6.826  11.048  10.041  1.00  0.00     0.181 C 
ATOM      7  C   UNL     1       8.192  11.431   9.437  1.00  0.00     0.214 C 
BRANCH   3   8
ATOM      8  C   UNL     1       4.750  13.262   7.669  1.00  0.00     0.073 C 
ATOM      9  O   UNL     1       5.049  14.481   7.555  1.00  0.00    -0.547 OA
ATOM     10  O   UNL     1       3.440  12.856   7.448  1.00  0.00    -0.547 OA
ENDBRANCH   3   8
BRANCH   4  11
ATOM     11  O   UNL     1       5.954  13.292  10.270  1.00  0.00    -0.387 OA
ATOM     12  H   UNL     1       5.983  13.100  11.244  1.00  0.00     0.211 HD
ENDBRANCH   4  11
BRANCH   6  13
ATOM     13  O   UNL     1       6.474   9.757   9.611  1.00  0.00    -0.387 OA
ATOM     14  H   UNL     1       7.054   9.543   8.834  1.00  0.00     0.211 HD
ENDBRANCH   6  13
BRANCH   7  15
ATOM     15  O   UNL     1       8.704  12.571  10.080  1.00  0.00    -0.384 OA
ATOM     16  H   UNL     1       9.675  12.414  10.217  1.00  0.00     0.211 HD
ENDBRANCH   7  15
ENDBRANCH   1   2
BRANCH   1  17
ATOM     17  C   UNL     1       8.737   9.576   6.765  1.00  0.00     0.172 A 
ATOM     18  C   UNL     1       8.535   8.239   7.140  1.00  0.00     0.201 A 
ATOM     19  C   UNL     1       9.865   9.910   6.000  1.00  0.00     0.098 A 
ATOM     20  C   UNL     1       9.447   7.238   6.766  1.00  0.00     0.176 A 
ATOM     21  C   UNL     1      10.764   8.927   5.590  1.00  0.00     0.146 A 
ATOM     22  C   UNL     1      10.563   7.569   5.943  1.00  0.00     0.111 A 
ATOM     23  O   UNL     1      11.808   9.292   4.853  1.00  0.00    -0.456 OA
ATOM     24  C   UNL     1      11.485   6.629   5.421  1.00  0.00     0.197 A 
ATOM     25  C   UNL     1      12.709   8.437   4.383  1.00  0.00     0.138 A 
ATOM     26  C   UNL     1      12.567   7.070   4.658  1.00  0.00     0.100 A 
ATOM     27  O   UNL     1      11.352   5.392   5.599  1.00  0.00    -0.289 OA
BRANCH  18  28
ATOM     28  O   UNL     1       7.429   7.881   7.915  1.00  0.00    -0.502 OA
ATOM     29  H   UNL     1       7.227   8.317   8.808  1.00  0.00     0.293 HD
ENDBRANCH  18  28
BRANCH  20  30
ATOM     30  O   UNL     1       9.203   5.953   7.263  1.00  0.00    -0.504 OA
ATOM     31  H   UNL     1       8.312   5.624   7.599  1.00  0.00     0.293 HD
ENDBRANCH  20  30
BRANCH  25  32
ATOM     32  C   UNL     1      13.843   8.964   3.582  1.00  0.00     0.017 A 
ATOM     33  C   UNL     1      15.093   9.255   4.167  1.00  0.00     0.012 A 
ATOM     34  C   UNL     1      13.684   9.150   2.196  1.00  0.00     0.012 A 
ATOM     35  C   UNL     1      16.144   9.742   3.384  1.00  0.00     0.001 A 
ATOM     36  C   UNL     1      14.739   9.638   1.420  1.00  0.00     0.001 A 
ATOM     37  C   UNL     1      15.967   9.937   2.013  1.00  0.00     0.000 A 
ENDBRANCH  25  32
ENDBRANCH   1  17
TORSDOF 9
ENDMDL
MODEL 2
REMARK VINA RESULT:    -5.300      1.624      1.867
REMARK INTER + INTRA:          -8.638
REMARK INTER:                  -7.546
REMARK INTRA:                  -1.092
REMARK UNBOUND:                -1.325
REMARK SMILES O=C([O-])[C@H]1O[C@H](Oc2cc3oc(-c4ccccc4)cc(=O)c3c(O)c2O)[C@@H](O)[C@H](O)[C@H]1O
REMARK SMILES IDX 7 1 6 2 4 3 31 4 5 5 29 6 27 7 2 8 1 9 3 10 32 11 30 13
REMARK SMILES IDX 28 15 8 17 25 18 9 19 23 20 10 21 22 22 11 23 20 24 12 25
REMARK SMILES IDX 19 26 21 27 26 28 24 30 13 32 14 33 18 34 15 35 17 36 16 37
REMARK H PARENT 32 12 30 14 28 16 26 29 24 31
REMARK Flexibility Score: inf
ROOT
ATOM      1  O   UNL     1       8.638   9.548   8.059  1.00  0.00    -0.458 OA
ENDROOT
BRANCH   1   2
ATOM      2  C   UNL     1       9.324  10.480   8.904  1.00  0.00     0.339 C 
ATOM      3  C   UNL     1       7.803  12.200   8.412  1.00  0.00     0.199 C 
ATOM      4  C   UNL     1       7.252  12.268   9.851  1.00  0.00     0.180 C 
ATOM      5  O   UNL     1       9.165  11.802   8.408  1.00  0.00    -0.328 OA
ATOM      6  C   UNL     1       7.413  10.893  10.532  1.00  0.00     0.181 C 
ATOM      7  C   UNL     1       8.856  10.373  10.374  1.00  0.00     0.214 C 
BRANCH   3   8
ATOM      8  C   UNL     1       7.676  13.537   7.742  1.00  0.00     0.073 C 
ATOM      9  O   UNL     1       8.588  13.962   6.984  1.00  0.00    -0.547 OA
ATOM     10  O   UNL     1       6.570  14.338   7.997  1.00  0.00    -0.547 OA
ENDBRANCH   3   8
BRANCH   4  11
ATOM     11  O   UNL     1       7.942  13.252  10.582  1.00  0.00    -0.387 OA
ATOM     12  H   UNL     1       7.299  13.990  10.747  1.00  0.00     0.211 HD
ENDBRANCH   4  11
BRANCH   6  13
ATOM     13  O   UNL     1       6.520   9.966   9.966  1.00  0.00    -0.387 OA
ATOM     14  H   UNL     1       6.880   9.728   9.071  1.00  0.00     0.211 HD
ENDBRANCH   6  13
BRANCH   7  15
ATOM     15  O   UNL     1       9.731  11.117  11.184  1.00  0.00    -0.384 OA
ATOM     16  H   UNL     1      10.611  10.657  11.156  1.00  0.00     0.211 HD
ENDBRANCH   7  15
ENDBRANCH   1   2
BRANCH   1  17
ATOM     17  C   UNL     1       9.136   8.971   6.877  1.00  0.00     0.172 A 
ATOM     18  C   UNL     1       8.327   8.057   6.186  1.00  0.00     0.201 A 
ATOM     19  C   UNL     1      10.409   9.277   6.372  1.00  0.00     0.098 A 
ATOM     20  C   UNL     1       8.775   7.445   5.004  1.00  0.00     0.176 A 
ATOM     21  C   UNL     1      10.859   8.706   5.182  1.00  0.00     0.146 A 
ATOM     22  C   UNL     1      10.045   7.798   4.460  1.00  0.00     0.111 A 
ATOM     23  O   UNL     1      12.066   9.041   4.737  1.00  0.00    -0.456 OA
ATOM     24  C   UNL     1      10.552   7.325   3.226  1.00  0.00     0.197 A 
ATOM     25  C   UNL     1      12.582   8.584   3.601  1.00  0.00     0.138 A 
ATOM     26  C   UNL     1      11.829   7.706   2.810  1.00  0.00     0.100 A 
ATOM     27  O   UNL     1       9.878   6.585   2.465  1.00  0.00    -0.289 OA
BRANCH  18  28
ATOM     28  O   UNL     1       7.062   7.721   6.675  1.00  0.00    -0.502 OA
ATOM     29  H   UNL     1       6.762   6.760   6.794  1.00  0.00     0.293 HD
ENDBRANCH  18  28
BRANCH  20  30
ATOM     30  O   UNL     1       7.929   6.484   4.438  1.00  0.00    -0.504 OA
ATOM     31  H   UNL     1       6.941   6.406   4.620  1.00  0.00     0.293 HD
ENDBRANCH  20  30
BRANCH  25  32
ATOM     32  C   UNL     1      13.948   9.017   3.213  1.00  0.00     0.017 A 
ATOM     33  C   UNL     1      15.011   9.041   4.139  1.00  0.00     0.012 A 
ATOM     34  C   UNL     1      14.203   9.385   1.879  1.00  0.00     0.012 A 
ATOM     35  C   UNL     1      16.289   9.446   3.739  1.00  0.00     0.001 A 
ATOM     36  C   UNL     1      15.483   9.790   1.486  1.00  0.00     0.001 A 
ATOM     37  C   UNL     1      16.524   9.824   2.415  1.00  0.00     0.000 A 
ENDBRANCH  25  32
ENDBRANCH   1  17
TORSDOF 9
ENDMDL
MODEL 3
REMARK VINA RESULT:    -5.277      2.979      8.277
REMARK INTER + INTRA:          -8.607
REMARK INTER:                  -7.531
REMARK INTRA:                  -1.076
REMARK UNBOUND:                -1.325
REMARK SMILES O=C([O-])[C@H]1O[C@H](Oc2cc3oc(-c4ccccc4)cc(=O)c3c(O)c2O)[C@@H](O)[C@H](O)[C@H]1O
REMARK SMILES IDX 7 1 6 2 4 3 31 4 5 5 29 6 27 7 2 8 1 9 3 10 32 11 30 13
REMARK SMILES IDX 28 15 8 17 25 18 9 19 23 20 10 21 22 22 11 23 20 24 12 25
REMARK SMILES IDX 19 26 21 27 26 28 24 30 13 32 14 33 18 34 15 35 17 36 16 37
REMARK H PARENT 32 12 30 14 28 16 26 29 24 31
REMARK Flexibility Score: inf
ROOT
ATOM      1  O   UNL     1      11.094   7.770   3.919  1.00  0.00    -0.458 OA
ENDROOT
BRANCH   1   2
ATOM      2  C   UNL     1      10.691   6.683   3.075  1.00  0.00     0.339 C 
ATOM      3  C   UNL     1       9.263   8.058   1.817  1.00  0.00     0.199 C 
ATOM      4  C   UNL     1      10.096   7.923   0.527  1.00  0.00     0.180 C 
ATOM      5  O   UNL     1       9.364   6.886   2.612  1.00  0.00    -0.328 OA
ATOM      6  C   UNL     1      11.569   7.644   0.889  1.00  0.00     0.181 C 
ATOM      7  C   UNL     1      11.671   6.481   1.896  1.00  0.00     0.214 C 
BRANCH   3   8
ATOM      8  C   UNL     1       7.821   8.306   1.482  1.00  0.00     0.073 C 
ATOM      9  O   UNL     1       6.907   7.696   2.099  1.00  0.00    -0.547 OA
ATOM     10  O   UNL     1       7.488   9.176   0.452  1.00  0.00    -0.547 OA
ENDBRANCH   3   8
BRANCH   4  11
ATOM     11  O   UNL     1       9.587   6.877  -0.264  1.00  0.00    -0.387 OA
ATOM     12  H   UNL     1       9.061   7.298  -0.994  1.00  0.00     0.211 HD
ENDBRANCH   4  11
BRANCH   6  13
ATOM     13  O   UNL     1      12.156   8.794   1.446  1.00  0.00    -0.387 OA
ATOM     14  H   UNL     1      11.816   8.870   2.376  1.00  0.00     0.211 HD
ENDBRANCH   6  13
BRANCH   7  15
ATOM     15  O   UNL     1      11.373   5.263   1.262  1.00  0.00    -0.384 OA
ATOM     16  H   UNL     1      11.708   4.539   1.854  1.00  0.00     0.211 HD
ENDBRANCH   7  15
ENDBRANCH   1   2
BRANCH   1  17
ATOM     17  C   UNL     1      10.548   8.097   5.174  1.00  0.00     0.172 A 
ATOM     18  C   UNL     1      11.063   7.461   6.313  1.00  0.00     0.201 A 
ATOM     19  C   UNL     1       9.512   9.031   5.320  1.00  0.00     0.098 A 
ATOM     20  C   UNL     1      10.553   7.743   7.591  1.00  0.00     0.176 A 
ATOM     21  C   UNL     1       9.015   9.351   6.583  1.00  0.00     0.146 A 
ATOM     22  C   UNL     1       9.539   8.733   7.746  1.00  0.00     0.111 A 
ATOM     23  O   UNL     1       8.044  10.255   6.670  1.00  0.00    -0.456 OA
ATOM     24  C   UNL     1       9.026   9.173   8.990  1.00  0.00     0.197 A 
ATOM     25  C   UNL     1       7.518  10.658   7.821  1.00  0.00     0.138 A 
ATOM     26  C   UNL     1       8.002  10.121   9.021  1.00  0.00     0.100 A 
ATOM     27  O   UNL     1       9.480   8.755  10.086  1.00  0.00    -0.289 OA
BRANCH  18  28
ATOM     28  O   UNL     1      12.084   6.514   6.194  1.00  0.00    -0.502 OA
ATOM     29  H   UNL     1      12.628   6.199   6.990  1.00  0.00     0.293 HD
ENDBRANCH  18  28
BRANCH  20  30
ATOM     30  O   UNL     1      11.073   6.993   8.651  1.00  0.00    -0.504 OA
ATOM     31  H   UNL     1      10.994   5.992   8.744  1.00  0.00     0.293 HD
ENDBRANCH  20  30
BRANCH  25  32
ATOM     32  C   UNL     1       6.426  11.664   7.794  1.00  0.00     0.017 A 
ATOM     33  C   UNL     1       6.693  13.049   7.772  1.00  0.00     0.012 A 
ATOM     34  C   UNL     1       5.088  11.231   7.756  1.00  0.00     0.012 A 
ATOM     35  C   UNL     1       5.643  13.971   7.737  1.00  0.00     0.001 A 
ATOM     36  C   UNL     1       4.042  12.159   7.723  1.00  0.00     0.001 A 
ATOM     37  C   UNL     1       4.318  13.527   7.717  1.00  0.00     0.000 A 
ENDBRANCH  25  32
ENDBRANCH   1  17
TORSDOF 9
ENDMDL
MODEL 4
REMARK VINA RESULT:    -5.256      4.647      8.068
REMARK INTER + INTRA:          -8.578
REMARK INTER:                  -7.424
REMARK INTRA:                  -1.154
REMARK UNBOUND:                -1.325
REMARK SMILES O=C([O-])[C@H]1O[C@H](Oc2cc3oc(-c4ccccc4)cc(=O)c3c(O)c2O)[C@@H](O)[C@H](O)[C@H]1O
REMARK SMILES IDX 7 1 6 2 4 3 31 4 5 5 29 6 27 7 2 8 1 9 3 10 32 11 30 13
REMARK SMILES IDX 28 15 8 17 25 18 9 19 23 20 10 21 22 22 11 23 20 24 12 25
REMARK SMILES IDX 19 26 21 27 26 28 24 30 13 32 14 33 18 34 15 35 17 36 16 37
REMARK H PARENT 32 12 30 14 28 16 26 29 24 31
REMARK Flexibility Score: inf
ROOT
ATOM      1  O   UNL     1       8.506  14.595  13.638  1.00  0.00    -0.458 OA
ENDROOT
BRANCH   1   2
ATOM      2  C   UNL     1       9.897  14.750  13.947  1.00  0.00     0.339 C 
ATOM      3  C   UNL     1       9.870  17.032  13.396  1.00  0.00     0.199 C 
ATOM      4  C   UNL     1      10.144  17.493  14.841  1.00  0.00     0.180 C 
ATOM      5  O   UNL     1      10.469  15.771  13.142  1.00  0.00    -0.328 OA
ATOM      6  C   UNL     1       9.612  16.436  15.831  1.00  0.00     0.181 C 
ATOM      7  C   UNL     1      10.121  15.031  15.451  1.00  0.00     0.214 C 
BRANCH   3   8
ATOM      8  C   UNL     1      10.401  18.039  12.418  1.00  0.00     0.073 C 
ATOM      9  O   UNL     1       9.633  18.890  11.895  1.00  0.00    -0.547 OA
ATOM     10  O   UNL     1      11.739  18.004  12.045  1.00  0.00    -0.547 OA
ENDBRANCH   3   8
BRANCH   4  11
ATOM     11  O   UNL     1      11.525  17.680  15.030  1.00  0.00    -0.387 OA
ATOM     12  H   UNL     1      11.687  18.660  15.015  1.00  0.00     0.211 HD
ENDBRANCH   4  11
BRANCH   6  13
ATOM     13  O   UNL     1       8.207  16.437  15.831  1.00  0.00    -0.387 OA
ATOM     14  H   UNL     1       7.919  17.104  16.509  1.00  0.00     0.211 HD
ENDBRANCH   6  13
BRANCH   7  15
ATOM     15  O   UNL     1      11.493  14.919  15.734  1.00  0.00    -0.384 OA
ATOM     16  H   UNL     1      11.892  15.817  15.589  1.00  0.00     0.211 HD
ENDBRANCH   7  15
ENDBRANCH   1   2
BRANCH   1  17
ATOM     17  C   UNL     1       7.966  14.206  12.398  1.00  0.00     0.172 A 
ATOM     18  C   UNL     1       6.797  14.838  11.950  1.00  0.00     0.201 A 
ATOM     19  C   UNL     1       8.556  13.212  11.602  1.00  0.00     0.098 A 
ATOM     20  C   UNL     1       6.210  14.486  10.724  1.00  0.00     0.176 A 
ATOM     21  C   UNL     1       8.008  12.872  10.366  1.00  0.00     0.146 A 
ATOM     22  C   UNL     1       6.839  13.516   9.890  1.00  0.00     0.111 A 
ATOM     23  O   UNL     1       8.614  11.935   9.643  1.00  0.00    -0.456 OA
ATOM     24  C   UNL     1       6.396  13.160   8.593  1.00  0.00     0.197 A 
ATOM     25  C   UNL     1       8.198  11.555   8.440  1.00  0.00     0.138 A 
ATOM     26  C   UNL     1       7.067  12.166   7.880  1.00  0.00     0.100 A 
ATOM     27  O   UNL     1       5.422  13.731   8.039  1.00  0.00    -0.289 OA
BRANCH  18  28
ATOM     28  O   UNL     1       6.180  15.820  12.730  1.00  0.00    -0.502 OA
ATOM     29  H   UNL     1       6.637  16.246  13.528  1.00  0.00     0.293 HD
ENDBRANCH  18  28
BRANCH  20  30
ATOM     30  O   UNL     1       4.999  15.112  10.408  1.00  0.00    -0.504 OA
ATOM     31  H   UNL     1       4.903  16.075  10.125  1.00  0.00     0.293 HD
ENDBRANCH  20  30
BRANCH  25  32
ATOM     32  C   UNL     1       8.947  10.487   7.730  1.00  0.00     0.017 A 
ATOM     33  C   UNL     1       9.400  10.653   6.405  1.00  0.00     0.012 A 
ATOM     34  C   UNL     1       9.243   9.287   8.403  1.00  0.00     0.012 A 
ATOM     35  C   UNL     1      10.111   9.631   5.768  1.00  0.00     0.001 A 
ATOM     36  C   UNL     1       9.953   8.269   7.759  1.00  0.00     0.001 A 
ATOM     37  C   UNL     1      10.384   8.439   6.442  1.00  0.00     0.000 A 
ENDBRANCH  25  32
ENDBRANCH   1  17
TORSDOF 9
ENDMDL
MODEL 5
REMARK VINA RESULT:    -5.154      2.587      8.969
REMARK INTER + INTRA:          -8.437
REMARK INTER:                  -7.277
REMARK INTRA:                  -1.160
REMARK UNBOUND:                -1.325
REMARK SMILES O=C([O-])[C@H]1O[C@H](Oc2cc3oc(-c4ccccc4)cc(=O)c3c(O)c2O)[C@@H](O)[C@H](O)[C@H]1O
REMARK SMILES IDX 7 1 6 2 4 3 31 4 5 5 29 6 27 7 2 8 1 9 3 10 32 11 30 13
REMARK SMILES IDX 28 15 8 17 25 18 9 19 23 20 10 21 22 22 11 23 20 24 12 25
REMARK SMILES IDX 19 26 21 27 26 28 24 30 13 32 14 33 18 34 15 35 17 36 16 37
REMARK H PARENT 32 12 30 14 28 16 26 29 24 31
REMARK Flexibility Score: inf
ROOT
ATOM      1  O   UNL     1      12.385   7.983   4.153  1.00  0.00    -0.458 OA
ENDROOT
BRANCH   1   2
ATOM      2  C   UNL     1      13.350   8.942   3.701  1.00  0.00     0.339 C 
ATOM      3  C   UNL     1      15.152   7.575   4.331  1.00  0.00     0.199 C 
ATOM      4  C   UNL     1      15.628   7.353   2.882  1.00  0.00     0.180 C 
ATOM      5  O   UNL     1      14.538   8.846   4.475  1.00  0.00    -0.328 OA
ATOM      6  C   UNL     1      14.429   7.484   1.918  1.00  0.00     0.181 C 
ATOM      7  C   UNL     1      13.650   8.785   2.193  1.00  0.00     0.214 C 
BRANCH   3   8
ATOM      8  C   UNL     1      16.311   7.475   5.280  1.00  0.00     0.073 C 
ATOM      9  O   UNL     1      17.090   8.452   5.443  1.00  0.00    -0.547 OA
ATOM     10  O   UNL     1      16.559   6.283   5.948  1.00  0.00    -0.547 OA
ENDBRANCH   3   8
BRANCH   4  11
ATOM     11  O   UNL     1      16.616   8.298   2.552  1.00  0.00    -0.387 OA
ATOM     12  H   UNL     1      16.358   8.691   1.677  1.00  0.00     0.211 HD
ENDBRANCH   4  11
BRANCH   6  13
ATOM     13  O   UNL     1      13.566   6.385   2.069  1.00  0.00    -0.387 OA
ATOM     14  H   UNL     1      13.006   6.343   1.250  1.00  0.00     0.211 HD
ENDBRANCH   6  13
BRANCH   7  15
ATOM     15  O   UNL     1      14.394   9.896   1.760  1.00  0.00    -0.384 OA
ATOM     16  H   UNL     1      13.766  10.494   1.275  1.00  0.00     0.211 HD
ENDBRANCH   7  15
ENDBRANCH   1   2
BRANCH   1  17
ATOM     17  C   UNL     1      11.583   8.086   5.304  1.00  0.00     0.172 A 
ATOM     18  C   UNL     1      11.775   7.157   6.338  1.00  0.00     0.201 A 
ATOM     19  C   UNL     1      10.605   9.081   5.450  1.00  0.00     0.098 A 
ATOM     20  C   UNL     1      11.000   7.208   7.508  1.00  0.00     0.176 A 
ATOM     21  C   UNL     1       9.848   9.170   6.617  1.00  0.00     0.146 A 
ATOM     22  C   UNL     1      10.044   8.252   7.680  1.00  0.00     0.111 A 
ATOM     23  O   UNL     1       8.944  10.140   6.713  1.00  0.00    -0.456 OA
ATOM     24  C   UNL     1       9.284   8.462   8.855  1.00  0.00     0.197 A 
ATOM     25  C   UNL     1       8.191  10.337   7.790  1.00  0.00     0.138 A 
ATOM     26  C   UNL     1       8.345   9.494   8.898  1.00  0.00     0.100 A 
ATOM     27  O   UNL     1       9.441   7.761   9.888  1.00  0.00    -0.289 OA
BRANCH  18  28
ATOM     28  O   UNL     1      12.732   6.147   6.212  1.00  0.00    -0.502 OA
ATOM     29  H   UNL     1      12.481   5.167   6.145  1.00  0.00     0.293 HD
ENDBRANCH  18  28
BRANCH  20  30
ATOM     30  O   UNL     1      11.208   6.186   8.440  1.00  0.00    -0.504 OA
ATOM     31  H   UNL     1      10.504   5.531   8.746  1.00  0.00     0.293 HD
ENDBRANCH  20  30
BRANCH  25  32
ATOM     32  C   UNL     1       7.203  11.445   7.776  1.00  0.00     0.017 A 
ATOM     33  C   UNL     1       7.605  12.797   7.757  1.00  0.00     0.012 A 
ATOM     34  C   UNL     1       5.828  11.147   7.750  1.00  0.00     0.012 A 
ATOM     35  C   UNL     1       6.650  13.818   7.736  1.00  0.00     0.001 A 
ATOM     36  C   UNL     1       4.879  12.172   7.730  1.00  0.00     0.001 A 
ATOM     37  C   UNL     1       5.288  13.507   7.726  1.00  0.00     0.000 A 
ENDBRANCH  25  32
ENDBRANCH   1  17
TORSDOF 9
ENDMDL
MODEL 6
REMARK VINA RESULT:    -5.128      2.427      9.061
REMARK INTER + INTRA:          -8.401
REMARK INTER:                  -7.011
REMARK INTRA:                  -1.390
REMARK UNBOUND:                -1.325
REMARK SMILES O=C([O-])[C@H]1O[C@H](Oc2cc3oc(-c4ccccc4)cc(=O)c3c(O)c2O)[C@@H](O)[C@H](O)[C@H]1O
REMARK SMILES IDX 7 1 6 2 4 3 31 4 5 5 29 6 27 7 2 8 1 9 3 10 32 11 30 13
REMARK SMILES IDX 28 15 8 17 25 18 9 19 23 20 10 21 22 22 11 23 20 24 12 25
REMARK SMILES IDX 19 26 21 27 26 28 24 30 13 32 14 33 18 34 15 35 17 36 16 37
REMARK H PARENT 32 12 30 14 28 16 26 29 24 31
REMARK Flexibility Score: inf
ROOT
ATOM      1  O   UNL     1      11.891   8.171   4.350  1.00  0.00    -0.458 OA
ENDROOT
BRANCH   1   2
ATOM      2  C   UNL     1      13.195   8.728   4.138  1.00  0.00     0.339 C 
ATOM      3  C   UNL     1      14.148   6.614   3.766  1.00  0.00     0.199 C 
ATOM      4  C   UNL     1      14.474   6.904   2.287  1.00  0.00     0.180 C 
ATOM      5  O   UNL     1      14.196   7.804   4.539  1.00  0.00    -0.328 OA
ATOM      6  C   UNL     1      13.480   7.947   1.733  1.00  0.00     0.181 C 
ATOM      7  C   UNL     1      13.396   9.169   2.669  1.00  0.00     0.214 C 
BRANCH   3   8
ATOM      8  C   UNL     1      15.120   5.619   4.327  1.00  0.00     0.073 C 
ATOM      9  O   UNL     1      15.838   4.923   3.561  1.00  0.00    -0.547 OA
ATOM     10  O   UNL     1      15.197   5.423   5.701  1.00  0.00    -0.547 OA
ENDBRANCH   3   8
BRANCH   4  11
ATOM     11  O   UNL     1      15.791   7.385   2.172  1.00  0.00    -0.387 OA
ATOM     12  H   UNL     1      16.336   6.641   1.803  1.00  0.00     0.211 HD
ENDBRANCH   4  11
BRANCH   6  13
ATOM     13  O   UNL     1      12.203   7.375   1.600  1.00  0.00    -0.387 OA
ATOM     14  H   UNL     1      12.275   6.433   1.909  1.00  0.00     0.211 HD
ENDBRANCH   6  13
BRANCH   7  15
ATOM     15  O   UNL     1      14.575   9.929   2.582  1.00  0.00    -0.384 OA
ATOM     16  H   UNL     1      14.326  10.804   2.182  1.00  0.00     0.211 HD
ENDBRANCH   7  15
ENDBRANCH   1   2
BRANCH   1  17
ATOM     17  C   UNL     1      11.100   8.318   5.503  1.00  0.00     0.172 A 
ATOM     18  C   UNL     1      11.350   7.477   6.598  1.00  0.00     0.201 A 
ATOM     19  C   UNL     1      10.075   9.272   5.593  1.00  0.00     0.098 A 
ATOM     20  C   UNL     1      10.587   7.575   7.773  1.00  0.00     0.176 A 
ATOM     21  C   UNL     1       9.329   9.409   6.763  1.00  0.00     0.146 A 
ATOM     22  C   UNL     1       9.584   8.581   7.885  1.00  0.00     0.111 A 
ATOM     23  O   UNL     1       8.380  10.339   6.803  1.00  0.00    -0.456 OA
ATOM     24  C   UNL     1       8.828   8.840   9.055  1.00  0.00     0.197 A 
ATOM     25  C   UNL     1       7.632  10.577   7.874  1.00  0.00     0.138 A 
ATOM     26  C   UNL     1       7.841   9.825   9.038  1.00  0.00     0.100 A 
ATOM     27  O   UNL     1       9.033   8.224  10.132  1.00  0.00    -0.289 OA
BRANCH  18  28
ATOM     28  O   UNL     1      12.353   6.507   6.530  1.00  0.00    -0.502 OA
ATOM     29  H   UNL     1      12.470   5.796   7.243  1.00  0.00     0.293 HD
ENDBRANCH  18  28
BRANCH  20  30
ATOM     30  O   UNL     1      10.857   6.634   8.773  1.00  0.00    -0.504 OA
ATOM     31  H   UNL     1      10.182   5.991   9.158  1.00  0.00     0.293 HD
ENDBRANCH  20  30
BRANCH  25  32
ATOM     32  C   UNL     1       6.591  11.633   7.797  1.00  0.00     0.017 A 
ATOM     33  C   UNL     1       5.216  11.320   7.763  1.00  0.00     0.012 A 
ATOM     34  C   UNL     1       6.978  12.986   7.789  1.00  0.00     0.012 A 
ATOM     35  C   UNL     1       4.260  12.338   7.699  1.00  0.00     0.001 A 
ATOM     36  C   UNL     1       6.017  13.999   7.724  1.00  0.00     0.001 A 
ATOM     37  C   UNL     1       4.659  13.677   7.676  1.00  0.00     0.000 A 
ENDBRANCH  25  32
ENDBRANCH   1  17
TORSDOF 9
ENDMDL
MODEL 7
REMARK VINA RESULT:    -5.088      2.358      8.823
REMARK INTER + INTRA:          -8.347
REMARK INTER:                  -6.968
REMARK INTRA:                  -1.379
REMARK UNBOUND:                -1.325
REMARK SMILES O=C([O-])[C@H]1O[C@H](Oc2cc3oc(-c4ccccc4)cc(=O)c3c(O)c2O)[C@@H](O)[C@H](O)[C@H]1O
REMARK SMILES IDX 7 1 6 2 4 3 31 4 5 5 29 6 27 7 2 8 1 9 3 10 32 11 30 13
REMARK SMILES IDX 28 15 8 17 25 18 9 19 23 20 10 21 22 22 11 23 20 24 12 25
REMARK SMILES IDX 19 26 21 27 26 28 24 30 13 32 14 33 18 34 15 35 17 36 16 37
REMARK H PARENT 32 12 30 14 28 16 26 29 24 31
REMARK Flexibility Score: inf
ROOT
ATOM      1  O   UNL     1      12.251   8.105   5.221  1.00  0.00    -0.458 OA
ENDROOT
BRANCH   1   2
ATOM      2  C   UNL     1      12.599   8.792   4.013  1.00  0.00     0.339 C 
ATOM      3  C   UNL     1      14.865   8.215   4.217  1.00  0.00     0.199 C 
ATOM      4  C   UNL     1      14.860   7.319   2.962  1.00  0.00     0.180 C 
ATOM      5  O   UNL     1      13.932   9.276   4.088  1.00  0.00    -0.328 OA
ATOM      6  C   UNL     1      13.440   6.762   2.730  1.00  0.00     0.181 C 
ATOM      7  C   UNL     1      12.397   7.897   2.768  1.00  0.00     0.214 C 
BRANCH   3   8
ATOM      8  C   UNL     1      16.235   8.784   4.445  1.00  0.00     0.073 C 
ATOM      9  O   UNL     1      16.943   8.382   5.406  1.00  0.00    -0.547 OA
ATOM     10  O   UNL     1      16.709   9.798   3.622  1.00  0.00    -0.547 OA
ENDBRANCH   3   8
BRANCH   4  11
ATOM     11  O   UNL     1      15.275   8.062   1.843  1.00  0.00    -0.387 OA
ATOM     12  H   UNL     1      14.458   8.272   1.319  1.00  0.00     0.211 HD
ENDBRANCH   4  11
BRANCH   6  13
ATOM     13  O   UNL     1      13.127   5.811   3.717  1.00  0.00    -0.387 OA
ATOM     14  H   UNL     1      12.785   5.007   3.244  1.00  0.00     0.211 HD
ENDBRANCH   6  13
BRANCH   7  15
ATOM     15  O   UNL     1      12.506   8.693   1.614  1.00  0.00    -0.384 OA
ATOM     16  H   UNL     1      13.455   8.651   1.322  1.00  0.00     0.211 HD
ENDBRANCH   7  15
ENDBRANCH   1   2
BRANCH   1  17
ATOM     17  C   UNL     1      10.969   8.027   5.796  1.00  0.00     0.172 A 
ATOM     18  C   UNL     1      10.457   6.762   6.121  1.00  0.00     0.201 A 
ATOM     19  C   UNL     1      10.191   9.166   6.052  1.00  0.00     0.098 A 
ATOM     20  C   UNL     1       9.182   6.623   6.691  1.00  0.00     0.176 A 
ATOM     21  C   UNL     1       8.937   9.054   6.649  1.00  0.00     0.146 A 
ATOM     22  C   UNL     1       8.415   7.784   7.003  1.00  0.00     0.111 A 
ATOM     23  O   UNL     1       8.246  10.164   6.886  1.00  0.00    -0.456 OA
ATOM     24  C   UNL     1       7.166   7.769   7.671  1.00  0.00     0.197 A 
ATOM     25  C   UNL     1       7.056  10.177   7.477  1.00  0.00     0.138 A 
ATOM     26  C   UNL     1       6.482   8.966   7.888  1.00  0.00     0.100 A 
ATOM     27  O   UNL     1       6.653   6.707   8.106  1.00  0.00    -0.289 OA
BRANCH  18  28
ATOM     28  O   UNL     1      11.204   5.609   5.861  1.00  0.00    -0.502 OA
ATOM     29  H   UNL     1      11.047   4.738   6.356  1.00  0.00     0.293 HD
ENDBRANCH  18  28
BRANCH  20  30
ATOM     30  O   UNL     1       8.728   5.316   6.897  1.00  0.00    -0.504 OA
ATOM     31  H   UNL     1       8.805   4.565   6.228  1.00  0.00     0.293 HD
ENDBRANCH  20  30
BRANCH  25  32
ATOM     32  C   UNL     1       6.372  11.479   7.676  1.00  0.00     0.017 A 
ATOM     33  C   UNL     1       7.093  12.683   7.816  1.00  0.00     0.012 A 
ATOM     34  C   UNL     1       4.966  11.525   7.694  1.00  0.00     0.012 A 
ATOM     35  C   UNL     1       6.418  13.895   7.993  1.00  0.00     0.001 A 
ATOM     36  C   UNL     1       4.297  12.740   7.873  1.00  0.00     0.001 A 
ATOM     37  C   UNL     1       5.022  13.924   8.025  1.00  0.00     0.000 A 
ENDBRANCH  25  32
ENDBRANCH   1  17
TORSDOF 9
ENDMDL
MODEL 8
REMARK VINA RESULT:    -4.966      3.337      6.949
REMARK INTER + INTRA:          -8.179
REMARK INTER:                  -7.218
REMARK INTRA:                  -0.961
REMARK UNBOUND:                -1.325
REMARK SMILES O=C([O-])[C@H]1O[C@H](Oc2cc3oc(-c4ccccc4)cc(=O)c3c(O)c2O)[C@@H](O)[C@H](O)[C@H]1O
REMARK SMILES IDX 7 1 6 2 4 3 31 4 5 5 29 6 27 7 2 8 1 9 3 10 32 11 30 13
REMARK SMILES IDX 28 15 8 17 25 18 9 19 23 20 10 21 22 22 11 23 20 24 12 25
REMARK SMILES IDX 19 26 21 27 26 28 24 30 13 32 14 33 18 34 15 35 17 36 16 37
REMARK H PARENT 32 12 30 14 28 16 26 29 24 31
REMARK Flexibility Score: inf
ROOT
ATOM      1  O   UNL     1       4.598  15.058   7.489  1.00  0.00    -0.458 OA
ENDROOT
BRANCH   1   2
ATOM      2  C   UNL     1       3.227  15.226   7.872  1.00  0.00     0.339 C 
ATOM      3  C   UNL     1       3.191  17.457   7.139  1.00  0.00     0.199 C 
ATOM      4  C   UNL     1       2.184  17.179   6.006  1.00  0.00     0.180 C 
ATOM      5  O   UNL     1       2.979  16.577   8.233  1.00  0.00    -0.328 OA
ATOM      6  C   UNL     1       2.312  15.711   5.548  1.00  0.00     0.181 C 
ATOM      7  C   UNL     1       2.261  14.757   6.759  1.00  0.00     0.214 C 
BRANCH   3   8
ATOM      8  C   UNL     1       3.064  18.875   7.613  1.00  0.00     0.073 C 
ATOM      9  O   UNL     1       3.518  19.217   8.737  1.00  0.00    -0.547 OA
ATOM     10  O   UNL     1       2.396  19.810   6.831  1.00  0.00    -0.547 OA
ENDBRANCH   3   8
BRANCH   4  11
ATOM     11  O   UNL     1       0.875  17.432   6.455  1.00  0.00    -0.387 OA
ATOM     12  H   UNL     1       0.804  17.041   7.366  1.00  0.00     0.211 HD
ENDBRANCH   4  11
BRANCH   6  13
ATOM     13  O   UNL     1       3.522  15.523   4.858  1.00  0.00    -0.387 OA
ATOM     14  H   UNL     1       3.327  15.648   3.893  1.00  0.00     0.211 HD
ENDBRANCH   6  13
BRANCH   7  15
ATOM     15  O   UNL     1       0.958  14.706   7.282  1.00  0.00    -0.384 OA
ATOM     16  H   UNL     1       0.911  15.383   8.008  1.00  0.00     0.211 HD
ENDBRANCH   7  15
ENDBRANCH   1   2
BRANCH   1  17
ATOM     17  C   UNL     1       5.568  14.302   8.172  1.00  0.00     0.172 A 
ATOM     18  C   UNL     1       5.794  14.574   9.530  1.00  0.00     0.201 A 
ATOM     19  C   UNL     1       6.311  13.291   7.544  1.00  0.00     0.098 A 
ATOM     20  C   UNL     1       6.753  13.855  10.261  1.00  0.00     0.176 A 
ATOM     21  C   UNL     1       7.244  12.543   8.260  1.00  0.00     0.146 A 
ATOM     22  C   UNL     1       7.468  12.791   9.638  1.00  0.00     0.111 A 
ATOM     23  O   UNL     1       7.911  11.585   7.623  1.00  0.00    -0.456 OA
ATOM     24  C   UNL     1       8.379  11.934  10.302  1.00  0.00     0.197 A 
ATOM     25  C   UNL     1       8.798  10.792   8.213  1.00  0.00     0.138 A 
ATOM     26  C   UNL     1       9.056  10.949   9.581  1.00  0.00     0.100 A 
ATOM     27  O   UNL     1       8.587  12.010  11.540  1.00  0.00    -0.289 OA
BRANCH  18  28
ATOM     28  O   UNL     1       5.079  15.586  10.177  1.00  0.00    -0.502 OA
ATOM     29  H   UNL     1       5.533  16.394  10.588  1.00  0.00     0.293 HD
ENDBRANCH  18  28
BRANCH  20  30
ATOM     30  O   UNL     1       6.964  14.261  11.583  1.00  0.00    -0.504 OA
ATOM     31  H   UNL     1       6.965  15.218  11.901  1.00  0.00     0.293 HD
ENDBRANCH  20  30
BRANCH  25  32
ATOM     32  C   UNL     1       9.493   9.766   7.395  1.00  0.00     0.017 A 
ATOM     33  C   UNL     1       9.802   9.984   6.036  1.00  0.00     0.012 A 
ATOM     34  C   UNL     1       9.885   8.554   7.993  1.00  0.00     0.012 A 
ATOM     35  C   UNL     1      10.465   9.001   5.295  1.00  0.00     0.001 A 
ATOM     36  C   UNL     1      10.547   7.575   7.246  1.00  0.00     0.001 A 
ATOM     37  C   UNL     1      10.834   7.796   5.898  1.00  0.00     0.000 A 
ENDBRANCH  25  32
ENDBRANCH   1  17
TORSDOF 9
ENDMDL
MODEL 9
REMARK VINA RESULT:    -4.952      4.241      8.232
REMARK INTER + INTRA:          -8.159
REMARK INTER:                  -7.064
REMARK INTRA:                  -1.095
REMARK UNBOUND:                -1.325
REMARK SMILES O=C([O-])[C@H]1O[C@H](Oc2cc3oc(-c4ccccc4)cc(=O)c3c(O)c2O)[C@@H](O)[C@H](O)[C@H]1O
REMARK SMILES IDX 7 1 6 2 4 3 31 4 5 5 29 6 27 7 2 8 1 9 3 10 32 11 30 13
REMARK SMILES IDX 28 15 8 17 25 18 9 19 23 20 10 21 22 22 11 23 20 24 12 25
REMARK SMILES IDX 19 26 21 27 26 28 24 30 13 32 14 33 18 34 15 35 17 36 16 37
REMARK H PARENT 32 12 30 14 28 16 26 29 24 31
REMARK Flexibility Score: inf
ROOT
ATOM      1  O   UNL     1       9.093   7.841   2.125  1.00  0.00    -0.458 OA
ENDROOT
BRANCH   1   2
ATOM      2  C   UNL     1       8.220   8.776   1.480  1.00  0.00     0.339 C 
ATOM      3  C   UNL     1       9.100   8.289  -0.642  1.00  0.00     0.199 C 
ATOM      4  C   UNL     1       7.787   7.669  -1.161  1.00  0.00     0.180 C 
ATOM      5  O   UNL     1       8.838   9.304   0.315  1.00  0.00    -0.328 OA
ATOM      6  C   UNL     1       6.982   7.096   0.025  1.00  0.00     0.181 C 
ATOM      7  C   UNL     1       6.848   8.144   1.148  1.00  0.00     0.214 C 
BRANCH   3   8
ATOM      8  C   UNL     1       9.885   8.872  -1.780  1.00  0.00     0.073 C 
ATOM      9  O   UNL     1       9.908   8.299  -2.902  1.00  0.00    -0.547 OA
ATOM     10  O   UNL     1      10.635  10.025  -1.586  1.00  0.00    -0.547 OA
ENDBRANCH   3   8
BRANCH   4  11
ATOM     11  O   UNL     1       7.029   8.645  -1.832  1.00  0.00    -0.387 OA
ATOM     12  H   UNL     1       7.658   9.370  -2.089  1.00  0.00     0.211 HD
ENDBRANCH   4  11
BRANCH   6  13
ATOM     13  O   UNL     1       7.617   5.949   0.532  1.00  0.00    -0.387 OA
ATOM     14  H   UNL     1       8.076   5.512  -0.233  1.00  0.00     0.211 HD
ENDBRANCH   6  13
BRANCH   7  15
ATOM     15  O   UNL     1       5.962   9.162   0.759  1.00  0.00    -0.384 OA
ATOM     16  H   UNL     1       5.842   9.081  -0.224  1.00  0.00     0.211 HD
ENDBRANCH   7  15
ENDBRANCH   1   2
BRANCH   1  17
ATOM     17  C   UNL     1       9.371   7.773   3.502  1.00  0.00     0.172 A 
ATOM     18  C   UNL     1      10.093   6.671   3.985  1.00  0.00     0.201 A 
ATOM     19  C   UNL     1       8.950   8.763   4.402  1.00  0.00     0.098 A 
ATOM     20  C   UNL     1      10.394   6.547   5.351  1.00  0.00     0.176 A 
ATOM     21  C   UNL     1       9.267   8.677   5.757  1.00  0.00     0.146 A 
ATOM     22  C   UNL     1      10.015   7.581   6.257  1.00  0.00     0.111 A 
ATOM     23  O   UNL     1       8.860   9.650   6.566  1.00  0.00    -0.456 OA
ATOM     24  C   UNL     1      10.355   7.613   7.631  1.00  0.00     0.197 A 
ATOM     25  C   UNL     1       9.132   9.685   7.865  1.00  0.00     0.138 A 
ATOM     26  C   UNL     1       9.894   8.657   8.435  1.00  0.00     0.100 A 
ATOM     27  O   UNL     1      11.087   6.738   8.159  1.00  0.00    -0.289 OA
BRANCH  18  28
ATOM     28  O   UNL     1      10.510   5.661   3.114  1.00  0.00    -0.502 OA
ATOM     29  H   UNL     1      10.741   5.843   2.143  1.00  0.00     0.293 HD
ENDBRANCH  18  28
BRANCH  20  30
ATOM     30  O   UNL     1      11.041   5.371   5.745  1.00  0.00    -0.504 OA
ATOM     31  H   UNL     1      11.996   5.317   6.067  1.00  0.00     0.293 HD
ENDBRANCH  20  30
BRANCH  25  32
ATOM     32  C   UNL     1       8.610  10.817   8.673  1.00  0.00     0.017 A 
ATOM     33  C   UNL     1       8.919  10.957  10.041  1.00  0.00     0.012 A 
ATOM     34  C   UNL     1       7.810  11.796   8.055  1.00  0.00     0.012 A 
ATOM     35  C   UNL     1       8.419  12.039  10.772  1.00  0.00     0.001 A 
ATOM     36  C   UNL     1       7.312  12.875   8.792  1.00  0.00     0.001 A 
ATOM     37  C   UNL     1       7.613  12.995  10.150  1.00  0.00     0.000 A 
ENDBRANCH  25  32
ENDBRANCH   1  17
TORSDOF 9
ENDMDL
