MODEL 1
REMARK VINA RESULT:    -4.495      0.000      0.000
REMARK INTER + INTRA:          -5.802
REMARK INTER:                  -5.414
REMARK INTRA:                  -0.388
REMARK UNBOUND:                -0.388
REMARK SMILES Oc1cc(O)c2c(c1)O[C@@H](c1ccc(O)c(O)c1)[C@@H](O)C2
REMARK SMILES IDX 21 1 19 2 10 3 9 4 7 5 8 6 2 7 3 8 4 9 6 10 20 11 11 13
REMARK SMILES IDX 18 14 12 15 16 16 13 17 14 18 17 19 15 21 5 23 1 25
REMARK H PARENT 20 12 17 20 15 22 5 24 1 26
REMARK Flexibility Score: inf
ROOT
ATOM      1  C   UNL     1      10.673  -1.121  18.446  1.00  0.00     0.079 C 
ATOM      2  C   UNL     1       9.854  -2.425  18.466  1.00  0.00     0.164 C 
ATOM      3  C   UNL     1       9.003  -2.478  19.746  1.00  0.00     0.232 C 
ATOM      4  O   UNL     1       8.154  -1.331  19.811  1.00  0.00    -0.482 OA
ATOM      5  C   UNL     1       8.594  -0.061  19.422  1.00  0.00     0.131 A 
ATOM      6  C   UNL     1       7.787   1.048  19.690  1.00  0.00     0.093 A 
ATOM      7  C   UNL     1       8.206   2.329  19.328  1.00  0.00     0.122 A 
ATOM      8  C   UNL     1       9.445   2.505  18.704  1.00  0.00     0.092 A 
ATOM      9  C   UNL     1      10.268   1.406  18.427  1.00  0.00     0.126 A 
ATOM     10  C   UNL     1       9.827   0.101  18.752  1.00  0.00     0.039 A 
ENDROOT
BRANCH   2  11
ATOM     11  O   UNL     1       9.022  -2.485  17.335  1.00  0.00    -0.389 OA
ATOM     12  H   UNL     1       8.087  -2.421  17.663  1.00  0.00     0.211 HD
ENDBRANCH   2  11
BRANCH   3  13
ATOM     13  C   UNL     1       8.185  -3.748  19.816  1.00  0.00    -0.001 A 
ATOM     14  C   UNL     1       8.809  -5.005  19.909  1.00  0.00     0.057 A 
ATOM     15  C   UNL     1       6.784  -3.676  19.851  1.00  0.00     0.012 A 
ATOM     16  C   UNL     1       8.045  -6.173  20.010  1.00  0.00     0.157 A 
ATOM     17  C   UNL     1       6.018  -4.840  19.950  1.00  0.00     0.050 A 
ATOM     18  C   UNL     1       6.642  -6.092  20.027  1.00  0.00     0.157 A 
BRANCH  16  19
ATOM     19  O   UNL     1       8.697  -7.404  20.093  1.00  0.00    -0.504 OA
ATOM     20  H   UNL     1       8.615  -8.002  20.906  1.00  0.00     0.293 HD
ENDBRANCH  16  19
BRANCH  18  21
ATOM     21  O   UNL     1       5.875  -7.253  20.125  1.00  0.00    -0.504 OA
ATOM     22  H   UNL     1       5.714  -7.708  21.016  1.00  0.00     0.293 HD
ENDBRANCH  18  21
ENDBRANCH   3  13
BRANCH   9  23
ATOM     23  O   UNL     1      11.512   1.648  17.843  1.00  0.00    -0.507 OA
ATOM     24  H   UNL     1      11.801   1.245  16.961  1.00  0.00     0.293 HD
ENDBRANCH   9  23
BRANCH   7  25
ATOM     25  O   UNL     1       7.386   3.422  19.602  1.00  0.00    -0.508 OA
ATOM     26  H   UNL     1       6.476   3.307  20.034  1.00  0.00     0.293 HD
ENDBRANCH   7  25
TORSDOF 6
ENDMDL
MODEL 2
REMARK VINA RESULT:    -4.480      2.985      6.346
REMARK INTER + INTRA:          -5.785
REMARK INTER:                  -5.407
REMARK INTRA:                  -0.378
REMARK UNBOUND:                -0.388
REMARK SMILES Oc1cc(O)c2c(c1)O[C@@H](c1ccc(O)c(O)c1)[C@@H](O)C2
REMARK SMILES IDX 21 1 19 2 10 3 9 4 7 5 8 6 2 7 3 8 4 9 6 10 20 11 11 13
REMARK SMILES IDX 18 14 12 15 16 16 13 17 14 18 17 19 15 21 5 23 1 25
REMARK H PARENT 20 12 17 20 15 22 5 24 1 26
REMARK Flexibility Score: inf
ROOT
ATOM      1  C   UNL     1       8.682  -0.794  17.939  1.00  0.00     0.079 C 
ATOM      2  C   UNL     1      10.222  -0.817  17.957  1.00  0.00     0.164 C 
ATOM      3  C   UNL     1      10.712  -1.261  19.346  1.00  0.00     0.232 C 
ATOM      4  O   UNL     1      10.169  -2.543  19.665  1.00  0.00    -0.482 OA
ATOM      5  C   UNL     1       8.852  -2.891  19.343  1.00  0.00     0.131 A 
ATOM      6  C   UNL     1       8.321  -4.080  19.850  1.00  0.00     0.093 A 
ATOM      7  C   UNL     1       7.007  -4.446  19.559  1.00  0.00     0.122 A 
ATOM      8  C   UNL     1       6.214  -3.613  18.762  1.00  0.00     0.092 A 
ATOM      9  C   UNL     1       6.728  -2.418  18.245  1.00  0.00     0.126 A 
ATOM     10  C   UNL     1       8.074  -2.065  18.501  1.00  0.00     0.039 A 
ENDROOT
BRANCH   2  11
ATOM     11  O   UNL     1      10.699  -1.703  16.976  1.00  0.00    -0.389 OA
ATOM     12  H   UNL     1      11.186  -1.156  16.307  1.00  0.00     0.211 HD
ENDBRANCH   2  11
BRANCH   3  13
ATOM     13  C   UNL     1      12.222  -1.292  19.417  1.00  0.00    -0.001 A 
ATOM     14  C   UNL     1      12.906  -2.473  19.752  1.00  0.00     0.057 A 
ATOM     15  C   UNL     1      12.960  -0.145  19.086  1.00  0.00     0.012 A 
ATOM     16  C   UNL     1      14.305  -2.503  19.781  1.00  0.00     0.157 A 
ATOM     17  C   UNL     1      14.357  -0.170  19.115  1.00  0.00     0.050 A 
ATOM     18  C   UNL     1      15.036  -1.345  19.465  1.00  0.00     0.157 A 
BRANCH  16  19
ATOM     19  O   UNL     1      14.951  -3.691  20.125  1.00  0.00    -0.504 OA
ATOM     20  H   UNL     1      15.919  -3.866  19.884  1.00  0.00     0.293 HD
ENDBRANCH  16  19
BRANCH  18  21
ATOM     21  O   UNL     1      16.430  -1.367  19.493  1.00  0.00    -0.504 OA
ATOM     22  H   UNL     1      16.976  -1.451  18.644  1.00  0.00     0.293 HD
ENDBRANCH  18  21
ENDBRANCH   3  13
BRANCH   9  23
ATOM     23  O   UNL     1       5.875  -1.607  17.495  1.00  0.00    -0.507 OA
ATOM     24  H   UNL     1       6.100  -0.656  17.231  1.00  0.00     0.293 HD
ENDBRANCH   9  23
BRANCH   7  25
ATOM     25  O   UNL     1       6.495  -5.636  20.072  1.00  0.00    -0.508 OA
ATOM     26  H   UNL     1       5.502  -5.838  20.052  1.00  0.00     0.293 HD
ENDBRANCH   7  25
TORSDOF 6
ENDMDL
MODEL 3
REMARK VINA RESULT:    -4.214     11.169     14.146
REMARK INTER + INTRA:          -5.463
REMARK INTER:                  -5.223
REMARK INTRA:                  -0.241
REMARK UNBOUND:                -0.388
REMARK SMILES Oc1cc(O)c2c(c1)O[C@@H](c1ccc(O)c(O)c1)[C@@H](O)C2
REMARK SMILES IDX 21 1 19 2 10 3 9 4 7 5 8 6 2 7 3 8 4 9 6 10 20 11 11 13
REMARK SMILES IDX 18 14 12 15 16 16 13 17 14 18 17 19 15 21 5 23 1 25
REMARK H PARENT 20 12 17 20 15 22 5 24 1 26
REMARK Flexibility Score: inf
ROOT
ATOM      1  C   UNL     1      18.482  -8.217  17.800  1.00  0.00     0.079 C 
ATOM      2  C   UNL     1      18.672  -6.697  17.964  1.00  0.00     0.164 C 
ATOM      3  C   UNL     1      19.033  -6.379  19.425  1.00  0.00     0.232 C 
ATOM      4  O   UNL     1      20.212  -7.093  19.799  1.00  0.00    -0.482 OA
ATOM      5  C   UNL     1      20.443  -8.410  19.386  1.00  0.00     0.131 A 
ATOM      6  C   UNL     1      21.513  -9.117  19.941  1.00  0.00     0.093 A 
ATOM      7  C   UNL     1      21.760 -10.437  19.561  1.00  0.00     0.122 A 
ATOM      8  C   UNL     1      20.924 -11.058  18.627  1.00  0.00     0.092 A 
ATOM      9  C   UNL     1      19.847 -10.366  18.060  1.00  0.00     0.126 A 
ATOM     10  C   UNL     1      19.620  -9.014  18.409  1.00  0.00     0.039 A 
ENDROOT
BRANCH   2  11
ATOM     11  O   UNL     1      19.693  -6.248  17.110  1.00  0.00    -0.389 OA
ATOM     12  H   UNL     1      20.252  -7.039  16.889  1.00  0.00     0.211 HD
ENDBRANCH   2  11
BRANCH   3  13
ATOM     13  C   UNL     1      19.221  -4.894  19.638  1.00  0.00    -0.001 A 
ATOM     14  C   UNL     1      20.496  -4.307  19.549  1.00  0.00     0.057 A 
ATOM     15  C   UNL     1      18.106  -4.074  19.868  1.00  0.00     0.012 A 
ATOM     16  C   UNL     1      20.657  -2.926  19.712  1.00  0.00     0.157 A 
ATOM     17  C   UNL     1      18.263  -2.696  20.032  1.00  0.00     0.050 A 
ATOM     18  C   UNL     1      19.536  -2.116  19.959  1.00  0.00     0.157 A 
BRANCH  16  19
ATOM     19  O   UNL     1      21.937  -2.378  19.626  1.00  0.00    -0.504 OA
ATOM     20  H   UNL     1      22.150  -1.451  19.975  1.00  0.00     0.293 HD
ENDBRANCH  16  19
BRANCH  18  21
ATOM     21  O   UNL     1      19.690  -0.740  20.125  1.00  0.00    -0.504 OA
ATOM     22  H   UNL     1      19.795  -0.325  21.043  1.00  0.00     0.293 HD
ENDBRANCH  18  21
ENDBRANCH   3  13
BRANCH   9  23
ATOM     23  O   UNL     1      19.021 -11.053  17.168  1.00  0.00    -0.507 OA
ATOM     24  H   UNL     1      18.704 -10.663  16.290  1.00  0.00     0.293 HD
ENDBRANCH   9  23
BRANCH   7  25
ATOM     25  O   UNL     1      22.833 -11.125  20.123  1.00  0.00    -0.508 OA
ATOM     26  H   UNL     1      23.464 -11.678  19.555  1.00  0.00     0.293 HD
ENDBRANCH   7  25
TORSDOF 6
ENDMDL
MODEL 4
REMARK VINA RESULT:    -4.019      3.308      5.255
REMARK INTER + INTRA:          -5.230
REMARK INTER:                  -5.347
REMARK INTRA:                   0.117
REMARK UNBOUND:                -0.388
REMARK SMILES Oc1cc(O)c2c(c1)O[C@@H](c1ccc(O)c(O)c1)[C@@H](O)C2
REMARK SMILES IDX 21 1 19 2 10 3 9 4 7 5 8 6 2 7 3 8 4 9 6 10 20 11 11 13
REMARK SMILES IDX 18 14 12 15 16 16 13 17 14 18 17 19 15 21 5 23 1 25
REMARK H PARENT 20 12 17 20 15 22 5 24 1 26
REMARK Flexibility Score: inf
ROOT
ATOM      1  C   UNL     1       8.513  -0.911  17.957  1.00  0.00     0.079 C 
ATOM      2  C   UNL     1       9.828  -1.491  18.511  1.00  0.00     0.164 C 
ATOM      3  C   UNL     1      10.972  -0.491  18.269  1.00  0.00     0.232 C 
ATOM      4  O   UNL     1      10.658   0.762  18.878  1.00  0.00    -0.482 OA
ATOM      5  C   UNL     1       9.365   1.296  18.851  1.00  0.00     0.131 A 
ATOM      6  C   UNL     1       9.163   2.606  19.292  1.00  0.00     0.093 A 
ATOM      7  C   UNL     1       7.888   3.172  19.262  1.00  0.00     0.122 A 
ATOM      8  C   UNL     1       6.808   2.425  18.778  1.00  0.00     0.092 A 
ATOM      9  C   UNL     1       6.991   1.111  18.332  1.00  0.00     0.126 A 
ATOM     10  C   UNL     1       8.274   0.519  18.403  1.00  0.00     0.039 A 
ENDROOT
BRANCH   2  11
ATOM     11  O   UNL     1       9.697  -1.743  19.887  1.00  0.00    -0.389 OA
ATOM     12  H   UNL     1       8.801  -2.149  20.020  1.00  0.00     0.211 HD
ENDBRANCH   2  11
BRANCH   3  13
ATOM     13  C   UNL     1      12.290  -1.020  18.790  1.00  0.00    -0.001 A 
ATOM     14  C   UNL     1      12.416  -2.355  19.214  1.00  0.00     0.057 A 
ATOM     15  C   UNL     1      13.422  -0.191  18.795  1.00  0.00     0.012 A 
ATOM     16  C   UNL     1      13.648  -2.847  19.661  1.00  0.00     0.157 A 
ATOM     17  C   UNL     1      14.653  -0.678  19.241  1.00  0.00     0.050 A 
ATOM     18  C   UNL     1      14.772  -2.004  19.679  1.00  0.00     0.157 A 
BRANCH  16  19
ATOM     19  O   UNL     1      13.735  -4.174  20.082  1.00  0.00    -0.504 OA
ATOM     20  H   UNL     1      12.914  -4.755  20.204  1.00  0.00     0.293 HD
ENDBRANCH  16  19
BRANCH  18  21
ATOM     21  O   UNL     1      16.002  -2.487  20.125  1.00  0.00    -0.504 OA
ATOM     22  H   UNL     1      16.824  -1.896  20.157  1.00  0.00     0.293 HD
ENDBRANCH  18  21
ENDBRANCH   3  13
BRANCH   9  23
ATOM     23  O   UNL     1       5.884   0.432  17.819  1.00  0.00    -0.507 OA
ATOM     24  H   UNL     1       5.080   0.898  17.420  1.00  0.00     0.293 HD
ENDBRANCH   9  23
BRANCH   7  25
ATOM     25  O   UNL     1       7.706   4.479  19.708  1.00  0.00    -0.508 OA
ATOM     26  H   UNL     1       6.867   5.003  19.484  1.00  0.00     0.293 HD
ENDBRANCH   7  25
TORSDOF 6
ENDMDL
MODEL 5
REMARK VINA RESULT:    -3.903      2.474      7.217
REMARK INTER + INTRA:          -5.090
REMARK INTER:                  -4.714
REMARK INTRA:                  -0.375
REMARK UNBOUND:                -0.388
REMARK SMILES Oc1cc(O)c2c(c1)O[C@@H](c1ccc(O)c(O)c1)[C@@H](O)C2
REMARK SMILES IDX 21 1 19 2 10 3 9 4 7 5 8 6 2 7 3 8 4 9 6 10 20 11 11 13
REMARK SMILES IDX 18 14 12 15 16 16 13 17 14 18 17 19 15 21 5 23 1 25
REMARK H PARENT 20 12 17 20 15 22 5 24 1 26
REMARK Flexibility Score: inf
ROOT
ATOM      1  C   UNL     1      11.361   0.565  17.855  1.00  0.00     0.079 C 
ATOM      2  C   UNL     1      10.574   1.770  18.403  1.00  0.00     0.164 C 
ATOM      3  C   UNL     1       9.066   1.521  18.226  1.00  0.00     0.232 C 
ATOM      4  O   UNL     1       8.693   0.312  18.887  1.00  0.00    -0.482 OA
ATOM      5  C   UNL     1       9.505  -0.827  18.863  1.00  0.00     0.131 A 
ATOM      6  C   UNL     1       9.000  -2.031  19.360  1.00  0.00     0.093 A 
ATOM      7  C   UNL     1       9.781  -3.188  19.335  1.00  0.00     0.122 A 
ATOM      8  C   UNL     1      11.073  -3.142  18.801  1.00  0.00     0.092 A 
ATOM      9  C   UNL     1      11.597  -1.945  18.298  1.00  0.00     0.126 A 
ATOM     10  C   UNL     1      10.825  -0.760  18.362  1.00  0.00     0.039 A 
ENDROOT
BRANCH   2  11
ATOM     11  O   UNL     1      10.871   1.956  19.764  1.00  0.00    -0.389 OA
ATOM     12  H   UNL     1      10.004   1.956  20.250  1.00  0.00     0.211 HD
ENDBRANCH   2  11
BRANCH   3  13
ATOM     13  C   UNL     1       8.248   2.684  18.743  1.00  0.00    -0.001 A 
ATOM     14  C   UNL     1       8.465   3.989  18.266  1.00  0.00     0.057 A 
ATOM     15  C   UNL     1       7.216   2.455  19.665  1.00  0.00     0.012 A 
ATOM     16  C   UNL     1       7.680   5.054  18.723  1.00  0.00     0.157 A 
ATOM     17  C   UNL     1       6.431   3.516  20.125  1.00  0.00     0.050 A 
ATOM     18  C   UNL     1       6.660   4.818  19.660  1.00  0.00     0.157 A 
BRANCH  16  19
ATOM     19  O   UNL     1       7.928   6.337  18.235  1.00  0.00    -0.504 OA
ATOM     20  H   UNL     1       7.210   6.886  17.778  1.00  0.00     0.293 HD
ENDBRANCH  16  19
BRANCH  18  21
ATOM     21  O   UNL     1       5.875   5.875  20.121  1.00  0.00    -0.504 OA
ATOM     22  H   UNL     1       6.084   6.349  20.991  1.00  0.00     0.293 HD
ENDBRANCH  18  21
ENDBRANCH   3  13
BRANCH   9  23
ATOM     23  O   UNL     1      12.875  -1.971  17.737  1.00  0.00    -0.507 OA
ATOM     24  H   UNL     1      13.061  -2.272  16.789  1.00  0.00     0.293 HD
ENDBRANCH   9  23
BRANCH   7  25
ATOM     25  O   UNL     1       9.261  -4.379  19.837  1.00  0.00    -0.508 OA
ATOM     26  H   UNL     1       8.858  -5.080  19.225  1.00  0.00     0.293 HD
ENDBRANCH   7  25
TORSDOF 6
ENDMDL
MODEL 6
REMARK VINA RESULT:    -3.810      3.588      5.506
REMARK INTER + INTRA:          -4.978
REMARK INTER:                  -4.701
REMARK INTRA:                  -0.277
REMARK UNBOUND:                -0.388
REMARK SMILES Oc1cc(O)c2c(c1)O[C@@H](c1ccc(O)c(O)c1)[C@@H](O)C2
REMARK SMILES IDX 21 1 19 2 10 3 9 4 7 5 8 6 2 7 3 8 4 9 6 10 20 11 11 13
REMARK SMILES IDX 18 14 12 15 16 16 13 17 14 18 17 19 15 21 5 23 1 25
REMARK H PARENT 20 12 17 20 15 22 5 24 1 26
REMARK Flexibility Score: inf
ROOT
ATOM      1  C   UNL     1      10.606   2.382  19.018  1.00  0.00     0.079 C 
ATOM      2  C   UNL     1      11.849   1.472  19.048  1.00  0.00     0.164 C 
ATOM      3  C   UNL     1      11.552   0.226  19.900  1.00  0.00     0.232 C 
ATOM      4  O   UNL     1      10.417  -0.462  19.373  1.00  0.00    -0.482 OA
ATOM      5  C   UNL     1       9.299   0.220  18.880  1.00  0.00     0.131 A 
ATOM      6  C   UNL     1       8.149  -0.504  18.560  1.00  0.00     0.093 A 
ATOM      7  C   UNL     1       7.013   0.151  18.081  1.00  0.00     0.122 A 
ATOM      8  C   UNL     1       7.024   1.542  17.932  1.00  0.00     0.092 A 
ATOM      9  C   UNL     1       8.168   2.285  18.248  1.00  0.00     0.126 A 
ATOM     10  C   UNL     1       9.336   1.620  18.690  1.00  0.00     0.039 A 
ENDROOT
BRANCH   2  11
ATOM     11  O   UNL     1      12.192   1.088  17.741  1.00  0.00    -0.389 OA
ATOM     12  H   UNL     1      12.590   1.885  17.302  1.00  0.00     0.211 HD
ENDBRANCH   2  11
BRANCH   3  13
ATOM     13  C   UNL     1      12.748  -0.697  19.967  1.00  0.00    -0.001 A 
ATOM     14  C   UNL     1      12.596  -2.089  19.842  1.00  0.00     0.057 A 
ATOM     15  C   UNL     1      14.038  -0.159  20.096  1.00  0.00     0.012 A 
ATOM     16  C   UNL     1      13.711  -2.933  19.869  1.00  0.00     0.157 A 
ATOM     17  C   UNL     1      15.155  -0.999  20.125  1.00  0.00     0.050 A 
ATOM     18  C   UNL     1      14.998  -2.387  20.016  1.00  0.00     0.157 A 
BRANCH  16  19
ATOM     19  O   UNL     1      13.522  -4.310  19.750  1.00  0.00    -0.504 OA
ATOM     20  H   UNL     1      14.212  -4.912  19.317  1.00  0.00     0.293 HD
ENDBRANCH  16  19
BRANCH  18  21
ATOM     21  O   UNL     1      16.114  -3.223  20.046  1.00  0.00    -0.504 OA
ATOM     22  H   UNL     1      17.001  -2.910  20.421  1.00  0.00     0.293 HD
ENDBRANCH  18  21
ENDBRANCH   3  13
BRANCH   9  23
ATOM     23  O   UNL     1       8.104   3.674  18.120  1.00  0.00    -0.507 OA
ATOM     24  H   UNL     1       8.391   4.170  17.286  1.00  0.00     0.293 HD
ENDBRANCH   9  23
BRANCH   7  25
ATOM     25  O   UNL     1       5.875  -0.589  17.765  1.00  0.00    -0.508 OA
ATOM     26  H   UNL     1       5.887  -1.291  17.034  1.00  0.00     0.293 HD
ENDBRANCH   7  25
TORSDOF 6
ENDMDL
MODEL 7
REMARK VINA RESULT:    -3.283      3.519      6.290
REMARK INTER + INTRA:          -4.343
REMARK INTER:                  -4.012
REMARK INTRA:                  -0.331
REMARK UNBOUND:                -0.388
REMARK SMILES Oc1cc(O)c2c(c1)O[C@@H](c1ccc(O)c(O)c1)[C@@H](O)C2
REMARK SMILES IDX 21 1 19 2 10 3 9 4 7 5 8 6 2 7 3 8 4 9 6 10 20 11 11 13
REMARK SMILES IDX 18 14 12 15 16 16 13 17 14 18 17 19 15 21 5 23 1 25
REMARK H PARENT 20 12 17 20 15 22 5 24 1 26
REMARK Flexibility Score: inf
ROOT
ATOM      1  C   UNL     1      10.153   0.256  17.940  1.00  0.00     0.079 C 
ATOM      2  C   UNL     1      11.592  -0.286  18.017  1.00  0.00     0.164 C 
ATOM      3  C   UNL     1      11.796  -1.012  19.357  1.00  0.00     0.232 C 
ATOM      4  O   UNL     1      10.837  -2.062  19.491  1.00  0.00    -0.482 OA
ATOM      5  C   UNL     1       9.510  -1.911  19.076  1.00  0.00     0.131 A 
ATOM      6  C   UNL     1       8.578  -2.897  19.408  1.00  0.00     0.093 A 
ATOM      7  C   UNL     1       7.243  -2.766  19.021  1.00  0.00     0.122 A 
ATOM      8  C   UNL     1       6.836  -1.635  18.305  1.00  0.00     0.092 A 
ATOM      9  C   UNL     1       7.755  -0.637  17.963  1.00  0.00     0.126 A 
ATOM     10  C   UNL     1       9.117  -0.787  18.314  1.00  0.00     0.039 A 
ENDROOT
BRANCH   2  11
ATOM     11  O   UNL     1      11.826  -1.173  16.952  1.00  0.00    -0.389 OA
ATOM     12  H   UNL     1      11.156  -1.901  17.032  1.00  0.00     0.211 HD
ENDBRANCH   2  11
BRANCH   3  13
ATOM     13  C   UNL     1      13.201  -1.557  19.484  1.00  0.00    -0.001 A 
ATOM     14  C   UNL     1      14.317  -0.758  19.180  1.00  0.00     0.057 A 
ATOM     15  C   UNL     1      13.405  -2.858  19.970  1.00  0.00     0.012 A 
ATOM     16  C   UNL     1      15.615  -1.257  19.334  1.00  0.00     0.157 A 
ATOM     17  C   UNL     1      14.699  -3.361  20.125  1.00  0.00     0.050 A 
ATOM     18  C   UNL     1      15.809  -2.567  19.805  1.00  0.00     0.157 A 
BRANCH  16  19
ATOM     19  O   UNL     1      16.699  -0.439  19.016  1.00  0.00    -0.504 OA
ATOM     20  H   UNL     1      17.252  -0.581  18.179  1.00  0.00     0.293 HD
ENDBRANCH  16  19
BRANCH  18  21
ATOM     21  O   UNL     1      17.099  -3.072  19.959  1.00  0.00    -0.504 OA
ATOM     22  H   UNL     1      17.679  -3.298  19.160  1.00  0.00     0.293 HD
ENDBRANCH  18  21
ENDBRANCH   3  13
BRANCH   9  23
ATOM     23  O   UNL     1       7.280   0.489  17.286  1.00  0.00    -0.507 OA
ATOM     24  H   UNL     1       6.767   1.235  17.738  1.00  0.00     0.293 HD
ENDBRANCH   9  23
BRANCH   7  25
ATOM     25  O   UNL     1       6.329  -3.761  19.361  1.00  0.00    -0.508 OA
ATOM     26  H   UNL     1       5.334  -3.641  19.206  1.00  0.00     0.293 HD
ENDBRANCH   7  25
TORSDOF 6
ENDMDL
MODEL 8
REMARK VINA RESULT:    -3.109      3.209      6.587
REMARK INTER + INTRA:          -4.133
REMARK INTER:                  -3.801
REMARK INTRA:                  -0.331
REMARK UNBOUND:                -0.388
REMARK SMILES Oc1cc(O)c2c(c1)O[C@@H](c1ccc(O)c(O)c1)[C@@H](O)C2
REMARK SMILES IDX 21 1 19 2 10 3 9 4 7 5 8 6 2 7 3 8 4 9 6 10 20 11 11 13
REMARK SMILES IDX 18 14 12 15 16 16 13 17 14 18 17 19 15 21 5 23 1 25
REMARK H PARENT 20 12 17 20 15 22 5 24 1 26
REMARK Flexibility Score: inf
ROOT
ATOM      1  C   UNL     1      10.077  -2.320  19.108  1.00  0.00     0.079 C 
ATOM      2  C   UNL     1       9.102  -1.131  19.029  1.00  0.00     0.164 C 
ATOM      3  C   UNL     1       9.450  -0.108  20.124  1.00  0.00     0.232 C 
ATOM      4  O   UNL     1      10.804   0.320  19.976  1.00  0.00    -0.482 OA
ATOM      5  C   UNL     1      11.827  -0.567  19.623  1.00  0.00     0.131 A 
ATOM      6  C   UNL     1      13.153  -0.132  19.683  1.00  0.00     0.093 A 
ATOM      7  C   UNL     1      14.196  -0.998  19.352  1.00  0.00     0.122 A 
ATOM      8  C   UNL     1      13.911  -2.313  18.967  1.00  0.00     0.092 A 
ATOM      9  C   UNL     1      12.588  -2.768  18.902  1.00  0.00     0.126 A 
ATOM     10  C   UNL     1      11.526  -1.879  19.193  1.00  0.00     0.039 A 
ENDROOT
BRANCH   2  11
ATOM     11  O   UNL     1       9.188  -0.524  17.764  1.00  0.00    -0.389 OA
ATOM     12  H   UNL     1       9.298   0.450  17.920  1.00  0.00     0.211 HD
ENDBRANCH   2  11
BRANCH   3  13
ATOM     13  C   UNL     1       8.512   1.078  20.093  1.00  0.00    -0.001 A 
ATOM     14  C   UNL     1       9.008   2.393  20.111  1.00  0.00     0.057 A 
ATOM     15  C   UNL     1       7.128   0.871  19.983  1.00  0.00     0.012 A 
ATOM     16  C   UNL     1       8.136   3.485  20.046  1.00  0.00     0.157 A 
ATOM     17  C   UNL     1       6.253   1.959  19.919  1.00  0.00     0.050 A 
ATOM     18  C   UNL     1       6.750   3.269  19.953  1.00  0.00     0.157 A 
BRANCH  16  19
ATOM     19  O   UNL     1       8.663   4.777  20.074  1.00  0.00    -0.504 OA
ATOM     20  H   UNL     1       9.609   4.978  19.776  1.00  0.00     0.293 HD
ENDBRANCH  16  19
BRANCH  18  21
ATOM     21  O   UNL     1       5.875   4.352  19.890  1.00  0.00    -0.504 OA
ATOM     22  H   UNL     1       5.410   4.608  19.027  1.00  0.00     0.293 HD
ENDBRANCH  18  21
ENDBRANCH   3  13
BRANCH   9  23
ATOM     23  O   UNL     1      12.369  -4.102  18.555  1.00  0.00    -0.507 OA
ATOM     24  H   UNL     1      11.841  -4.747  19.128  1.00  0.00     0.293 HD
ENDBRANCH   9  23
BRANCH   7  25
ATOM     25  O   UNL     1      15.512  -0.546  19.416  1.00  0.00    -0.508 OA
ATOM     26  H   UNL     1      15.949  -0.314  20.301  1.00  0.00     0.293 HD
ENDBRANCH   7  25
TORSDOF 6
ENDMDL
MODEL 9
REMARK VINA RESULT:    -2.897      3.014      7.580
REMARK INTER + INTRA:          -3.877
REMARK INTER:                  -3.615
REMARK INTRA:                  -0.262
REMARK UNBOUND:                -0.388
REMARK SMILES Oc1cc(O)c2c(c1)O[C@@H](c1ccc(O)c(O)c1)[C@@H](O)C2
REMARK SMILES IDX 21 1 19 2 10 3 9 4 7 5 8 6 2 7 3 8 4 9 6 10 20 11 11 13
REMARK SMILES IDX 18 14 12 15 16 16 13 17 14 18 17 19 15 21 5 23 1 25
REMARK H PARENT 20 12 17 20 15 22 5 24 1 26
REMARK Flexibility Score: inf
ROOT
ATOM      1  C   UNL     1       7.192  -0.758  18.414  1.00  0.00     0.079 C 
ATOM      2  C   UNL     1       6.818   0.737  18.392  1.00  0.00     0.164 C 
ATOM      3  C   UNL     1       7.844   1.534  19.216  1.00  0.00     0.232 C 
ATOM      4  O   UNL     1       9.156   1.318  18.696  1.00  0.00    -0.482 OA
ATOM      5  C   UNL     1       9.579   0.062  18.248  1.00  0.00     0.131 A 
ATOM      6  C   UNL     1      10.927  -0.128  17.934  1.00  0.00     0.093 A 
ATOM      7  C   UNL     1      11.381  -1.374  17.499  1.00  0.00     0.122 A 
ATOM      8  C   UNL     1      10.482  -2.441  17.387  1.00  0.00     0.092 A 
ATOM      9  C   UNL     1       9.128  -2.269  17.697  1.00  0.00     0.126 A 
ATOM     10  C   UNL     1       8.655  -0.996  18.095  1.00  0.00     0.039 A 
ENDROOT
BRANCH   2  11
ATOM     11  O   UNL     1       6.800   1.205  17.068  1.00  0.00    -0.389 OA
ATOM     12  H   UNL     1       6.165   0.629  16.567  1.00  0.00     0.211 HD
ENDBRANCH   2  11
BRANCH   3  13
ATOM     13  C   UNL     1       7.514   3.010  19.232  1.00  0.00    -0.001 A 
ATOM     14  C   UNL     1       8.117   3.895  18.320  1.00  0.00     0.057 A 
ATOM     15  C   UNL     1       6.549   3.501  20.124  1.00  0.00     0.012 A 
ATOM     16  C   UNL     1       7.781   5.253  18.317  1.00  0.00     0.157 A 
ATOM     17  C   UNL     1       6.211   4.857  20.125  1.00  0.00     0.050 A 
ATOM     18  C   UNL     1       6.826   5.739  19.226  1.00  0.00     0.157 A 
BRANCH  16  19
ATOM     19  O   UNL     1       8.404   6.104  17.404  1.00  0.00    -0.504 OA
ATOM     20  H   UNL     1       9.371   5.981  17.127  1.00  0.00     0.293 HD
ENDBRANCH  16  19
BRANCH  18  21
ATOM     21  O   UNL     1       6.487   7.092  19.230  1.00  0.00    -0.504 OA
ATOM     22  H   UNL     1       5.935   7.498  19.976  1.00  0.00     0.293 HD
ENDBRANCH  18  21
ENDBRANCH   3  13
BRANCH   9  23
ATOM     23  O   UNL     1       8.288  -3.381  17.609  1.00  0.00    -0.507 OA
ATOM     24  H   UNL     1       8.605  -4.331  17.751  1.00  0.00     0.293 HD
ENDBRANCH   9  23
BRANCH   7  25
ATOM     25  O   UNL     1      12.728  -1.545  17.189  1.00  0.00    -0.508 OA
ATOM     26  H   UNL     1      13.458  -1.107  17.741  1.00  0.00     0.293 HD
ENDBRANCH   7  25
TORSDOF 6
ENDMDL
