MODEL 1
REMARK VINA RESULT:    -4.978      0.000      0.000
REMARK INTER + INTRA:          -5.459
REMARK INTER:                  -5.415
REMARK INTRA:                  -0.045
REMARK UNBOUND:                -0.045
REMARK SMILES CC1(C)[C@H]2CC=C(CO)[C@@H]1C2
REMARK SMILES IDX 8 1 7 2 1 3 2 4 4 5 3 6 10 7 5 8 11 9 6 10 9 11
REMARK H PARENT 9 12
REMARK Flexibility Score: inf
ROOT
ATOM      1  C   UNL     1      34.940  45.518  40.997  1.00  0.00     0.187 C 
ENDROOT
BRANCH   1   2
ATOM      2  C   UNL     1      34.203  44.230  41.236  1.00  0.00    -0.045 C 
ATOM      3  C   UNL     1      31.344  43.911  40.541  1.00  0.00     0.012 C 
ATOM      4  C   UNL     1      31.908  43.438  41.910  1.00  0.00    -0.026 C 
ATOM      5  C   UNL     1      32.657  42.078  41.978  1.00  0.00    -0.000 C 
ATOM      6  C   UNL     1      30.775  43.535  42.962  1.00  0.00     0.012 C 
ATOM      7  C   UNL     1      33.235  44.063  42.417  1.00  0.00     0.023 C 
ATOM      8  C   UNL     1      33.537  41.876  40.697  1.00  0.00     0.031 C 
ATOM      9  C   UNL     1      33.593  42.697  43.035  1.00  0.00     0.013 C 
ATOM     10  C   UNL     1      34.359  43.149  40.413  1.00  0.00    -0.025 C 
ENDBRANCH   1   2
BRANCH   1  11
ATOM     11  O   UNL     1      34.840  46.350  42.121  1.00  0.00    -0.392 OA
ATOM     12  H   UNL     1      35.174  47.243  41.847  1.00  0.00     0.211 HD
ENDBRANCH   1  11
TORSDOF 2
ENDMDL
MODEL 2
REMARK VINA RESULT:    -4.855     18.785     20.333
REMARK INTER + INTRA:          -5.325
REMARK INTER:                  -5.282
REMARK INTRA:                  -0.043
REMARK UNBOUND:                -0.045
REMARK SMILES CC1(C)[C@H]2CC=C(CO)[C@@H]1C2
REMARK SMILES IDX 8 1 7 2 1 3 2 4 4 5 3 6 10 7 5 8 11 9 6 10 9 11
REMARK H PARENT 9 12
REMARK Flexibility Score: inf
ROOT
ATOM      1  C   UNL     1      21.182  56.193  36.463  1.00  0.00     0.187 C 
ENDROOT
BRANCH   1   2
ATOM      2  C   UNL     1      20.707  57.422  37.186  1.00  0.00    -0.045 C 
ATOM      3  C   UNL     1      18.457  57.336  39.106  1.00  0.00     0.012 C 
ATOM      4  C   UNL     1      18.557  58.440  38.016  1.00  0.00    -0.026 C 
ATOM      5  C   UNL     1      19.502  59.649  38.263  1.00  0.00    -0.000 C 
ATOM      6  C   UNL     1      17.121  58.887  37.643  1.00  0.00     0.012 C 
ATOM      7  C   UNL     1      19.430  58.162  36.763  1.00  0.00     0.023 C 
ATOM      8  C   UNL     1      20.818  59.176  38.971  1.00  0.00     0.031 C 
ATOM      9  C   UNL     1      19.817  59.654  36.754  1.00  0.00     0.013 C 
ATOM     10  C   UNL     1      21.389  57.937  38.252  1.00  0.00    -0.025 C 
ENDBRANCH   1   2
BRANCH   1  11
ATOM     11  O   UNL     1      20.751  56.218  35.129  1.00  0.00    -0.392 OA
ATOM     12  H   UNL     1      20.031  55.541  35.047  1.00  0.00     0.211 HD
ENDBRANCH   1  11
TORSDOF 2
ENDMDL
MODEL 3
REMARK VINA RESULT:    -4.790     18.466     20.049
REMARK INTER + INTRA:          -5.255
REMARK INTER:                  -5.215
REMARK INTRA:                  -0.040
REMARK UNBOUND:                -0.045
REMARK SMILES CC1(C)[C@H]2CC=C(CO)[C@@H]1C2
REMARK SMILES IDX 8 1 7 2 1 3 2 4 4 5 3 6 10 7 5 8 11 9 6 10 9 11
REMARK H PARENT 9 12
REMARK Flexibility Score: inf
ROOT
ATOM      1  C   UNL     1      17.985  58.022  39.236  1.00  0.00     0.187 C 
ENDROOT
BRANCH   1   2
ATOM      2  C   UNL     1      19.242  58.269  38.450  1.00  0.00    -0.045 C 
ATOM      3  C   UNL     1      19.759  56.926  35.865  1.00  0.00     0.012 C 
ATOM      4  C   UNL     1      20.848  57.011  36.971  1.00  0.00    -0.026 C 
ATOM      5  C   UNL     1      21.652  58.332  37.124  1.00  0.00    -0.000 C 
ATOM      6  C   UNL     1      21.773  55.775  36.839  1.00  0.00     0.012 C 
ATOM      7  C   UNL     1      20.394  57.253  38.435  1.00  0.00     0.023 C 
ATOM      8  C   UNL     1      20.717  59.570  36.898  1.00  0.00     0.031 C 
ATOM      9  C   UNL     1      21.669  58.093  38.647  1.00  0.00     0.013 C 
ATOM     10  C   UNL     1      19.418  59.406  37.713  1.00  0.00    -0.025 C 
ENDBRANCH   1   2
BRANCH   1  11
ATOM     11  O   UNL     1      16.875  57.996  38.380  1.00  0.00    -0.392 OA
ATOM     12  H   UNL     1      16.078  58.195  38.937  1.00  0.00     0.211 HD
ENDBRANCH   1  11
TORSDOF 2
ENDMDL
MODEL 4
REMARK VINA RESULT:    -4.790     18.663     20.166
REMARK INTER + INTRA:          -5.255
REMARK INTER:                  -5.211
REMARK INTRA:                  -0.044
REMARK UNBOUND:                -0.045
REMARK SMILES CC1(C)[C@H]2CC=C(CO)[C@@H]1C2
REMARK SMILES IDX 8 1 7 2 1 3 2 4 4 5 3 6 10 7 5 8 11 9 6 10 9 11
REMARK H PARENT 9 12
REMARK Flexibility Score: inf
ROOT
ATOM      1  C   UNL     1      22.181  57.385  39.030  1.00  0.00     0.187 C 
ENDROOT
BRANCH   1   2
ATOM      2  C   UNL     1      20.917  57.592  38.243  1.00  0.00    -0.045 C 
ATOM      3  C   UNL     1      20.653  59.764  36.250  1.00  0.00     0.012 C 
ATOM      4  C   UNL     1      19.541  59.480  37.299  1.00  0.00    -0.026 C 
ATOM      5  C   UNL     1      18.551  58.311  37.037  1.00  0.00    -0.000 C 
ATOM      6  C   UNL     1      18.808  60.810  37.603  1.00  0.00     0.012 C 
ATOM      7  C   UNL     1      19.926  58.711  38.591  1.00  0.00     0.023 C 
ATOM      8  C   UNL     1      19.301  57.094  36.394  1.00  0.00     0.031 C 
ATOM      9  C   UNL     1      18.538  58.040  38.555  1.00  0.00     0.013 C 
ATOM     10  C   UNL     1      20.593  56.794  37.181  1.00  0.00    -0.025 C 
ENDBRANCH   1   2
BRANCH   1  11
ATOM     11  O   UNL     1      22.067  57.979  40.294  1.00  0.00    -0.392 OA
ATOM     12  H   UNL     1      22.642  58.788  40.285  1.00  0.00     0.211 HD
ENDBRANCH   1  11
TORSDOF 2
ENDMDL
MODEL 5
REMARK VINA RESULT:    -4.483      1.905      3.528
REMARK INTER + INTRA:          -4.921
REMARK INTER:                  -4.875
REMARK INTRA:                  -0.046
REMARK UNBOUND:                -0.045
REMARK SMILES CC1(C)[C@H]2CC=C(CO)[C@@H]1C2
REMARK SMILES IDX 8 1 7 2 1 3 2 4 4 5 3 6 10 7 5 8 11 9 6 10 9 11
REMARK H PARENT 9 12
REMARK Flexibility Score: inf
ROOT
ATOM      1  C   UNL     1      30.591  43.751  41.584  1.00  0.00     0.187 C 
ENDROOT
BRANCH   1   2
ATOM      2  C   UNL     1      31.991  43.236  41.773  1.00  0.00    -0.045 C 
ATOM      3  C   UNL     1      34.290  45.060  42.148  1.00  0.00     0.012 C 
ATOM      4  C   UNL     1      34.354  43.860  41.162  1.00  0.00    -0.026 C 
ATOM      5  C   UNL     1      34.624  42.440  41.733  1.00  0.00    -0.000 C 
ATOM      6  C   UNL     1      35.330  44.225  40.015  1.00  0.00     0.012 C 
ATOM      7  C   UNL     1      33.020  43.269  40.634  1.00  0.00     0.023 C 
ATOM      8  C   UNL     1      33.874  42.249  43.096  1.00  0.00     0.031 C 
ATOM      9  C   UNL     1      33.680  41.875  40.653  1.00  0.00     0.013 C 
ATOM     10  C   UNL     1      32.411  42.717  42.965  1.00  0.00    -0.025 C 
ENDBRANCH   1   2
BRANCH   1  11
ATOM     11  O   UNL     1      30.385  44.118  40.247  1.00  0.00    -0.392 OA
ATOM     12  H   UNL     1      29.493  44.551  40.202  1.00  0.00     0.211 HD
ENDBRANCH   1  11
TORSDOF 2
ENDMDL
MODEL 6
REMARK VINA RESULT:    -4.476      1.894      2.139
REMARK INTER + INTRA:          -4.913
REMARK INTER:                  -4.867
REMARK INTRA:                  -0.047
REMARK UNBOUND:                -0.045
REMARK SMILES CC1(C)[C@H]2CC=C(CO)[C@@H]1C2
REMARK SMILES IDX 8 1 7 2 1 3 2 4 4 5 3 6 10 7 5 8 11 9 6 10 9 11
REMARK H PARENT 9 12
REMARK Flexibility Score: inf
ROOT
ATOM      1  C   UNL     1      35.354  43.729  39.710  1.00  0.00     0.187 C 
ENDROOT
BRANCH   1   2
ATOM      2  C   UNL     1      34.530  43.326  40.901  1.00  0.00    -0.045 C 
ATOM      3  C   UNL     1      31.967  41.876  40.611  1.00  0.00     0.012 C 
ATOM      4  C   UNL     1      32.108  43.099  41.560  1.00  0.00    -0.026 C 
ATOM      5  C   UNL     1      32.755  42.887  42.957  1.00  0.00    -0.000 C 
ATOM      6  C   UNL     1      30.732  43.803  41.654  1.00  0.00     0.012 C 
ATOM      7  C   UNL     1      33.266  44.100  41.304  1.00  0.00     0.023 C 
ATOM      8  C   UNL     1      33.948  41.875  42.858  1.00  0.00     0.031 C 
ATOM      9  C   UNL     1      33.384  44.289  42.830  1.00  0.00     0.013 C 
ATOM     10  C   UNL     1      34.866  42.254  41.678  1.00  0.00    -0.025 C 
ENDBRANCH   1   2
BRANCH   1  11
ATOM     11  O   UNL     1      35.222  42.781  38.686  1.00  0.00    -0.392 OA
ATOM     12  H   UNL     1      35.298  43.273  37.828  1.00  0.00     0.211 HD
ENDBRANCH   1  11
TORSDOF 2
ENDMDL
MODEL 7
REMARK VINA RESULT:    -4.300      1.884      3.570
REMARK INTER + INTRA:          -4.722
REMARK INTER:                  -4.679
REMARK INTRA:                  -0.043
REMARK UNBOUND:                -0.045
REMARK SMILES CC1(C)[C@H]2CC=C(CO)[C@@H]1C2
REMARK SMILES IDX 8 1 7 2 1 3 2 4 4 5 3 6 10 7 5 8 11 9 6 10 9 11
REMARK H PARENT 9 12
REMARK Flexibility Score: inf
ROOT
ATOM      1  C   UNL     1      32.685  41.875  44.339  1.00  0.00     0.187 C 
ENDROOT
BRANCH   1   2
ATOM      2  C   UNL     1      32.619  42.790  43.149  1.00  0.00    -0.045 C 
ATOM      3  C   UNL     1      33.379  41.883  40.436  1.00  0.00     0.012 C 
ATOM      4  C   UNL     1      33.877  43.238  41.012  1.00  0.00    -0.026 C 
ATOM      5  C   UNL     1      32.916  44.459  40.982  1.00  0.00    -0.000 C 
ATOM      6  C   UNL     1      35.253  43.560  40.376  1.00  0.00     0.012 C 
ATOM      7  C   UNL     1      33.883  43.427  42.553  1.00  0.00     0.023 C 
ATOM      8  C   UNL     1      31.449  44.007  41.298  1.00  0.00     0.031 C 
ATOM      9  C   UNL     1      33.515  44.908  42.330  1.00  0.00     0.013 C 
ATOM     10  C   UNL     1      31.433  43.095  42.542  1.00  0.00    -0.025 C 
ENDBRANCH   1   2
BRANCH   1  11
ATOM     11  O   UNL     1      33.744  42.247  45.179  1.00  0.00    -0.392 OA
ATOM     12  H   UNL     1      33.634  43.215  45.369  1.00  0.00     0.211 HD
ENDBRANCH   1  11
TORSDOF 2
ENDMDL
MODEL 8
REMARK VINA RESULT:    -3.718     18.981     20.520
REMARK INTER + INTRA:          -4.088
REMARK INTER:                  -4.060
REMARK INTRA:                  -0.028
REMARK UNBOUND:                -0.045
REMARK SMILES CC1(C)[C@H]2CC=C(CO)[C@@H]1C2
REMARK SMILES IDX 8 1 7 2 1 3 2 4 4 5 3 6 10 7 5 8 11 9 6 10 9 11
REMARK H PARENT 9 12
REMARK Flexibility Score: inf
ROOT
ATOM      1  C   UNL     1      19.555  60.945  36.827  1.00  0.00     0.187 C 
ENDROOT
BRANCH   1   2
ATOM      2  C   UNL     1      19.486  59.520  37.298  1.00  0.00    -0.045 C 
ATOM      3  C   UNL     1      21.043  58.564  39.626  1.00  0.00     0.012 C 
ATOM      4  C   UNL     1      20.990  57.762  38.296  1.00  0.00    -0.026 C 
ATOM      5  C   UNL     1      19.747  56.875  38.010  1.00  0.00    -0.000 C 
ATOM      6  C   UNL     1      22.317  56.974  38.150  1.00  0.00     0.012 C 
ATOM      7  C   UNL     1      20.608  58.516  36.994  1.00  0.00     0.023 C 
ATOM      8  C   UNL     1      18.442  57.588  38.505  1.00  0.00     0.031 C 
ATOM      9  C   UNL     1      19.884  57.241  36.518  1.00  0.00     0.013 C 
ATOM     10  C   UNL     1      18.423  59.052  38.019  1.00  0.00    -0.025 C 
ENDBRANCH   1   2
BRANCH   1  11
ATOM     11  O   UNL     1      19.074  61.809  37.821  1.00  0.00    -0.392 OA
ATOM     12  H   UNL     1      19.715  62.564  37.881  1.00  0.00     0.211 HD
ENDBRANCH   1  11
TORSDOF 2
ENDMDL
MODEL 9
REMARK VINA RESULT:    -3.399     19.077     20.572
REMARK INTER + INTRA:          -3.741
REMARK INTER:                  -3.707
REMARK INTRA:                  -0.034
REMARK UNBOUND:                -0.045
REMARK SMILES CC1(C)[C@H]2CC=C(CO)[C@@H]1C2
REMARK SMILES IDX 8 1 7 2 1 3 2 4 4 5 3 6 10 7 5 8 11 9 6 10 9 11
REMARK H PARENT 9 12
REMARK Flexibility Score: inf
ROOT
ATOM      1  C   UNL     1      20.645  56.488  35.712  1.00  0.00     0.187 C 
ENDROOT
BRANCH   1   2
ATOM      2  C   UNL     1      20.112  57.687  36.445  1.00  0.00    -0.045 C 
ATOM      3  C   UNL     1      20.772  58.208  39.281  1.00  0.00     0.012 C 
ATOM      4  C   UNL     1      19.316  58.320  38.750  1.00  0.00    -0.026 C 
ATOM      5  C   UNL     1      18.896  59.610  37.992  1.00  0.00    -0.000 C 
ATOM      6  C   UNL     1      18.347  57.982  39.911  1.00  0.00     0.012 C 
ATOM      7  C   UNL     1      18.950  57.570  37.441  1.00  0.00     0.023 C 
ATOM      8  C   UNL     1      20.067  60.110  37.077  1.00  0.00     0.031 C 
ATOM      9  C   UNL     1      18.004  58.735  37.089  1.00  0.00     0.013 C 
ATOM     10  C   UNL     1      20.637  58.935  36.258  1.00  0.00    -0.025 C 
ENDBRANCH   1   2
BRANCH   1  11
ATOM     11  O   UNL     1      19.881  56.241  34.564  1.00  0.00    -0.392 OA
ATOM     12  H   UNL     1      19.457  55.352  34.686  1.00  0.00     0.211 HD
ENDBRANCH   1  11
TORSDOF 2
ENDMDL
