MODEL 1
REMARK VINA RESULT:    -3.962      0.000      0.000
REMARK INTER + INTRA:          -4.648
REMARK INTER:                  -4.541
REMARK INTRA:                  -0.107
REMARK UNBOUND:                -0.107
REMARK SMILES C=Cc1ccc(O)c(OC)c1
REMARK SMILES IDX 8 1 6 2 5 3 4 4 3 5 11 6 9 7 10 8 7 9 2 11 1 12
REMARK H PARENT 7 10
REMARK Flexibility Score: inf
ROOT
ATOM      1  C   UNL     1     169.411 166.671 168.165  1.00  0.00     0.161 A 
ATOM      2  C   UNL     1     169.428 166.241 166.832  1.00  0.00     0.157 A 
ATOM      3  C   UNL     1     168.344 165.524 166.312  1.00  0.00     0.051 A 
ATOM      4  C   UNL     1     167.244 165.229 167.117  1.00  0.00     0.012 A 
ATOM      5  C   UNL     1     167.211 165.635 168.460  1.00  0.00    -0.022 A 
ATOM      6  C   UNL     1     168.298 166.370 168.976  1.00  0.00     0.058 A 
ENDROOT
BRANCH   1   7
ATOM      7  O   UNL     1     170.514 167.396 168.647  1.00  0.00    -0.493 OA
ATOM      8  C   UNL     1     170.505 168.792 168.925  1.00  0.00     0.278 C 
ENDBRANCH   1   7
BRANCH   2   9
ATOM      9  O   UNL     1     170.528 166.534 166.028  1.00  0.00    -0.504 OA
ATOM     10  H   UNL     1     170.723 166.008 165.184  1.00  0.00     0.293 HD
ENDBRANCH   2   9
BRANCH   5  11
ATOM     11  C   UNL     1     166.014 165.301 169.271  1.00  0.00     0.000 C 
ATOM     12  C   UNL     1     164.773 165.678 168.965  1.00  0.00     0.009 C 
ENDBRANCH   5  11
TORSDOF 3
ENDMDL
MODEL 2
REMARK VINA RESULT:    -3.926      5.030      7.042
REMARK INTER + INTRA:          -4.606
REMARK INTER:                  -4.512
REMARK INTRA:                  -0.094
REMARK UNBOUND:                -0.107
REMARK SMILES C=Cc1ccc(O)c(OC)c1
REMARK SMILES IDX 8 1 6 2 5 3 4 4 3 5 11 6 9 7 10 8 7 9 2 11 1 12
REMARK H PARENT 7 10
REMARK Flexibility Score: inf
ROOT
ATOM      1  C   UNL     1     161.850 164.568 168.136  1.00  0.00     0.161 A 
ATOM      2  C   UNL     1     161.817 165.018 166.809  1.00  0.00     0.157 A 
ATOM      3  C   UNL     1     162.893 165.747 166.288  1.00  0.00     0.051 A 
ATOM      4  C   UNL     1     164.001 166.034 167.086  1.00  0.00     0.012 A 
ATOM      5  C   UNL     1     164.050 165.608 168.422  1.00  0.00    -0.022 A 
ATOM      6  C   UNL     1     162.972 164.861 168.939  1.00  0.00     0.058 A 
ENDROOT
BRANCH   1   7
ATOM      7  O   UNL     1     160.755 163.833 168.618  1.00  0.00    -0.493 OA
ATOM      8  C   UNL     1     160.858 162.624 169.362  1.00  0.00     0.278 C 
ENDBRANCH   1   7
BRANCH   2   9
ATOM      9  O   UNL     1     160.709 164.734 166.013  1.00  0.00    -0.504 OA
ATOM     10  H   UNL     1     160.776 164.709 165.002  1.00  0.00     0.293 HD
ENDBRANCH   2   9
BRANCH   5  11
ATOM     11  C   UNL     1     165.254 165.934 169.225  1.00  0.00     0.000 C 
ATOM     12  C   UNL     1     166.486 165.518 168.931  1.00  0.00     0.009 C 
ENDBRANCH   5  11
TORSDOF 3
ENDMDL
MODEL 3
REMARK VINA RESULT:    -3.896      1.068      2.638
REMARK INTER + INTRA:          -4.573
REMARK INTER:                  -4.501
REMARK INTRA:                  -0.071
REMARK UNBOUND:                -0.107
REMARK SMILES C=Cc1ccc(O)c(OC)c1
REMARK SMILES IDX 8 1 6 2 5 3 4 4 3 5 11 6 9 7 10 8 7 9 2 11 1 12
REMARK H PARENT 7 10
REMARK Flexibility Score: inf
ROOT
ATOM      1  C   UNL     1     168.811 166.001 167.268  1.00  0.00     0.161 A 
ATOM      2  C   UNL     1     169.612 166.696 168.184  1.00  0.00     0.157 A 
ATOM      3  C   UNL     1     169.147 166.937 169.481  1.00  0.00     0.051 A 
ATOM      4  C   UNL     1     167.883 166.492 169.870  1.00  0.00     0.012 A 
ATOM      5  C   UNL     1     167.056 165.808 168.966  1.00  0.00    -0.022 A 
ATOM      6  C   UNL     1     167.535 165.554 167.665  1.00  0.00     0.058 A 
ENDROOT
BRANCH   1   7
ATOM      7  O   UNL     1     169.318 165.772 165.978  1.00  0.00    -0.493 OA
ATOM      8  C   UNL     1     168.544 165.314 164.875  1.00  0.00     0.278 C 
ENDBRANCH   1   7
BRANCH   2   9
ATOM      9  O   UNL     1     170.874 167.143 167.795  1.00  0.00    -0.504 OA
ATOM     10  H   UNL     1     171.119 167.253 166.818  1.00  0.00     0.293 HD
ENDBRANCH   2   9
BRANCH   5  11
ATOM     11  C   UNL     1     165.724 165.350 169.432  1.00  0.00     0.000 C 
ATOM     12  C   UNL     1     164.571 165.691 168.857  1.00  0.00     0.009 C 
ENDBRANCH   5  11
TORSDOF 3
ENDMDL
MODEL 4
REMARK VINA RESULT:    -3.847      4.776      6.865
REMARK INTER + INTRA:          -4.516
REMARK INTER:                  -4.445
REMARK INTRA:                  -0.071
REMARK UNBOUND:                -0.107
REMARK SMILES C=Cc1ccc(O)c(OC)c1
REMARK SMILES IDX 8 1 6 2 5 3 4 4 3 5 11 6 9 7 10 8 7 9 2 11 1 12
REMARK H PARENT 7 10
REMARK Flexibility Score: inf
ROOT
ATOM      1  C   UNL     1     162.375 165.186 167.233  1.00  0.00     0.161 A 
ATOM      2  C   UNL     1     161.580 164.555 168.199  1.00  0.00     0.157 A 
ATOM      3  C   UNL     1     162.068 164.373 169.499  1.00  0.00     0.051 A 
ATOM      4  C   UNL     1     163.347 164.814 169.839  1.00  0.00     0.012 A 
ATOM      5  C   UNL     1     164.167 165.434 168.884  1.00  0.00    -0.022 A 
ATOM      6  C   UNL     1     163.667 165.629 167.581  1.00  0.00     0.058 A 
ENDROOT
BRANCH   1   7
ATOM      7  O   UNL     1     161.845 165.357 165.943  1.00  0.00    -0.493 OA
ATOM      8  C   UNL     1     162.517 166.017 164.876  1.00  0.00     0.278 C 
ENDBRANCH   1   7
BRANCH   2   9
ATOM      9  O   UNL     1     160.303 164.112 167.860  1.00  0.00    -0.504 OA
ATOM     10  H   UNL     1     160.123 163.636 166.984  1.00  0.00     0.293 HD
ENDBRANCH   2   9
BRANCH   5  11
ATOM     11  C   UNL     1     165.517 165.890 169.299  1.00  0.00     0.000 C 
ATOM     12  C   UNL     1     166.650 165.516 168.706  1.00  0.00     0.009 C 
ENDBRANCH   5  11
TORSDOF 3
ENDMDL
MODEL 5
REMARK VINA RESULT:    -3.615      8.730      9.770
REMARK INTER + INTRA:          -4.251
REMARK INTER:                  -4.159
REMARK INTRA:                  -0.092
REMARK UNBOUND:                -0.107
REMARK SMILES C=Cc1ccc(O)c(OC)c1
REMARK SMILES IDX 8 1 6 2 5 3 4 4 3 5 11 6 9 7 10 8 7 9 2 11 1 12
REMARK H PARENT 7 10
REMARK Flexibility Score: inf
ROOT
ATOM      1  C   UNL     1     162.035 174.107 167.769  1.00  0.00     0.161 A 
ATOM      2  C   UNL     1     163.202 173.366 167.541  1.00  0.00     0.157 A 
ATOM      3  C   UNL     1     163.386 172.133 168.177  1.00  0.00     0.051 A 
ATOM      4  C   UNL     1     162.413 171.636 169.045  1.00  0.00     0.012 A 
ATOM      5  C   UNL     1     161.243 172.368 169.302  1.00  0.00    -0.022 A 
ATOM      6  C   UNL     1     161.055 173.602 168.647  1.00  0.00     0.058 A 
ENDROOT
BRANCH   1   7
ATOM      7  O   UNL     1     161.885 175.336 167.105  1.00  0.00    -0.493 OA
ATOM      8  C   UNL     1     161.103 175.529 165.931  1.00  0.00     0.278 C 
ENDBRANCH   1   7
BRANCH   2   9
ATOM      9  O   UNL     1     164.176 173.863 166.676  1.00  0.00    -0.504 OA
ATOM     10  H   UNL     1     164.398 173.397 165.804  1.00  0.00     0.293 HD
ENDBRANCH   2   9
BRANCH   5  11
ATOM     11  C   UNL     1     160.237 171.791 170.227  1.00  0.00     0.000 C 
ATOM     12  C   UNL     1     158.948 171.631 169.928  1.00  0.00     0.009 C 
ENDBRANCH   5  11
TORSDOF 3
ENDMDL
MODEL 6
REMARK VINA RESULT:    -3.530      8.222      9.202
REMARK INTER + INTRA:          -4.153
REMARK INTER:                  -4.063
REMARK INTRA:                  -0.090
REMARK UNBOUND:                -0.107
REMARK SMILES C=Cc1ccc(O)c(OC)c1
REMARK SMILES IDX 8 1 6 2 5 3 4 4 3 5 11 6 9 7 10 8 7 9 2 11 1 12
REMARK H PARENT 7 10
REMARK Flexibility Score: inf
ROOT
ATOM      1  C   UNL     1     169.309 157.248 167.923  1.00  0.00     0.161 A 
ATOM      2  C   UNL     1     168.110 157.945 167.727  1.00  0.00     0.157 A 
ATOM      3  C   UNL     1     167.878 159.147 168.407  1.00  0.00     0.051 A 
ATOM      4  C   UNL     1     168.835 159.655 169.286  1.00  0.00     0.012 A 
ATOM      5  C   UNL     1     170.037 158.965 169.511  1.00  0.00    -0.022 A 
ATOM      6  C   UNL     1     170.273 157.764 168.813  1.00  0.00     0.058 A 
ENDROOT
BRANCH   1   7
ATOM      7  O   UNL     1     169.508 156.051 167.216  1.00  0.00    -0.493 OA
ATOM      8  C   UNL     1     170.465 155.875 166.177  1.00  0.00     0.278 C 
ENDBRANCH   1   7
BRANCH   2   9
ATOM      9  O   UNL     1     167.153 157.437 166.851  1.00  0.00    -0.504 OA
ATOM     10  H   UNL     1     166.560 156.657 167.108  1.00  0.00     0.293 HD
ENDBRANCH   2   9
BRANCH   5  11
ATOM     11  C   UNL     1     171.024 159.553 170.451  1.00  0.00     0.000 C 
ATOM     12  C   UNL     1     172.335 159.614 170.219  1.00  0.00     0.009 C 
ENDBRANCH   5  11
TORSDOF 3
ENDMDL
MODEL 7
REMARK VINA RESULT:    -3.464      9.367     10.226
REMARK INTER + INTRA:          -4.077
REMARK INTER:                  -3.980
REMARK INTRA:                  -0.097
REMARK UNBOUND:                -0.107
REMARK SMILES C=Cc1ccc(O)c(OC)c1
REMARK SMILES IDX 8 1 6 2 5 3 4 4 3 5 11 6 9 7 10 8 7 9 2 11 1 12
REMARK H PARENT 7 10
REMARK Flexibility Score: inf
ROOT
ATOM      1  C   UNL     1     162.655 174.687 166.446  1.00  0.00     0.161 A 
ATOM      2  C   UNL     1     161.343 175.049 166.781  1.00  0.00     0.157 A 
ATOM      3  C   UNL     1     160.703 174.440 167.866  1.00  0.00     0.051 A 
ATOM      4  C   UNL     1     161.362 173.467 168.618  1.00  0.00     0.012 A 
ATOM      5  C   UNL     1     162.670 173.076 168.291  1.00  0.00    -0.022 A 
ATOM      6  C   UNL     1     163.317 173.702 167.207  1.00  0.00     0.058 A 
ENDROOT
BRANCH   1   7
ATOM      7  O   UNL     1     163.266 175.327 165.355  1.00  0.00    -0.493 OA
ATOM      8  C   UNL     1     164.573 175.034 164.875  1.00  0.00     0.278 C 
ENDBRANCH   1   7
BRANCH   2   9
ATOM      9  O   UNL     1     160.684 176.020 166.029  1.00  0.00    -0.504 OA
ATOM     10  H   UNL     1     160.036 175.769 165.291  1.00  0.00     0.293 HD
ENDBRANCH   2   9
BRANCH   5  11
ATOM     11  C   UNL     1     163.327 172.041 169.126  1.00  0.00     0.000 C 
ATOM     12  C   UNL     1     162.672 171.160 169.882  1.00  0.00     0.009 C 
ENDBRANCH   5  11
TORSDOF 3
ENDMDL
MODEL 8
REMARK VINA RESULT:    -3.416      8.569      9.694
REMARK INTER + INTRA:          -4.022
REMARK INTER:                  -3.928
REMARK INTRA:                  -0.094
REMARK UNBOUND:                -0.107
REMARK SMILES C=Cc1ccc(O)c(OC)c1
REMARK SMILES IDX 8 1 6 2 5 3 4 4 3 5 11 6 9 7 10 8 7 9 2 11 1 12
REMARK H PARENT 7 10
REMARK Flexibility Score: inf
ROOT
ATOM      1  C   UNL     1     162.552 174.117 170.167  1.00  0.00     0.161 A 
ATOM      2  C   UNL     1     163.675 173.296 170.000  1.00  0.00     0.157 A 
ATOM      3  C   UNL     1     163.514 171.943 169.682  1.00  0.00     0.051 A 
ATOM      4  C   UNL     1     162.236 171.402 169.533  1.00  0.00     0.012 A 
ATOM      5  C   UNL     1     161.096 172.201 169.712  1.00  0.00    -0.022 A 
ATOM      6  C   UNL     1     161.263 173.566 170.017  1.00  0.00     0.058 A 
ENDROOT
BRANCH   1   7
ATOM      7  O   UNL     1     162.756 175.472 170.477  1.00  0.00    -0.493 OA
ATOM      8  C   UNL     1     162.601 176.036 171.775  1.00  0.00     0.278 C 
ENDBRANCH   1   7
BRANCH   2   9
ATOM      9  O   UNL     1     164.951 173.836 170.150  1.00  0.00    -0.504 OA
ATOM     10  H   UNL     1     165.096 174.743 170.578  1.00  0.00     0.293 HD
ENDBRANCH   2   9
BRANCH   5  11
ATOM     11  C   UNL     1     159.761 171.577 169.535  1.00  0.00     0.000 C 
ATOM     12  C   UNL     1     158.911 171.890 168.558  1.00  0.00     0.009 C 
ENDBRANCH   5  11
TORSDOF 3
ENDMDL
MODEL 9
REMARK VINA RESULT:    -3.352      3.525      4.622
REMARK INTER + INTRA:          -3.949
REMARK INTER:                  -3.837
REMARK INTRA:                  -0.112
REMARK UNBOUND:                -0.107
REMARK SMILES C=Cc1ccc(O)c(OC)c1
REMARK SMILES IDX 8 1 6 2 5 3 4 4 3 5 11 6 9 7 10 8 7 9 2 11 1 12
REMARK H PARENT 7 10
REMARK Flexibility Score: inf
ROOT
ATOM      1  C   UNL     1     171.993 169.122 169.483  1.00  0.00     0.161 A 
ATOM      2  C   UNL     1     170.822 169.032 168.720  1.00  0.00     0.157 A 
ATOM      3  C   UNL     1     169.937 167.965 168.915  1.00  0.00     0.051 A 
ATOM      4  C   UNL     1     170.217 166.982 169.865  1.00  0.00     0.012 A 
ATOM      5  C   UNL     1     171.393 167.042 170.630  1.00  0.00    -0.022 A 
ATOM      6  C   UNL     1     172.273 168.126 170.442  1.00  0.00     0.058 A 
ENDROOT
BRANCH   1   7
ATOM      7  O   UNL     1     172.851 170.213 169.264  1.00  0.00    -0.493 OA
ATOM      8  C   UNL     1     174.206 170.103 168.844  1.00  0.00     0.278 C 
ENDBRANCH   1   7
BRANCH   2   9
ATOM      9  O   UNL     1     170.542 170.012 167.769  1.00  0.00    -0.504 OA
ATOM     10  H   UNL     1     170.805 169.898 166.797  1.00  0.00     0.293 HD
ENDBRANCH   2   9
BRANCH   5  11
ATOM     11  C   UNL     1     171.640 165.975 171.631  1.00  0.00     0.000 C 
ATOM     12  C   UNL     1     170.687 165.205 172.156  1.00  0.00     0.009 C 
ENDBRANCH   5  11
TORSDOF 3
ENDMDL
