MODEL 1
REMARK VINA RESULT:     7.415      0.000      0.000
REMARK INTER + INTRA:          13.034
REMARK INTER:                  13.483
REMARK INTRA:                  -0.450
REMARK UNBOUND:                -0.450
REMARK SMILES CCCCCCCCCCCCCCCC(=O)[O-]
REMARK SMILES IDX 9 1 10 2 11 3 12 4 13 5 14 6 15 7 16 8 17 9 18 10 8 11 7 12
REMARK SMILES IDX 6 13 5 14 4 15 3 16 2 17 1 18
REMARK H PARENT
REMARK Flexibility Score: inf
ROOT
ATOM      1  C   UNL     1     -33.230  12.705  17.286  1.00  0.00     0.000 C 
ENDROOT
BRANCH   1   2
ATOM      2  C   UNL     1     -33.654  13.945  16.485  1.00  0.00     0.000 C 
BRANCH   2   3
ATOM      3  C   UNL     1     -34.414  14.982  17.336  1.00  0.00     0.000 C 
BRANCH   3   4
ATOM      4  C   UNL     1     -34.795  16.280  16.603  1.00  0.00     0.000 C 
BRANCH   4   5
ATOM      5  C   UNL     1     -35.158  17.426  17.564  1.00  0.00     0.000 C 
BRANCH   5   6
ATOM      6  C   UNL     1     -36.676  17.540  17.806  1.00  0.00     0.006 C 
BRANCH   6   7
ATOM      7  C   UNL     1     -37.477  16.286  17.423  1.00  0.00     0.053 C 
BRANCH   7   8
ATOM      8  C   UNL     1     -38.792  16.220  18.135  1.00  0.00     0.041 C 
ATOM      9  O   UNL     1     -39.775  16.888  17.717  1.00  0.00    -0.550 OA
ATOM     10  O   UNL     1     -38.924  15.445  19.280  1.00  0.00    -0.550 OA
ENDBRANCH   7   8
ENDBRANCH   6   7
ENDBRANCH   5   6
ENDBRANCH   4   5
ENDBRANCH   3   4
ENDBRANCH   2   3
ENDBRANCH   1   2
BRANCH   1  11
ATOM     11  C   UNL     1     -32.885  13.080  18.735  1.00  0.00     0.000 C 
BRANCH  11  12
ATOM     12  C   UNL     1     -32.743  11.851  19.649  1.00  0.00    -0.000 C 
BRANCH  12  13
ATOM     13  C   UNL     1     -33.964  11.653  20.565  1.00  0.00    -0.000 C 
BRANCH  13  14
ATOM     14  C   UNL     1     -34.292  10.168  20.789  1.00  0.00    -0.000 C 
BRANCH  14  15
ATOM     15  C   UNL     1     -33.479   9.549  21.939  1.00  0.00    -0.000 C 
BRANCH  15  16
ATOM     16  C   UNL     1     -33.600   8.010  21.972  1.00  0.00    -0.000 C 
BRANCH  16  17
ATOM     17  C   UNL     1     -34.810   7.504  22.776  1.00  0.00    -0.003 C 
ATOM     18  C   UNL     1     -34.457   7.117  24.210  1.00  0.00     0.004 C 
ENDBRANCH  16  17
ENDBRANCH  15  16
ENDBRANCH  14  15
ENDBRANCH  13  14
ENDBRANCH  12  13
ENDBRANCH  11  12
ENDBRANCH   1  11
TORSDOF 14
ENDMDL
MODEL 2
REMARK VINA RESULT:     7.636      3.814      8.881
REMARK INTER + INTRA:          13.436
REMARK INTER:                  13.768
REMARK INTRA:                  -0.331
REMARK UNBOUND:                -0.450
REMARK SMILES CCCCCCCCCCCCCCCC(=O)[O-]
REMARK SMILES IDX 9 1 10 2 11 3 12 4 13 5 14 6 15 7 16 8 17 9 18 10 8 11 7 12
REMARK SMILES IDX 6 13 5 14 4 15 3 16 2 17 1 18
REMARK H PARENT
REMARK Flexibility Score: inf
ROOT
ATOM      1  C   UNL     1     -32.737  13.087  17.758  1.00  0.00     0.000 C 
ENDROOT
BRANCH   1   2
ATOM      2  C   UNL     1     -33.270  12.702  19.147  1.00  0.00     0.000 C 
BRANCH   2   3
ATOM      3  C   UNL     1     -32.940  11.248  19.538  1.00  0.00     0.000 C 
BRANCH   3   4
ATOM      4  C   UNL     1     -33.767  10.678  20.703  1.00  0.00     0.000 C 
BRANCH   4   5
ATOM      5  C   UNL     1     -33.278   9.295  21.165  1.00  0.00     0.000 C 
BRANCH   5   6
ATOM      6  C   UNL     1     -33.862   8.881  22.530  1.00  0.00     0.006 C 
BRANCH   6   7
ATOM      7  C   UNL     1     -34.352   7.425  22.596  1.00  0.00     0.053 C 
BRANCH   7   8
ATOM      8  C   UNL     1     -34.829   7.056  23.967  1.00  0.00     0.041 C 
ATOM      9  O   UNL     1     -36.060   7.063  24.233  1.00  0.00    -0.550 OA
ATOM     10  O   UNL     1     -33.912   6.735  24.959  1.00  0.00    -0.550 OA
ENDBRANCH   7   8
ENDBRANCH   6   7
ENDBRANCH   5   6
ENDBRANCH   4   5
ENDBRANCH   3   4
ENDBRANCH   2   3
ENDBRANCH   1   2
BRANCH   1  11
ATOM     11  C   UNL     1     -33.804  13.842  16.952  1.00  0.00     0.000 C 
BRANCH  11  12
ATOM     12  C   UNL     1     -34.377  15.051  17.709  1.00  0.00    -0.000 C 
BRANCH  12  13
ATOM     13  C   UNL     1     -34.902  16.145  16.764  1.00  0.00    -0.000 C 
BRANCH  13  14
ATOM     14  C   UNL     1     -35.169  17.471  17.495  1.00  0.00    -0.000 C 
BRANCH  14  15
ATOM     15  C   UNL     1     -36.663  17.701  17.779  1.00  0.00    -0.000 C 
BRANCH  15  16
ATOM     16  C   UNL     1     -37.479  16.393  17.687  1.00  0.00    -0.000 C 
BRANCH  16  17
ATOM     17  C   UNL     1     -38.924  16.531  18.197  1.00  0.00    -0.003 C 
ATOM     18  C   UNL     1     -39.879  17.092  17.146  1.00  0.00     0.004 C 
ENDBRANCH  16  17
ENDBRANCH  15  16
ENDBRANCH  14  15
ENDBRANCH  13  14
ENDBRANCH  12  13
ENDBRANCH  11  12
ENDBRANCH   1  11
TORSDOF 14
ENDMDL
MODEL 3
REMARK VINA RESULT:     7.707      3.702      8.426
REMARK INTER + INTRA:          13.565
REMARK INTER:                  13.958
REMARK INTRA:                  -0.393
REMARK UNBOUND:                -0.450
REMARK SMILES CCCCCCCCCCCCCCCC(=O)[O-]
REMARK SMILES IDX 9 1 10 2 11 3 12 4 13 5 14 6 15 7 16 8 17 9 18 10 8 11 7 12
REMARK SMILES IDX 6 13 5 14 4 15 3 16 2 17 1 18
REMARK H PARENT
REMARK Flexibility Score: inf
ROOT
ATOM      1  C   UNL     1     -32.683  13.173  17.093  1.00  0.00     0.000 C 
ENDROOT
BRANCH   1   2
ATOM      2  C   UNL     1     -33.333  12.211  18.098  1.00  0.00     0.000 C 
BRANCH   2   3
ATOM      3  C   UNL     1     -32.818  12.405  19.538  1.00  0.00     0.000 C 
BRANCH   3   4
ATOM      4  C   UNL     1     -33.752  11.882  20.644  1.00  0.00     0.000 C 
BRANCH   4   5
ATOM      5  C   UNL     1     -33.970  10.361  20.575  1.00  0.00     0.000 C 
BRANCH   5   6
ATOM      6  C   UNL     1     -34.025   9.703  21.967  1.00  0.00     0.006 C 
BRANCH   6   7
ATOM      7  C   UNL     1     -33.583   8.230  21.991  1.00  0.00     0.053 C 
BRANCH   7   8
ATOM      8  C   UNL     1     -34.449   7.399  22.886  1.00  0.00     0.041 C 
ATOM      9  O   UNL     1     -34.199   7.320  24.117  1.00  0.00    -0.550 OA
ATOM     10  O   UNL     1     -35.516   6.686  22.353  1.00  0.00    -0.550 OA
ENDBRANCH   7   8
ENDBRANCH   6   7
ENDBRANCH   5   6
ENDBRANCH   4   5
ENDBRANCH   3   4
ENDBRANCH   2   3
ENDBRANCH   1   2
BRANCH   1  11
ATOM     11  C   UNL     1     -33.743  14.043  16.402  1.00  0.00     0.000 C 
BRANCH  11  12
ATOM     12  C   UNL     1     -34.352  15.097  17.341  1.00  0.00    -0.000 C 
BRANCH  12  13
ATOM     13  C   UNL     1     -34.931  16.302  16.579  1.00  0.00    -0.000 C 
BRANCH  13  14
ATOM     14  C   UNL     1     -35.346  17.445  17.522  1.00  0.00    -0.000 C 
BRANCH  14  15
ATOM     15  C   UNL     1     -36.856  17.454  17.813  1.00  0.00    -0.000 C 
BRANCH  15  16
ATOM     16  C   UNL     1     -37.444  16.028  17.875  1.00  0.00    -0.000 C 
BRANCH  16  17
ATOM     17  C   UNL     1     -38.909  15.985  18.343  1.00  0.00    -0.003 C 
ATOM     18  C   UNL     1     -39.812  16.945  17.572  1.00  0.00     0.004 C 
ENDBRANCH  16  17
ENDBRANCH  15  16
ENDBRANCH  14  15
ENDBRANCH  13  14
ENDBRANCH  12  13
ENDBRANCH  11  12
ENDBRANCH   1  11
TORSDOF 14
ENDMDL
MODEL 4
REMARK VINA RESULT:     8.414      1.756      2.064
REMARK INTER + INTRA:          14.850
REMARK INTER:                  15.523
REMARK INTRA:                  -0.672
REMARK UNBOUND:                -0.450
REMARK SMILES CCCCCCCCCCCCCCCC(=O)[O-]
REMARK SMILES IDX 9 1 10 2 11 3 12 4 13 5 14 6 15 7 16 8 17 9 18 10 8 11 7 12
REMARK SMILES IDX 6 13 5 14 4 15 3 16 2 17 1 18
REMARK H PARENT
REMARK Flexibility Score: inf
ROOT
ATOM      1  C   UNL     1     -32.723  12.751  17.768  1.00  0.00     0.000 C 
ENDROOT
BRANCH   1   2
ATOM      2  C   UNL     1     -33.833  13.507  17.024  1.00  0.00     0.000 C 
BRANCH   2   3
ATOM      3  C   UNL     1     -34.149  14.881  17.648  1.00  0.00     0.000 C 
BRANCH   3   4
ATOM      4  C   UNL     1     -34.712  15.931  16.672  1.00  0.00     0.000 C 
BRANCH   4   5
ATOM      5  C   UNL     1     -35.016  17.277  17.352  1.00  0.00     0.000 C 
BRANCH   5   6
ATOM      6  C   UNL     1     -36.482  17.395  17.810  1.00  0.00     0.006 C 
BRANCH   6   7
ATOM      7  C   UNL     1     -37.353  16.175  17.472  1.00  0.00     0.053 C 
BRANCH   7   8
ATOM      8  C   UNL     1     -38.698  16.246  18.128  1.00  0.00     0.041 C 
ATOM      9  O   UNL     1     -39.575  17.038  17.692  1.00  0.00    -0.550 OA
ATOM     10  O   UNL     1     -38.971  15.460  19.239  1.00  0.00    -0.550 OA
ENDBRANCH   7   8
ENDBRANCH   6   7
ENDBRANCH   5   6
ENDBRANCH   4   5
ENDBRANCH   3   4
ENDBRANCH   2   3
ENDBRANCH   1   2
BRANCH   1  11
ATOM     11  C   UNL     1     -33.032  12.661  19.269  1.00  0.00     0.000 C 
BRANCH  11  12
ATOM     12  C   UNL     1     -33.558  11.278  19.686  1.00  0.00    -0.000 C 
BRANCH  12  13
ATOM     13  C   UNL     1     -33.958  11.221  21.171  1.00  0.00    -0.000 C 
BRANCH  13  14
ATOM     14  C   UNL     1     -34.031  12.617  21.811  1.00  0.00    -0.000 C 
BRANCH  14  15
ATOM     15  C   UNL     1     -34.448  12.570  23.291  1.00  0.00    -0.000 C 
BRANCH  15  16
ATOM     16  C   UNL     1     -33.657  11.507  24.083  1.00  0.00    -0.000 C 
BRANCH  16  17
ATOM     17  C   UNL     1     -34.319  11.111  25.414  1.00  0.00    -0.003 C 
ATOM     18  C   UNL     1     -33.347  10.461  26.396  1.00  0.00     0.004 C 
ENDBRANCH  16  17
ENDBRANCH  15  16
ENDBRANCH  14  15
ENDBRANCH  13  14
ENDBRANCH  12  13
ENDBRANCH  11  12
ENDBRANCH   1  11
TORSDOF 14
ENDMDL
MODEL 5
REMARK VINA RESULT:     8.493      3.337      7.735
REMARK INTER + INTRA:          14.994
REMARK INTER:                  15.623
REMARK INTRA:                  -0.628
REMARK UNBOUND:                -0.450
REMARK SMILES CCCCCCCCCCCCCCCC(=O)[O-]
REMARK SMILES IDX 9 1 10 2 11 3 12 4 13 5 14 6 15 7 16 8 17 9 18 10 8 11 7 12
REMARK SMILES IDX 6 13 5 14 4 15 3 16 2 17 1 18
REMARK H PARENT
REMARK Flexibility Score: inf
ROOT
ATOM      1  C   UNL     1     -34.533  15.412  17.187  1.00  0.00     0.000 C 
ENDROOT
BRANCH   1   2
ATOM      2  C   UNL     1     -34.015  14.480  16.081  1.00  0.00     0.000 C 
BRANCH   2   3
ATOM      3  C   UNL     1     -33.509  13.128  16.621  1.00  0.00     0.000 C 
BRANCH   3   4
ATOM      4  C   UNL     1     -32.019  13.092  17.006  1.00  0.00     0.000 C 
BRANCH   4   5
ATOM      5  C   UNL     1     -31.789  12.695  18.474  1.00  0.00     0.000 C 
BRANCH   5   6
ATOM      6  C   UNL     1     -33.033  12.054  19.119  1.00  0.00     0.006 C 
BRANCH   6   7
ATOM      7  C   UNL     1     -33.616  12.847  20.301  1.00  0.00     0.053 C 
BRANCH   7   8
ATOM      8  C   UNL     1     -33.990  11.956  21.445  1.00  0.00     0.041 C 
ATOM      9  O   UNL     1     -34.235  12.447  22.578  1.00  0.00    -0.550 OA
ATOM     10  O   UNL     1     -34.038  10.580  21.266  1.00  0.00    -0.550 OA
ENDBRANCH   7   8
ENDBRANCH   6   7
ENDBRANCH   5   6
ENDBRANCH   4   5
ENDBRANCH   3   4
ENDBRANCH   2   3
ENDBRANCH   1   2
BRANCH   1  11
ATOM     11  C   UNL     1     -34.858  16.803  16.624  1.00  0.00     0.000 C 
BRANCH  11  12
ATOM     12  C   UNL     1     -35.352  17.781  17.702  1.00  0.00    -0.000 C 
BRANCH  12  13
ATOM     13  C   UNL     1     -36.883  17.764  17.858  1.00  0.00    -0.000 C 
BRANCH  13  14
ATOM     14  C   UNL     1     -37.479  16.366  17.626  1.00  0.00    -0.000 C 
BRANCH  14  15
ATOM     15  C   UNL     1     -38.515  15.978  18.695  1.00  0.00    -0.000 C 
BRANCH  15  16
ATOM     16  C   UNL     1     -39.935  16.457  18.327  1.00  0.00    -0.000 C 
BRANCH  16  17
ATOM     17  C   UNL     1     -40.088  16.857  16.850  1.00  0.00    -0.003 C 
ATOM     18  C   UNL     1     -40.763  18.214  16.663  1.00  0.00     0.004 C 
ENDBRANCH  16  17
ENDBRANCH  15  16
ENDBRANCH  14  15
ENDBRANCH  13  14
ENDBRANCH  12  13
ENDBRANCH  11  12
ENDBRANCH   1  11
TORSDOF 14
ENDMDL
