MODEL 1
REMARK VINA RESULT:     7.484      0.000      0.000
REMARK INTER + INTRA:           8.108
REMARK INTER:                   8.140
REMARK INTRA:                  -0.032
REMARK UNBOUND:                -0.032
REMARK SMILES O=C([O-])c1ccc(O)cc1
REMARK SMILES IDX 4 1 5 2 10 3 6 4 9 5 7 6 2 7 1 8 3 9 8 10
REMARK H PARENT 8 11
REMARK Flexibility Score: inf
ROOT
ATOM      1  C   UNL     1       5.770   5.819  -3.162  1.00  0.00    -0.003 A 
ATOM      2  C   UNL     1       6.797   6.330  -2.348  1.00  0.00     0.014 A 
ATOM      3  C   UNL     1       4.558   6.526  -3.258  1.00  0.00     0.014 A 
ATOM      4  C   UNL     1       6.613   7.524  -1.644  1.00  0.00     0.047 A 
ATOM      5  C   UNL     1       4.378   7.720  -2.553  1.00  0.00     0.047 A 
ATOM      6  C   UNL     1       5.406   8.223  -1.744  1.00  0.00     0.115 A 
ENDROOT
BRANCH   1   7
ATOM      7  C   UNL     1       5.967   4.554  -3.906  1.00  0.00     0.071 C 
ATOM      8  O   UNL     1       5.547   4.434  -5.088  1.00  0.00    -0.545 OA
ATOM      9  O   UNL     1       6.618   3.480  -3.310  1.00  0.00    -0.545 OA
ENDBRANCH   1   7
BRANCH   6  10
ATOM     10  O   UNL     1       5.237   9.411  -1.038  1.00  0.00    -0.508 OA
ATOM     11  H   UNL     1       4.870   9.418  -0.093  1.00  0.00     0.293 HD
ENDBRANCH   6  10
TORSDOF 2
ENDMDL
MODEL 2
REMARK VINA RESULT:     8.719      6.052      6.605
REMARK INTER + INTRA:           9.452
REMARK INTER:                   9.479
REMARK INTRA:                  -0.027
REMARK UNBOUND:                -0.032
REMARK SMILES O=C([O-])c1ccc(O)cc1
REMARK SMILES IDX 4 1 5 2 10 3 6 4 9 5 7 6 2 7 1 8 3 9 8 10
REMARK H PARENT 8 11
REMARK Flexibility Score: inf
ROOT
ATOM      1  C   UNL     1       0.908   8.576  -6.322  1.00  0.00    -0.003 A 
ATOM      2  C   UNL     1       0.446   9.833  -5.892  1.00  0.00     0.014 A 
ATOM      3  C   UNL     1       0.879   7.494  -5.425  1.00  0.00     0.014 A 
ATOM      4  C   UNL     1      -0.034  10.002  -4.590  1.00  0.00     0.047 A 
ATOM      5  C   UNL     1       0.397   7.666  -4.123  1.00  0.00     0.047 A 
ATOM      6  C   UNL     1      -0.061   8.922  -3.702  1.00  0.00     0.115 A 
ENDROOT
BRANCH   1   7
ATOM      7  C   UNL     1       1.417   8.400  -7.701  1.00  0.00     0.071 C 
ATOM      8  O   UNL     1       0.707   7.843  -8.579  1.00  0.00    -0.545 OA
ATOM      9  O   UNL     1       2.688   8.847  -8.046  1.00  0.00    -0.545 OA
ENDBRANCH   1   7
BRANCH   6  10
ATOM     10  O   UNL     1      -0.543   9.105  -2.409  1.00  0.00    -0.508 OA
ATOM     11  H   UNL     1      -0.029   8.776  -1.600  1.00  0.00     0.293 HD
ENDBRANCH   6  10
TORSDOF 2
ENDMDL
MODEL 3
REMARK VINA RESULT:     9.864      1.936      4.764
REMARK INTER + INTRA:          10.697
REMARK INTER:                  10.725
REMARK INTRA:                  -0.029
REMARK UNBOUND:                -0.032
REMARK SMILES O=C([O-])c1ccc(O)cc1
REMARK SMILES IDX 4 1 5 2 10 3 6 4 9 5 7 6 2 7 1 8 3 9 8 10
REMARK H PARENT 8 11
REMARK Flexibility Score: inf
ROOT
ATOM      1  C   UNL     1       5.895   5.289  -3.300  1.00  0.00    -0.003 A 
ATOM      2  C   UNL     1       5.663   5.047  -4.665  1.00  0.00     0.014 A 
ATOM      3  C   UNL     1       6.581   4.323  -2.542  1.00  0.00     0.014 A 
ATOM      4  C   UNL     1       6.107   3.862  -5.260  1.00  0.00     0.047 A 
ATOM      5  C   UNL     1       7.025   3.139  -3.140  1.00  0.00     0.047 A 
ATOM      6  C   UNL     1       6.789   2.906  -4.502  1.00  0.00     0.115 A 
ENDROOT
BRANCH   1   7
ATOM      7  C   UNL     1       5.423   6.544  -2.673  1.00  0.00     0.071 C 
ATOM      8  O   UNL     1       4.193   6.812  -2.626  1.00  0.00    -0.545 OA
ATOM      9  O   UNL     1       6.330   7.444  -2.126  1.00  0.00    -0.545 OA
ENDBRANCH   1   7
BRANCH   6  10
ATOM     10  O   UNL     1       7.226   1.731  -5.107  1.00  0.00    -0.508 OA
ATOM     11  H   UNL     1       7.754   1.035  -4.594  1.00  0.00     0.293 HD
ENDBRANCH   6  10
TORSDOF 2
ENDMDL
MODEL 4
REMARK VINA RESULT:    10.412      5.838      7.468
REMARK INTER + INTRA:          11.293
REMARK INTER:                  11.326
REMARK INTRA:                  -0.033
REMARK UNBOUND:                -0.032
REMARK SMILES O=C([O-])c1ccc(O)cc1
REMARK SMILES IDX 4 1 5 2 10 3 6 4 9 5 7 6 2 7 1 8 3 9 8 10
REMARK H PARENT 8 11
REMARK Flexibility Score: inf
ROOT
ATOM      1  C   UNL     1       0.808   8.381  -5.578  1.00  0.00    -0.003 A 
ATOM      2  C   UNL     1      -0.460   8.298  -6.180  1.00  0.00     0.014 A 
ATOM      3  C   UNL     1       1.943   8.542  -6.394  1.00  0.00     0.014 A 
ATOM      4  C   UNL     1      -0.589   8.375  -7.570  1.00  0.00     0.047 A 
ATOM      5  C   UNL     1       1.809   8.618  -7.784  1.00  0.00     0.047 A 
ATOM      6  C   UNL     1       0.542   8.535  -8.376  1.00  0.00     0.115 A 
ENDROOT
BRANCH   1   7
ATOM      7  C   UNL     1       0.943   8.299  -4.106  1.00  0.00     0.071 C 
ATOM      8  O   UNL     1       1.946   7.742  -3.585  1.00  0.00    -0.545 OA
ATOM      9  O   UNL     1      -0.035   8.836  -3.278  1.00  0.00    -0.545 OA
ENDBRANCH   1   7
BRANCH   6  10
ATOM     10  O   UNL     1       0.397   8.610  -9.758  1.00  0.00    -0.508 OA
ATOM     11  H   UNL     1       1.172   8.867 -10.359  1.00  0.00     0.293 HD
ENDBRANCH   6  10
TORSDOF 2
ENDMDL
