MODEL 1
REMARK VINA RESULT:     0.086      0.000      0.000
REMARK INTER + INTRA:           0.756
REMARK INTER:                   0.116
REMARK INTRA:                   0.640
REMARK UNBOUND:                 0.640
REMARK SMILES C=C1C(=O)O[C@@H]2[C@H]3O[C@]3(C)CCC=C(C)CC[C@@H]12
REMARK SMILES IDX 6 1 18 2 2 3 1 4 3 5 4 6 5 7 17 8 16 9 14 10 15 11 13 12
REMARK SMILES IDX 7 14 9 15 8 16 10 17 11 18 12 19
REMARK H PARENT
REMARK Flexibility Score: 70.00
ROOT
ATOM      1  C   UNL     1      11.078 -11.620 -28.395  1.00  0.00     0.216 C 
ATOM      2  C   UNL     1      11.260 -13.076 -27.867  1.00  0.00     0.070 C 
ATOM      3  C   UNL     1      10.246 -13.843 -28.663  1.00  0.00     0.037 C 
ATOM      4  C   UNL     1       9.916 -15.125 -28.511  1.00  0.00     0.021 C 
ATOM      5  C   UNL     1       9.842 -12.994 -29.763  1.00  0.00     0.334 C 
ATOM      6  O   UNL     1       9.098 -13.335 -30.719  1.00  0.00    -0.247 OA
ATOM      7  O   UNL     1      10.417 -11.745 -29.650  1.00  0.00    -0.455 OA
ENDROOT
BRANCH   2   8
ATOM      8  C   UNL     1      11.093 -13.193 -26.334  1.00  0.00     0.017 C 
BRANCH   8   9
ATOM      9  C   UNL     1      12.428 -13.117 -25.551  1.00  0.00     0.031 C 
BRANCH   9  10
ATOM     10  C   UNL     1      13.657 -13.559 -26.342  1.00  0.00    -0.077 C 
ATOM     11  C   UNL     1      13.777 -15.006 -26.754  1.00  0.00     0.039 C 
ATOM     12  C   UNL     1      14.717 -12.750 -26.611  1.00  0.00    -0.028 CG0
ATOM     13  G   UNL     1      14.912 -11.316 -26.158  1.00  0.00     0.000 G0
ENDBRANCH   9  10
ENDBRANCH   8   9
ENDBRANCH   2   8
BRANCH   1  14
ATOM     14  C   UNL     1      12.443 -10.937 -28.531  1.00  0.00     0.192 C 
ATOM     15  C   UNL     1      12.960 -10.227 -27.325  1.00  0.00     0.096 C 
ATOM     16  O   UNL     1      12.461  -9.530 -28.449  1.00  0.00    -0.362 OA
ATOM     17  C   UNL     1      12.124  -9.874 -26.084  1.00  0.00     0.045 C 
BRANCH  15  18
ATOM     18  C   UNL     1      14.486 -10.263 -27.193  1.00  0.00     0.042 C 
BRANCH  18  19
ATOM     19  C   UNL     1      14.918 -11.314 -26.152  1.00  0.00     0.030 CG0
ATOM     20  G   UNL     1      14.718 -12.737 -26.637  1.00  0.00     0.000 G0
ENDBRANCH  18  19
ENDBRANCH  15  18
ENDBRANCH   1  14
TORSDOF 0
ENDMDL
MODEL 2
REMARK VINA RESULT:     0.366      2.784      4.236
REMARK INTER + INTRA:           1.134
REMARK INTER:                   0.678
REMARK INTRA:                   0.456
REMARK UNBOUND:                 0.640
REMARK SMILES C=C1C(=O)O[C@@H]2[C@H]3O[C@]3(C)CCC=C(C)CC[C@@H]12
REMARK SMILES IDX 6 1 18 2 2 3 1 4 3 5 4 6 5 7 17 8 16 9 14 10 15 11 13 12
REMARK SMILES IDX 7 14 9 15 8 16 10 17 11 18 12 19
REMARK H PARENT
REMARK Flexibility Score: 70.00
ROOT
ATOM      1  C   UNL     1      11.783 -11.450 -25.233  1.00  0.00     0.216 C 
ATOM      2  C   UNL     1      11.383 -12.947 -25.406  1.00  0.00     0.070 C 
ATOM      3  C   UNL     1      10.931 -13.327 -24.028  1.00  0.00     0.037 C 
ATOM      4  C   UNL     1      10.589 -14.545 -23.607  1.00  0.00     0.021 C 
ATOM      5  C   UNL     1      10.731 -12.096 -23.294  1.00  0.00     0.334 C 
ATOM      6  O   UNL     1      10.233 -12.001 -22.142  1.00  0.00    -0.247 OA
ATOM      7  O   UNL     1      11.130 -11.011 -24.046  1.00  0.00    -0.455 OA
ENDROOT
BRANCH   2   8
ATOM      8  C   UNL     1      12.527 -13.822 -25.969  1.00  0.00     0.017 C 
BRANCH   8   9
ATOM      9  C   UNL     1      12.501 -13.971 -27.511  1.00  0.00     0.031 C 
BRANCH   9  10
ATOM     10  C   UNL     1      11.130 -13.760 -28.149  1.00  0.00    -0.077 C 
ATOM     11  C   UNL     1      10.034 -14.759 -27.869  1.00  0.00     0.039 C 
ATOM     12  C   UNL     1      10.856 -12.779 -29.050  1.00  0.00    -0.028 CG0
ATOM     13  G   UNL     1      11.827 -11.764 -29.623  1.00  0.00     0.000 G0
ENDBRANCH   9  10
ENDBRANCH   8   9
ENDBRANCH   2   8
BRANCH   1  14
ATOM     14  C   UNL     1      11.344 -10.644 -26.461  1.00  0.00     0.192 C 
ATOM     15  C   UNL     1      12.360 -10.455 -27.536  1.00  0.00     0.096 C 
ATOM     16  O   UNL     1      11.982  -9.405 -26.669  1.00  0.00    -0.362 OA
ATOM     17  C   UNL     1      13.864 -10.733 -27.386  1.00  0.00     0.045 C 
BRANCH  15  18
ATOM     18  C   UNL     1      11.764 -10.396 -28.946  1.00  0.00     0.042 C 
BRANCH  18  19
ATOM     19  C   UNL     1      11.840 -11.776 -29.628  1.00  0.00     0.030 CG0
ATOM     20  G   UNL     1      10.855 -12.772 -29.046  1.00  0.00     0.000 G0
ENDBRANCH  18  19
ENDBRANCH  15  18
ENDBRANCH   1  14
TORSDOF 0
ENDMDL
