MODEL 1
REMARK VINA RESULT:    -6.606      0.000      0.000
REMARK INTER + INTRA:          -7.817
REMARK INTER:                  -7.957
REMARK INTRA:                   0.141
REMARK UNBOUND:                 0.141
REMARK SMILES O=c1c(O)c(-c2ccc(O)c(O)c2)oc2cc(O)cc(O)c12
REMARK SMILES IDX 5 1 3 2 2 3 1 4 22 5 20 6 19 7 17 8 16 9 15 10 14 11 6 12
REMARK SMILES IDX 7 13 8 14 9 15 13 16 11 17 10 18 12 20 4 22 21 24 18 26
REMARK H PARENT 10 19 12 21 4 23 21 25 18 27
REMARK Flexibility Score: inf
ROOT
ATOM      1  C   UNL     1       2.042  24.043  48.585  1.00  0.00     0.180 A 
ATOM      2  C   UNL     1       1.958  25.424  48.338  1.00  0.00     0.208 A 
ATOM      3  C   UNL     1       2.135  25.894  47.026  1.00  0.00     0.238 A 
ATOM      4  O   UNL     1       2.005  27.125  46.802  1.00  0.00    -0.285 OA
ATOM      5  C   UNL     1       2.408  24.978  45.981  1.00  0.00     0.111 A 
ATOM      6  C   UNL     1       2.644  25.346  44.623  1.00  0.00     0.134 A 
ATOM      7  C   UNL     1       2.776  24.348  43.649  1.00  0.00     0.093 A 
ATOM      8  C   UNL     1       2.745  22.997  43.994  1.00  0.00     0.123 A 
ATOM      9  C   UNL     1       2.575  22.627  45.329  1.00  0.00     0.094 A 
ATOM     10  C   UNL     1       2.405  23.599  46.317  1.00  0.00     0.146 A 
ATOM     11  O   UNL     1       2.235  23.204  47.573  1.00  0.00    -0.452 OA
ENDROOT
BRANCH   1  12
ATOM     12  C   UNL     1       1.893  23.475  49.944  1.00  0.00     0.025 A 
ATOM     13  C   UNL     1       0.863  23.939  50.778  1.00  0.00     0.016 A 
ATOM     14  C   UNL     1       0.692  23.402  52.056  1.00  0.00     0.051 A 
ATOM     15  C   UNL     1       1.535  22.385  52.515  1.00  0.00     0.157 A 
ATOM     16  C   UNL     1       2.727  22.437  50.400  1.00  0.00     0.062 A 
ATOM     17  C   UNL     1       2.555  21.897  51.682  1.00  0.00     0.158 A 
BRANCH  15  18
ATOM     18  O   UNL     1       1.341  21.871  53.797  1.00  0.00    -0.504 OA
ATOM     19  H   UNL     1       1.941  21.154  54.185  1.00  0.00     0.293 HD
ENDBRANCH  15  18
BRANCH  17  20
ATOM     20  O   UNL     1       3.389  20.873  52.128  1.00  0.00    -0.504 OA
ATOM     21  H   UNL     1       3.035  20.105  52.688  1.00  0.00     0.293 HD
ENDBRANCH  17  20
ENDBRANCH   1  12
BRANCH   2  22
ATOM     22  O   UNL     1       1.666  26.308  49.380  1.00  0.00    -0.502 OA
ATOM     23  H   UNL     1       2.369  26.900  49.805  1.00  0.00     0.293 HD
ENDBRANCH   2  22
BRANCH   6  24
ATOM     24  O   UNL     1       2.784  26.667  44.185  1.00  0.00    -0.507 OA
ATOM     25  H   UNL     1       2.066  27.373  44.249  1.00  0.00     0.293 HD
ENDBRANCH   6  24
BRANCH   8  26
ATOM     26  O   UNL     1       2.894  22.031  43.002  1.00  0.00    -0.508 OA
ATOM     27  H   UNL     1       3.296  22.257  42.098  1.00  0.00     0.293 HD
ENDBRANCH   8  26
TORSDOF 6
ENDMDL
MODEL 2
REMARK VINA RESULT:    -6.576      9.808     12.183
REMARK INTER + INTRA:          -7.781
REMARK INTER:                  -7.469
REMARK INTRA:                  -0.312
REMARK UNBOUND:                 0.141
REMARK SMILES O=c1c(O)c(-c2ccc(O)c(O)c2)oc2cc(O)cc(O)c12
REMARK SMILES IDX 5 1 3 2 2 3 1 4 22 5 20 6 19 7 17 8 16 9 15 10 14 11 6 12
REMARK SMILES IDX 7 13 8 14 9 15 13 16 11 17 10 18 12 20 4 22 21 24 18 26
REMARK H PARENT 10 19 12 21 4 23 21 25 18 27
REMARK Flexibility Score: inf
ROOT
ATOM      1  C   UNL     1       2.992  21.565  58.758  1.00  0.00     0.180 A 
ATOM      2  C   UNL     1       2.841  20.644  59.808  1.00  0.00     0.208 A 
ATOM      3  C   UNL     1       3.846  19.687  60.026  1.00  0.00     0.238 A 
ATOM      4  O   UNL     1       3.731  18.900  61.001  1.00  0.00    -0.285 OA
ATOM      5  C   UNL     1       4.981  19.654  59.180  1.00  0.00     0.111 A 
ATOM      6  C   UNL     1       6.041  18.703  59.283  1.00  0.00     0.134 A 
ATOM      7  C   UNL     1       7.177  18.845  58.477  1.00  0.00     0.093 A 
ATOM      8  C   UNL     1       7.264  19.862  57.527  1.00  0.00     0.123 A 
ATOM      9  C   UNL     1       6.207  20.762  57.377  1.00  0.00     0.094 A 
ATOM     10  C   UNL     1       5.077  20.668  58.191  1.00  0.00     0.146 A 
ATOM     11  O   UNL     1       4.099  21.550  58.023  1.00  0.00    -0.452 OA
ENDROOT
BRANCH   1  12
ATOM     12  C   UNL     1       1.964  22.586  58.450  1.00  0.00     0.025 A 
ATOM     13  C   UNL     1       1.977  23.809  59.140  1.00  0.00     0.016 A 
ATOM     14  C   UNL     1       1.030  24.793  58.851  1.00  0.00     0.051 A 
ATOM     15  C   UNL     1       0.066  24.579  57.861  1.00  0.00     0.157 A 
ATOM     16  C   UNL     1       1.006  22.380  57.441  1.00  0.00     0.062 A 
ATOM     17  C   UNL     1       0.055  23.368  57.149  1.00  0.00     0.158 A 
BRANCH  15  18
ATOM     18  O   UNL     1      -0.869  25.580  57.597  1.00  0.00    -0.504 OA
ATOM     19  H   UNL     1      -1.141  26.260  58.298  1.00  0.00     0.293 HD
ENDBRANCH  15  18
BRANCH  17  20
ATOM     20  O   UNL     1      -0.894  23.154  56.151  1.00  0.00    -0.504 OA
ATOM     21  H   UNL     1      -1.673  23.789  56.014  1.00  0.00     0.293 HD
ENDBRANCH  17  20
ENDBRANCH   1  12
BRANCH   2  22
ATOM     22  O   UNL     1       1.723  20.708  60.644  1.00  0.00    -0.502 OA
ATOM     23  H   UNL     1       0.786  20.509  60.317  1.00  0.00     0.293 HD
ENDBRANCH   2  22
BRANCH   6  24
ATOM     24  O   UNL     1       6.014  17.595  60.135  1.00  0.00    -0.507 OA
ATOM     25  H   UNL     1       5.183  17.223  60.569  1.00  0.00     0.293 HD
ENDBRANCH   6  24
BRANCH   8  26
ATOM     26  O   UNL     1       8.403  19.964  56.732  1.00  0.00    -0.508 OA
ATOM     27  H   UNL     1       9.100  19.228  56.707  1.00  0.00     0.293 HD
ENDBRANCH   8  26
TORSDOF 6
ENDMDL
MODEL 3
REMARK VINA RESULT:    -6.457      1.349      6.770
REMARK INTER + INTRA:          -7.637
REMARK INTER:                  -7.681
REMARK INTRA:                   0.044
REMARK UNBOUND:                 0.141
REMARK SMILES O=c1c(O)c(-c2ccc(O)c(O)c2)oc2cc(O)cc(O)c12
REMARK SMILES IDX 5 1 3 2 2 3 1 4 22 5 20 6 19 7 17 8 16 9 15 10 14 11 6 12
REMARK SMILES IDX 7 13 8 14 9 15 13 16 11 17 10 18 12 20 4 22 21 24 18 26
REMARK H PARENT 10 19 12 21 4 23 21 25 18 27
REMARK Flexibility Score: inf
ROOT
ATOM      1  C   UNL     1       1.801  24.486  48.837  1.00  0.00     0.180 A 
ATOM      2  C   UNL     1       1.078  25.357  49.670  1.00  0.00     0.208 A 
ATOM      3  C   UNL     1       0.919  25.028  51.026  1.00  0.00     0.238 A 
ATOM      4  O   UNL     1       0.317  25.838  51.778  1.00  0.00    -0.285 OA
ATOM      5  C   UNL     1       1.470  23.825  51.528  1.00  0.00     0.111 A 
ATOM      6  C   UNL     1       1.335  23.372  52.875  1.00  0.00     0.134 A 
ATOM      7  C   UNL     1       2.032  22.231  53.293  1.00  0.00     0.093 A 
ATOM      8  C   UNL     1       2.805  21.491  52.399  1.00  0.00     0.123 A 
ATOM      9  C   UNL     1       2.896  21.892  51.065  1.00  0.00     0.094 A 
ATOM     10  C   UNL     1       2.241  23.045  50.627  1.00  0.00     0.146 A 
ATOM     11  O   UNL     1       2.362  23.398  49.352  1.00  0.00    -0.452 OA
ENDROOT
BRANCH   1  12
ATOM     12  C   UNL     1       1.990  24.752  47.393  1.00  0.00     0.025 A 
ATOM     13  C   UNL     1       2.469  26.004  46.977  1.00  0.00     0.016 A 
ATOM     14  C   UNL     1       2.674  26.268  45.622  1.00  0.00     0.051 A 
ATOM     15  C   UNL     1       2.419  25.284  44.662  1.00  0.00     0.157 A 
ATOM     16  C   UNL     1       1.753  23.755  46.428  1.00  0.00     0.062 A 
ATOM     17  C   UNL     1       1.960  24.019  45.066  1.00  0.00     0.158 A 
BRANCH  15  18
ATOM     18  O   UNL     1       2.630  25.578  43.315  1.00  0.00    -0.504 OA
ATOM     19  H   UNL     1       2.052  26.242  42.813  1.00  0.00     0.293 HD
ENDBRANCH  15  18
BRANCH  17  20
ATOM     20  O   UNL     1       1.717  23.029  44.116  1.00  0.00    -0.504 OA
ATOM     21  H   UNL     1       1.927  22.054  44.300  1.00  0.00     0.293 HD
ENDBRANCH  17  20
ENDBRANCH   1  12
BRANCH   2  22
ATOM     22  O   UNL     1       0.561  26.551  49.159  1.00  0.00    -0.502 OA
ATOM     23  H   UNL     1      -0.278  26.983  49.528  1.00  0.00     0.293 HD
ENDBRANCH   2  22
BRANCH   6  24
ATOM     24  O   UNL     1       0.515  23.986  53.826  1.00  0.00    -0.507 OA
ATOM     25  H   UNL     1      -0.176  23.507  54.384  1.00  0.00     0.293 HD
ENDBRANCH   6  24
BRANCH   8  26
ATOM     26  O   UNL     1       3.473  20.354  52.847  1.00  0.00    -0.508 OA
ATOM     27  H   UNL     1       3.884  20.310  53.773  1.00  0.00     0.293 HD
ENDBRANCH   8  26
TORSDOF 6
ENDMDL
MODEL 4
REMARK VINA RESULT:    -6.441      3.626      6.618
REMARK INTER + INTRA:          -7.618
REMARK INTER:                  -7.310
REMARK INTRA:                  -0.308
REMARK UNBOUND:                 0.141
REMARK SMILES O=c1c(O)c(-c2ccc(O)c(O)c2)oc2cc(O)cc(O)c12
REMARK SMILES IDX 5 1 3 2 2 3 1 4 22 5 20 6 19 7 17 8 16 9 15 10 14 11 6 12
REMARK SMILES IDX 7 13 8 14 9 15 13 16 11 17 10 18 12 20 4 22 21 24 18 26
REMARK H PARENT 10 19 12 21 4 23 21 25 18 27
REMARK Flexibility Score: inf
ROOT
ATOM      1  C   UNL     1       0.644  24.338  53.930  1.00  0.00     0.180 A 
ATOM      2  C   UNL     1       1.234  23.063  53.957  1.00  0.00     0.208 A 
ATOM      3  C   UNL     1       1.798  22.547  52.778  1.00  0.00     0.238 A 
ATOM      4  O   UNL     1       2.372  21.429  52.821  1.00  0.00    -0.285 OA
ATOM      5  C   UNL     1       1.751  23.307  51.585  1.00  0.00     0.111 A 
ATOM      6  C   UNL     1       2.254  22.867  50.324  1.00  0.00     0.134 A 
ATOM      7  C   UNL     1       2.272  23.753  49.239  1.00  0.00     0.093 A 
ATOM      8  C   UNL     1       1.745  25.040  49.352  1.00  0.00     0.123 A 
ATOM      9  C   UNL     1       1.196  25.460  50.564  1.00  0.00     0.094 A 
ATOM     10  C   UNL     1       1.196  24.611  51.673  1.00  0.00     0.146 A 
ATOM     11  O   UNL     1       0.674  25.053  52.811  1.00  0.00    -0.452 OA
ENDROOT
BRANCH   1  12
ATOM     12  C   UNL     1       0.007  24.937  55.125  1.00  0.00     0.025 A 
ATOM     13  C   UNL     1       0.799  25.624  56.059  1.00  0.00     0.016 A 
ATOM     14  C   UNL     1       0.216  26.214  57.182  1.00  0.00     0.051 A 
ATOM     15  C   UNL     1      -1.166  26.142  57.382  1.00  0.00     0.157 A 
ATOM     16  C   UNL     1      -1.385  24.883  55.317  1.00  0.00     0.062 A 
ATOM     17  C   UNL     1      -1.973  25.477  56.444  1.00  0.00     0.158 A 
BRANCH  15  18
ATOM     18  O   UNL     1      -1.719  26.739  58.515  1.00  0.00    -0.504 OA
ATOM     19  H   UNL     1      -1.155  27.251  59.183  1.00  0.00     0.293 HD
ENDBRANCH  15  18
BRANCH  17  20
ATOM     20  O   UNL     1      -3.353  25.414  56.630  1.00  0.00    -0.504 OA
ATOM     21  H   UNL     1      -4.000  25.651  55.886  1.00  0.00     0.293 HD
ENDBRANCH  17  20
ENDBRANCH   1  12
BRANCH   2  22
ATOM     22  O   UNL     1       1.289  22.338  55.151  1.00  0.00    -0.502 OA
ATOM     23  H   UNL     1       1.796  21.466  55.236  1.00  0.00     0.293 HD
ENDBRANCH   2  22
BRANCH   6  24
ATOM     24  O   UNL     1       2.720  21.572  50.078  1.00  0.00    -0.507 OA
ATOM     25  H   UNL     1       2.129  20.768  49.924  1.00  0.00     0.293 HD
ENDBRANCH   6  24
BRANCH   8  26
ATOM     26  O   UNL     1       1.766  25.889  48.248  1.00  0.00    -0.508 OA
ATOM     27  H   UNL     1       2.618  26.058  47.725  1.00  0.00     0.293 HD
ENDBRANCH   8  26
TORSDOF 6
ENDMDL
MODEL 5
REMARK VINA RESULT:    -6.419      5.272      8.140
REMARK INTER + INTRA:          -7.591
REMARK INTER:                  -7.265
REMARK INTRA:                  -0.326
REMARK UNBOUND:                 0.141
REMARK SMILES O=c1c(O)c(-c2ccc(O)c(O)c2)oc2cc(O)cc(O)c12
REMARK SMILES IDX 5 1 3 2 2 3 1 4 22 5 20 6 19 7 17 8 16 9 15 10 14 11 6 12
REMARK SMILES IDX 7 13 8 14 9 15 13 16 11 17 10 18 12 20 4 22 21 24 18 26
REMARK H PARENT 10 19 12 21 4 23 21 25 18 27
REMARK Flexibility Score: inf
ROOT
ATOM      1  C   UNL     1       4.867  22.117  55.733  1.00  0.00     0.180 A 
ATOM      2  C   UNL     1       4.659  23.448  56.131  1.00  0.00     0.208 A 
ATOM      3  C   UNL     1       4.109  24.357  55.212  1.00  0.00     0.238 A 
ATOM      4  O   UNL     1       3.876  25.534  55.592  1.00  0.00    -0.285 OA
ATOM      5  C   UNL     1       3.790  23.926  53.902  1.00  0.00     0.111 A 
ATOM      6  C   UNL     1       3.267  24.771  52.877  1.00  0.00     0.134 A 
ATOM      7  C   UNL     1       2.865  24.210  51.658  1.00  0.00     0.093 A 
ATOM      8  C   UNL     1       3.028  22.849  51.403  1.00  0.00     0.123 A 
ATOM      9  C   UNL     1       3.594  22.025  52.376  1.00  0.00     0.094 A 
ATOM     10  C   UNL     1       3.971  22.548  53.615  1.00  0.00     0.146 A 
ATOM     11  O   UNL     1       4.496  21.728  54.518  1.00  0.00    -0.452 OA
ENDROOT
BRANCH   1  12
ATOM     12  C   UNL     1       5.465  21.107  56.636  1.00  0.00     0.025 A 
ATOM     13  C   UNL     1       4.628  20.216  57.326  1.00  0.00     0.016 A 
ATOM     14  C   UNL     1       5.172  19.243  58.167  1.00  0.00     0.051 A 
ATOM     15  C   UNL     1       6.558  19.135  58.321  1.00  0.00     0.157 A 
ATOM     16  C   UNL     1       6.859  20.984  56.776  1.00  0.00     0.062 A 
ATOM     17  C   UNL     1       7.407  20.007  57.619  1.00  0.00     0.158 A 
BRANCH  15  18
ATOM     18  O   UNL     1       7.072  18.155  59.170  1.00  0.00    -0.504 OA
ATOM     19  H   UNL     1       6.994  18.222  60.178  1.00  0.00     0.293 HD
ENDBRANCH  15  18
BRANCH  17  20
ATOM     20  O   UNL     1       8.790  19.895  57.756  1.00  0.00    -0.504 OA
ATOM     21  H   UNL     1       9.297  19.099  57.387  1.00  0.00     0.293 HD
ENDBRANCH  17  20
ENDBRANCH   1  12
BRANCH   2  22
ATOM     22  O   UNL     1       4.961  23.847  57.436  1.00  0.00    -0.502 OA
ATOM     23  H   UNL     1       4.321  23.712  58.209  1.00  0.00     0.293 HD
ENDBRANCH   2  22
BRANCH   6  24
ATOM     24  O   UNL     1       3.147  26.159  52.994  1.00  0.00    -0.507 OA
ATOM     25  H   UNL     1       2.953  26.786  52.229  1.00  0.00     0.293 HD
ENDBRANCH   6  24
BRANCH   8  26
ATOM     26  O   UNL     1       2.631  22.328  50.174  1.00  0.00    -0.508 OA
ATOM     27  H   UNL     1       1.898  22.764  49.625  1.00  0.00     0.293 HD
ENDBRANCH   8  26
TORSDOF 6
ENDMDL
MODEL 6
REMARK VINA RESULT:    -6.379      8.881     10.814
REMARK INTER + INTRA:          -7.543
REMARK INTER:                  -7.221
REMARK INTRA:                  -0.322
REMARK UNBOUND:                 0.141
REMARK SMILES O=c1c(O)c(-c2ccc(O)c(O)c2)oc2cc(O)cc(O)c12
REMARK SMILES IDX 5 1 3 2 2 3 1 4 22 5 20 6 19 7 17 8 16 9 15 10 14 11 6 12
REMARK SMILES IDX 7 13 8 14 9 15 13 16 11 17 10 18 12 20 4 22 21 24 18 26
REMARK H PARENT 10 19 12 21 4 23 21 25 18 27
REMARK Flexibility Score: inf
ROOT
ATOM      1  C   UNL     1       2.848  22.650  57.184  1.00  0.00     0.180 A 
ATOM      2  C   UNL     1       3.885  23.049  56.323  1.00  0.00     0.208 A 
ATOM      3  C   UNL     1       5.094  22.333  56.335  1.00  0.00     0.238 A 
ATOM      4  O   UNL     1       5.998  22.662  55.524  1.00  0.00    -0.285 OA
ATOM      5  C   UNL     1       5.254  21.238  57.217  1.00  0.00     0.111 A 
ATOM      6  C   UNL     1       6.449  20.467  57.341  1.00  0.00     0.134 A 
ATOM      7  C   UNL     1       6.453  19.325  58.152  1.00  0.00     0.093 A 
ATOM      8  C   UNL     1       5.328  18.963  58.892  1.00  0.00     0.123 A 
ATOM      9  C   UNL     1       4.173  19.744  58.824  1.00  0.00     0.094 A 
ATOM     10  C   UNL     1       4.127  20.869  57.997  1.00  0.00     0.146 A 
ATOM     11  O   UNL     1       3.006  21.579  57.952  1.00  0.00    -0.452 OA
ENDROOT
BRANCH   1  12
ATOM     12  C   UNL     1       1.556  23.371  57.247  1.00  0.00     0.025 A 
ATOM     13  C   UNL     1       1.428  24.489  58.085  1.00  0.00     0.016 A 
ATOM     14  C   UNL     1       0.225  25.195  58.145  1.00  0.00     0.051 A 
ATOM     15  C   UNL     1      -0.864  24.805  57.359  1.00  0.00     0.157 A 
ATOM     16  C   UNL     1       0.466  22.992  56.441  1.00  0.00     0.062 A 
ATOM     17  C   UNL     1      -0.743  23.701  56.499  1.00  0.00     0.158 A 
BRANCH  15  18
ATOM     18  O   UNL     1      -2.053  25.528  57.442  1.00  0.00    -0.504 OA
ATOM     19  H   UNL     1      -2.247  26.317  56.836  1.00  0.00     0.293 HD
ENDBRANCH  15  18
BRANCH  17  20
ATOM     20  O   UNL     1      -1.819  23.316  55.702  1.00  0.00    -0.504 OA
ATOM     21  H   UNL     1      -2.256  23.960  55.052  1.00  0.00     0.293 HD
ENDBRANCH  17  20
ENDBRANCH   1  12
BRANCH   2  22
ATOM     22  O   UNL     1       3.698  24.120  55.445  1.00  0.00    -0.502 OA
ATOM     23  H   UNL     1       3.747  25.086  55.745  1.00  0.00     0.293 HD
ENDBRANCH   2  22
BRANCH   6  24
ATOM     24  O   UNL     1       7.657  20.793  56.717  1.00  0.00    -0.507 OA
ATOM     25  H   UNL     1       8.571  20.609  57.102  1.00  0.00     0.293 HD
ENDBRANCH   6  24
BRANCH   8  26
ATOM     26  O   UNL     1       5.372  17.829  59.699  1.00  0.00    -0.508 OA
ATOM     27  H   UNL     1       6.200  17.590  60.233  1.00  0.00     0.293 HD
ENDBRANCH   8  26
TORSDOF 6
ENDMDL
MODEL 7
REMARK VINA RESULT:    -6.260      4.968      9.306
REMARK INTER + INTRA:          -7.400
REMARK INTER:                  -7.440
REMARK INTRA:                   0.040
REMARK UNBOUND:                 0.141
REMARK SMILES O=c1c(O)c(-c2ccc(O)c(O)c2)oc2cc(O)cc(O)c12
REMARK SMILES IDX 5 1 3 2 2 3 1 4 22 5 20 6 19 7 17 8 16 9 15 10 14 11 6 12
REMARK SMILES IDX 7 13 8 14 9 15 13 16 11 17 10 18 12 20 4 22 21 24 18 26
REMARK H PARENT 10 19 12 21 4 23 21 25 18 27
REMARK Flexibility Score: inf
ROOT
ATOM      1  C   UNL     1       2.111  23.416  54.214  1.00  0.00     0.180 A 
ATOM      2  C   UNL     1       0.906  24.090  53.951  1.00  0.00     0.208 A 
ATOM      3  C   UNL     1      -0.080  24.138  54.951  1.00  0.00     0.238 A 
ATOM      4  O   UNL     1      -1.134  24.788  54.729  1.00  0.00    -0.285 OA
ATOM      5  C   UNL     1       0.146  23.499  56.193  1.00  0.00     0.111 A 
ATOM      6  C   UNL     1      -0.798  23.450  57.263  1.00  0.00     0.134 A 
ATOM      7  C   UNL     1      -0.419  22.903  58.495  1.00  0.00     0.093 A 
ATOM      8  C   UNL     1       0.846  22.345  58.677  1.00  0.00     0.123 A 
ATOM      9  C   UNL     1       1.756  22.334  57.619  1.00  0.00     0.094 A 
ATOM     10  C   UNL     1       1.420  22.904  56.389  1.00  0.00     0.146 A 
ATOM     11  O   UNL     1       2.319  22.883  55.413  1.00  0.00    -0.452 OA
ENDROOT
BRANCH   1  12
ATOM     12  C   UNL     1       3.186  23.300  53.202  1.00  0.00     0.025 A 
ATOM     13  C   UNL     1       2.866  22.896  51.897  1.00  0.00     0.016 A 
ATOM     14  C   UNL     1       3.862  22.800  50.922  1.00  0.00     0.051 A 
ATOM     15  C   UNL     1       5.187  23.120  51.231  1.00  0.00     0.157 A 
ATOM     16  C   UNL     1       4.517  23.642  53.506  1.00  0.00     0.062 A 
ATOM     17  C   UNL     1       5.517  23.548  52.528  1.00  0.00     0.158 A 
BRANCH  15  18
ATOM     18  O   UNL     1       6.160  23.012  50.237  1.00  0.00    -0.504 OA
ATOM     19  H   UNL     1       7.083  23.415  50.342  1.00  0.00     0.293 HD
ENDBRANCH  15  18
BRANCH  17  20
ATOM     20  O   UNL     1       6.834  23.883  52.838  1.00  0.00    -0.504 OA
ATOM     21  H   UNL     1       7.106  24.159  53.774  1.00  0.00     0.293 HD
ENDBRANCH  17  20
ENDBRANCH   1  12
BRANCH   2  22
ATOM     22  O   UNL     1       0.712  24.732  52.725  1.00  0.00    -0.502 OA
ATOM     23  H   UNL     1       0.300  24.267  51.926  1.00  0.00     0.293 HD
ENDBRANCH   2  22
BRANCH   6  24
ATOM     24  O   UNL     1      -2.119  23.896  57.158  1.00  0.00    -0.507 OA
ATOM     25  H   UNL     1      -2.699  23.790  56.339  1.00  0.00     0.293 HD
ENDBRANCH   6  24
BRANCH   8  26
ATOM     26  O   UNL     1       1.183  21.797  59.911  1.00  0.00    -0.508 OA
ATOM     27  H   UNL     1       1.762  20.967  59.983  1.00  0.00     0.293 HD
ENDBRANCH   8  26
TORSDOF 6
ENDMDL
MODEL 8
REMARK VINA RESULT:    -6.213      5.431     10.579
REMARK INTER + INTRA:          -7.344
REMARK INTER:                  -7.010
REMARK INTRA:                  -0.334
REMARK UNBOUND:                 0.141
REMARK SMILES O=c1c(O)c(-c2ccc(O)c(O)c2)oc2cc(O)cc(O)c12
REMARK SMILES IDX 5 1 3 2 2 3 1 4 22 5 20 6 19 7 17 8 16 9 15 10 14 11 6 12
REMARK SMILES IDX 7 13 8 14 9 15 13 16 11 17 10 18 12 20 4 22 21 24 18 26
REMARK H PARENT 10 19 12 21 4 23 21 25 18 27
REMARK Flexibility Score: inf
ROOT
ATOM      1  C   UNL     1       4.379  22.268  55.449  1.00  0.00     0.180 A 
ATOM      2  C   UNL     1       4.098  23.279  56.384  1.00  0.00     0.208 A 
ATOM      3  C   UNL     1       4.396  23.057  57.739  1.00  0.00     0.238 A 
ATOM      4  O   UNL     1       4.192  23.986  58.563  1.00  0.00    -0.285 OA
ATOM      5  C   UNL     1       4.957  21.821  58.142  1.00  0.00     0.111 A 
ATOM      6  C   UNL     1       5.261  21.473  59.493  1.00  0.00     0.134 A 
ATOM      7  C   UNL     1       5.934  20.274  59.762  1.00  0.00     0.093 A 
ATOM      8  C   UNL     1       6.254  19.383  58.739  1.00  0.00     0.123 A 
ATOM      9  C   UNL     1       5.908  19.686  57.422  1.00  0.00     0.094 A 
ATOM     10  C   UNL     1       5.269  20.890  57.117  1.00  0.00     0.146 A 
ATOM     11  O   UNL     1       4.966  21.146  55.850  1.00  0.00    -0.452 OA
ENDROOT
BRANCH   1  12
ATOM     12  C   UNL     1       4.070  22.418  54.009  1.00  0.00     0.025 A 
ATOM     13  C   UNL     1       5.066  22.880  53.133  1.00  0.00     0.016 A 
ATOM     14  C   UNL     1       4.802  23.009  51.768  1.00  0.00     0.051 A 
ATOM     15  C   UNL     1       3.547  22.666  51.254  1.00  0.00     0.157 A 
ATOM     16  C   UNL     1       2.816  22.054  53.487  1.00  0.00     0.062 A 
ATOM     17  C   UNL     1       2.550  22.182  52.116  1.00  0.00     0.158 A 
BRANCH  15  18
ATOM     18  O   UNL     1       3.313  22.809  49.887  1.00  0.00    -0.504 OA
ATOM     19  H   UNL     1       3.917  22.388  49.191  1.00  0.00     0.293 HD
ENDBRANCH  15  18
BRANCH  17  20
ATOM     20  O   UNL     1       1.302  21.824  51.608  1.00  0.00    -0.504 OA
ATOM     21  H   UNL     1       1.036  22.037  50.653  1.00  0.00     0.293 HD
ENDBRANCH  17  20
ENDBRANCH   1  12
BRANCH   2  22
ATOM     22  O   UNL     1       3.565  24.500  55.961  1.00  0.00    -0.502 OA
ATOM     23  H   UNL     1       2.610  24.774  56.158  1.00  0.00     0.293 HD
ENDBRANCH   2  22
BRANCH   6  24
ATOM     24  O   UNL     1       4.903  22.249  60.599  1.00  0.00    -0.507 OA
ATOM     25  H   UNL     1       4.753  21.890  61.529  1.00  0.00     0.293 HD
ENDBRANCH   6  24
BRANCH   8  26
ATOM     26  O   UNL     1       6.910  18.193  59.045  1.00  0.00    -0.508 OA
ATOM     27  H   UNL     1       6.921  17.412  58.399  1.00  0.00     0.293 HD
ENDBRANCH   8  26
TORSDOF 6
ENDMDL
MODEL 9
REMARK VINA RESULT:    -6.192      7.711      9.917
REMARK INTER + INTRA:          -7.319
REMARK INTER:                  -7.059
REMARK INTRA:                  -0.260
REMARK UNBOUND:                 0.141
REMARK SMILES O=c1c(O)c(-c2ccc(O)c(O)c2)oc2cc(O)cc(O)c12
REMARK SMILES IDX 5 1 3 2 2 3 1 4 22 5 20 6 19 7 17 8 16 9 15 10 14 11 6 12
REMARK SMILES IDX 7 13 8 14 9 15 13 16 11 17 10 18 12 20 4 22 21 24 18 26
REMARK H PARENT 10 19 12 21 4 23 21 25 18 27
REMARK Flexibility Score: inf
ROOT
ATOM      1  C   UNL     1       4.708  22.435  57.204  1.00  0.00     0.180 A 
ATOM      2  C   UNL     1       5.062  23.718  57.654  1.00  0.00     0.208 A 
ATOM      3  C   UNL     1       4.280  24.817  57.263  1.00  0.00     0.238 A 
ATOM      4  O   UNL     1       4.569  25.956  57.713  1.00  0.00    -0.285 OA
ATOM      5  C   UNL     1       3.164  24.620  56.415  1.00  0.00     0.111 A 
ATOM      6  C   UNL     1       2.325  25.666  55.923  1.00  0.00     0.134 A 
ATOM      7  C   UNL     1       1.172  25.343  55.197  1.00  0.00     0.093 A 
ATOM      8  C   UNL     1       0.863  24.019  54.888  1.00  0.00     0.123 A 
ATOM      9  C   UNL     1       1.708  22.993  55.312  1.00  0.00     0.094 A 
ATOM     10  C   UNL     1       2.846  23.281  56.069  1.00  0.00     0.146 A 
ATOM     11  O   UNL     1       3.618  22.275  56.463  1.00  0.00    -0.452 OA
ENDROOT
BRANCH   1  12
ATOM     12  C   UNL     1       5.498  21.231  57.553  1.00  0.00     0.025 A 
ATOM     13  C   UNL     1       4.953  20.276  58.424  1.00  0.00     0.016 A 
ATOM     14  C   UNL     1       5.672  19.124  58.750  1.00  0.00     0.051 A 
ATOM     15  C   UNL     1       6.938  18.901  58.200  1.00  0.00     0.157 A 
ATOM     16  C   UNL     1       6.763  20.996  56.984  1.00  0.00     0.062 A 
ATOM     17  C   UNL     1       7.486  19.839  57.309  1.00  0.00     0.158 A 
BRANCH  15  18
ATOM     18  O   UNL     1       7.634  17.743  58.546  1.00  0.00    -0.504 OA
ATOM     19  H   UNL     1       7.157  16.883  58.793  1.00  0.00     0.293 HD
ENDBRANCH  15  18
BRANCH  17  20
ATOM     20  O   UNL     1       8.741  19.616  56.746  1.00  0.00    -0.504 OA
ATOM     21  H   UNL     1       8.858  19.044  55.917  1.00  0.00     0.293 HD
ENDBRANCH  17  20
ENDBRANCH   1  12
BRANCH   2  22
ATOM     22  O   UNL     1       6.155  23.887  58.509  1.00  0.00    -0.502 OA
ATOM     23  H   UNL     1       6.450  23.173  59.163  1.00  0.00     0.293 HD
ENDBRANCH   2  22
BRANCH   6  24
ATOM     24  O   UNL     1       2.593  27.027  56.097  1.00  0.00    -0.507 OA
ATOM     25  H   UNL     1       2.061  27.775  55.678  1.00  0.00     0.293 HD
ENDBRANCH   6  24
BRANCH   8  26
ATOM     26  O   UNL     1      -0.284  23.736  54.150  1.00  0.00    -0.508 OA
ATOM     27  H   UNL     1      -0.878  24.475  53.790  1.00  0.00     0.293 HD
ENDBRANCH   8  26
TORSDOF 6
ENDMDL
