MODEL 1
REMARK VINA RESULT:    -8.585      0.000      0.000
REMARK INTER + INTRA:         -10.191
REMARK INTER:                 -10.090
REMARK INTRA:                  -0.101
REMARK UNBOUND:                -0.101
REMARK SMILES O=c1c(O)c(-c2ccc(O)c(O)c2)oc2cc(O)ccc12
REMARK SMILES IDX 5 1 3 2 2 3 1 4 21 5 15 6 14 7 16 8 17 9 19 10 20 11 6 12
REMARK SMILES IDX 7 13 8 14 9 15 13 16 11 17 10 18 12 20 4 22 18 24
REMARK H PARENT 10 19 12 21 4 23 18 25
REMARK Flexibility Score: inf
ROOT
ATOM      1  C   UNL     1     -48.172  26.629 -17.039  1.00  0.00     0.180 A 
ATOM      2  C   UNL     1     -49.100  27.664 -17.274  1.00  0.00     0.208 A 
ATOM      3  C   UNL     1     -50.377  27.570 -16.701  1.00  0.00     0.235 A 
ATOM      4  O   UNL     1     -51.222  28.490 -16.887  1.00  0.00    -0.285 OA
ATOM      5  C   UNL     1     -50.707  26.445 -15.930  1.00  0.00     0.069 A 
ATOM      6  C   UNL     1     -49.730  25.439 -15.762  1.00  0.00     0.142 A 
ATOM      7  O   UNL     1     -48.529  25.571 -16.313  1.00  0.00    -0.452 OA
ATOM      8  C   UNL     1     -50.023  24.298 -15.007  1.00  0.00     0.094 A 
ATOM      9  C   UNL     1     -51.285  24.148 -14.416  1.00  0.00     0.119 A 
ATOM     10  C   UNL     1     -52.254  25.143 -14.579  1.00  0.00     0.047 A 
ATOM     11  C   UNL     1     -51.971  26.287 -15.332  1.00  0.00     0.020 A 
ENDROOT
BRANCH   1  12
ATOM     12  C   UNL     1     -46.799  26.663 -17.593  1.00  0.00     0.025 A 
ATOM     13  C   UNL     1     -45.927  27.732 -17.324  1.00  0.00     0.016 A 
ATOM     14  C   UNL     1     -44.628  27.731 -17.838  1.00  0.00     0.051 A 
ATOM     15  C   UNL     1     -44.175  26.657 -18.615  1.00  0.00     0.157 A 
ATOM     16  C   UNL     1     -46.334  25.579 -18.355  1.00  0.00     0.062 A 
ATOM     17  C   UNL     1     -45.033  25.575 -18.872  1.00  0.00     0.158 A 
BRANCH  15  18
ATOM     18  O   UNL     1     -42.879  26.660 -19.129  1.00  0.00    -0.504 OA
ATOM     19  H   UNL     1     -42.132  26.138 -18.686  1.00  0.00     0.293 HD
ENDBRANCH  15  18
BRANCH  17  20
ATOM     20  O   UNL     1     -44.611  24.487 -19.636  1.00  0.00    -0.504 OA
ATOM     21  H   UNL     1     -43.742  24.002 -19.448  1.00  0.00     0.293 HD
ENDBRANCH  17  20
ENDBRANCH   1  12
BRANCH   2  22
ATOM     22  O   UNL     1     -48.760  28.749 -18.087  1.00  0.00    -0.502 OA
ATOM     23  H   UNL     1     -47.812  29.100 -18.153  1.00  0.00     0.293 HD
ENDBRANCH   2  22
BRANCH   9  24
ATOM     24  O   UNL     1     -51.585  23.015 -13.664  1.00  0.00    -0.508 OA
ATOM     25  H   UNL     1     -52.438  22.489 -13.814  1.00  0.00     0.293 HD
ENDBRANCH   9  24
TORSDOF 5
ENDMDL
MODEL 2
REMARK VINA RESULT:    -8.274      0.688      1.526
REMARK INTER + INTRA:          -9.826
REMARK INTER:                  -9.765
REMARK INTRA:                  -0.061
REMARK UNBOUND:                -0.101
REMARK SMILES O=c1c(O)c(-c2ccc(O)c(O)c2)oc2cc(O)ccc12
REMARK SMILES IDX 5 1 3 2 2 3 1 4 21 5 15 6 14 7 16 8 17 9 19 10 20 11 6 12
REMARK SMILES IDX 7 13 8 14 9 15 13 16 11 17 10 18 12 20 4 22 18 24
REMARK H PARENT 10 19 12 21 4 23 18 25
REMARK Flexibility Score: inf
ROOT
ATOM      1  C   UNL     1     -48.020  26.615 -17.106  1.00  0.00     0.180 A 
ATOM      2  C   UNL     1     -48.944  27.653 -17.351  1.00  0.00     0.208 A 
ATOM      3  C   UNL     1     -50.228  27.558 -16.795  1.00  0.00     0.235 A 
ATOM      4  O   UNL     1     -51.069  28.480 -16.989  1.00  0.00    -0.285 OA
ATOM      5  C   UNL     1     -50.570  26.432 -16.031  1.00  0.00     0.069 A 
ATOM      6  C   UNL     1     -49.596  25.424 -15.853  1.00  0.00     0.142 A 
ATOM      7  O   UNL     1     -48.388  25.556 -16.388  1.00  0.00    -0.452 OA
ATOM      8  C   UNL     1     -49.901  24.281 -15.106  1.00  0.00     0.094 A 
ATOM      9  C   UNL     1     -51.171  24.131 -14.532  1.00  0.00     0.119 A 
ATOM     10  C   UNL     1     -52.136  25.128 -14.705  1.00  0.00     0.047 A 
ATOM     11  C   UNL     1     -51.842  26.273 -15.451  1.00  0.00     0.020 A 
ENDROOT
BRANCH   1  12
ATOM     12  C   UNL     1     -46.640  26.649 -17.641  1.00  0.00     0.025 A 
ATOM     13  C   UNL     1     -46.159  25.638 -18.490  1.00  0.00     0.016 A 
ATOM     14  C   UNL     1     -44.860  25.703 -19.003  1.00  0.00     0.051 A 
ATOM     15  C   UNL     1     -44.029  26.786 -18.688  1.00  0.00     0.157 A 
ATOM     16  C   UNL     1     -45.810  27.743 -17.345  1.00  0.00     0.062 A 
ATOM     17  C   UNL     1     -44.509  27.812 -17.857  1.00  0.00     0.158 A 
BRANCH  15  18
ATOM     18  O   UNL     1     -42.734  26.848 -19.199  1.00  0.00    -0.504 OA
ATOM     19  H   UNL     1     -42.041  27.479 -18.813  1.00  0.00     0.293 HD
ENDBRANCH  15  18
BRANCH  17  20
ATOM     20  O   UNL     1     -43.709  28.907 -17.529  1.00  0.00    -0.504 OA
ATOM     21  H   UNL     1     -43.650  29.726 -18.121  1.00  0.00     0.293 HD
ENDBRANCH  17  20
ENDBRANCH   1  12
BRANCH   2  22
ATOM     22  O   UNL     1     -48.591  28.739 -18.155  1.00  0.00    -0.502 OA
ATOM     23  H   UNL     1     -48.631  29.695 -17.822  1.00  0.00     0.293 HD
ENDBRANCH   2  22
BRANCH   9  24
ATOM     24  O   UNL     1     -51.482  22.996 -13.787  1.00  0.00    -0.508 OA
ATOM     25  H   UNL     1     -52.426  22.815 -13.466  1.00  0.00     0.293 HD
ENDBRANCH   9  24
TORSDOF 5
ENDMDL
MODEL 3
REMARK VINA RESULT:    -8.237      1.766      6.819
REMARK INTER + INTRA:          -9.783
REMARK INTER:                  -9.499
REMARK INTRA:                  -0.284
REMARK UNBOUND:                -0.101
REMARK SMILES O=c1c(O)c(-c2ccc(O)c(O)c2)oc2cc(O)ccc12
REMARK SMILES IDX 5 1 3 2 2 3 1 4 21 5 15 6 14 7 16 8 17 9 19 10 20 11 6 12
REMARK SMILES IDX 7 13 8 14 9 15 13 16 11 17 10 18 12 20 4 22 18 24
REMARK H PARENT 10 19 12 21 4 23 18 25
REMARK Flexibility Score: inf
ROOT
ATOM      1  C   UNL     1     -48.100  26.049 -15.717  1.00  0.00     0.180 A 
ATOM      2  C   UNL     1     -47.215  26.540 -14.735  1.00  0.00     0.208 A 
ATOM      3  C   UNL     1     -45.966  27.035 -15.138  1.00  0.00     0.235 A 
ATOM      4  O   UNL     1     -45.161  27.491 -14.279  1.00  0.00    -0.285 OA
ATOM      5  C   UNL     1     -45.619  27.011 -16.498  1.00  0.00     0.069 A 
ATOM      6  C   UNL     1     -46.551  26.479 -17.416  1.00  0.00     0.142 A 
ATOM      7  O   UNL     1     -47.728  26.029 -16.995  1.00  0.00    -0.452 OA
ATOM      8  C   UNL     1     -46.238  26.428 -18.779  1.00  0.00     0.094 A 
ATOM      9  C   UNL     1     -45.003  26.904 -19.238  1.00  0.00     0.119 A 
ATOM     10  C   UNL     1     -44.079  27.433 -18.331  1.00  0.00     0.047 A 
ATOM     11  C   UNL     1     -44.381  27.486 -16.967  1.00  0.00     0.020 A 
ENDROOT
BRANCH   1  12
ATOM     12  C   UNL     1     -49.443  25.526 -15.374  1.00  0.00     0.025 A 
ATOM     13  C   UNL     1     -50.510  26.391 -15.075  1.00  0.00     0.016 A 
ATOM     14  C   UNL     1     -51.775  25.876 -14.778  1.00  0.00     0.051 A 
ATOM     15  C   UNL     1     -51.996  24.492 -14.790  1.00  0.00     0.157 A 
ATOM     16  C   UNL     1     -49.675  24.141 -15.406  1.00  0.00     0.062 A 
ATOM     17  C   UNL     1     -50.940  23.622 -15.109  1.00  0.00     0.158 A 
BRANCH  15  18
ATOM     18  O   UNL     1     -53.258  23.981 -14.491  1.00  0.00    -0.504 OA
ATOM     19  H   UNL     1     -53.566  23.085 -14.850  1.00  0.00     0.293 HD
ENDBRANCH  15  18
BRANCH  17  20
ATOM     20  O   UNL     1     -51.129  22.240 -15.136  1.00  0.00    -0.504 OA
ATOM     21  H   UNL     1     -50.631  21.642 -15.784  1.00  0.00     0.293 HD
ENDBRANCH  17  20
ENDBRANCH   1  12
BRANCH   2  22
ATOM     22  O   UNL     1     -47.568  26.507 -13.383  1.00  0.00    -0.502 OA
ATOM     23  H   UNL     1     -48.532  26.452 -13.077  1.00  0.00     0.293 HD
ENDBRANCH   2  22
BRANCH   9  24
ATOM     24  O   UNL     1     -44.684  26.857 -20.593  1.00  0.00    -0.508 OA
ATOM     25  H   UNL     1     -45.231  27.358 -21.284  1.00  0.00     0.293 HD
ENDBRANCH   9  24
TORSDOF 5
ENDMDL
MODEL 4
REMARK VINA RESULT:    -8.212      2.394      6.710
REMARK INTER + INTRA:          -9.753
REMARK INTER:                  -9.552
REMARK INTRA:                  -0.200
REMARK UNBOUND:                -0.101
REMARK SMILES O=c1c(O)c(-c2ccc(O)c(O)c2)oc2cc(O)ccc12
REMARK SMILES IDX 5 1 3 2 2 3 1 4 21 5 15 6 14 7 16 8 17 9 19 10 20 11 6 12
REMARK SMILES IDX 7 13 8 14 9 15 13 16 11 17 10 18 12 20 4 22 18 24
REMARK H PARENT 10 19 12 21 4 23 18 25
REMARK Flexibility Score: inf
ROOT
ATOM      1  C   UNL     1     -48.786  26.091 -15.451  1.00  0.00     0.180 A 
ATOM      2  C   UNL     1     -48.230  25.984 -16.742  1.00  0.00     0.208 A 
ATOM      3  C   UNL     1     -46.957  26.525 -16.977  1.00  0.00     0.235 A 
ATOM      4  O   UNL     1     -46.433  26.431 -18.122  1.00  0.00    -0.285 OA
ATOM      5  C   UNL     1     -46.280  27.176 -15.934  1.00  0.00     0.069 A 
ATOM      6  C   UNL     1     -46.916  27.264 -14.676  1.00  0.00     0.142 A 
ATOM      7  O   UNL     1     -48.118  26.729 -14.492  1.00  0.00    -0.452 OA
ATOM      8  C   UNL     1     -46.277  27.913 -13.614  1.00  0.00     0.094 A 
ATOM      9  C   UNL     1     -45.007  28.477 -13.792  1.00  0.00     0.119 A 
ATOM     10  C   UNL     1     -44.374  28.390 -15.037  1.00  0.00     0.047 A 
ATOM     11  C   UNL     1     -45.005  27.745 -16.105  1.00  0.00     0.020 A 
ENDROOT
BRANCH   1  12
ATOM     12  C   UNL     1     -50.115  25.530 -15.118  1.00  0.00     0.025 A 
ATOM     13  C   UNL     1     -51.222  26.362 -14.877  1.00  0.00     0.016 A 
ATOM     14  C   UNL     1     -52.473  25.809 -14.589  1.00  0.00     0.051 A 
ATOM     15  C   UNL     1     -52.640  24.418 -14.551  1.00  0.00     0.157 A 
ATOM     16  C   UNL     1     -50.293  24.136 -15.100  1.00  0.00     0.062 A 
ATOM     17  C   UNL     1     -51.544  23.579 -14.811  1.00  0.00     0.158 A 
BRANCH  15  18
ATOM     18  O   UNL     1     -53.888  23.869 -14.261  1.00  0.00    -0.504 OA
ATOM     19  H   UNL     1     -54.060  22.874 -14.338  1.00  0.00     0.293 HD
ENDBRANCH  15  18
BRANCH  17  20
ATOM     20  O   UNL     1     -51.678  22.191 -14.788  1.00  0.00    -0.504 OA
ATOM     21  H   UNL     1     -51.726  21.641 -15.637  1.00  0.00     0.293 HD
ENDBRANCH  17  20
ENDBRANCH   1  12
BRANCH   2  22
ATOM     22  O   UNL     1     -48.948  25.373 -17.774  1.00  0.00    -0.502 OA
ATOM     23  H   UNL     1     -48.766  24.422 -18.071  1.00  0.00     0.293 HD
ENDBRANCH   2  22
BRANCH   9  24
ATOM     24  O   UNL     1     -44.365  29.125 -12.740  1.00  0.00    -0.508 OA
ATOM     25  H   UNL     1     -44.722  29.991 -12.353  1.00  0.00     0.293 HD
ENDBRANCH   9  24
TORSDOF 5
ENDMDL
MODEL 5
REMARK VINA RESULT:    -7.893      1.795      6.882
REMARK INTER + INTRA:          -9.378
REMARK INTER:                  -9.397
REMARK INTRA:                   0.019
REMARK UNBOUND:                -0.101
REMARK SMILES O=c1c(O)c(-c2ccc(O)c(O)c2)oc2cc(O)ccc12
REMARK SMILES IDX 5 1 3 2 2 3 1 4 21 5 15 6 14 7 16 8 17 9 19 10 20 11 6 12
REMARK SMILES IDX 7 13 8 14 9 15 13 16 11 17 10 18 12 20 4 22 18 24
REMARK H PARENT 10 19 12 21 4 23 18 25
REMARK Flexibility Score: inf
ROOT
ATOM      1  C   UNL     1     -48.316  26.305 -15.703  1.00  0.00     0.180 A 
ATOM      2  C   UNL     1     -47.728  27.320 -14.919  1.00  0.00     0.208 A 
ATOM      3  C   UNL     1     -46.509  27.874 -15.337  1.00  0.00     0.235 A 
ATOM      4  O   UNL     1     -45.968  28.792 -14.658  1.00  0.00    -0.285 OA
ATOM      5  C   UNL     1     -45.895  27.396 -16.505  1.00  0.00     0.069 A 
ATOM      6  C   UNL     1     -46.536  26.360 -17.220  1.00  0.00     0.142 A 
ATOM      7  O   UNL     1     -47.695  25.869 -16.797  1.00  0.00    -0.452 OA
ATOM      8  C   UNL     1     -45.952  25.850 -18.385  1.00  0.00     0.094 A 
ATOM      9  C   UNL     1     -44.732  26.362 -18.845  1.00  0.00     0.119 A 
ATOM     10  C   UNL     1     -44.096  27.389 -18.140  1.00  0.00     0.047 A 
ATOM     11  C   UNL     1     -44.671  27.905 -16.974  1.00  0.00     0.020 A 
ENDROOT
BRANCH   1  12
ATOM     12  C   UNL     1     -49.610  25.683 -15.341  1.00  0.00     0.025 A 
ATOM     13  C   UNL     1     -49.746  24.288 -15.231  1.00  0.00     0.016 A 
ATOM     14  C   UNL     1     -50.971  23.724 -14.864  1.00  0.00     0.051 A 
ATOM     15  C   UNL     1     -52.073  24.544 -14.587  1.00  0.00     0.157 A 
ATOM     16  C   UNL     1     -50.712  26.501 -15.041  1.00  0.00     0.062 A 
ATOM     17  C   UNL     1     -51.940  25.940 -14.674  1.00  0.00     0.158 A 
BRANCH  15  18
ATOM     18  O   UNL     1     -53.294  23.979 -14.223  1.00  0.00    -0.504 OA
ATOM     19  H   UNL     1     -53.889  23.519 -14.902  1.00  0.00     0.293 HD
ENDBRANCH  15  18
BRANCH  17  20
ATOM     20  O   UNL     1     -53.015  26.784 -14.399  1.00  0.00    -0.504 OA
ATOM     21  H   UNL     1     -53.957  26.433 -14.275  1.00  0.00     0.293 HD
ENDBRANCH  17  20
ENDBRANCH   1  12
BRANCH   2  22
ATOM     22  O   UNL     1     -48.337  27.742 -13.735  1.00  0.00    -0.502 OA
ATOM     23  H   UNL     1     -48.176  27.279 -12.848  1.00  0.00     0.293 HD
ENDBRANCH   2  22
BRANCH   9  24
ATOM     24  O   UNL     1     -44.144  25.859 -20.004  1.00  0.00    -0.508 OA
ATOM     25  H   UNL     1     -44.563  26.002 -20.916  1.00  0.00     0.293 HD
ENDBRANCH   9  24
TORSDOF 5
ENDMDL
MODEL 6
REMARK VINA RESULT:    -7.475      1.254      2.852
REMARK INTER + INTRA:          -8.886
REMARK INTER:                  -9.162
REMARK INTRA:                   0.275
REMARK UNBOUND:                -0.101
REMARK SMILES O=c1c(O)c(-c2ccc(O)c(O)c2)oc2cc(O)ccc12
REMARK SMILES IDX 5 1 3 2 2 3 1 4 21 5 15 6 14 7 16 8 17 9 19 10 20 11 6 12
REMARK SMILES IDX 7 13 8 14 9 15 13 16 11 17 10 18 12 20 4 22 18 24
REMARK H PARENT 10 19 12 21 4 23 18 25
REMARK Flexibility Score: inf
ROOT
ATOM      1  C   UNL     1     -48.461  25.862 -16.707  1.00  0.00     0.180 A 
ATOM      2  C   UNL     1     -48.854  24.608 -16.196  1.00  0.00     0.208 A 
ATOM      3  C   UNL     1     -50.098  24.500 -15.555  1.00  0.00     0.235 A 
ATOM      4  O   UNL     1     -50.478  23.385 -15.099  1.00  0.00    -0.285 OA
ATOM      5  C   UNL     1     -50.906  25.638 -15.418  1.00  0.00     0.069 A 
ATOM      6  C   UNL     1     -50.429  26.863 -15.935  1.00  0.00     0.142 A 
ATOM      7  O   UNL     1     -49.250  26.922 -16.544  1.00  0.00    -0.452 OA
ATOM      8  C   UNL     1     -51.202  28.023 -15.811  1.00  0.00     0.094 A 
ATOM      9  C   UNL     1     -52.450  27.975 -15.175  1.00  0.00     0.119 A 
ATOM     10  C   UNL     1     -52.926  26.763 -14.664  1.00  0.00     0.047 A 
ATOM     11  C   UNL     1     -52.161  25.599 -14.782  1.00  0.00     0.020 A 
ENDROOT
BRANCH   1  12
ATOM     12  C   UNL     1     -47.173  26.054 -17.412  1.00  0.00     0.025 A 
ATOM     13  C   UNL     1     -46.438  27.246 -17.283  1.00  0.00     0.016 A 
ATOM     14  C   UNL     1     -45.213  27.395 -17.939  1.00  0.00     0.051 A 
ATOM     15  C   UNL     1     -44.697  26.353 -18.721  1.00  0.00     0.157 A 
ATOM     16  C   UNL     1     -46.642  25.005 -18.180  1.00  0.00     0.062 A 
ATOM     17  C   UNL     1     -45.415  25.151 -18.838  1.00  0.00     0.158 A 
BRANCH  15  18
ATOM     18  O   UNL     1     -43.476  26.506 -19.376  1.00  0.00    -0.504 OA
ATOM     19  H   UNL     1     -42.962  25.709 -19.731  1.00  0.00     0.293 HD
ENDBRANCH  15  18
BRANCH  17  20
ATOM     20  O   UNL     1     -44.927  24.093 -19.603  1.00  0.00    -0.504 OA
ATOM     21  H   UNL     1     -45.442  23.714 -20.389  1.00  0.00     0.293 HD
ENDBRANCH  17  20
ENDBRANCH   1  12
BRANCH   2  22
ATOM     22  O   UNL     1     -48.007  23.502 -16.303  1.00  0.00    -0.502 OA
ATOM     23  H   UNL     1     -47.438  23.179 -15.530  1.00  0.00     0.293 HD
ENDBRANCH   2  22
BRANCH   9  24
ATOM     24  O   UNL     1     -53.225  29.125 -15.047  1.00  0.00    -0.508 OA
ATOM     25  H   UNL     1     -53.870  29.247 -14.275  1.00  0.00     0.293 HD
ENDBRANCH   9  24
TORSDOF 5
ENDMDL
MODEL 7
REMARK VINA RESULT:    -7.313      2.232      3.660
REMARK INTER + INTRA:          -8.697
REMARK INTER:                  -8.444
REMARK INTRA:                  -0.252
REMARK UNBOUND:                -0.101
REMARK SMILES O=c1c(O)c(-c2ccc(O)c(O)c2)oc2cc(O)ccc12
REMARK SMILES IDX 5 1 3 2 2 3 1 4 21 5 15 6 14 7 16 8 17 9 19 10 20 11 6 12
REMARK SMILES IDX 7 13 8 14 9 15 13 16 11 17 10 18 12 20 4 22 18 24
REMARK H PARENT 10 19 12 21 4 23 18 25
REMARK Flexibility Score: inf
ROOT
ATOM      1  C   UNL     1     -45.971  27.501 -17.201  1.00  0.00     0.180 A 
ATOM      2  C   UNL     1     -45.908  26.703 -16.039  1.00  0.00     0.208 A 
ATOM      3  C   UNL     1     -47.073  26.524 -15.279  1.00  0.00     0.235 A 
ATOM      4  O   UNL     1     -47.046  25.804 -14.242  1.00  0.00    -0.285 OA
ATOM      5  C   UNL     1     -48.261  27.156 -15.676  1.00  0.00     0.069 A 
ATOM      6  C   UNL     1     -48.236  27.960 -16.837  1.00  0.00     0.142 A 
ATOM      7  O   UNL     1     -47.114  28.096 -17.535  1.00  0.00    -0.452 OA
ATOM      8  C   UNL     1     -49.398  28.615 -17.260  1.00  0.00     0.094 A 
ATOM      9  C   UNL     1     -50.589  28.477 -16.536  1.00  0.00     0.119 A 
ATOM     10  C   UNL     1     -50.618  27.680 -15.387  1.00  0.00     0.047 A 
ATOM     11  C   UNL     1     -49.462  27.023 -14.955  1.00  0.00     0.020 A 
ENDROOT
BRANCH   1  12
ATOM     12  C   UNL     1     -44.790  27.723 -18.066  1.00  0.00     0.025 A 
ATOM     13  C   UNL     1     -43.743  28.575 -17.672  1.00  0.00     0.016 A 
ATOM     14  C   UNL     1     -42.627  28.750 -18.495  1.00  0.00     0.051 A 
ATOM     15  C   UNL     1     -42.533  28.068 -19.715  1.00  0.00     0.157 A 
ATOM     16  C   UNL     1     -44.681  27.025 -19.280  1.00  0.00     0.062 A 
ATOM     17  C   UNL     1     -43.565  27.199 -20.107  1.00  0.00     0.158 A 
BRANCH  15  18
ATOM     18  O   UNL     1     -41.420  28.247 -20.535  1.00  0.00    -0.504 OA
ATOM     19  H   UNL     1     -40.896  27.459 -20.897  1.00  0.00     0.293 HD
ENDBRANCH  15  18
BRANCH  17  20
ATOM     20  O   UNL     1     -43.500  26.500 -21.312  1.00  0.00    -0.504 OA
ATOM     21  H   UNL     1     -42.638  26.411 -21.836  1.00  0.00     0.293 HD
ENDBRANCH  17  20
ENDBRANCH   1  12
BRANCH   2  22
ATOM     22  O   UNL     1     -44.699  26.125 -15.642  1.00  0.00    -0.502 OA
ATOM     23  H   UNL     1     -44.270  25.363 -16.152  1.00  0.00     0.293 HD
ENDBRANCH   2  22
BRANCH   9  24
ATOM     24  O   UNL     1     -51.750  29.125 -16.951  1.00  0.00    -0.508 OA
ATOM     25  H   UNL     1     -52.629  29.005 -16.461  1.00  0.00     0.293 HD
ENDBRANCH   9  24
TORSDOF 5
ENDMDL
MODEL 8
REMARK VINA RESULT:    -6.508      1.820      2.753
REMARK INTER + INTRA:          -7.750
REMARK INTER:                  -7.783
REMARK INTRA:                   0.033
REMARK UNBOUND:                -0.101
REMARK SMILES O=c1c(O)c(-c2ccc(O)c(O)c2)oc2cc(O)ccc12
REMARK SMILES IDX 5 1 3 2 2 3 1 4 21 5 15 6 14 7 16 8 17 9 19 10 20 11 6 12
REMARK SMILES IDX 7 13 8 14 9 15 13 16 11 17 10 18 12 20 4 22 18 24
REMARK H PARENT 10 19 12 21 4 23 18 25
REMARK Flexibility Score: inf
ROOT
ATOM      1  C   UNL     1     -50.317  26.441 -15.815  1.00  0.00     0.180 A 
ATOM      2  C   UNL     1     -51.339  27.405 -15.696  1.00  0.00     0.208 A 
ATOM      3  C   UNL     1     -52.484  27.086 -14.950  1.00  0.00     0.235 A 
ATOM      4  O   UNL     1     -53.408  27.936 -14.819  1.00  0.00    -0.285 OA
ATOM      5  C   UNL     1     -52.595  25.817 -14.363  1.00  0.00     0.069 A 
ATOM      6  C   UNL     1     -51.539  24.898 -14.550  1.00  0.00     0.142 A 
ATOM      7  O   UNL     1     -50.467  25.242 -15.254  1.00  0.00    -0.452 OA
ATOM      8  C   UNL     1     -51.616  23.619 -13.987  1.00  0.00     0.094 A 
ATOM      9  C   UNL     1     -52.739  23.245 -13.238  1.00  0.00     0.119 A 
ATOM     10  C   UNL     1     -53.786  24.153 -13.049  1.00  0.00     0.047 A 
ATOM     11  C   UNL     1     -53.719  25.432 -13.608  1.00  0.00     0.020 A 
ENDROOT
BRANCH   1  12
ATOM     12  C   UNL     1     -49.070  26.707 -16.569  1.00  0.00     0.025 A 
ATOM     13  C   UNL     1     -49.099  27.250 -17.865  1.00  0.00     0.016 A 
ATOM     14  C   UNL     1     -47.909  27.515 -18.547  1.00  0.00     0.051 A 
ATOM     15  C   UNL     1     -46.673  27.255 -17.941  1.00  0.00     0.157 A 
ATOM     16  C   UNL     1     -47.828  26.468 -15.957  1.00  0.00     0.062 A 
ATOM     17  C   UNL     1     -46.634  26.732 -16.638  1.00  0.00     0.158 A 
BRANCH  15  18
ATOM     18  O   UNL     1     -45.487  27.518 -18.625  1.00  0.00    -0.504 OA
ATOM     19  H   UNL     1     -44.584  27.277 -18.234  1.00  0.00     0.293 HD
ENDBRANCH  15  18
BRANCH  17  20
ATOM     20  O   UNL     1     -45.420  26.468 -16.004  1.00  0.00    -0.504 OA
ATOM     21  H   UNL     1     -44.629  26.075 -16.499  1.00  0.00     0.293 HD
ENDBRANCH  17  20
ENDBRANCH   1  12
BRANCH   2  22
ATOM     22  O   UNL     1     -51.223  28.643 -16.333  1.00  0.00    -0.502 OA
ATOM     23  H   UNL     1     -51.281  28.742 -17.339  1.00  0.00     0.293 HD
ENDBRANCH   2  22
BRANCH   9  24
ATOM     24  O   UNL     1     -52.823  21.974 -12.675  1.00  0.00    -0.508 OA
ATOM     25  H   UNL     1     -52.006  21.502 -12.304  1.00  0.00     0.293 HD
ENDBRANCH   9  24
TORSDOF 5
ENDMDL
MODEL 9
REMARK VINA RESULT:    -6.409     14.156     15.992
REMARK INTER + INTRA:          -7.634
REMARK INTER:                  -7.401
REMARK INTRA:                  -0.233
REMARK UNBOUND:                -0.101
REMARK SMILES O=c1c(O)c(-c2ccc(O)c(O)c2)oc2cc(O)ccc12
REMARK SMILES IDX 5 1 3 2 2 3 1 4 21 5 15 6 14 7 16 8 17 9 19 10 20 11 6 12
REMARK SMILES IDX 7 13 8 14 9 15 13 16 11 17 10 18 12 20 4 22 18 24
REMARK H PARENT 10 19 12 21 4 23 18 25
REMARK Flexibility Score: inf
ROOT
ATOM      1  C   UNL     1     -47.875  11.127 -18.708  1.00  0.00     0.180 A 
ATOM      2  C   UNL     1     -47.390  10.062 -19.496  1.00  0.00     0.208 A 
ATOM      3  C   UNL     1     -47.990   9.815 -20.739  1.00  0.00     0.235 A 
ATOM      4  O   UNL     1     -47.566   8.875 -21.469  1.00  0.00    -0.285 OA
ATOM      5  C   UNL     1     -49.066  10.612 -21.159  1.00  0.00     0.069 A 
ATOM      6  C   UNL     1     -49.509  11.642 -20.300  1.00  0.00     0.142 A 
ATOM      7  O   UNL     1     -48.907  11.851 -19.135  1.00  0.00    -0.452 OA
ATOM      8  C   UNL     1     -50.586  12.453 -20.678  1.00  0.00     0.094 A 
ATOM      9  C   UNL     1     -51.227  12.247 -21.906  1.00  0.00     0.119 A 
ATOM     10  C   UNL     1     -50.789  11.228 -22.759  1.00  0.00     0.047 A 
ATOM     11  C   UNL     1     -49.716  10.412 -22.391  1.00  0.00     0.020 A 
ENDROOT
BRANCH   1  12
ATOM     12  C   UNL     1     -47.283  11.464 -17.393  1.00  0.00     0.025 A 
ATOM     13  C   UNL     1     -46.517  12.628 -17.212  1.00  0.00     0.016 A 
ATOM     14  C   UNL     1     -45.989  12.939 -15.956  1.00  0.00     0.051 A 
ATOM     15  C   UNL     1     -46.229  12.099 -14.860  1.00  0.00     0.157 A 
ATOM     16  C   UNL     1     -47.539  10.637 -16.287  1.00  0.00     0.062 A 
ATOM     17  C   UNL     1     -47.011  10.945 -15.027  1.00  0.00     0.158 A 
BRANCH  15  18
ATOM     18  O   UNL     1     -45.699  12.410 -13.609  1.00  0.00    -0.504 OA
ATOM     19  H   UNL     1     -45.244  11.709 -13.036  1.00  0.00     0.293 HD
ENDBRANCH  15  18
BRANCH  17  20
ATOM     20  O   UNL     1     -47.275  10.092 -13.956  1.00  0.00    -0.504 OA
ATOM     21  H   UNL     1     -48.219   9.864 -13.669  1.00  0.00     0.293 HD
ENDBRANCH  17  20
ENDBRANCH   1  12
BRANCH   2  22
ATOM     22  O   UNL     1     -46.348   9.254 -19.031  1.00  0.00    -0.502 OA
ATOM     23  H   UNL     1     -45.385   9.403 -19.305  1.00  0.00     0.293 HD
ENDBRANCH   2  22
BRANCH   9  24
ATOM     24  O   UNL     1     -52.299  13.049 -22.290  1.00  0.00    -0.508 OA
ATOM     25  H   UNL     1     -52.911  12.787 -23.054  1.00  0.00     0.293 HD
ENDBRANCH   9  24
TORSDOF 5
ENDMDL
