MODEL 1
REMARK VINA RESULT:    -6.062      0.000      0.000
REMARK INTER + INTRA:          -7.664
REMARK INTER:                  -7.302
REMARK INTRA:                  -0.362
REMARK UNBOUND:                -0.362
REMARK SMILES Oc1cc(O)c2c(c1)O[C@H](c1ccc(O)c(O)c1)[C@H](O)C2
REMARK SMILES IDX 21 1 19 2 10 3 9 4 7 5 8 6 2 7 3 8 4 9 6 10 20 11 11 13
REMARK SMILES IDX 18 14 12 15 16 16 13 17 14 18 17 19 15 21 5 23 1 25
REMARK H PARENT 20 12 17 20 15 22 5 24 1 26
REMARK Flexibility Score: inf
ROOT
ATOM      1  C   UNL     1      -8.083  -3.769  -8.315  1.00  0.00     0.079 C 
ATOM      2  C   UNL     1      -8.536  -3.029  -7.042  1.00  0.00     0.164 C 
ATOM      3  C   UNL     1      -7.807  -1.678  -6.949  1.00  0.00     0.232 C 
ATOM      4  O   UNL     1      -6.394  -1.887  -6.955  1.00  0.00    -0.482 OA
ATOM      5  C   UNL     1      -5.790  -2.850  -7.771  1.00  0.00     0.131 A 
ATOM      6  C   UNL     1      -4.398  -2.874  -7.875  1.00  0.00     0.093 A 
ATOM      7  C   UNL     1      -3.768  -3.812  -8.694  1.00  0.00     0.122 A 
ATOM      8  C   UNL     1      -4.538  -4.728  -9.423  1.00  0.00     0.092 A 
ATOM      9  C   UNL     1      -5.934  -4.718  -9.330  1.00  0.00     0.126 A 
ATOM     10  C   UNL     1      -6.575  -3.797  -8.467  1.00  0.00     0.039 A 
ENDROOT
BRANCH   2  11
ATOM     11  O   UNL     1      -8.248  -3.808  -5.908  1.00  0.00    -0.389 OA
ATOM     12  H   UNL     1      -7.977  -3.179  -5.189  1.00  0.00     0.211 HD
ENDBRANCH   2  11
BRANCH   3  13
ATOM     13  C   UNL     1      -8.223  -0.908  -5.716  1.00  0.00    -0.001 A 
ATOM     14  C   UNL     1      -7.267  -0.431  -4.801  1.00  0.00     0.057 A 
ATOM     15  C   UNL     1      -9.587  -0.715  -5.439  1.00  0.00     0.012 A 
ATOM     16  C   UNL     1      -7.666   0.252  -3.643  1.00  0.00     0.157 A 
ATOM     17  C   UNL     1      -9.986  -0.036  -4.287  1.00  0.00     0.050 A 
ATOM     18  C   UNL     1      -9.032   0.452  -3.386  1.00  0.00     0.157 A 
BRANCH  16  19
ATOM     19  O   UNL     1      -6.710   0.727  -2.746  1.00  0.00    -0.504 OA
ATOM     20  H   UNL     1      -6.450   1.706  -2.717  1.00  0.00     0.293 HD
ENDBRANCH  16  19
BRANCH  18  21
ATOM     21  O   UNL     1      -9.461   1.128  -2.244  1.00  0.00    -0.504 OA
ATOM     22  H   UNL     1     -10.443   1.276  -2.044  1.00  0.00     0.293 HD
ENDBRANCH  18  21
ENDBRANCH   3  13
BRANCH   9  23
ATOM     23  O   UNL     1      -6.651  -5.624 -10.115  1.00  0.00    -0.507 OA
ATOM     24  H   UNL     1      -6.970  -6.523  -9.776  1.00  0.00     0.293 HD
ENDBRANCH   9  23
BRANCH   7  25
ATOM     25  O   UNL     1      -2.378  -3.823  -8.785  1.00  0.00    -0.508 OA
ATOM     26  H   UNL     1      -1.905  -3.742  -9.677  1.00  0.00     0.293 HD
ENDBRANCH   7  25
TORSDOF 6
ENDMDL
MODEL 2
REMARK VINA RESULT:    -5.810      1.692      6.789
REMARK INTER + INTRA:          -7.361
REMARK INTER:                  -7.436
REMARK INTRA:                   0.075
REMARK UNBOUND:                -0.362
REMARK SMILES Oc1cc(O)c2c(c1)O[C@H](c1ccc(O)c(O)c1)[C@H](O)C2
REMARK SMILES IDX 21 1 19 2 10 3 9 4 7 5 8 6 2 7 3 8 4 9 6 10 20 11 11 13
REMARK SMILES IDX 18 14 12 15 16 16 13 17 14 18 17 19 15 21 5 23 1 25
REMARK H PARENT 20 12 17 20 15 22 5 24 1 26
REMARK Flexibility Score: inf
ROOT
ATOM      1  C   UNL     1      -9.032   0.117  -7.386  1.00  0.00     0.079 C 
ATOM      2  C   UNL     1      -8.040  -0.878  -8.020  1.00  0.00     0.164 C 
ATOM      3  C   UNL     1      -7.643  -1.938  -6.979  1.00  0.00     0.232 C 
ATOM      4  O   UNL     1      -7.082  -1.305  -5.829  1.00  0.00    -0.482 OA
ATOM      5  C   UNL     1      -7.598  -0.110  -5.315  1.00  0.00     0.131 A 
ATOM      6  C   UNL     1      -7.132   0.355  -4.083  1.00  0.00     0.093 A 
ATOM      7  C   UNL     1      -7.640   1.535  -3.537  1.00  0.00     0.122 A 
ATOM      8  C   UNL     1      -8.628   2.250  -4.224  1.00  0.00     0.092 A 
ATOM      9  C   UNL     1      -9.107   1.799  -5.459  1.00  0.00     0.126 A 
ATOM     10  C   UNL     1      -8.563   0.627  -6.037  1.00  0.00     0.039 A 
ENDROOT
BRANCH   2  11
ATOM     11  O   UNL     1      -6.896  -0.193  -8.466  1.00  0.00    -0.389 OA
ATOM     12  H   UNL     1      -7.000   0.753  -8.184  1.00  0.00     0.211 HD
ENDBRANCH   2  11
BRANCH   3  13
ATOM     13  C   UNL     1      -6.673  -2.945  -7.557  1.00  0.00    -0.001 A 
ATOM     14  C   UNL     1      -5.349  -2.582  -7.862  1.00  0.00     0.057 A 
ATOM     15  C   UNL     1      -7.110  -4.246  -7.854  1.00  0.00     0.012 A 
ATOM     16  C   UNL     1      -4.467  -3.514  -8.430  1.00  0.00     0.157 A 
ATOM     17  C   UNL     1      -6.234  -5.175  -8.419  1.00  0.00     0.050 A 
ATOM     18  C   UNL     1      -4.912  -4.817  -8.707  1.00  0.00     0.157 A 
BRANCH  16  19
ATOM     19  O   UNL     1      -3.155  -3.147  -8.722  1.00  0.00    -0.504 OA
ATOM     20  H   UNL     1      -2.475  -3.824  -9.049  1.00  0.00     0.293 HD
ENDBRANCH  16  19
BRANCH  18  21
ATOM     21  O   UNL     1      -4.060  -5.766  -9.271  1.00  0.00    -0.504 OA
ATOM     22  H   UNL     1      -3.752  -6.583  -8.758  1.00  0.00     0.293 HD
ENDBRANCH  18  21
ENDBRANCH   3  13
BRANCH   9  23
ATOM     23  O   UNL     1     -10.125   2.529  -6.076  1.00  0.00    -0.507 OA
ATOM     24  H   UNL     1     -10.698   2.163  -6.825  1.00  0.00     0.293 HD
ENDBRANCH   9  23
BRANCH   7  25
ATOM     25  O   UNL     1      -7.162   1.985  -2.308  1.00  0.00    -0.508 OA
ATOM     26  H   UNL     1      -6.617   1.386  -1.701  1.00  0.00     0.293 HD
ENDBRANCH   7  25
TORSDOF 6
ENDMDL
MODEL 3
REMARK VINA RESULT:    -5.638      2.247      6.849
REMARK INTER + INTRA:          -7.154
REMARK INTER:                  -6.769
REMARK INTRA:                  -0.384
REMARK UNBOUND:                -0.362
REMARK SMILES Oc1cc(O)c2c(c1)O[C@H](c1ccc(O)c(O)c1)[C@H](O)C2
REMARK SMILES IDX 21 1 19 2 10 3 9 4 7 5 8 6 2 7 3 8 4 9 6 10 20 11 11 13
REMARK SMILES IDX 18 14 12 15 16 16 13 17 14 18 17 19 15 21 5 23 1 25
REMARK H PARENT 20 12 17 20 15 22 5 24 1 26
REMARK Flexibility Score: inf
ROOT
ATOM      1  C   UNL     1      -9.341   1.090  -6.548  1.00  0.00     0.079 C 
ATOM      2  C   UNL     1      -8.959  -0.120  -7.422  1.00  0.00     0.164 C 
ATOM      3  C   UNL     1      -9.224  -1.419  -6.642  1.00  0.00     0.232 C 
ATOM      4  O   UNL     1      -8.491  -1.408  -5.416  1.00  0.00    -0.482 OA
ATOM      5  C   UNL     1      -8.356  -0.250  -4.643  1.00  0.00     0.131 A 
ATOM      6  C   UNL     1      -7.796  -0.348  -3.367  1.00  0.00     0.093 A 
ATOM      7  C   UNL     1      -7.664   0.787  -2.566  1.00  0.00     0.122 A 
ATOM      8  C   UNL     1      -8.104   2.029  -3.041  1.00  0.00     0.092 A 
ATOM      9  C   UNL     1      -8.667   2.145  -4.317  1.00  0.00     0.126 A 
ATOM     10  C   UNL     1      -8.763   1.005  -5.149  1.00  0.00     0.039 A 
ENDROOT
BRANCH   2  11
ATOM     11  O   UNL     1      -7.600  -0.044  -7.775  1.00  0.00    -0.389 OA
ATOM     12  H   UNL     1      -7.528   0.641  -8.490  1.00  0.00     0.211 HD
ENDBRANCH   2  11
BRANCH   3  13
ATOM     13  C   UNL     1      -8.870  -2.640  -7.461  1.00  0.00    -0.001 A 
ATOM     14  C   UNL     1      -7.801  -3.476  -7.090  1.00  0.00     0.057 A 
ATOM     15  C   UNL     1      -9.572  -2.915  -8.645  1.00  0.00     0.012 A 
ATOM     16  C   UNL     1      -7.459  -4.586  -7.877  1.00  0.00     0.157 A 
ATOM     17  C   UNL     1      -9.232  -4.019  -9.429  1.00  0.00     0.050 A 
ATOM     18  C   UNL     1      -8.180  -4.859  -9.051  1.00  0.00     0.157 A 
BRANCH  16  19
ATOM     19  O   UNL     1      -6.402  -5.413  -7.497  1.00  0.00    -0.504 OA
ATOM     20  H   UNL     1      -6.299  -5.738  -6.543  1.00  0.00     0.293 HD
ENDBRANCH  16  19
BRANCH  18  21
ATOM     21  O   UNL     1      -7.864  -5.955  -9.853  1.00  0.00    -0.504 OA
ATOM     22  H   UNL     1      -7.541  -6.832  -9.463  1.00  0.00     0.293 HD
ENDBRANCH  18  21
ENDBRANCH   3  13
BRANCH   9  23
ATOM     23  O   UNL     1      -9.129   3.401  -4.718  1.00  0.00    -0.507 OA
ATOM     24  H   UNL     1      -9.616   4.038  -4.102  1.00  0.00     0.293 HD
ENDBRANCH   9  23
BRANCH   7  25
ATOM     25  O   UNL     1      -7.101   0.672  -1.297  1.00  0.00    -0.508 OA
ATOM     26  H   UNL     1      -6.942  -0.232  -0.869  1.00  0.00     0.293 HD
ENDBRANCH   7  25
TORSDOF 6
ENDMDL
MODEL 4
REMARK VINA RESULT:    -5.636     15.833     17.585
REMARK INTER + INTRA:          -7.151
REMARK INTER:                  -6.800
REMARK INTRA:                  -0.351
REMARK UNBOUND:                -0.362
REMARK SMILES Oc1cc(O)c2c(c1)O[C@H](c1ccc(O)c(O)c1)[C@H](O)C2
REMARK SMILES IDX 21 1 19 2 10 3 9 4 7 5 8 6 2 7 3 8 4 9 6 10 20 11 11 13
REMARK SMILES IDX 18 14 12 15 16 16 13 17 14 18 17 19 15 21 5 23 1 25
REMARK H PARENT 20 12 17 20 15 22 5 24 1 26
REMARK Flexibility Score: inf
ROOT
ATOM      1  C   UNL     1      -1.465   8.213   4.874  1.00  0.00     0.079 C 
ATOM      2  C   UNL     1      -0.659   7.501   5.978  1.00  0.00     0.164 C 
ATOM      3  C   UNL     1      -1.152   6.051   6.117  1.00  0.00     0.232 C 
ATOM      4  O   UNL     1      -2.551   6.039   6.403  1.00  0.00    -0.482 OA
ATOM      5  C   UNL     1      -3.441   6.929   5.791  1.00  0.00     0.131 A 
ATOM      6  C   UNL     1      -4.814   6.741   5.964  1.00  0.00     0.093 A 
ATOM      7  C   UNL     1      -5.726   7.603   5.353  1.00  0.00     0.122 A 
ATOM      8  C   UNL     1      -5.262   8.655   4.555  1.00  0.00     0.092 A 
ATOM      9  C   UNL     1      -3.889   8.858   4.370  1.00  0.00     0.126 A 
ATOM     10  C   UNL     1      -2.960   8.013   5.024  1.00  0.00     0.039 A 
ENDROOT
BRANCH   2  11
ATOM     11  O   UNL     1      -0.818   8.180   7.198  1.00  0.00    -0.389 OA
ATOM     12  H   UNL     1       0.082   8.502   7.467  1.00  0.00     0.211 HD
ENDBRANCH   2  11
BRANCH   3  13
ATOM     13  C   UNL     1      -0.386   5.305   7.186  1.00  0.00    -0.001 A 
ATOM     14  C   UNL     1       1.021   5.307   7.204  1.00  0.00     0.057 A 
ATOM     15  C   UNL     1      -1.080   4.546   8.142  1.00  0.00     0.012 A 
ATOM     16  C   UNL     1       1.722   4.583   8.180  1.00  0.00     0.157 A 
ATOM     17  C   UNL     1      -0.383   3.825   9.114  1.00  0.00     0.050 A 
ATOM     18  C   UNL     1       1.015   3.840   9.140  1.00  0.00     0.157 A 
BRANCH  16  19
ATOM     19  O   UNL     1       3.116   4.596   8.194  1.00  0.00    -0.504 OA
ATOM     20  H   UNL     1       3.652   3.767   8.423  1.00  0.00     0.293 HD
ENDBRANCH  16  19
BRANCH  18  21
ATOM     21  O   UNL     1       1.683   3.111  10.123  1.00  0.00    -0.504 OA
ATOM     22  H   UNL     1       1.458   2.144  10.322  1.00  0.00     0.293 HD
ENDBRANCH  18  21
ENDBRANCH   3  13
BRANCH   9  23
ATOM     23  O   UNL     1      -3.486   9.895   3.527  1.00  0.00    -0.507 OA
ATOM     24  H   UNL     1      -2.597   9.908   3.044  1.00  0.00     0.293 HD
ENDBRANCH   9  23
BRANCH   7  25
ATOM     25  O   UNL     1      -7.092   7.403   5.538  1.00  0.00    -0.508 OA
ATOM     26  H   UNL     1      -7.747   7.476   4.769  1.00  0.00     0.293 HD
ENDBRANCH   7  25
TORSDOF 6
ENDMDL
MODEL 5
REMARK VINA RESULT:    -5.628      2.804      6.715
REMARK INTER + INTRA:          -7.141
REMARK INTER:                  -7.005
REMARK INTRA:                  -0.136
REMARK UNBOUND:                -0.362
REMARK SMILES Oc1cc(O)c2c(c1)O[C@H](c1ccc(O)c(O)c1)[C@H](O)C2
REMARK SMILES IDX 21 1 19 2 10 3 9 4 7 5 8 6 2 7 3 8 4 9 6 10 20 11 11 13
REMARK SMILES IDX 18 14 12 15 16 16 13 17 14 18 17 19 15 21 5 23 1 25
REMARK H PARENT 20 12 17 20 15 22 5 24 1 26
REMARK Flexibility Score: inf
ROOT
ATOM      1  C   UNL     1      -9.060  -0.284  -6.854  1.00  0.00     0.079 C 
ATOM      2  C   UNL     1      -8.799  -1.708  -7.382  1.00  0.00     0.164 C 
ATOM      3  C   UNL     1      -9.279  -2.735  -6.341  1.00  0.00     0.232 C 
ATOM      4  O   UNL     1      -8.617  -2.511  -5.096  1.00  0.00    -0.482 OA
ATOM      5  C   UNL     1      -8.367  -1.222  -4.610  1.00  0.00     0.131 A 
ATOM      6  C   UNL     1      -7.894  -1.070  -3.305  1.00  0.00     0.093 A 
ATOM      7  C   UNL     1      -7.651   0.203  -2.787  1.00  0.00     0.122 A 
ATOM      8  C   UNL     1      -7.893   1.333  -3.578  1.00  0.00     0.092 A 
ATOM      9  C   UNL     1      -8.368   1.199  -4.887  1.00  0.00     0.126 A 
ATOM     10  C   UNL     1      -8.573  -0.091  -5.431  1.00  0.00     0.039 A 
ENDROOT
BRANCH   2  11
ATOM     11  O   UNL     1      -7.426  -1.882  -7.628  1.00  0.00    -0.389 OA
ATOM     12  H   UNL     1      -7.282  -1.697  -8.592  1.00  0.00     0.211 HD
ENDBRANCH   2  11
BRANCH   3  13
ATOM     13  C   UNL     1      -9.050  -4.152  -6.816  1.00  0.00    -0.001 A 
ATOM     14  C   UNL     1      -8.784  -5.188  -5.902  1.00  0.00     0.057 A 
ATOM     15  C   UNL     1      -9.039  -4.436  -8.191  1.00  0.00     0.012 A 
ATOM     16  C   UNL     1      -8.539  -6.493  -6.356  1.00  0.00     0.157 A 
ATOM     17  C   UNL     1      -8.795  -5.734  -8.644  1.00  0.00     0.050 A 
ATOM     18  C   UNL     1      -8.547  -6.766  -7.733  1.00  0.00     0.157 A 
BRANCH  16  19
ATOM     19  O   UNL     1      -8.284  -7.514  -5.443  1.00  0.00    -0.504 OA
ATOM     20  H   UNL     1      -7.891  -7.324  -4.528  1.00  0.00     0.293 HD
ENDBRANCH  16  19
BRANCH  18  21
ATOM     21  O   UNL     1      -8.307  -8.053  -8.215  1.00  0.00    -0.504 OA
ATOM     22  H   UNL     1      -8.580  -8.336  -9.149  1.00  0.00     0.293 HD
ENDBRANCH  18  21
ENDBRANCH   3  13
BRANCH   9  23
ATOM     23  O   UNL     1      -8.634   2.363  -5.612  1.00  0.00    -0.507 OA
ATOM     24  H   UNL     1      -9.157   2.373  -6.478  1.00  0.00     0.293 HD
ENDBRANCH   9  23
BRANCH   7  25
ATOM     25  O   UNL     1      -7.177   0.337  -1.484  1.00  0.00    -0.508 OA
ATOM     26  H   UNL     1      -7.304   1.194  -0.960  1.00  0.00     0.293 HD
ENDBRANCH   7  25
TORSDOF 6
ENDMDL
MODEL 6
REMARK VINA RESULT:    -5.507      1.757      2.177
REMARK INTER + INTRA:          -6.996
REMARK INTER:                  -6.826
REMARK INTRA:                  -0.171
REMARK UNBOUND:                -0.362
REMARK SMILES Oc1cc(O)c2c(c1)O[C@H](c1ccc(O)c(O)c1)[C@H](O)C2
REMARK SMILES IDX 21 1 19 2 10 3 9 4 7 5 8 6 2 7 3 8 4 9 6 10 20 11 11 13
REMARK SMILES IDX 18 14 12 15 16 16 13 17 14 18 17 19 15 21 5 23 1 25
REMARK H PARENT 20 12 17 20 15 22 5 24 1 26
REMARK Flexibility Score: inf
ROOT
ATOM      1  C   UNL     1      -8.681  -3.555  -7.020  1.00  0.00     0.079 C 
ATOM      2  C   UNL     1      -8.762  -2.309  -6.117  1.00  0.00     0.164 C 
ATOM      3  C   UNL     1      -8.029  -1.138  -6.793  1.00  0.00     0.232 C 
ATOM      4  O   UNL     1      -6.673  -1.502  -7.058  1.00  0.00    -0.482 OA
ATOM      5  C   UNL     1      -6.323  -2.781  -7.506  1.00  0.00     0.131 A 
ATOM      6  C   UNL     1      -5.013  -3.016  -7.930  1.00  0.00     0.093 A 
ATOM      7  C   UNL     1      -4.638  -4.276  -8.397  1.00  0.00     0.122 A 
ATOM      8  C   UNL     1      -5.583  -5.308  -8.449  1.00  0.00     0.092 A 
ATOM      9  C   UNL     1      -6.900  -5.091  -8.028  1.00  0.00     0.126 A 
ATOM     10  C   UNL     1      -7.273  -3.827  -7.513  1.00  0.00     0.039 A 
ENDROOT
BRANCH   2  11
ATOM     11  O   UNL     1      -8.176  -2.584  -4.869  1.00  0.00    -0.389 OA
ATOM     12  H   UNL     1      -7.255  -2.905  -5.050  1.00  0.00     0.211 HD
ENDBRANCH   2  11
BRANCH   3  13
ATOM     13  C   UNL     1      -8.086   0.114  -5.947  1.00  0.00    -0.001 A 
ATOM     14  C   UNL     1      -9.094   1.075  -6.142  1.00  0.00     0.057 A 
ATOM     15  C   UNL     1      -7.085   0.359  -4.993  1.00  0.00     0.012 A 
ATOM     16  C   UNL     1      -9.117   2.249  -5.376  1.00  0.00     0.157 A 
ATOM     17  C   UNL     1      -7.106   1.528  -4.229  1.00  0.00     0.050 A 
ATOM     18  C   UNL     1      -8.119   2.475  -4.413  1.00  0.00     0.157 A 
BRANCH  16  19
ATOM     19  O   UNL     1     -10.125   3.192  -5.571  1.00  0.00    -0.504 OA
ATOM     20  H   UNL     1     -10.566   3.319  -6.474  1.00  0.00     0.293 HD
ENDBRANCH  16  19
BRANCH  18  21
ATOM     21  O   UNL     1      -8.115   3.632  -3.635  1.00  0.00    -0.504 OA
ATOM     22  H   UNL     1      -8.819   4.353  -3.740  1.00  0.00     0.293 HD
ENDBRANCH  18  21
ENDBRANCH   3  13
BRANCH   9  23
ATOM     23  O   UNL     1      -7.809  -6.144  -8.146  1.00  0.00    -0.507 OA
ATOM     24  H   UNL     1      -8.779  -6.077  -7.865  1.00  0.00     0.293 HD
ENDBRANCH   9  23
BRANCH   7  25
ATOM     25  O   UNL     1      -3.327  -4.493  -8.815  1.00  0.00    -0.508 OA
ATOM     26  H   UNL     1      -2.769  -5.249  -8.437  1.00  0.00     0.293 HD
ENDBRANCH   7  25
TORSDOF 6
ENDMDL
MODEL 7
REMARK VINA RESULT:    -5.501     15.633     17.156
REMARK INTER + INTRA:          -6.988
REMARK INTER:                  -6.647
REMARK INTRA:                  -0.341
REMARK UNBOUND:                -0.362
REMARK SMILES Oc1cc(O)c2c(c1)O[C@H](c1ccc(O)c(O)c1)[C@H](O)C2
REMARK SMILES IDX 21 1 19 2 10 3 9 4 7 5 8 6 2 7 3 8 4 9 6 10 20 11 11 13
REMARK SMILES IDX 18 14 12 15 16 16 13 17 14 18 17 19 15 21 5 23 1 25
REMARK H PARENT 20 12 17 20 15 22 5 24 1 26
REMARK Flexibility Score: inf
ROOT
ATOM      1  C   UNL     1      -5.310   7.409   7.465  1.00  0.00     0.079 C 
ATOM      2  C   UNL     1      -4.185   6.365   7.611  1.00  0.00     0.164 C 
ATOM      3  C   UNL     1      -2.846   6.993   7.188  1.00  0.00     0.232 C 
ATOM      4  O   UNL     1      -2.938   7.476   5.847  1.00  0.00    -0.482 OA
ATOM      5  C   UNL     1      -4.087   8.112   5.365  1.00  0.00     0.131 A 
ATOM      6  C   UNL     1      -4.046   8.731   4.114  1.00  0.00     0.093 A 
ATOM      7  C   UNL     1      -5.172   9.387   3.614  1.00  0.00     0.122 A 
ATOM      8  C   UNL     1      -6.346   9.432   4.375  1.00  0.00     0.092 A 
ATOM      9  C   UNL     1      -6.406   8.817   5.631  1.00  0.00     0.126 A 
ATOM     10  C   UNL     1      -5.280   8.113   6.122  1.00  0.00     0.039 A 
ENDROOT
BRANCH   2  11
ATOM     11  O   UNL     1      -4.465   5.247   6.806  1.00  0.00    -0.389 OA
ATOM     12  H   UNL     1      -5.453   5.171   6.754  1.00  0.00     0.211 HD
ENDBRANCH   2  11
BRANCH   3  13
ATOM     13  C   UNL     1      -1.707   6.008   7.319  1.00  0.00    -0.001 A 
ATOM     14  C   UNL     1      -1.144   5.395   6.185  1.00  0.00     0.057 A 
ATOM     15  C   UNL     1      -1.239   5.646   8.593  1.00  0.00     0.012 A 
ATOM     16  C   UNL     1      -0.111   4.456   6.321  1.00  0.00     0.157 A 
ATOM     17  C   UNL     1      -0.210   4.711   8.730  1.00  0.00     0.050 A 
ATOM     18  C   UNL     1       0.359   4.115   7.600  1.00  0.00     0.157 A 
BRANCH  16  19
ATOM     19  O   UNL     1       0.446   3.859   5.191  1.00  0.00    -0.504 OA
ATOM     20  H   UNL     1       0.130   2.956   4.857  1.00  0.00     0.293 HD
ENDBRANCH  16  19
BRANCH  18  21
ATOM     21  O   UNL     1       1.385   3.186   7.768  1.00  0.00    -0.504 OA
ATOM     22  H   UNL     1       2.359   3.462   7.813  1.00  0.00     0.293 HD
ENDBRANCH  18  21
ENDBRANCH   3  13
BRANCH   9  23
ATOM     23  O   UNL     1      -7.589   8.934   6.364  1.00  0.00    -0.507 OA
ATOM     24  H   UNL     1      -8.019   8.160   6.854  1.00  0.00     0.293 HD
ENDBRANCH   9  23
BRANCH   7  25
ATOM     25  O   UNL     1      -5.113   9.998   2.363  1.00  0.00    -0.508 OA
ATOM     26  H   UNL     1      -4.407  10.690   2.145  1.00  0.00     0.293 HD
ENDBRANCH   7  25
TORSDOF 6
ENDMDL
MODEL 8
REMARK VINA RESULT:    -5.481     15.123     16.499
REMARK INTER + INTRA:          -6.965
REMARK INTER:                  -6.595
REMARK INTRA:                  -0.370
REMARK UNBOUND:                -0.362
REMARK SMILES Oc1cc(O)c2c(c1)O[C@H](c1ccc(O)c(O)c1)[C@H](O)C2
REMARK SMILES IDX 21 1 19 2 10 3 9 4 7 5 8 6 2 7 3 8 4 9 6 10 20 11 11 13
REMARK SMILES IDX 18 14 12 15 16 16 13 17 14 18 17 19 15 21 5 23 1 25
REMARK H PARENT 20 12 17 20 15 22 5 24 1 26
REMARK Flexibility Score: inf
ROOT
ATOM      1  C   UNL     1      -1.925   6.144   4.997  1.00  0.00     0.079 C 
ATOM      2  C   UNL     1      -3.433   6.413   5.161  1.00  0.00     0.164 C 
ATOM      3  C   UNL     1      -3.700   7.005   6.555  1.00  0.00     0.232 C 
ATOM      4  O   UNL     1      -3.218   6.115   7.562  1.00  0.00    -0.482 OA
ATOM      5  C   UNL     1      -2.015   5.414   7.417  1.00  0.00     0.131 A 
ATOM      6  C   UNL     1      -1.503   4.713   8.511  1.00  0.00     0.093 A 
ATOM      7  C   UNL     1      -0.298   4.018   8.403  1.00  0.00     0.122 A 
ATOM      8  C   UNL     1       0.407   4.032   7.193  1.00  0.00     0.092 A 
ATOM      9  C   UNL     1      -0.091   4.730   6.086  1.00  0.00     0.126 A 
ATOM     10  C   UNL     1      -1.335   5.399   6.179  1.00  0.00     0.039 A 
ENDROOT
BRANCH   2  11
ATOM     11  O   UNL     1      -4.151   5.214   5.004  1.00  0.00    -0.389 OA
ATOM     12  H   UNL     1      -4.888   5.233   5.669  1.00  0.00     0.211 HD
ENDBRANCH   2  11
BRANCH   3  13
ATOM     13  C   UNL     1      -5.170   7.293   6.762  1.00  0.00    -0.001 A 
ATOM     14  C   UNL     1      -5.804   8.350   6.083  1.00  0.00     0.057 A 
ATOM     15  C   UNL     1      -5.906   6.540   7.691  1.00  0.00     0.012 A 
ATOM     16  C   UNL     1      -7.159   8.630   6.310  1.00  0.00     0.157 A 
ATOM     17  C   UNL     1      -7.255   6.818   7.917  1.00  0.00     0.050 A 
ATOM     18  C   UNL     1      -7.888   7.859   7.230  1.00  0.00     0.157 A 
BRANCH  16  19
ATOM     19  O   UNL     1      -7.781   9.675   5.627  1.00  0.00    -0.504 OA
ATOM     20  H   UNL     1      -7.794   9.715   4.615  1.00  0.00     0.293 HD
ENDBRANCH  16  19
BRANCH  18  21
ATOM     21  O   UNL     1      -9.237   8.113   7.476  1.00  0.00    -0.504 OA
ATOM     22  H   UNL     1      -9.752   7.626   8.200  1.00  0.00     0.293 HD
ENDBRANCH  18  21
ENDBRANCH   3  13
BRANCH   9  23
ATOM     23  O   UNL     1       0.678   4.747   4.920  1.00  0.00    -0.507 OA
ATOM     24  H   UNL     1       0.795   3.941   4.319  1.00  0.00     0.293 HD
ENDBRANCH   9  23
BRANCH   7  25
ATOM     25  O   UNL     1       0.197   3.322   9.504  1.00  0.00    -0.508 OA
ATOM     26  H   UNL     1       0.427   3.795  10.369  1.00  0.00     0.293 HD
ENDBRANCH   7  25
TORSDOF 6
ENDMDL
MODEL 9
REMARK VINA RESULT:    -5.346      2.205      3.216
REMARK INTER + INTRA:          -6.802
REMARK INTER:                  -6.413
REMARK INTRA:                  -0.389
REMARK UNBOUND:                -0.362
REMARK SMILES Oc1cc(O)c2c(c1)O[C@H](c1ccc(O)c(O)c1)[C@H](O)C2
REMARK SMILES IDX 21 1 19 2 10 3 9 4 7 5 8 6 2 7 3 8 4 9 6 10 20 11 11 13
REMARK SMILES IDX 18 14 12 15 16 16 13 17 14 18 17 19 15 21 5 23 1 25
REMARK H PARENT 20 12 17 20 15 22 5 24 1 26
REMARK Flexibility Score: inf
ROOT
ATOM      1  C   UNL     1     -10.100  -4.143  -4.664  1.00  0.00     0.079 C 
ATOM      2  C   UNL     1      -9.758  -2.768  -4.059  1.00  0.00     0.164 C 
ATOM      3  C   UNL     1      -9.535  -1.751  -5.192  1.00  0.00     0.232 C 
ATOM      4  O   UNL     1      -8.498  -2.211  -6.060  1.00  0.00    -0.482 OA
ATOM      5  C   UNL     1      -8.374  -3.558  -6.418  1.00  0.00     0.131 A 
ATOM      6  C   UNL     1      -7.465  -3.914  -7.417  1.00  0.00     0.093 A 
ATOM      7  C   UNL     1      -7.330  -5.247  -7.806  1.00  0.00     0.122 A 
ATOM      8  C   UNL     1      -8.118  -6.232  -7.198  1.00  0.00     0.092 A 
ATOM      9  C   UNL     1      -9.034  -5.894  -6.195  1.00  0.00     0.126 A 
ATOM     10  C   UNL     1      -9.142  -4.550  -5.766  1.00  0.00     0.039 A 
ENDROOT
BRANCH   2  11
ATOM     11  O   UNL     1      -8.598  -2.868  -3.271  1.00  0.00    -0.389 OA
ATOM     12  H   UNL     1      -7.856  -2.477  -3.802  1.00  0.00     0.211 HD
ENDBRANCH   2  11
BRANCH   3  13
ATOM     13  C   UNL     1      -9.201  -0.380  -4.648  1.00  0.00    -0.001 A 
ATOM     14  C   UNL     1      -7.953   0.217  -4.904  1.00  0.00     0.057 A 
ATOM     15  C   UNL     1     -10.120   0.287  -3.822  1.00  0.00     0.012 A 
ATOM     16  C   UNL     1      -7.641   1.474  -4.365  1.00  0.00     0.157 A 
ATOM     17  C   UNL     1      -9.811   1.538  -3.285  1.00  0.00     0.050 A 
ATOM     18  C   UNL     1      -8.575   2.138  -3.554  1.00  0.00     0.157 A 
BRANCH  16  19
ATOM     19  O   UNL     1      -6.405   2.061  -4.630  1.00  0.00    -0.504 OA
ATOM     20  H   UNL     1      -5.932   1.926  -5.516  1.00  0.00     0.293 HD
ENDBRANCH  16  19
BRANCH  18  21
ATOM     21  O   UNL     1      -8.295   3.388  -3.004  1.00  0.00    -0.504 OA
ATOM     22  H   UNL     1      -8.784   4.226  -3.297  1.00  0.00     0.293 HD
ENDBRANCH  18  21
ENDBRANCH   3  13
BRANCH   9  23
ATOM     23  O   UNL     1      -9.823  -6.913  -5.656  1.00  0.00    -0.507 OA
ATOM     24  H   UNL     1     -10.756  -6.761  -5.294  1.00  0.00     0.293 HD
ENDBRANCH   9  23
BRANCH   7  25
ATOM     25  O   UNL     1      -6.418  -5.584  -8.803  1.00  0.00    -0.508 OA
ATOM     26  H   UNL     1      -5.437  -5.342  -8.727  1.00  0.00     0.293 HD
ENDBRANCH   7  25
TORSDOF 6
ENDMDL
