MODEL 1
REMARK VINA RESULT:    -4.280      0.000      0.000
REMARK INTER + INTRA:          -8.189
REMARK INTER:                  -7.283
REMARK INTRA:                  -0.906
REMARK UNBOUND:                -0.906
REMARK SMILES CCCCCCCCCCCCCC(=O)[O-]
REMARK SMILES IDX 8 1 9 2 10 3 11 4 12 5 13 6 14 7 15 8 16 9 7 10 6 11 5 12
REMARK SMILES IDX 4 13 3 14 2 15 1 16
REMARK H PARENT
REMARK Flexibility Score: inf
ROOT
ATOM      1  C   UNL     1      11.776  16.825  31.283  1.00  0.00     0.000 C 
ENDROOT
BRANCH   1   2
ATOM      2  C   UNL     1      10.683  16.502  32.317  1.00  0.00     0.000 C 
BRANCH   2   3
ATOM      3  C   UNL     1      10.154  15.065  32.198  1.00  0.00     0.000 C 
BRANCH   3   4
ATOM      4  C   UNL     1      10.455  14.484  30.810  1.00  0.00     0.000 C 
BRANCH   4   5
ATOM      5  C   UNL     1       9.554  13.276  30.513  1.00  0.00     0.006 C 
BRANCH   5   6
ATOM      6  C   UNL     1       8.692  12.884  31.720  1.00  0.00     0.053 C 
BRANCH   6   7
ATOM      7  C   UNL     1       7.290  12.550  31.316  1.00  0.00     0.041 C 
ATOM      8  O   UNL     1       6.737  11.503  31.745  1.00  0.00    -0.550 OA
ATOM      9  O   UNL     1       6.603  13.378  30.436  1.00  0.00    -0.550 OA
ENDBRANCH   6   7
ENDBRANCH   5   6
ENDBRANCH   4   5
ENDBRANCH   3   4
ENDBRANCH   2   3
ENDBRANCH   1   2
BRANCH   1  10
ATOM     10  C   UNL     1      11.583  18.152  30.523  1.00  0.00     0.000 C 
BRANCH  10  11
ATOM     11  C   UNL     1      11.531  18.024  28.987  1.00  0.00    -0.000 C 
BRANCH  11  12
ATOM     12  C   UNL     1      11.930  16.640  28.438  1.00  0.00    -0.000 C 
BRANCH  12  13
ATOM     13  C   UNL     1      12.929  16.669  27.264  1.00  0.00    -0.000 C 
BRANCH  13  14
ATOM     14  C   UNL     1      12.935  17.976  26.445  1.00  0.00    -0.000 C 
BRANCH  14  15
ATOM     15  C   UNL     1      14.332  18.482  26.044  1.00  0.00    -0.003 C 
ATOM     16  C   UNL     1      15.458  17.583  26.550  1.00  0.00     0.004 C 
ENDBRANCH  14  15
ENDBRANCH  13  14
ENDBRANCH  12  13
ENDBRANCH  11  12
ENDBRANCH  10  11
ENDBRANCH   1  10
TORSDOF 12
ENDMDL
MODEL 2
REMARK VINA RESULT:    -4.212     10.034     11.916
REMARK INTER + INTRA:          -8.073
REMARK INTER:                  -6.621
REMARK INTRA:                  -1.452
REMARK UNBOUND:                -0.906
REMARK SMILES CCCCCCCCCCCCCC(=O)[O-]
REMARK SMILES IDX 8 1 9 2 10 3 11 4 12 5 13 6 14 7 15 8 16 9 7 10 6 11 5 12
REMARK SMILES IDX 4 13 3 14 2 15 1 16
REMARK H PARENT
REMARK Flexibility Score: inf
ROOT
ATOM      1  C   UNL     1      13.838  21.928  23.137  1.00  0.00     0.000 C 
ENDROOT
BRANCH   1   2
ATOM      2  C   UNL     1      14.984  21.563  24.097  1.00  0.00     0.000 C 
BRANCH   2   3
ATOM      3  C   UNL     1      16.150  22.560  24.040  1.00  0.00     0.000 C 
BRANCH   3   4
ATOM      4  C   UNL     1      17.404  21.906  23.446  1.00  0.00     0.000 C 
BRANCH   4   5
ATOM      5  C   UNL     1      17.230  20.385  23.334  1.00  0.00     0.006 C 
BRANCH   5   6
ATOM      6  C   UNL     1      17.506  19.872  21.914  1.00  0.00     0.053 C 
BRANCH   6   7
ATOM      7  C   UNL     1      16.581  18.756  21.538  1.00  0.00     0.041 C 
ATOM      8  O   UNL     1      17.018  17.751  20.917  1.00  0.00    -0.550 OA
ATOM      9  O   UNL     1      15.228  18.841  21.843  1.00  0.00    -0.550 OA
ENDBRANCH   6   7
ENDBRANCH   5   6
ENDBRANCH   4   5
ENDBRANCH   3   4
ENDBRANCH   2   3
ENDBRANCH   1   2
BRANCH   1  10
ATOM     10  C   UNL     1      14.246  22.810  21.940  1.00  0.00     0.000 C 
BRANCH  10  11
ATOM     11  C   UNL     1      14.507  22.047  20.626  1.00  0.00    -0.000 C 
BRANCH  11  12
ATOM     12  C   UNL     1      14.490  22.918  19.355  1.00  0.00    -0.000 C 
BRANCH  12  13
ATOM     13  C   UNL     1      13.242  23.807  19.192  1.00  0.00    -0.000 C 
BRANCH  13  14
ATOM     14  C   UNL     1      11.899  23.049  19.164  1.00  0.00    -0.000 C 
BRANCH  14  15
ATOM     15  C   UNL     1      10.839  23.573  20.149  1.00  0.00    -0.003 C 
ATOM     16  C   UNL     1      11.135  24.988  20.644  1.00  0.00     0.004 C 
ENDBRANCH  14  15
ENDBRANCH  13  14
ENDBRANCH  12  13
ENDBRANCH  11  12
ENDBRANCH  10  11
ENDBRANCH   1  10
TORSDOF 12
ENDMDL
MODEL 3
REMARK VINA RESULT:    -4.183      5.035      8.468
REMARK INTER + INTRA:          -8.023
REMARK INTER:                  -6.425
REMARK INTRA:                  -1.598
REMARK UNBOUND:                -0.906
REMARK SMILES CCCCCCCCCCCCCC(=O)[O-]
REMARK SMILES IDX 8 1 9 2 10 3 11 4 12 5 13 6 14 7 15 8 16 9 7 10 6 11 5 12
REMARK SMILES IDX 4 13 3 14 2 15 1 16
REMARK H PARENT
REMARK Flexibility Score: inf
ROOT
ATOM      1  C   UNL     1      15.758  18.573  21.908  1.00  0.00     0.000 C 
ENDROOT
BRANCH   1   2
ATOM      2  C   UNL     1      14.424  18.774  22.649  1.00  0.00     0.000 C 
BRANCH   2   3
ATOM      3  C   UNL     1      14.323  17.936  23.932  1.00  0.00     0.000 C 
BRANCH   3   4
ATOM      4  C   UNL     1      15.159  18.555  25.059  1.00  0.00     0.000 C 
BRANCH   4   5
ATOM      5  C   UNL     1      14.838  17.895  26.408  1.00  0.00     0.006 C 
BRANCH   5   6
ATOM      6  C   UNL     1      13.616  18.528  27.087  1.00  0.00     0.053 C 
BRANCH   6   7
ATOM      7  C   UNL     1      12.607  17.496  27.487  1.00  0.00     0.041 C 
ATOM      8  O   UNL     1      11.868  17.685  28.489  1.00  0.00    -0.550 OA
ATOM      9  O   UNL     1      12.505  16.309  26.772  1.00  0.00    -0.550 OA
ENDBRANCH   6   7
ENDBRANCH   5   6
ENDBRANCH   4   5
ENDBRANCH   3   4
ENDBRANCH   2   3
ENDBRANCH   1   2
BRANCH   1  10
ATOM     10  C   UNL     1      16.475  19.874  21.493  1.00  0.00     0.000 C 
BRANCH  10  11
ATOM     11  C   UNL     1      17.773  20.179  22.266  1.00  0.00    -0.000 C 
BRANCH  11  12
ATOM     12  C   UNL     1      17.569  20.859  23.634  1.00  0.00    -0.000 C 
BRANCH  12  13
ATOM     13  C   UNL     1      17.365  22.386  23.577  1.00  0.00    -0.000 C 
BRANCH  13  14
ATOM     14  C   UNL     1      16.093  22.900  24.281  1.00  0.00    -0.000 C 
BRANCH  14  15
ATOM     15  C   UNL     1      14.774  22.317  23.742  1.00  0.00    -0.003 C 
ATOM     16  C   UNL     1      13.818  21.885  24.852  1.00  0.00     0.004 C 
ENDBRANCH  14  15
ENDBRANCH  13  14
ENDBRANCH  12  13
ENDBRANCH  11  12
ENDBRANCH  10  11
ENDBRANCH   1  10
TORSDOF 12
ENDMDL
MODEL 4
REMARK VINA RESULT:    -4.177      4.352      5.660
REMARK INTER + INTRA:          -8.013
REMARK INTER:                  -6.853
REMARK INTRA:                  -1.160
REMARK UNBOUND:                -0.906
REMARK SMILES CCCCCCCCCCCCCC(=O)[O-]
REMARK SMILES IDX 8 1 9 2 10 3 11 4 12 5 13 6 14 7 15 8 16 9 7 10 6 11 5 12
REMARK SMILES IDX 4 13 3 14 2 15 1 16
REMARK H PARENT
REMARK Flexibility Score: inf
ROOT
ATOM      1  C   UNL     1      11.792  16.391  31.773  1.00  0.00     0.000 C 
ENDROOT
BRANCH   1   2
ATOM      2  C   UNL     1      10.608  16.782  32.674  1.00  0.00     0.000 C 
BRANCH   2   3
ATOM      3  C   UNL     1      10.476  18.300  32.861  1.00  0.00     0.000 C 
BRANCH   3   4
ATOM      4  C   UNL     1      10.091  18.984  31.543  1.00  0.00     0.000 C 
BRANCH   4   5
ATOM      5  C   UNL     1      11.046  20.142  31.225  1.00  0.00     0.006 C 
BRANCH   5   6
ATOM      6  C   UNL     1      12.263  19.684  30.410  1.00  0.00     0.053 C 
BRANCH   6   7
ATOM      7  C   UNL     1      12.945  20.834  29.736  1.00  0.00     0.041 C 
ATOM      8  O   UNL     1      13.831  21.492  30.342  1.00  0.00    -0.550 OA
ATOM      9  O   UNL     1      12.577  21.202  28.447  1.00  0.00    -0.550 OA
ENDBRANCH   6   7
ENDBRANCH   5   6
ENDBRANCH   4   5
ENDBRANCH   3   4
ENDBRANCH   2   3
ENDBRANCH   1   2
BRANCH   1  10
ATOM     10  C   UNL     1      11.444  15.433  30.616  1.00  0.00     0.000 C 
BRANCH  10  11
ATOM     11  C   UNL     1      11.023  16.121  29.303  1.00  0.00    -0.000 C 
BRANCH  11  12
ATOM     12  C   UNL     1      12.129  16.210  28.233  1.00  0.00    -0.000 C 
BRANCH  12  13
ATOM     13  C   UNL     1      12.245  17.576  27.529  1.00  0.00    -0.000 C 
BRANCH  13  14
ATOM     14  C   UNL     1      12.986  17.552  26.177  1.00  0.00    -0.000 C 
BRANCH  14  15
ATOM     15  C   UNL     1      14.291  18.368  26.139  1.00  0.00    -0.003 C 
ATOM     16  C   UNL     1      15.493  17.593  26.677  1.00  0.00     0.004 C 
ENDBRANCH  14  15
ENDBRANCH  13  14
ENDBRANCH  12  13
ENDBRANCH  11  12
ENDBRANCH  10  11
ENDBRANCH   1  10
TORSDOF 12
ENDMDL
MODEL 5
REMARK VINA RESULT:    -4.122      4.462      7.408
REMARK INTER + INTRA:          -7.920
REMARK INTER:                  -6.179
REMARK INTRA:                  -1.741
REMARK UNBOUND:                -0.906
REMARK SMILES CCCCCCCCCCCCCC(=O)[O-]
REMARK SMILES IDX 8 1 9 2 10 3 11 4 12 5 13 6 14 7 15 8 16 9 7 10 6 11 5 12
REMARK SMILES IDX 4 13 3 14 2 15 1 16
REMARK H PARENT
REMARK Flexibility Score: inf
ROOT
ATOM      1  C   UNL     1      11.284  15.843  29.410  1.00  0.00     0.000 C 
ENDROOT
BRANCH   1   2
ATOM      2  C   UNL     1      12.077  16.466  28.247  1.00  0.00     0.000 C 
BRANCH   2   3
ATOM      3  C   UNL     1      11.236  17.430  27.400  1.00  0.00     0.000 C 
BRANCH   3   4
ATOM      4  C   UNL     1      11.084  18.787  28.101  1.00  0.00     0.000 C 
BRANCH   4   5
ATOM      5  C   UNL     1      12.439  19.295  28.614  1.00  0.00     0.006 C 
BRANCH   5   6
ATOM      6  C   UNL     1      12.336  19.907  30.017  1.00  0.00     0.053 C 
BRANCH   6   7
ATOM      7  C   UNL     1      12.906  21.291  30.062  1.00  0.00     0.041 C 
ATOM      8  O   UNL     1      13.057  21.951  29.000  1.00  0.00    -0.550 OA
ATOM      9  O   UNL     1      13.303  21.841  31.275  1.00  0.00    -0.550 OA
ENDBRANCH   6   7
ENDBRANCH   5   6
ENDBRANCH   4   5
ENDBRANCH   3   4
ENDBRANCH   2   3
ENDBRANCH   1   2
BRANCH   1  10
ATOM     10  C   UNL     1      12.010  15.847  30.770  1.00  0.00     0.000 C 
BRANCH  10  11
ATOM     11  C   UNL     1      11.405  16.788  31.830  1.00  0.00    -0.000 C 
BRANCH  11  12
ATOM     12  C   UNL     1      10.023  17.369  31.470  1.00  0.00    -0.000 C 
BRANCH  12  13
ATOM     13  C   UNL     1       8.849  16.821  32.305  1.00  0.00    -0.000 C 
BRANCH  13  14
ATOM     14  C   UNL     1       9.067  15.412  32.892  1.00  0.00    -0.000 C 
BRANCH  14  15
ATOM     15  C   UNL     1       8.525  14.260  32.027  1.00  0.00    -0.003 C 
ATOM     16  C   UNL     1       9.577  13.193  31.728  1.00  0.00     0.004 C 
ENDBRANCH  14  15
ENDBRANCH  13  14
ENDBRANCH  12  13
ENDBRANCH  11  12
ENDBRANCH  10  11
ENDBRANCH   1  10
TORSDOF 12
ENDMDL
MODEL 6
REMARK VINA RESULT:    -4.115      4.147      7.902
REMARK INTER + INTRA:          -7.908
REMARK INTER:                  -6.848
REMARK INTRA:                  -1.060
REMARK UNBOUND:                -0.906
REMARK SMILES CCCCCCCCCCCCCC(=O)[O-]
REMARK SMILES IDX 8 1 9 2 10 3 11 4 12 5 13 6 14 7 15 8 16 9 7 10 6 11 5 12
REMARK SMILES IDX 4 13 3 14 2 15 1 16
REMARK H PARENT
REMARK Flexibility Score: inf
ROOT
ATOM      1  C   UNL     1       9.907  13.802  30.575  1.00  0.00     0.000 C 
ENDROOT
BRANCH   1   2
ATOM      2  C   UNL     1      10.352  15.227  30.204  1.00  0.00     0.000 C 
BRANCH   2   3
ATOM      3  C   UNL     1      11.778  15.548  30.674  1.00  0.00     0.000 C 
BRANCH   3   4
ATOM      4  C   UNL     1      11.782  16.738  31.643  1.00  0.00     0.000 C 
BRANCH   4   5
ATOM      5  C   UNL     1      10.922  17.890  31.103  1.00  0.00     0.006 C 
BRANCH   5   6
ATOM      6  C   UNL     1      11.766  18.969  30.413  1.00  0.00     0.053 C 
BRANCH   6   7
ATOM      7  C   UNL     1      11.433  20.340  30.915  1.00  0.00     0.041 C 
ATOM      8  O   UNL     1      11.788  21.359  30.266  1.00  0.00    -0.550 OA
ATOM      9  O   UNL     1      10.758  20.494  32.120  1.00  0.00    -0.550 OA
ENDBRANCH   6   7
ENDBRANCH   5   6
ENDBRANCH   4   5
ENDBRANCH   3   4
ENDBRANCH   2   3
ENDBRANCH   1   2
BRANCH   1  10
ATOM     10  C   UNL     1       9.377  13.639  32.014  1.00  0.00     0.000 C 
BRANCH  10  11
ATOM     11  C   UNL     1       8.461  14.777  32.505  1.00  0.00    -0.000 C 
BRANCH  11  12
ATOM     12  C   UNL     1       6.986  14.380  32.712  1.00  0.00    -0.000 C 
BRANCH  12  13
ATOM     13  C   UNL     1       6.386  13.501  31.597  1.00  0.00    -0.000 C 
BRANCH  13  14
ATOM     14  C   UNL     1       5.185  12.634  32.024  1.00  0.00    -0.000 C 
BRANCH  14  15
ATOM     15  C   UNL     1       5.552  11.243  32.571  1.00  0.00    -0.003 C 
ATOM     16  C   UNL     1       6.878  10.719  32.022  1.00  0.00     0.004 C 
ENDBRANCH  14  15
ENDBRANCH  13  14
ENDBRANCH  12  13
ENDBRANCH  11  12
ENDBRANCH  10  11
ENDBRANCH   1  10
TORSDOF 12
ENDMDL
MODEL 7
REMARK VINA RESULT:    -4.114     11.002     12.888
REMARK INTER + INTRA:          -7.907
REMARK INTER:                  -6.512
REMARK INTRA:                  -1.395
REMARK UNBOUND:                -0.906
REMARK SMILES CCCCCCCCCCCCCC(=O)[O-]
REMARK SMILES IDX 8 1 9 2 10 3 11 4 12 5 13 6 14 7 15 8 16 9 7 10 6 11 5 12
REMARK SMILES IDX 4 13 3 14 2 15 1 16
REMARK H PARENT
REMARK Flexibility Score: inf
ROOT
ATOM      1  C   UNL     1      13.622  21.936  21.592  1.00  0.00     0.000 C 
ENDROOT
BRANCH   1   2
ATOM      2  C   UNL     1      14.740  22.232  20.576  1.00  0.00     0.000 C 
BRANCH   2   3
ATOM      3  C   UNL     1      14.226  22.937  19.312  1.00  0.00     0.000 C 
BRANCH   3   4
ATOM      4  C   UNL     1      12.702  22.807  19.193  1.00  0.00     0.000 C 
BRANCH   4   5
ATOM      5  C   UNL     1      12.031  24.187  19.199  1.00  0.00     0.006 C 
BRANCH   5   6
ATOM      6  C   UNL     1      10.501  24.088  19.264  1.00  0.00     0.053 C 
BRANCH   6   7
ATOM      7  C   UNL     1       9.895  23.968  17.900  1.00  0.00     0.041 C 
ATOM      8  O   UNL     1       9.120  23.013  17.631  1.00  0.00    -0.550 OA
ATOM      9  O   UNL     1      10.212  24.894  16.913  1.00  0.00    -0.550 OA
ENDBRANCH   6   7
ENDBRANCH   5   6
ENDBRANCH   4   5
ENDBRANCH   3   4
ENDBRANCH   2   3
ENDBRANCH   1   2
BRANCH   1  10
ATOM     10  C   UNL     1      13.666  22.788  22.876  1.00  0.00     0.000 C 
BRANCH  10  11
ATOM     11  C   UNL     1      15.055  23.344  23.244  1.00  0.00    -0.000 C 
BRANCH  11  12
ATOM     12  C   UNL     1      15.924  22.406  24.104  1.00  0.00    -0.000 C 
BRANCH  12  13
ATOM     13  C   UNL     1      17.360  22.192  23.587  1.00  0.00    -0.000 C 
BRANCH  13  14
ATOM     14  C   UNL     1      17.587  20.875  22.817  1.00  0.00    -0.000 C 
BRANCH  14  15
ATOM     15  C   UNL     1      16.538  19.781  23.083  1.00  0.00    -0.003 C 
ATOM     16  C   UNL     1      16.142  19.016  21.821  1.00  0.00     0.004 C 
ENDBRANCH  14  15
ENDBRANCH  13  14
ENDBRANCH  12  13
ENDBRANCH  11  12
ENDBRANCH  10  11
ENDBRANCH   1  10
TORSDOF 12
ENDMDL
MODEL 8
REMARK VINA RESULT:    -4.068      7.591     10.544
REMARK INTER + INTRA:          -7.827
REMARK INTER:                  -6.556
REMARK INTRA:                  -1.271
REMARK UNBOUND:                -0.906
REMARK SMILES CCCCCCCCCCCCCC(=O)[O-]
REMARK SMILES IDX 8 1 9 2 10 3 11 4 12 5 13 6 14 7 15 8 16 9 7 10 6 11 5 12
REMARK SMILES IDX 4 13 3 14 2 15 1 16
REMARK H PARENT
REMARK Flexibility Score: inf
ROOT
ATOM      1  C   UNL     1      16.265  17.482  20.762  1.00  0.00     0.000 C 
ENDROOT
BRANCH   1   2
ATOM      2  C   UNL     1      15.506  16.488  21.658  1.00  0.00     0.000 C 
BRANCH   2   3
ATOM      3  C   UNL     1      13.997  16.766  21.711  1.00  0.00     0.000 C 
BRANCH   3   4
ATOM      4  C   UNL     1      13.454  17.116  20.320  1.00  0.00     0.000 C 
BRANCH   4   5
ATOM      5  C   UNL     1      12.406  16.090  19.865  1.00  0.00     0.006 C 
BRANCH   5   6
ATOM      6  C   UNL     1      12.569  15.709  18.388  1.00  0.00     0.053 C 
BRANCH   6   7
ATOM      7  C   UNL     1      12.018  14.347  18.101  1.00  0.00     0.041 C 
ATOM      8  O   UNL     1      10.884  14.219  17.568  1.00  0.00    -0.550 OA
ATOM      9  O   UNL     1      12.743  13.215  18.454  1.00  0.00    -0.550 OA
ENDBRANCH   6   7
ENDBRANCH   5   6
ENDBRANCH   4   5
ENDBRANCH   3   4
ENDBRANCH   2   3
ENDBRANCH   1   2
BRANCH   1  10
ATOM     10  C   UNL     1      17.346  18.314  21.482  1.00  0.00     0.000 C 
BRANCH  10  11
ATOM     11  C   UNL     1      17.110  19.838  21.472  1.00  0.00    -0.000 C 
BRANCH  11  12
ATOM     12  C   UNL     1      15.812  20.299  22.163  1.00  0.00    -0.000 C 
BRANCH  12  13
ATOM     13  C   UNL     1      15.839  20.241  23.703  1.00  0.00    -0.000 C 
BRANCH  13  14
ATOM     14  C   UNL     1      14.676  19.460  24.347  1.00  0.00    -0.000 C 
BRANCH  14  15
ATOM     15  C   UNL     1      15.078  18.131  25.011  1.00  0.00    -0.003 C 
ATOM     16  C   UNL     1      14.670  18.052  26.481  1.00  0.00     0.004 C 
ENDBRANCH  14  15
ENDBRANCH  13  14
ENDBRANCH  12  13
ENDBRANCH  11  12
ENDBRANCH  10  11
ENDBRANCH   1  10
TORSDOF 12
ENDMDL
MODEL 9
REMARK VINA RESULT:    -4.059      3.856      6.888
REMARK INTER + INTRA:          -7.813
REMARK INTER:                  -6.224
REMARK INTRA:                  -1.589
REMARK UNBOUND:                -0.906
REMARK SMILES CCCCCCCCCCCCCC(=O)[O-]
REMARK SMILES IDX 8 1 9 2 10 3 11 4 12 5 13 6 14 7 15 8 16 9 7 10 6 11 5 12
REMARK SMILES IDX 4 13 3 14 2 15 1 16
REMARK H PARENT
REMARK Flexibility Score: inf
ROOT
ATOM      1  C   UNL     1      13.312  17.910  27.008  1.00  0.00     0.000 C 
ENDROOT
BRANCH   1   2
ATOM      2  C   UNL     1      12.459  19.116  26.577  1.00  0.00     0.000 C 
BRANCH   2   3
ATOM      3  C   UNL     1      12.809  20.399  27.345  1.00  0.00     0.000 C 
BRANCH   3   4
ATOM      4  C   UNL     1      12.835  20.143  28.858  1.00  0.00     0.000 C 
BRANCH   4   5
ATOM      5  C   UNL     1      11.472  20.455  29.492  1.00  0.00     0.006 C 
BRANCH   5   6
ATOM      6  C   UNL     1      11.380  19.963  30.943  1.00  0.00     0.053 C 
BRANCH   6   7
ATOM      7  C   UNL     1      10.812  21.011  31.848  1.00  0.00     0.041 C 
ATOM      8  O   UNL     1       9.597  20.975  32.178  1.00  0.00    -0.550 OA
ATOM      9  O   UNL     1      11.616  22.049  32.303  1.00  0.00    -0.550 OA
ENDBRANCH   6   7
ENDBRANCH   5   6
ENDBRANCH   4   5
ENDBRANCH   3   4
ENDBRANCH   2   3
ENDBRANCH   1   2
BRANCH   1  10
ATOM     10  C   UNL     1      12.514  16.700  27.533  1.00  0.00     0.000 C 
BRANCH  10  11
ATOM     11  C   UNL     1      11.044  16.995  27.893  1.00  0.00    -0.000 C 
BRANCH  11  12
ATOM     12  C   UNL     1      10.663  16.703  29.358  1.00  0.00    -0.000 C 
BRANCH  12  13
ATOM     13  C   UNL     1      11.681  15.847  30.136  1.00  0.00    -0.000 C 
BRANCH  13  14
ATOM     14  C   UNL     1      11.874  16.245  31.614  1.00  0.00    -0.000 C 
BRANCH  14  15
ATOM     15  C   UNL     1      10.695  15.892  32.538  1.00  0.00    -0.003 C 
ATOM     16  C   UNL     1      10.008  17.124  33.125  1.00  0.00     0.004 C 
ENDBRANCH  14  15
ENDBRANCH  13  14
ENDBRANCH  12  13
ENDBRANCH  11  12
ENDBRANCH  10  11
ENDBRANCH   1  10
TORSDOF 12
ENDMDL
