MODEL 1
REMARK VINA RESULT:    -4.111      0.000      0.000
REMARK INTER + INTRA:          -5.331
REMARK INTER:                  -5.072
REMARK INTRA:                  -0.259
REMARK UNBOUND:                -0.259
REMARK SMILES COc1cc(C=O)ccc1OC(C)=O
REMARK SMILES IDX 10 1 3 2 4 3 5 4 8 5 9 6 11 7 12 8 13 9 14 10 2 11 1 12 6 13
REMARK SMILES IDX 7 14
REMARK H PARENT
REMARK Flexibility Score: inf
ROOT
ATOM      1  C   UNL     1       5.115   5.953   0.945  1.00  0.00     0.172 A 
ATOM      2  C   UNL     1       5.039   7.360   0.873  1.00  0.00     0.162 A 
ATOM      3  C   UNL     1       4.176   8.049   1.751  1.00  0.00     0.062 A 
ATOM      4  C   UNL     1       3.379   7.345   2.670  1.00  0.00     0.018 A 
ATOM      5  C   UNL     1       3.442   5.947   2.703  1.00  0.00     0.015 A 
ATOM      6  C   UNL     1       4.298   5.258   1.843  1.00  0.00     0.052 A 
ENDROOT
BRANCH   1   7
ATOM      7  O   UNL     1       5.965   5.211   0.112  1.00  0.00    -0.423 OA
BRANCH   7   8
ATOM      8  C   UNL     1       7.353   5.137   0.266  1.00  0.00     0.308 C 
ATOM      9  C   UNL     1       7.923   4.367   1.408  1.00  0.00     0.139 C 
ATOM     10  O   UNL     1       8.125   5.784  -0.495  1.00  0.00    -0.252 OA
ENDBRANCH   7   8
ENDBRANCH   1   7
BRANCH   2  11
ATOM     11  O   UNL     1       5.800   8.035  -0.095  1.00  0.00    -0.493 OA
ATOM     12  C   UNL     1       5.470   8.110  -1.478  1.00  0.00     0.278 C 
ENDBRANCH   2  11
BRANCH   4  13
ATOM     13  C   UNL     1       2.471   8.053   3.591  1.00  0.00     0.260 C 
ATOM     14  O   UNL     1       2.204   7.587   4.730  1.00  0.00    -0.298 OA
ENDBRANCH   4  13
TORSDOF 4
ENDMDL
MODEL 2
REMARK VINA RESULT:    -4.082      1.584      1.977
REMARK INTER + INTRA:          -5.296
REMARK INTER:                  -5.019
REMARK INTRA:                  -0.276
REMARK UNBOUND:                -0.259
REMARK SMILES COc1cc(C=O)ccc1OC(C)=O
REMARK SMILES IDX 10 1 3 2 4 3 5 4 8 5 9 6 11 7 12 8 13 9 14 10 2 11 1 12 6 13
REMARK SMILES IDX 7 14
REMARK H PARENT
REMARK Flexibility Score: inf
ROOT
ATOM      1  C   UNL     1       5.026   6.846   1.395  1.00  0.00     0.172 A 
ATOM      2  C   UNL     1       5.618   7.574   2.449  1.00  0.00     0.162 A 
ATOM      3  C   UNL     1       4.819   7.984   3.537  1.00  0.00     0.062 A 
ATOM      4  C   UNL     1       3.443   7.698   3.562  1.00  0.00     0.018 A 
ATOM      5  C   UNL     1       2.865   7.007   2.491  1.00  0.00     0.015 A 
ATOM      6  C   UNL     1       3.651   6.590   1.414  1.00  0.00     0.052 A 
ENDROOT
BRANCH   1   7
ATOM      7  O   UNL     1       5.768   6.396   0.295  1.00  0.00    -0.423 OA
BRANCH   7   8
ATOM      8  C   UNL     1       6.561   5.243   0.296  1.00  0.00     0.308 C 
ATOM      9  C   UNL     1       6.071   4.019   0.991  1.00  0.00     0.139 C 
ATOM     10  O   UNL     1       7.719   5.253  -0.205  1.00  0.00    -0.252 OA
ENDBRANCH   7   8
ENDBRANCH   1   7
BRANCH   2  11
ATOM     11  O   UNL     1       6.982   7.898   2.371  1.00  0.00    -0.493 OA
ATOM     12  C   UNL     1       8.037   7.092   2.883  1.00  0.00     0.278 C 
ENDBRANCH   2  11
BRANCH   4  13
ATOM     13  C   UNL     1       2.596   8.125   4.692  1.00  0.00     0.260 C 
ATOM     14  O   UNL     1       1.394   7.759   4.779  1.00  0.00    -0.298 OA
ENDBRANCH   4  13
TORSDOF 4
ENDMDL
MODEL 3
REMARK VINA RESULT:    -3.647      1.502      2.099
REMARK INTER + INTRA:          -4.759
REMARK INTER:                  -4.574
REMARK INTRA:                  -0.185
REMARK UNBOUND:                -0.259
REMARK SMILES COc1cc(C=O)ccc1OC(C)=O
REMARK SMILES IDX 10 1 3 2 4 3 5 4 8 5 9 6 11 7 12 8 13 9 14 10 2 11 1 12 6 13
REMARK SMILES IDX 7 14
REMARK H PARENT
REMARK Flexibility Score: inf
ROOT
ATOM      1  C   UNL     1       5.959   7.150   1.961  1.00  0.00     0.172 A 
ATOM      2  C   UNL     1       4.684   6.678   1.583  1.00  0.00     0.162 A 
ATOM      3  C   UNL     1       3.572   6.969   2.401  1.00  0.00     0.062 A 
ATOM      4  C   UNL     1       3.731   7.695   3.594  1.00  0.00     0.018 A 
ATOM      5  C   UNL     1       5.009   8.124   3.971  1.00  0.00     0.015 A 
ATOM      6  C   UNL     1       6.114   7.848   3.164  1.00  0.00     0.052 A 
ENDROOT
BRANCH   1   7
ATOM      7  O   UNL     1       7.101   6.910   1.184  1.00  0.00    -0.423 OA
BRANCH   7   8
ATOM      8  C   UNL     1       7.693   5.652   1.019  1.00  0.00     0.308 C 
ATOM      9  C   UNL     1       8.125   4.884   2.221  1.00  0.00     0.139 C 
ATOM     10  O   UNL     1       7.946   5.201  -0.132  1.00  0.00    -0.252 OA
ENDBRANCH   7   8
ENDBRANCH   1   7
BRANCH   2  11
ATOM     11  O   UNL     1       4.562   5.904   0.418  1.00  0.00    -0.493 OA
ATOM     12  C   UNL     1       4.516   4.481   0.392  1.00  0.00     0.278 C 
ENDBRANCH   2  11
BRANCH   4  13
ATOM     13  C   UNL     1       2.577   8.002   4.459  1.00  0.00     0.260 C 
ATOM     14  O   UNL     1       1.408   8.055   3.992  1.00  0.00    -0.298 OA
ENDBRANCH   4  13
TORSDOF 4
ENDMDL
MODEL 4
REMARK VINA RESULT:    -3.461      1.799      5.256
REMARK INTER + INTRA:          -4.529
REMARK INTER:                  -4.275
REMARK INTRA:                  -0.254
REMARK UNBOUND:                -0.259
REMARK SMILES COc1cc(C=O)ccc1OC(C)=O
REMARK SMILES IDX 10 1 3 2 4 3 5 4 8 5 9 6 11 7 12 8 13 9 14 10 2 11 1 12 6 13
REMARK SMILES IDX 7 14
REMARK H PARENT
REMARK Flexibility Score: inf
ROOT
ATOM      1  C   UNL     1       5.308   6.511   1.053  1.00  0.00     0.172 A 
ATOM      2  C   UNL     1       6.569   5.897   0.900  1.00  0.00     0.162 A 
ATOM      3  C   UNL     1       7.489   6.434  -0.025  1.00  0.00     0.062 A 
ATOM      4  C   UNL     1       7.147   7.550  -0.808  1.00  0.00     0.018 A 
ATOM      5  C   UNL     1       5.879   8.125  -0.669  1.00  0.00     0.015 A 
ATOM      6  C   UNL     1       4.966   7.605   0.250  1.00  0.00     0.052 A 
ENDROOT
BRANCH   1   7
ATOM      7  O   UNL     1       4.357   6.037   1.966  1.00  0.00    -0.423 OA
BRANCH   7   8
ATOM      8  C   UNL     1       3.473   6.853   2.681  1.00  0.00     0.308 C 
ATOM      9  C   UNL     1       4.008   7.773   3.724  1.00  0.00     0.139 C 
ATOM     10  O   UNL     1       2.226   6.755   2.518  1.00  0.00    -0.252 OA
ENDBRANCH   7   8
ENDBRANCH   1   7
BRANCH   2  11
ATOM     11  O   UNL     1       6.863   4.747   1.650  1.00  0.00    -0.493 OA
ATOM     12  C   UNL     1       8.125   4.089   1.665  1.00  0.00     0.278 C 
ENDBRANCH   2  11
BRANCH   4  13
ATOM     13  C   UNL     1       8.099   8.119  -1.782  1.00  0.00     0.260 C 
ATOM     14  O   UNL     1       7.844   8.124  -3.015  1.00  0.00    -0.298 OA
ENDBRANCH   4  13
TORSDOF 4
ENDMDL
MODEL 5
REMARK VINA RESULT:    -3.429      1.753      5.133
REMARK INTER + INTRA:          -4.490
REMARK INTER:                  -4.275
REMARK INTRA:                  -0.215
REMARK UNBOUND:                -0.259
REMARK SMILES COc1cc(C=O)ccc1OC(C)=O
REMARK SMILES IDX 10 1 3 2 4 3 5 4 8 5 9 6 11 7 12 8 13 9 14 10 2 11 1 12 6 13
REMARK SMILES IDX 7 14
REMARK H PARENT
REMARK Flexibility Score: inf
ROOT
ATOM      1  C   UNL     1       4.312   6.670   1.712  1.00  0.00     0.172 A 
ATOM      2  C   UNL     1       4.818   5.683   0.839  1.00  0.00     0.162 A 
ATOM      3  C   UNL     1       6.054   5.900   0.196  1.00  0.00     0.062 A 
ATOM      4  C   UNL     1       6.764   7.096   0.396  1.00  0.00     0.018 A 
ATOM      5  C   UNL     1       6.230   8.079   1.237  1.00  0.00     0.015 A 
ATOM      6  C   UNL     1       5.011   7.869   1.884  1.00  0.00     0.052 A 
ENDROOT
BRANCH   1   7
ATOM      7  O   UNL     1       3.098   6.507   2.394  1.00  0.00    -0.423 OA
BRANCH   7   8
ATOM      8  C   UNL     1       2.817   7.060   3.648  1.00  0.00     0.308 C 
ATOM      9  C   UNL     1       1.781   8.125   3.763  1.00  0.00     0.139 C 
ATOM     10  O   UNL     1       3.489   6.733   4.665  1.00  0.00    -0.252 OA
ENDBRANCH   7   8
ENDBRANCH   1   7
BRANCH   2  11
ATOM     11  O   UNL     1       4.060   4.523   0.610  1.00  0.00    -0.493 OA
ATOM     12  C   UNL     1       4.023   3.809  -0.621  1.00  0.00     0.278 C 
ENDBRANCH   2  11
BRANCH   4  13
ATOM     13  C   UNL     1       8.057   7.337  -0.274  1.00  0.00     0.260 C 
ATOM     14  O   UNL     1       8.125   7.489  -1.522  1.00  0.00    -0.298 OA
ENDBRANCH   4  13
TORSDOF 4
ENDMDL
MODEL 6
REMARK VINA RESULT:    -3.300     22.302     23.276
REMARK INTER + INTRA:          -4.331
REMARK INTER:                  -4.056
REMARK INTRA:                  -0.275
REMARK UNBOUND:                -0.259
REMARK SMILES COc1cc(C=O)ccc1OC(C)=O
REMARK SMILES IDX 10 1 3 2 4 3 5 4 8 5 9 6 11 7 12 8 13 9 14 10 2 11 1 12 6 13
REMARK SMILES IDX 7 14
REMARK H PARENT
REMARK Flexibility Score: inf
ROOT
ATOM      1  C   UNL     1     -10.448 -10.920  -2.126  1.00  0.00     0.172 A 
ATOM      2  C   UNL     1     -10.058 -11.052  -0.777  1.00  0.00     0.162 A 
ATOM      3  C   UNL     1     -10.619 -10.191   0.190  1.00  0.00     0.062 A 
ATOM      4  C   UNL     1     -11.534  -9.193  -0.187  1.00  0.00     0.018 A 
ATOM      5  C   UNL     1     -11.882  -9.053  -1.535  1.00  0.00     0.015 A 
ATOM      6  C   UNL     1     -11.338  -9.906  -2.497  1.00  0.00     0.052 A 
ENDROOT
BRANCH   1   7
ATOM      7  O   UNL     1      -9.940 -11.755  -3.131  1.00  0.00    -0.423 OA
BRANCH   7   8
ATOM      8  C   UNL     1      -9.536 -11.312  -4.396  1.00  0.00     0.308 C 
ATOM      9  C   UNL     1      -8.331 -10.443  -4.517  1.00  0.00     0.139 C 
ATOM     10  O   UNL     1     -10.227 -11.564  -5.421  1.00  0.00    -0.252 OA
ENDBRANCH   7   8
ENDBRANCH   1   7
BRANCH   2  11
ATOM     11  O   UNL     1      -9.097 -12.017  -0.437  1.00  0.00    -0.493 OA
ATOM     12  C   UNL     1      -8.440 -12.099   0.824  1.00  0.00     0.278 C 
ENDBRANCH   2  11
BRANCH   4  13
ATOM     13  C   UNL     1     -12.125  -8.284   0.814  1.00  0.00     0.260 C 
ATOM     14  O   UNL     1     -11.436  -7.383   1.362  1.00  0.00    -0.298 OA
ENDBRANCH   4  13
TORSDOF 4
ENDMDL
MODEL 7
REMARK VINA RESULT:    -3.165      1.753      5.171
REMARK INTER + INTRA:          -4.165
REMARK INTER:                  -4.313
REMARK INTRA:                   0.149
REMARK UNBOUND:                -0.259
REMARK SMILES COc1cc(C=O)ccc1OC(C)=O
REMARK SMILES IDX 10 1 3 2 4 3 5 4 8 5 9 6 11 7 12 8 13 9 14 10 2 11 1 12 6 13
REMARK SMILES IDX 7 14
REMARK H PARENT
REMARK Flexibility Score: inf
ROOT
ATOM      1  C   UNL     1       3.836   6.375   1.983  1.00  0.00     0.172 A 
ATOM      2  C   UNL     1       5.098   6.965   2.207  1.00  0.00     0.162 A 
ATOM      3  C   UNL     1       6.246   6.368   1.646  1.00  0.00     0.062 A 
ATOM      4  C   UNL     1       6.143   5.183   0.897  1.00  0.00     0.018 A 
ATOM      5  C   UNL     1       4.888   4.592   0.716  1.00  0.00     0.015 A 
ATOM      6  C   UNL     1       3.745   5.181   1.261  1.00  0.00     0.052 A 
ENDROOT
BRANCH   1   7
ATOM      7  O   UNL     1       2.656   6.929   2.499  1.00  0.00    -0.423 OA
BRANCH   7   8
ATOM      8  C   UNL     1       2.344   6.994   3.861  1.00  0.00     0.308 C 
ATOM      9  C   UNL     1       1.286   7.937   4.325  1.00  0.00     0.139 C 
ATOM     10  O   UNL     1       3.005   6.335   4.710  1.00  0.00    -0.252 OA
ENDBRANCH   7   8
ENDBRANCH   1   7
BRANCH   2  11
ATOM     11  O   UNL     1       5.180   8.115   3.009  1.00  0.00    -0.493 OA
ATOM     12  C   UNL     1       5.592   8.125   4.371  1.00  0.00     0.278 C 
ENDBRANCH   2  11
BRANCH   4  13
ATOM     13  C   UNL     1       7.337   4.547   0.309  1.00  0.00     0.260 C 
ATOM     14  O   UNL     1       8.125   5.196  -0.429  1.00  0.00    -0.298 OA
ENDBRANCH   4  13
TORSDOF 4
ENDMDL
MODEL 8
REMARK VINA RESULT:    -2.703     22.639     23.924
REMARK INTER + INTRA:          -3.594
REMARK INTER:                  -3.365
REMARK INTRA:                  -0.229
REMARK UNBOUND:                -0.259
REMARK SMILES COc1cc(C=O)ccc1OC(C)=O
REMARK SMILES IDX 10 1 3 2 4 3 5 4 8 5 9 6 11 7 12 8 13 9 14 10 2 11 1 12 6 13
REMARK SMILES IDX 7 14
REMARK H PARENT
REMARK Flexibility Score: inf
ROOT
ATOM      1  C   UNL     1     -10.293 -12.042  -0.163  1.00  0.00     0.172 A 
ATOM      2  C   UNL     1      -9.360 -11.983   0.893  1.00  0.00     0.162 A 
ATOM      3  C   UNL     1      -9.823 -12.021   2.225  1.00  0.00     0.062 A 
ATOM      4  C   UNL     1     -11.200 -12.088   2.501  1.00  0.00     0.018 A 
ATOM      5  C   UNL     1     -12.113 -12.110   1.441  1.00  0.00     0.015 A 
ATOM      6  C   UNL     1     -11.662 -12.081   0.120  1.00  0.00     0.052 A 
ENDROOT
BRANCH   1   7
ATOM      7  O   UNL     1      -9.896 -12.025  -1.507  1.00  0.00    -0.423 OA
BRANCH   7   8
ATOM      8  C   UNL     1      -9.841 -10.873  -2.300  1.00  0.00     0.308 C 
ATOM      9  C   UNL     1      -9.299 -10.963  -3.686  1.00  0.00     0.139 C 
ATOM     10  O   UNL     1     -10.160  -9.747  -1.829  1.00  0.00    -0.252 OA
ENDBRANCH   7   8
ENDBRANCH   1   7
BRANCH   2  11
ATOM     11  O   UNL     1      -7.995 -11.856   0.590  1.00  0.00    -0.493 OA
ATOM     12  C   UNL     1      -6.953 -11.775   1.557  1.00  0.00     0.278 C 
ENDBRANCH   2  11
BRANCH   4  13
ATOM     13  C   UNL     1     -11.697 -12.125   3.890  1.00  0.00     0.260 C 
ATOM     14  O   UNL     1     -10.921 -11.943   4.865  1.00  0.00    -0.298 OA
ENDBRANCH   4  13
TORSDOF 4
ENDMDL
