MODEL 1
REMARK VINA RESULT:    -5.372      0.000      0.000
REMARK INTER + INTRA:          -6.303
REMARK INTER:                  -6.157
REMARK INTRA:                  -0.147
REMARK UNBOUND:                -0.147
REMARK SMILES O=C([O-])C=Cc1ccc(O)cc1
REMARK SMILES IDX 6 1 7 2 12 3 8 4 11 5 9 6 5 7 4 8 2 9 1 10 3 11 10 12
REMARK H PARENT 10 13
REMARK Flexibility Score: inf
ROOT
ATOM      1  C   UNL     1     -32.797  -3.322 -18.665  1.00  0.00    -0.025 A 
ATOM      2  C   UNL     1     -31.475  -2.837 -18.581  1.00  0.00     0.012 A 
ATOM      3  C   UNL     1     -33.416  -3.386 -19.925  1.00  0.00     0.012 A 
ATOM      4  C   UNL     1     -30.806  -2.406 -19.730  1.00  0.00     0.047 A 
ATOM      5  C   UNL     1     -32.743  -2.953 -21.071  1.00  0.00     0.047 A 
ATOM      6  C   UNL     1     -31.436  -2.460 -20.976  1.00  0.00     0.115 A 
ENDROOT
BRANCH   1   7
ATOM      7  C   UNL     1     -33.548  -3.802 -17.479  1.00  0.00     0.010 C 
ATOM      8  C   UNL     1     -34.882  -3.739 -17.365  1.00  0.00     0.025 C 
BRANCH   8   9
ATOM      9  C   UNL     1     -35.587  -4.238 -16.174  1.00  0.00     0.064 C 
ATOM     10  O   UNL     1     -35.924  -3.433 -15.268  1.00  0.00    -0.545 OA
ATOM     11  O   UNL     1     -35.884  -5.590 -16.031  1.00  0.00    -0.545 OA
ENDBRANCH   8   9
ENDBRANCH   1   7
BRANCH   6  12
ATOM     12  O   UNL     1     -30.755  -2.026 -22.111  1.00  0.00    -0.508 OA
ATOM     13  H   UNL     1     -30.904  -1.101 -22.497  1.00  0.00     0.293 HD
ENDBRANCH   6  12
TORSDOF 3
ENDMDL
MODEL 2
REMARK VINA RESULT:    -5.362      0.170      1.688
REMARK INTER + INTRA:          -6.292
REMARK INTER:                  -6.154
REMARK INTRA:                  -0.139
REMARK UNBOUND:                -0.147
REMARK SMILES O=C([O-])C=Cc1ccc(O)cc1
REMARK SMILES IDX 6 1 7 2 12 3 8 4 11 5 9 6 5 7 4 8 2 9 1 10 3 11 10 12
REMARK H PARENT 10 13
REMARK Flexibility Score: inf
ROOT
ATOM      1  C   UNL     1     -32.858  -3.381 -18.745  1.00  0.00    -0.025 A 
ATOM      2  C   UNL     1     -33.435  -3.388 -20.032  1.00  0.00     0.012 A 
ATOM      3  C   UNL     1     -31.555  -2.878 -18.590  1.00  0.00     0.012 A 
ATOM      4  C   UNL     1     -32.710  -2.926 -21.134  1.00  0.00     0.047 A 
ATOM      5  C   UNL     1     -30.834  -2.417 -19.695  1.00  0.00     0.047 A 
ATOM      6  C   UNL     1     -31.410  -2.442 -20.972  1.00  0.00     0.115 A 
ENDROOT
BRANCH   1   7
ATOM      7  C   UNL     1     -33.587  -3.850 -17.541  1.00  0.00     0.010 C 
ATOM      8  C   UNL     1     -34.870  -3.561 -17.286  1.00  0.00     0.025 C 
BRANCH   8   9
ATOM      9  C   UNL     1     -35.556  -4.058 -16.083  1.00  0.00     0.064 C 
ATOM     10  O   UNL     1     -35.752  -5.294 -15.945  1.00  0.00    -0.545 OA
ATOM     11  O   UNL     1     -35.996  -3.183 -15.095  1.00  0.00    -0.545 OA
ENDBRANCH   8   9
ENDBRANCH   1   7
BRANCH   6  12
ATOM     12  O   UNL     1     -30.701  -1.985 -22.080  1.00  0.00    -0.508 OA
ATOM     13  H   UNL     1     -30.962  -2.251 -23.022  1.00  0.00     0.293 HD
ENDBRANCH   6  12
TORSDOF 3
ENDMDL
MODEL 3
REMARK VINA RESULT:    -5.178      3.569      4.517
REMARK INTER + INTRA:          -6.081
REMARK INTER:                  -5.932
REMARK INTRA:                  -0.149
REMARK UNBOUND:                -0.147
REMARK SMILES O=C([O-])C=Cc1ccc(O)cc1
REMARK SMILES IDX 6 1 7 2 12 3 8 4 11 5 9 6 5 7 4 8 2 9 1 10 3 11 10 12
REMARK H PARENT 10 13
REMARK Flexibility Score: inf
ROOT
ATOM      1  C   UNL     1     -35.859  -5.231 -16.659  1.00  0.00    -0.025 A 
ATOM      2  C   UNL     1     -35.394  -3.901 -16.584  1.00  0.00     0.012 A 
ATOM      3  C   UNL     1     -36.097  -5.795 -17.923  1.00  0.00     0.012 A 
ATOM      4  C   UNL     1     -35.199  -3.154 -17.750  1.00  0.00     0.047 A 
ATOM      5  C   UNL     1     -35.901  -5.044 -19.086  1.00  0.00     0.047 A 
ATOM      6  C   UNL     1     -35.453  -3.720 -19.002  1.00  0.00     0.115 A 
ENDROOT
BRANCH   1   7
ATOM      7  C   UNL     1     -36.072  -6.071 -15.454  1.00  0.00     0.010 C 
ATOM      8  C   UNL     1     -36.131  -7.409 -15.479  1.00  0.00     0.025 C 
BRANCH   8   9
ATOM      9  C   UNL     1     -36.332  -8.203 -14.256  1.00  0.00     0.064 C 
ATOM     10  O   UNL     1     -37.436  -8.777 -14.063  1.00  0.00    -0.545 OA
ATOM     11  O   UNL     1     -35.323  -8.327 -13.308  1.00  0.00    -0.545 OA
ENDBRANCH   8   9
ENDBRANCH   1   7
BRANCH   6  12
ATOM     12  O   UNL     1     -35.254  -2.963 -20.153  1.00  0.00    -0.508 OA
ATOM     13  H   UNL     1     -35.430  -1.965 -20.168  1.00  0.00     0.293 HD
ENDBRANCH   6  12
TORSDOF 3
ENDMDL
MODEL 4
REMARK VINA RESULT:    -5.143      3.512      4.688
REMARK INTER + INTRA:          -6.042
REMARK INTER:                  -5.903
REMARK INTRA:                  -0.138
REMARK UNBOUND:                -0.147
REMARK SMILES O=C([O-])C=Cc1ccc(O)cc1
REMARK SMILES IDX 6 1 7 2 12 3 8 4 11 5 9 6 5 7 4 8 2 9 1 10 3 11 10 12
REMARK H PARENT 10 13
REMARK Flexibility Score: inf
ROOT
ATOM      1  C   UNL     1     -35.842  -5.345 -16.739  1.00  0.00    -0.025 A 
ATOM      2  C   UNL     1     -36.223  -5.787 -18.023  1.00  0.00     0.012 A 
ATOM      3  C   UNL     1     -35.265  -4.070 -16.605  1.00  0.00     0.012 A 
ATOM      4  C   UNL     1     -36.005  -4.978 -19.143  1.00  0.00     0.047 A 
ATOM      5  C   UNL     1     -35.049  -3.265 -17.727  1.00  0.00     0.047 A 
ATOM      6  C   UNL     1     -35.417  -3.719 -19.000  1.00  0.00     0.115 A 
ENDROOT
BRANCH   1   7
ATOM      7  C   UNL     1     -36.061  -6.158 -15.517  1.00  0.00     0.010 C 
ATOM      8  C   UNL     1     -36.208  -7.490 -15.524  1.00  0.00     0.025 C 
BRANCH   8   9
ATOM      9  C   UNL     1     -36.412  -8.257 -14.285  1.00  0.00     0.064 C 
ATOM     10  O   UNL     1     -37.496  -8.870 -14.105  1.00  0.00    -0.545 OA
ATOM     11  O   UNL     1     -35.425  -8.313 -13.306  1.00  0.00    -0.545 OA
ENDBRANCH   8   9
ENDBRANCH   1   7
BRANCH   6  12
ATOM     12  O   UNL     1     -35.206  -2.925 -20.125  1.00  0.00    -0.508 OA
ATOM     13  H   UNL     1     -35.146  -1.916 -20.058  1.00  0.00     0.293 HD
ENDBRANCH   6  12
TORSDOF 3
ENDMDL
MODEL 5
REMARK VINA RESULT:    -4.894      4.513      7.036
REMARK INTER + INTRA:          -5.755
REMARK INTER:                  -5.619
REMARK INTRA:                  -0.136
REMARK UNBOUND:                -0.147
REMARK SMILES O=C([O-])C=Cc1ccc(O)cc1
REMARK SMILES IDX 6 1 7 2 12 3 8 4 11 5 9 6 5 7 4 8 2 9 1 10 3 11 10 12
REMARK H PARENT 10 13
REMARK Flexibility Score: inf
ROOT
ATOM      1  C   UNL     1     -36.382  -6.391 -15.942  1.00  0.00    -0.025 A 
ATOM      2  C   UNL     1     -36.023  -5.822 -14.702  1.00  0.00     0.012 A 
ATOM      3  C   UNL     1     -36.341  -7.788 -16.083  1.00  0.00     0.012 A 
ATOM      4  C   UNL     1     -35.612  -6.637 -13.643  1.00  0.00     0.047 A 
ATOM      5  C   UNL     1     -35.929  -8.599 -15.021  1.00  0.00     0.047 A 
ATOM      6  C   UNL     1     -35.561  -8.024 -13.798  1.00  0.00     0.115 A 
ENDROOT
BRANCH   1   7
ATOM      7  C   UNL     1     -36.836  -5.573 -17.094  1.00  0.00     0.010 C 
ATOM      8  C   UNL     1     -36.098  -5.356 -18.191  1.00  0.00     0.025 C 
BRANCH   8   9
ATOM      9  C   UNL     1     -36.595  -4.547 -19.316  1.00  0.00     0.064 C 
ATOM     10  O   UNL     1     -36.925  -3.348 -19.121  1.00  0.00    -0.545 OA
ATOM     11  O   UNL     1     -36.709  -5.087 -20.592  1.00  0.00    -0.545 OA
ENDBRANCH   8   9
ENDBRANCH   1   7
BRANCH   6  12
ATOM     12  O   UNL     1     -35.148  -8.822 -12.734  1.00  0.00    -0.508 OA
ATOM     13  H   UNL     1     -34.614  -8.440 -11.962  1.00  0.00     0.293 HD
ENDBRANCH   6  12
TORSDOF 3
ENDMDL
MODEL 6
REMARK VINA RESULT:    -4.835      3.652      7.575
REMARK INTER + INTRA:          -5.688
REMARK INTER:                  -5.549
REMARK INTRA:                  -0.139
REMARK UNBOUND:                -0.147
REMARK SMILES O=C([O-])C=Cc1ccc(O)cc1
REMARK SMILES IDX 6 1 7 2 12 3 8 4 11 5 9 6 5 7 4 8 2 9 1 10 3 11 10 12
REMARK H PARENT 10 13
REMARK Flexibility Score: inf
ROOT
ATOM      1  C   UNL     1     -36.799  -6.717 -16.239  1.00  0.00    -0.025 A 
ATOM      2  C   UNL     1     -36.364  -8.019 -15.914  1.00  0.00     0.012 A 
ATOM      3  C   UNL     1     -37.973  -6.227 -15.640  1.00  0.00     0.012 A 
ATOM      4  C   UNL     1     -37.102  -8.812 -15.032  1.00  0.00     0.047 A 
ATOM      5  C   UNL     1     -38.708  -7.024 -14.758  1.00  0.00     0.047 A 
ATOM      6  C   UNL     1     -38.276  -8.321 -14.454  1.00  0.00     0.115 A 
ENDROOT
BRANCH   1   7
ATOM      7  C   UNL     1     -36.048  -5.830 -17.160  1.00  0.00     0.010 C 
ATOM      8  C   UNL     1     -35.520  -4.652 -16.797  1.00  0.00     0.025 C 
BRANCH   8   9
ATOM      9  C   UNL     1     -34.772  -3.809 -17.742  1.00  0.00     0.064 C 
ATOM     10  O   UNL     1     -33.522  -3.709 -17.630  1.00  0.00    -0.545 OA
ATOM     11  O   UNL     1     -35.423  -3.118 -18.758  1.00  0.00    -0.545 OA
ENDBRANCH   8   9
ENDBRANCH   1   7
BRANCH   6  12
ATOM     12  O   UNL     1     -39.001  -9.124 -13.577  1.00  0.00    -0.508 OA
ATOM     13  H   UNL     1     -39.915  -8.848 -13.238  1.00  0.00     0.293 HD
ENDBRANCH   6  12
TORSDOF 3
ENDMDL
MODEL 7
REMARK VINA RESULT:    -4.795      1.889      2.621
REMARK INTER + INTRA:          -5.643
REMARK INTER:                  -5.495
REMARK INTRA:                  -0.147
REMARK UNBOUND:                -0.147
REMARK SMILES O=C([O-])C=Cc1ccc(O)cc1
REMARK SMILES IDX 6 1 7 2 12 3 8 4 11 5 9 6 5 7 4 8 2 9 1 10 3 11 10 12
REMARK H PARENT 10 13
REMARK Flexibility Score: inf
ROOT
ATOM      1  C   UNL     1     -34.899  -4.288 -17.793  1.00  0.00    -0.025 A 
ATOM      2  C   UNL     1     -33.736  -3.518 -18.007  1.00  0.00     0.012 A 
ATOM      3  C   UNL     1     -35.407  -5.057 -18.853  1.00  0.00     0.012 A 
ATOM      4  C   UNL     1     -33.119  -3.505 -19.261  1.00  0.00     0.047 A 
ATOM      5  C   UNL     1     -34.787  -5.039 -20.106  1.00  0.00     0.047 A 
ATOM      6  C   UNL     1     -33.641  -4.261 -20.314  1.00  0.00     0.115 A 
ENDROOT
BRANCH   1   7
ATOM      7  C   UNL     1     -35.586  -4.347 -16.479  1.00  0.00     0.010 C 
ATOM      8  C   UNL     1     -35.995  -5.485 -15.901  1.00  0.00     0.025 C 
BRANCH   8   9
ATOM      9  C   UNL     1     -36.663  -5.497 -14.590  1.00  0.00     0.064 C 
ATOM     10  O   UNL     1     -37.027  -4.411 -14.069  1.00  0.00    -0.545 OA
ATOM     11  O   UNL     1     -36.896  -6.690 -13.915  1.00  0.00    -0.545 OA
ENDBRANCH   8   9
ENDBRANCH   1   7
BRANCH   6  12
ATOM     12  O   UNL     1     -33.015  -4.236 -21.557  1.00  0.00    -0.508 OA
ATOM     13  H   UNL     1     -32.205  -3.653 -21.731  1.00  0.00     0.293 HD
ENDBRANCH   6  12
TORSDOF 3
ENDMDL
MODEL 8
REMARK VINA RESULT:    -4.618      7.659      8.814
REMARK INTER + INTRA:          -5.440
REMARK INTER:                  -5.294
REMARK INTRA:                  -0.146
REMARK UNBOUND:                -0.147
REMARK SMILES O=C([O-])C=Cc1ccc(O)cc1
REMARK SMILES IDX 6 1 7 2 12 3 8 4 11 5 9 6 5 7 4 8 2 9 1 10 3 11 10 12
REMARK H PARENT 10 13
REMARK Flexibility Score: inf
ROOT
ATOM      1  C   UNL     1     -38.076  -5.645 -13.387  1.00  0.00    -0.025 A 
ATOM      2  C   UNL     1     -37.430  -6.672 -14.105  1.00  0.00     0.012 A 
ATOM      3  C   UNL     1     -39.426  -5.812 -13.032  1.00  0.00     0.012 A 
ATOM      4  C   UNL     1     -38.131  -7.823 -14.477  1.00  0.00     0.047 A 
ATOM      5  C   UNL     1     -40.123  -6.965 -13.406  1.00  0.00     0.047 A 
ATOM      6  C   UNL     1     -39.477  -7.973 -14.132  1.00  0.00     0.115 A 
ENDROOT
BRANCH   1   7
ATOM      7  C   UNL     1     -37.377  -4.409 -12.958  1.00  0.00     0.010 C 
ATOM      8  C   UNL     1     -37.912  -3.183 -13.036  1.00  0.00     0.025 C 
BRANCH   8   9
ATOM      9  C   UNL     1     -37.185  -1.985 -12.587  1.00  0.00     0.064 C 
ATOM     10  O   UNL     1     -36.398  -2.066 -11.608  1.00  0.00    -0.545 OA
ATOM     11  O   UNL     1     -37.355  -0.761 -13.226  1.00  0.00    -0.545 OA
ENDBRANCH   8   9
ENDBRANCH   1   7
BRANCH   6  12
ATOM     12  O   UNL     1     -40.161  -9.125 -14.511  1.00  0.00    -0.508 OA
ATOM     13  H   UNL     1     -40.048  -9.998 -14.008  1.00  0.00     0.293 HD
ENDBRANCH   6  12
TORSDOF 3
ENDMDL
MODEL 9
REMARK VINA RESULT:    -4.601      3.762      5.667
REMARK INTER + INTRA:          -5.420
REMARK INTER:                  -5.268
REMARK INTRA:                  -0.152
REMARK UNBOUND:                -0.147
REMARK SMILES O=C([O-])C=Cc1ccc(O)cc1
REMARK SMILES IDX 6 1 7 2 12 3 8 4 11 5 9 6 5 7 4 8 2 9 1 10 3 11 10 12
REMARK H PARENT 10 13
REMARK Flexibility Score: inf
ROOT
ATOM      1  C   UNL     1     -36.810  -5.736 -15.903  1.00  0.00    -0.025 A 
ATOM      2  C   UNL     1     -36.432  -5.822 -17.259  1.00  0.00     0.012 A 
ATOM      3  C   UNL     1     -36.211  -4.755 -15.093  1.00  0.00     0.012 A 
ATOM      4  C   UNL     1     -35.460  -4.961 -17.778  1.00  0.00     0.047 A 
ATOM      5  C   UNL     1     -35.239  -3.897 -15.617  1.00  0.00     0.047 A 
ATOM      6  C   UNL     1     -34.859  -4.000 -16.961  1.00  0.00     0.115 A 
ENDROOT
BRANCH   1   7
ATOM      7  C   UNL     1     -37.843  -6.616 -15.305  1.00  0.00     0.010 C 
ATOM      8  C   UNL     1     -38.349  -6.445 -14.076  1.00  0.00     0.025 C 
BRANCH   8   9
ATOM      9  C   UNL     1     -39.383  -7.337 -13.527  1.00  0.00     0.064 C 
ATOM     10  O   UNL     1     -40.315  -6.855 -12.833  1.00  0.00    -0.545 OA
ATOM     11  O   UNL     1     -39.345  -8.707 -13.762  1.00  0.00    -0.545 OA
ENDBRANCH   8   9
ENDBRANCH   1   7
BRANCH   6  12
ATOM     12  O   UNL     1     -33.893  -3.150 -17.493  1.00  0.00    -0.508 OA
ATOM     13  H   UNL     1     -34.146  -2.333 -18.036  1.00  0.00     0.293 HD
ENDBRANCH   6  12
TORSDOF 3
ENDMDL
