MODEL 1
REMARK VINA RESULT:    -4.215      0.000      0.000
REMARK INTER + INTRA:         -11.198
REMARK INTER:                  -8.157
REMARK INTRA:                  -3.041
REMARK UNBOUND:                -3.041
REMARK SMILES CCCCCC=CCC=CCCCCCCCCOC(C)=O
REMARK SMILES IDX 12 1 11 2 10 3 9 4 8 5 7 6 6 7 5 8 4 9 3 10 2 11 1 12 13 13
REMARK SMILES IDX 14 14 15 15 16 16 17 17 18 18 19 19 20 20 22 21 21 22
REMARK H PARENT
REMARK Flexibility Score: inf
ROOT
ATOM      1  C   UNL     1     -20.246  31.739  -4.397  1.00  0.00     0.004 C 
ENDROOT
BRANCH   1   2
ATOM      2  C   UNL     1     -19.286  32.314  -3.345  1.00  0.00     0.027 C 
BRANCH   2   3
ATOM      3  C   UNL     1     -19.291  31.500  -2.074  1.00  0.00    -0.031 C 
ATOM      4  C   UNL     1     -18.210  30.892  -1.553  1.00  0.00    -0.027 C 
BRANCH   4   5
ATOM      5  C   UNL     1     -16.815  31.013  -2.109  1.00  0.00     0.054 C 
BRANCH   5   6
ATOM      6  C   UNL     1     -16.582  29.994  -3.197  1.00  0.00    -0.027 C 
ATOM      7  C   UNL     1     -16.270  30.314  -4.466  1.00  0.00    -0.031 C 
BRANCH   7   8
ATOM      8  C   UNL     1     -16.142  31.724  -4.991  1.00  0.00     0.027 C 
BRANCH   8   9
ATOM      9  C   UNL     1     -16.795  31.871  -6.371  1.00  0.00     0.004 C 
BRANCH   9  10
ATOM     10  C   UNL     1     -17.407  30.549  -6.863  1.00  0.00     0.000 C 
BRANCH  10  11
ATOM     11  C   UNL     1     -18.336  30.742  -8.071  1.00  0.00    -0.003 C 
ATOM     12  C   UNL     1     -19.179  32.012  -7.974  1.00  0.00     0.004 C 
ENDBRANCH  10  11
ENDBRANCH   9  10
ENDBRANCH   8   9
ENDBRANCH   7   8
ENDBRANCH   5   6
ENDBRANCH   4   5
ENDBRANCH   2   3
ENDBRANCH   1   2
BRANCH   1  13
ATOM     13  C   UNL     1     -20.168  30.208  -4.482  1.00  0.00     0.000 C 
BRANCH  13  14
ATOM     14  C   UNL     1     -21.569  29.579  -4.435  1.00  0.00     0.000 C 
BRANCH  14  15
ATOM     15  C   UNL     1     -21.830  28.828  -3.112  1.00  0.00     0.000 C 
BRANCH  15  16
ATOM     16  C   UNL     1     -22.211  29.746  -1.939  1.00  0.00     0.003 C 
BRANCH  16  17
ATOM     17  C   UNL     1     -23.728  29.943  -1.801  1.00  0.00     0.042 C 
BRANCH  17  18
ATOM     18  C   UNL     1     -24.161  31.341  -2.255  1.00  0.00     0.233 C 
BRANCH  18  19
ATOM     19  O   UNL     1     -23.043  32.222  -2.356  1.00  0.00    -0.466 OA
BRANCH  19  20
ATOM     20  C   UNL     1     -22.884  33.360  -1.558  1.00  0.00     0.302 C 
ATOM     21  O   UNL     1     -21.807  34.014  -1.571  1.00  0.00    -0.253 OA
ATOM     22  C   UNL     1     -23.984  33.764  -0.636  1.00  0.00     0.139 C 
ENDBRANCH  19  20
ENDBRANCH  18  19
ENDBRANCH  17  18
ENDBRANCH  16  17
ENDBRANCH  15  16
ENDBRANCH  14  15
ENDBRANCH  13  14
ENDBRANCH   1  13
TORSDOF 16
ENDMDL
MODEL 2
REMARK VINA RESULT:    -4.079      2.818      6.096
REMARK INTER + INTRA:         -10.934
REMARK INTER:                  -8.019
REMARK INTRA:                  -2.916
REMARK UNBOUND:                -3.041
REMARK SMILES CCCCCC=CCC=CCCCCCCCCOC(C)=O
REMARK SMILES IDX 12 1 11 2 10 3 9 4 8 5 7 6 6 7 5 8 4 9 3 10 2 11 1 12 13 13
REMARK SMILES IDX 14 14 15 15 16 16 17 17 18 18 19 19 20 20 22 21 21 22
REMARK H PARENT
REMARK Flexibility Score: inf
ROOT
ATOM      1  C   UNL     1     -20.657  33.223  -3.589  1.00  0.00     0.004 C 
ENDROOT
BRANCH   1   2
ATOM      2  C   UNL     1     -21.113  33.465  -2.141  1.00  0.00     0.027 C 
BRANCH   2   3
ATOM      3  C   UNL     1     -22.585  33.187  -1.961  1.00  0.00    -0.031 C 
ATOM      4  C   UNL     1     -23.094  32.011  -1.551  1.00  0.00    -0.027 C 
BRANCH   4   5
ATOM      5  C   UNL     1     -22.267  30.829  -1.119  1.00  0.00     0.054 C 
BRANCH   5   6
ATOM      6  C   UNL     1     -22.924  29.535  -1.532  1.00  0.00    -0.027 C 
ATOM      7  C   UNL     1     -22.673  28.908  -2.696  1.00  0.00    -0.031 C 
BRANCH   7   8
ATOM      8  C   UNL     1     -21.733  29.418  -3.762  1.00  0.00     0.027 C 
BRANCH   8   9
ATOM      9  C   UNL     1     -22.482  30.217  -4.836  1.00  0.00     0.004 C 
BRANCH   9  10
ATOM     10  C   UNL     1     -21.578  30.573  -6.027  1.00  0.00     0.000 C 
BRANCH  10  11
ATOM     11  C   UNL     1     -20.337  29.672  -6.118  1.00  0.00    -0.003 C 
ATOM     12  C   UNL     1     -19.111  30.405  -6.659  1.00  0.00     0.004 C 
ENDBRANCH  10  11
ENDBRANCH   9  10
ENDBRANCH   8   9
ENDBRANCH   7   8
ENDBRANCH   5   6
ENDBRANCH   4   5
ENDBRANCH   2   3
ENDBRANCH   1   2
BRANCH   1  13
ATOM     13  C   UNL     1     -19.287  32.533  -3.660  1.00  0.00     0.000 C 
BRANCH  13  14
ATOM     14  C   UNL     1     -19.098  31.555  -2.490  1.00  0.00     0.000 C 
BRANCH  14  15
ATOM     15  C   UNL     1     -17.758  31.771  -1.756  1.00  0.00     0.000 C 
BRANCH  15  16
ATOM     16  C   UNL     1     -16.642  30.812  -2.202  1.00  0.00     0.003 C 
BRANCH  16  17
ATOM     17  C   UNL     1     -17.128  29.752  -3.203  1.00  0.00     0.042 C 
BRANCH  17  18
ATOM     18  C   UNL     1     -16.213  29.671  -4.430  1.00  0.00     0.233 C 
BRANCH  18  19
ATOM     19  O   UNL     1     -16.037  30.954  -5.030  1.00  0.00    -0.466 OA
BRANCH  19  20
ATOM     20  C   UNL     1     -14.792  31.461  -5.414  1.00  0.00     0.302 C 
ATOM     21  O   UNL     1     -13.732  30.819  -5.181  1.00  0.00    -0.253 OA
ATOM     22  C   UNL     1     -14.716  32.807  -6.051  1.00  0.00     0.139 C 
ENDBRANCH  19  20
ENDBRANCH  18  19
ENDBRANCH  17  18
ENDBRANCH  16  17
ENDBRANCH  15  16
ENDBRANCH  14  15
ENDBRANCH  13  14
ENDBRANCH   1  13
TORSDOF 16
ENDMDL
MODEL 3
REMARK VINA RESULT:    -4.074      3.151      6.999
REMARK INTER + INTRA:         -10.925
REMARK INTER:                  -7.773
REMARK INTRA:                  -3.152
REMARK UNBOUND:                -3.041
REMARK SMILES CCCCCC=CCC=CCCCCCCCCOC(C)=O
REMARK SMILES IDX 12 1 11 2 10 3 9 4 8 5 7 6 6 7 5 8 4 9 3 10 2 11 1 12 13 13
REMARK SMILES IDX 14 14 15 15 16 16 17 17 18 18 19 19 20 20 22 21 21 22
REMARK H PARENT
REMARK Flexibility Score: inf
ROOT
ATOM      1  C   UNL     1     -18.947  31.623  -2.055  1.00  0.00     0.004 C 
ENDROOT
BRANCH   1   2
ATOM      2  C   UNL     1     -19.654  32.571  -3.035  1.00  0.00     0.027 C 
BRANCH   2   3
ATOM      3  C   UNL     1     -18.950  32.629  -4.369  1.00  0.00    -0.031 C 
ATOM      4  C   UNL     1     -19.323  31.934  -5.459  1.00  0.00    -0.027 C 
BRANCH   4   5
ATOM      5  C   UNL     1     -20.554  31.069  -5.537  1.00  0.00     0.054 C 
BRANCH   5   6
ATOM      6  C   UNL     1     -20.283  29.700  -4.966  1.00  0.00    -0.027 C 
ATOM      7  C   UNL     1     -21.029  29.132  -4.000  1.00  0.00    -0.031 C 
BRANCH   7   8
ATOM      8  C   UNL     1     -22.212  29.789  -3.330  1.00  0.00     0.027 C 
BRANCH   8   9
ATOM      9  C   UNL     1     -22.144  29.644  -1.804  1.00  0.00     0.004 C 
BRANCH   9  10
ATOM     10  C   UNL     1     -22.352  30.988  -1.087  1.00  0.00     0.000 C 
BRANCH  10  11
ATOM     11  C   UNL     1     -23.184  31.978  -1.916  1.00  0.00    -0.003 C 
ATOM     12  C   UNL     1     -23.107  33.408  -1.383  1.00  0.00     0.004 C 
ENDBRANCH  10  11
ENDBRANCH   9  10
ENDBRANCH   8   9
ENDBRANCH   7   8
ENDBRANCH   5   6
ENDBRANCH   4   5
ENDBRANCH   2   3
ENDBRANCH   1   2
BRANCH   1  13
ATOM     13  C   UNL     1     -17.446  31.925  -1.933  1.00  0.00     0.000 C 
BRANCH  13  14
ATOM     14  C   UNL     1     -16.608  30.651  -2.125  1.00  0.00     0.000 C 
BRANCH  14  15
ATOM     15  C   UNL     1     -17.216  29.704  -3.182  1.00  0.00     0.000 C 
BRANCH  15  16
ATOM     16  C   UNL     1     -16.490  29.737  -4.537  1.00  0.00     0.003 C 
BRANCH  16  17
ATOM     17  C   UNL     1     -15.366  30.783  -4.589  1.00  0.00     0.042 C 
BRANCH  17  18
ATOM     18  C   UNL     1     -14.256  30.374  -5.564  1.00  0.00     0.233 C 
BRANCH  18  19
ATOM     19  O   UNL     1     -14.664  30.558  -6.919  1.00  0.00    -0.466 OA
BRANCH  19  20
ATOM     20  C   UNL     1     -15.014  31.801  -7.457  1.00  0.00     0.302 C 
ATOM     21  O   UNL     1     -14.193  32.757  -7.462  1.00  0.00    -0.253 OA
ATOM     22  C   UNL     1     -16.397  32.011  -7.972  1.00  0.00     0.139 C 
ENDBRANCH  19  20
ENDBRANCH  18  19
ENDBRANCH  17  18
ENDBRANCH  16  17
ENDBRANCH  15  16
ENDBRANCH  14  15
ENDBRANCH  13  14
ENDBRANCH   1  13
TORSDOF 16
ENDMDL
MODEL 4
REMARK VINA RESULT:    -4.042      2.532      5.977
REMARK INTER + INTRA:         -10.864
REMARK INTER:                  -7.769
REMARK INTRA:                  -3.095
REMARK UNBOUND:                -3.041
REMARK SMILES CCCCCC=CCC=CCCCCCCCCOC(C)=O
REMARK SMILES IDX 12 1 11 2 10 3 9 4 8 5 7 6 6 7 5 8 4 9 3 10 2 11 1 12 13 13
REMARK SMILES IDX 14 14 15 15 16 16 17 17 18 18 19 19 20 20 22 21 21 22
REMARK H PARENT
REMARK Flexibility Score: inf
ROOT
ATOM      1  C   UNL     1     -22.416  28.438  -3.944  1.00  0.00     0.004 C 
ENDROOT
BRANCH   1   2
ATOM      2  C   UNL     1     -21.474  29.386  -3.186  1.00  0.00     0.027 C 
BRANCH   2   3
ATOM      3  C   UNL     1     -21.859  29.519  -1.733  1.00  0.00    -0.031 C 
ATOM      4  C   UNL     1     -22.498  30.580  -1.208  1.00  0.00    -0.027 C 
BRANCH   4   5
ATOM      5  C   UNL     1     -23.008  31.749  -2.009  1.00  0.00     0.054 C 
BRANCH   5   6
ATOM      6  C   UNL     1     -22.239  33.003  -1.676  1.00  0.00    -0.027 C 
ATOM      7  C   UNL     1     -21.304  33.542  -2.481  1.00  0.00    -0.031 C 
BRANCH   7   8
ATOM      8  C   UNL     1     -20.869  32.959  -3.804  1.00  0.00     0.027 C 
BRANCH   8   9
ATOM      9  C   UNL     1     -19.344  33.006  -3.964  1.00  0.00     0.004 C 
BRANCH   9  10
ATOM     10  C   UNL     1     -18.676  31.694  -3.521  1.00  0.00     0.000 C 
BRANCH  10  11
ATOM     11  C   UNL     1     -18.025  31.801  -2.134  1.00  0.00    -0.003 C 
ATOM     12  C   UNL     1     -18.435  30.665  -1.198  1.00  0.00     0.004 C 
ENDBRANCH  10  11
ENDBRANCH   9  10
ENDBRANCH   8   9
ENDBRANCH   7   8
ENDBRANCH   5   6
ENDBRANCH   4   5
ENDBRANCH   2   3
ENDBRANCH   1   2
BRANCH   1  13
ATOM     13  C   UNL     1     -23.182  29.153  -5.066  1.00  0.00     0.000 C 
BRANCH  13  14
ATOM     14  C   UNL     1     -22.472  30.451  -5.480  1.00  0.00     0.000 C 
BRANCH  14  15
ATOM     15  C   UNL     1     -21.871  30.362  -6.899  1.00  0.00     0.000 C 
BRANCH  15  16
ATOM     16  C   UNL     1     -20.379  30.727  -6.966  1.00  0.00     0.003 C 
BRANCH  16  17
ATOM     17  C   UNL     1     -19.969  31.326  -8.320  1.00  0.00     0.042 C 
BRANCH  17  18
ATOM     18  C   UNL     1     -18.466  31.623  -8.376  1.00  0.00     0.233 C 
BRANCH  18  19
ATOM     19  O   UNL     1     -17.965  32.002  -7.095  1.00  0.00    -0.466 OA
BRANCH  19  20
ATOM     20  C   UNL     1     -16.781  31.496  -6.550  1.00  0.00     0.302 C 
ATOM     21  O   UNL     1     -16.712  30.304  -6.145  1.00  0.00    -0.253 OA
ATOM     22  C   UNL     1     -15.606  32.400  -6.391  1.00  0.00     0.139 C 
ENDBRANCH  19  20
ENDBRANCH  18  19
ENDBRANCH  17  18
ENDBRANCH  16  17
ENDBRANCH  15  16
ENDBRANCH  14  15
ENDBRANCH  13  14
ENDBRANCH   1  13
TORSDOF 16
ENDMDL
MODEL 5
REMARK VINA RESULT:    -4.029      2.710      6.029
REMARK INTER + INTRA:         -10.839
REMARK INTER:                  -7.781
REMARK INTRA:                  -3.058
REMARK UNBOUND:                -3.041
REMARK SMILES CCCCCC=CCC=CCCCCCCCCOC(C)=O
REMARK SMILES IDX 12 1 11 2 10 3 9 4 8 5 7 6 6 7 5 8 4 9 3 10 2 11 1 12 13 13
REMARK SMILES IDX 14 14 15 15 16 16 17 17 18 18 19 19 20 20 22 21 21 22
REMARK H PARENT
REMARK Flexibility Score: inf
ROOT
ATOM      1  C   UNL     1     -21.295  33.271  -3.500  1.00  0.00     0.004 C 
ENDROOT
BRANCH   1   2
ATOM      2  C   UNL     1     -21.781  33.355  -2.046  1.00  0.00     0.027 C 
BRANCH   2   3
ATOM      3  C   UNL     1     -23.082  32.616  -1.843  1.00  0.00    -0.031 C 
ATOM      4  C   UNL     1     -23.177  31.309  -1.539  1.00  0.00    -0.027 C 
BRANCH   4   5
ATOM      5  C   UNL     1     -21.999  30.412  -1.261  1.00  0.00     0.054 C 
BRANCH   5   6
ATOM      6  C   UNL     1     -22.248  29.022  -1.792  1.00  0.00    -0.027 C 
ATOM      7  C   UNL     1     -21.835  28.598  -3.000  1.00  0.00    -0.031 C 
BRANCH   7   8
ATOM      8  C   UNL     1     -21.098  29.452  -4.005  1.00  0.00     0.027 C 
BRANCH   8   9
ATOM      9  C   UNL     1     -21.924  29.655  -5.281  1.00  0.00     0.004 C 
BRANCH   9  10
ATOM     10  C   UNL     1     -23.053  30.681  -5.081  1.00  0.00     0.000 C 
BRANCH  10  11
ATOM     11  C   UNL     1     -24.438  30.025  -4.990  1.00  0.00    -0.003 C 
ATOM     12  C   UNL     1     -24.490  28.654  -5.665  1.00  0.00     0.004 C 
ENDBRANCH  10  11
ENDBRANCH   9  10
ENDBRANCH   8   9
ENDBRANCH   7   8
ENDBRANCH   5   6
ENDBRANCH   4   5
ENDBRANCH   2   3
ENDBRANCH   1   2
BRANCH   1  13
ATOM     13  C   UNL     1     -19.814  32.879  -3.598  1.00  0.00     0.000 C 
BRANCH  13  14
ATOM     14  C   UNL     1     -19.324  32.237  -2.290  1.00  0.00     0.000 C 
BRANCH  14  15
ATOM     15  C   UNL     1     -17.835  31.836  -2.356  1.00  0.00     0.000 C 
BRANCH  15  16
ATOM     16  C   UNL     1     -17.589  30.465  -3.007  1.00  0.00     0.003 C 
BRANCH  16  17
ATOM     17  C   UNL     1     -16.266  30.400  -3.785  1.00  0.00     0.042 C 
BRANCH  17  18
ATOM     18  C   UNL     1     -16.233  31.420  -4.929  1.00  0.00     0.233 C 
BRANCH  18  19
ATOM     19  O   UNL     1     -17.046  30.997  -6.023  1.00  0.00    -0.466 OA
BRANCH  19  20
ATOM     20  C   UNL     1     -17.446  31.848  -7.059  1.00  0.00     0.302 C 
ATOM     21  O   UNL     1     -16.610  32.292  -7.891  1.00  0.00    -0.253 OA
ATOM     22  C   UNL     1     -18.871  32.281  -7.138  1.00  0.00     0.139 C 
ENDBRANCH  19  20
ENDBRANCH  18  19
ENDBRANCH  17  18
ENDBRANCH  16  17
ENDBRANCH  15  16
ENDBRANCH  14  15
ENDBRANCH  13  14
ENDBRANCH   1  13
TORSDOF 16
ENDMDL
MODEL 6
REMARK VINA RESULT:    -4.012      2.182      3.650
REMARK INTER + INTRA:         -10.806
REMARK INTER:                  -8.236
REMARK INTRA:                  -2.570
REMARK UNBOUND:                -3.041
REMARK SMILES CCCCCC=CCC=CCCCCCCCCOC(C)=O
REMARK SMILES IDX 12 1 11 2 10 3 9 4 8 5 7 6 6 7 5 8 4 9 3 10 2 11 1 12 13 13
REMARK SMILES IDX 14 14 15 15 16 16 17 17 18 18 19 19 20 20 22 21 21 22
REMARK H PARENT
REMARK Flexibility Score: inf
ROOT
ATOM      1  C   UNL     1     -21.589  33.044  -2.914  1.00  0.00     0.004 C 
ENDROOT
BRANCH   1   2
ATOM      2  C   UNL     1     -20.130  32.630  -2.667  1.00  0.00     0.027 C 
BRANCH   2   3
ATOM      3  C   UNL     1     -20.033  31.278  -2.004  1.00  0.00    -0.031 C 
ATOM      4  C   UNL     1     -18.887  30.722  -1.570  1.00  0.00    -0.027 C 
BRANCH   4   5
ATOM      5  C   UNL     1     -17.546  31.407  -1.595  1.00  0.00     0.054 C 
BRANCH   5   6
ATOM      6  C   UNL     1     -16.595  30.689  -2.520  1.00  0.00    -0.027 C 
ATOM      7  C   UNL     1     -16.331  31.088  -3.778  1.00  0.00    -0.031 C 
BRANCH   7   8
ATOM      8  C   UNL     1     -16.966  32.282  -4.451  1.00  0.00     0.027 C 
BRANCH   8   9
ATOM      9  C   UNL     1     -17.801  31.861  -5.667  1.00  0.00     0.004 C 
BRANCH   9  10
ATOM     10  C   UNL     1     -18.272  30.401  -5.566  1.00  0.00     0.000 C 
BRANCH  10  11
ATOM     11  C   UNL     1     -19.803  30.274  -5.544  1.00  0.00    -0.003 C 
ATOM     12  C   UNL     1     -20.280  28.982  -4.882  1.00  0.00     0.004 C 
ENDBRANCH  10  11
ENDBRANCH   9  10
ENDBRANCH   8   9
ENDBRANCH   7   8
ENDBRANCH   5   6
ENDBRANCH   4   5
ENDBRANCH   2   3
ENDBRANCH   1   2
BRANCH   1  13
ATOM     13  C   UNL     1     -22.220  33.714  -1.685  1.00  0.00     0.000 C 
BRANCH  13  14
ATOM     14  C   UNL     1     -23.561  33.056  -1.324  1.00  0.00     0.000 C 
BRANCH  14  15
ATOM     15  C   UNL     1     -23.789  31.735  -2.089  1.00  0.00     0.000 C 
BRANCH  15  16
ATOM     16  C   UNL     1     -23.292  30.488  -1.339  1.00  0.00     0.003 C 
BRANCH  16  17
ATOM     17  C   UNL     1     -22.979  29.311  -2.275  1.00  0.00     0.042 C 
BRANCH  17  18
ATOM     18  C   UNL     1     -24.043  28.212  -2.179  1.00  0.00     0.233 C 
BRANCH  18  19
ATOM     19  O   UNL     1     -24.435  27.988  -0.825  1.00  0.00    -0.466 OA
BRANCH  19  20
ATOM     20  C   UNL     1     -25.766  27.830  -0.424  1.00  0.00     0.302 C 
ATOM     21  O   UNL     1     -26.581  28.789  -0.494  1.00  0.00    -0.253 OA
ATOM     22  C   UNL     1     -26.205  26.526   0.151  1.00  0.00     0.139 C 
ENDBRANCH  19  20
ENDBRANCH  18  19
ENDBRANCH  17  18
ENDBRANCH  16  17
ENDBRANCH  15  16
ENDBRANCH  14  15
ENDBRANCH  13  14
ENDBRANCH   1  13
TORSDOF 16
ENDMDL
MODEL 7
REMARK VINA RESULT:    -3.965      3.114      6.403
REMARK INTER + INTRA:         -10.715
REMARK INTER:                  -7.125
REMARK INTRA:                  -3.590
REMARK UNBOUND:                -3.041
REMARK SMILES CCCCCC=CCC=CCCCCCCCCOC(C)=O
REMARK SMILES IDX 12 1 11 2 10 3 9 4 8 5 7 6 6 7 5 8 4 9 3 10 2 11 1 12 13 13
REMARK SMILES IDX 14 14 15 15 16 16 17 17 18 18 19 19 20 20 22 21 21 22
REMARK H PARENT
REMARK Flexibility Score: inf
ROOT
ATOM      1  C   UNL     1     -19.748  32.382  -3.716  1.00  0.00     0.004 C 
ENDROOT
BRANCH   1   2
ATOM      2  C   UNL     1     -21.214  32.841  -3.726  1.00  0.00     0.027 C 
BRANCH   2   3
ATOM      3  C   UNL     1     -21.627  33.433  -2.400  1.00  0.00    -0.031 C 
ATOM      4  C   UNL     1     -22.588  32.928  -1.606  1.00  0.00    -0.027 C 
BRANCH   4   5
ATOM      5  C   UNL     1     -23.328  31.644  -1.876  1.00  0.00     0.054 C 
BRANCH   5   6
ATOM      6  C   UNL     1     -22.595  30.467  -1.281  1.00  0.00    -0.027 C 
ATOM      7  C   UNL     1     -22.149  29.423  -2.003  1.00  0.00    -0.031 C 
BRANCH   7   8
ATOM      8  C   UNL     1     -22.344  29.260  -3.492  1.00  0.00     0.027 C 
BRANCH   8   9
ATOM      9  C   UNL     1     -21.042  28.838  -4.185  1.00  0.00     0.004 C 
BRANCH   9  10
ATOM     10  C   UNL     1     -20.899  29.469  -5.579  1.00  0.00     0.000 C 
BRANCH  10  11
ATOM     11  C   UNL     1     -19.529  29.194  -6.215  1.00  0.00    -0.003 C 
ATOM     12  C   UNL     1     -18.936  30.424  -6.901  1.00  0.00     0.004 C 
ENDBRANCH  10  11
ENDBRANCH   9  10
ENDBRANCH   8   9
ENDBRANCH   7   8
ENDBRANCH   5   6
ENDBRANCH   4   5
ENDBRANCH   2   3
ENDBRANCH   1   2
BRANCH   1  13
ATOM     13  C   UNL     1     -19.176  32.291  -2.294  1.00  0.00     0.000 C 
BRANCH  13  14
ATOM     14  C   UNL     1     -18.780  30.846  -1.948  1.00  0.00     0.000 C 
BRANCH  14  15
ATOM     15  C   UNL     1     -17.928  30.192  -3.056  1.00  0.00     0.000 C 
BRANCH  15  16
ATOM     16  C   UNL     1     -16.510  30.775  -3.177  1.00  0.00     0.003 C 
BRANCH  16  17
ATOM     17  C   UNL     1     -16.077  30.999  -4.633  1.00  0.00     0.042 C 
BRANCH  17  18
ATOM     18  C   UNL     1     -14.705  30.378  -4.918  1.00  0.00     0.233 C 
BRANCH  18  19
ATOM     19  O   UNL     1     -14.777  28.953  -4.941  1.00  0.00    -0.466 OA
BRANCH  19  20
ATOM     20  C   UNL     1     -15.706  28.240  -5.706  1.00  0.00     0.302 C 
ATOM     21  O   UNL     1     -15.807  28.434  -6.947  1.00  0.00    -0.253 OA
ATOM     22  C   UNL     1     -16.630  27.286  -5.028  1.00  0.00     0.139 C 
ENDBRANCH  19  20
ENDBRANCH  18  19
ENDBRANCH  17  18
ENDBRANCH  16  17
ENDBRANCH  15  16
ENDBRANCH  14  15
ENDBRANCH  13  14
ENDBRANCH   1  13
TORSDOF 16
ENDMDL
MODEL 8
REMARK VINA RESULT:    -3.882      2.757      5.692
REMARK INTER + INTRA:         -10.554
REMARK INTER:                  -7.185
REMARK INTRA:                  -3.369
REMARK UNBOUND:                -3.041
REMARK SMILES CCCCCC=CCC=CCCCCCCCCOC(C)=O
REMARK SMILES IDX 12 1 11 2 10 3 9 4 8 5 7 6 6 7 5 8 4 9 3 10 2 11 1 12 13 13
REMARK SMILES IDX 14 14 15 15 16 16 17 17 18 18 19 19 20 20 22 21 21 22
REMARK H PARENT
REMARK Flexibility Score: inf
ROOT
ATOM      1  C   UNL     1     -22.689  29.280  -2.920  1.00  0.00     0.004 C 
ENDROOT
BRANCH   1   2
ATOM      2  C   UNL     1     -22.899  30.200  -1.708  1.00  0.00     0.027 C 
BRANCH   2   3
ATOM      3  C   UNL     1     -23.879  31.309  -2.006  1.00  0.00    -0.031 C 
ATOM      4  C   UNL     1     -23.600  32.621  -1.900  1.00  0.00    -0.027 C 
BRANCH   4   5
ATOM      5  C   UNL     1     -22.243  33.179  -1.560  1.00  0.00     0.054 C 
BRANCH   5   6
ATOM      6  C   UNL     1     -21.411  33.362  -2.805  1.00  0.00    -0.027 C 
ATOM      7  C   UNL     1     -20.255  32.713  -3.033  1.00  0.00    -0.031 C 
BRANCH   7   8
ATOM      8  C   UNL     1     -19.610  31.742  -2.073  1.00  0.00     0.027 C 
BRANCH   8   9
ATOM      9  C   UNL     1     -18.083  31.884  -2.073  1.00  0.00     0.004 C 
BRANCH   9  10
ATOM     10  C   UNL     1     -17.385  30.605  -2.565  1.00  0.00     0.000 C 
BRANCH  10  11
ATOM     11  C   UNL     1     -16.482  30.856  -3.782  1.00  0.00    -0.003 C 
ATOM     12  C   UNL     1     -16.672  32.248  -4.384  1.00  0.00     0.004 C 
ENDBRANCH  10  11
ENDBRANCH   9  10
ENDBRANCH   8   9
ENDBRANCH   7   8
ENDBRANCH   5   6
ENDBRANCH   4   5
ENDBRANCH   2   3
ENDBRANCH   1   2
BRANCH   1  13
ATOM     13  C   UNL     1     -23.174  29.921  -4.229  1.00  0.00     0.000 C 
BRANCH  13  14
ATOM     14  C   UNL     1     -21.991  30.262  -5.149  1.00  0.00     0.000 C 
BRANCH  14  15
ATOM     15  C   UNL     1     -20.724  29.453  -4.798  1.00  0.00     0.000 C 
BRANCH  15  16
ATOM     16  C   UNL     1     -19.496  29.822  -5.646  1.00  0.00     0.003 C 
BRANCH  16  17
ATOM     17  C   UNL     1     -19.545  31.263  -6.175  1.00  0.00     0.042 C 
BRANCH  17  18
ATOM     18  C   UNL     1     -19.293  31.320  -7.685  1.00  0.00     0.233 C 
BRANCH  18  19
ATOM     19  O   UNL     1     -19.705  30.112  -8.325  1.00  0.00    -0.466 OA
BRANCH  19  20
ATOM     20  C   UNL     1     -20.799  30.034  -9.192  1.00  0.00     0.302 C 
ATOM     21  O   UNL     1     -20.797  29.232 -10.165  1.00  0.00    -0.253 OA
ATOM     22  C   UNL     1     -21.953  30.957  -8.996  1.00  0.00     0.139 C 
ENDBRANCH  19  20
ENDBRANCH  18  19
ENDBRANCH  17  18
ENDBRANCH  16  17
ENDBRANCH  15  16
ENDBRANCH  14  15
ENDBRANCH  13  14
ENDBRANCH   1  13
TORSDOF 16
ENDMDL
MODEL 9
REMARK VINA RESULT:    -3.872      1.694      2.788
REMARK INTER + INTRA:         -10.534
REMARK INTER:                  -7.290
REMARK INTRA:                  -3.244
REMARK UNBOUND:                -3.041
REMARK SMILES CCCCCC=CCC=CCCCCCCCCOC(C)=O
REMARK SMILES IDX 12 1 11 2 10 3 9 4 8 5 7 6 6 7 5 8 4 9 3 10 2 11 1 12 13 13
REMARK SMILES IDX 14 14 15 15 16 16 17 17 18 18 19 19 20 20 22 21 21 22
REMARK H PARENT
REMARK Flexibility Score: inf
ROOT
ATOM      1  C   UNL     1     -19.756  30.461  -5.507  1.00  0.00     0.004 C 
ENDROOT
BRANCH   1   2
ATOM      2  C   UNL     1     -19.414  31.954  -5.384  1.00  0.00     0.027 C 
BRANCH   2   3
ATOM      3  C   UNL     1     -20.003  32.565  -4.136  1.00  0.00    -0.031 C 
ATOM      4  C   UNL     1     -19.356  32.675  -2.962  1.00  0.00    -0.027 C 
BRANCH   4   5
ATOM      5  C   UNL     1     -17.916  32.290  -2.744  1.00  0.00     0.054 C 
BRANCH   5   6
ATOM      6  C   UNL     1     -17.807  30.850  -2.307  1.00  0.00    -0.027 C 
ATOM      7  C   UNL     1     -16.875  29.997  -2.771  1.00  0.00    -0.031 C 
BRANCH   7   8
ATOM      8  C   UNL     1     -15.835  30.342  -3.810  1.00  0.00     0.027 C 
BRANCH   8   9
ATOM      9  C   UNL     1     -16.256  29.862  -5.205  1.00  0.00     0.004 C 
BRANCH   9  10
ATOM     10  C   UNL     1     -15.761  30.806  -6.314  1.00  0.00     0.000 C 
BRANCH  10  11
ATOM     11  C   UNL     1     -15.746  32.277  -5.875  1.00  0.00    -0.003 C 
ATOM     12  C   UNL     1     -14.387  32.944  -6.087  1.00  0.00     0.004 C 
ENDBRANCH  10  11
ENDBRANCH   9  10
ENDBRANCH   8   9
ENDBRANCH   7   8
ENDBRANCH   5   6
ENDBRANCH   4   5
ENDBRANCH   2   3
ENDBRANCH   1   2
BRANCH   1  13
ATOM     13  C   UNL     1     -21.149  30.135  -4.948  1.00  0.00     0.000 C 
BRANCH  13  14
ATOM     14  C   UNL     1     -21.105  28.891  -4.047  1.00  0.00     0.000 C 
BRANCH  14  15
ATOM     15  C   UNL     1     -21.943  29.070  -2.762  1.00  0.00     0.000 C 
BRANCH  15  16
ATOM     16  C   UNL     1     -21.304  30.013  -1.729  1.00  0.00     0.003 C 
BRANCH  16  17
ATOM     17  C   UNL     1     -22.291  31.053  -1.178  1.00  0.00     0.042 C 
BRANCH  17  18
ATOM     18  C   UNL     1     -23.129  31.685  -2.295  1.00  0.00     0.233 C 
BRANCH  18  19
ATOM     19  O   UNL     1     -24.525  31.483  -2.074  1.00  0.00    -0.466 OA
BRANCH  19  20
ATOM     20  C   UNL     1     -25.277  30.507  -2.736  1.00  0.00     0.302 C 
ATOM     21  O   UNL     1     -25.981  29.684  -2.091  1.00  0.00    -0.253 OA
ATOM     22  C   UNL     1     -25.192  30.404  -4.221  1.00  0.00     0.139 C 
ENDBRANCH  19  20
ENDBRANCH  18  19
ENDBRANCH  17  18
ENDBRANCH  16  17
ENDBRANCH  15  16
ENDBRANCH  14  15
ENDBRANCH  13  14
ENDBRANCH   1  13
TORSDOF 16
ENDMDL
