MODEL 1
REMARK VINA RESULT:    -3.163      0.000      0.000
REMARK INTER + INTRA:          -7.638
REMARK INTER:                  -5.844
REMARK INTRA:                  -1.793
REMARK UNBOUND:                -1.793
REMARK SMILES CCCCCCCCCCCCCCCCO
REMARK SMILES IDX 9 1 8 2 7 3 6 4 5 5 4 6 3 7 2 8 1 9 10 10 11 11 12 12 13 13
REMARK SMILES IDX 14 14 15 15 16 16 17 17
REMARK H PARENT 17 18
REMARK Flexibility Score: inf
ROOT
ATOM      1  C   UNL     1      28.861 -23.590  21.451  1.00  0.00     0.000 C 
ENDROOT
BRANCH   1   2
ATOM      2  C   UNL     1      27.705 -23.624  22.461  1.00  0.00    -0.000 C 
BRANCH   2   3
ATOM      3  C   UNL     1      28.234 -23.776  23.896  1.00  0.00    -0.000 C 
BRANCH   3   4
ATOM      4  C   UNL     1      27.931 -22.551  24.774  1.00  0.00    -0.000 C 
BRANCH   4   5
ATOM      5  C   UNL     1      29.069 -22.236  25.761  1.00  0.00    -0.000 C 
BRANCH   5   6
ATOM      6  C   UNL     1      28.982 -20.809  26.325  1.00  0.00    -0.000 C 
BRANCH   6   7
ATOM      7  C   UNL     1      30.354 -20.248  26.736  1.00  0.00    -0.000 C 
BRANCH   7   8
ATOM      8  C   UNL     1      31.051 -21.116  27.796  1.00  0.00    -0.003 C 
ATOM      9  C   UNL     1      31.124 -20.433  29.162  1.00  0.00     0.004 C 
ENDBRANCH   7   8
ENDBRANCH   6   7
ENDBRANCH   5   6
ENDBRANCH   4   5
ENDBRANCH   3   4
ENDBRANCH   2   3
ENDBRANCH   1   2
BRANCH   1  10
ATOM     10  C   UNL     1      30.246 -23.633  22.122  1.00  0.00     0.000 C 
BRANCH  10  11
ATOM     11  C   UNL     1      31.125 -22.392  21.881  1.00  0.00     0.000 C 
BRANCH  11  12
ATOM     12  C   UNL     1      30.311 -21.143  21.516  1.00  0.00     0.000 C 
BRANCH  12  13
ATOM     13  C   UNL     1      30.078 -20.260  22.751  1.00  0.00     0.000 C 
BRANCH  13  14
ATOM     14  C   UNL     1      28.781 -19.440  22.659  1.00  0.00     0.002 C 
BRANCH  14  15
ATOM     15  C   UNL     1      28.690 -18.622  21.360  1.00  0.00     0.028 C 
BRANCH  15  16
ATOM     16  C   UNL     1      28.627 -17.117  21.641  1.00  0.00     0.156 C 
BRANCH  16  17
ATOM     17  O   UNL     1      29.796 -16.476  21.206  1.00  0.00    -0.396 OA
ATOM     18  H   UNL     1      30.397 -16.413  21.995  1.00  0.00     0.210 HD
ENDBRANCH  16  17
ENDBRANCH  15  16
ENDBRANCH  14  15
ENDBRANCH  13  14
ENDBRANCH  12  13
ENDBRANCH  11  12
ENDBRANCH  10  11
ENDBRANCH   1  10
TORSDOF 15
ENDMDL
MODEL 2
REMARK VINA RESULT:    -3.142      2.436      5.209
REMARK INTER + INTRA:          -7.599
REMARK INTER:                  -5.378
REMARK INTRA:                  -2.221
REMARK UNBOUND:                -1.793
REMARK SMILES CCCCCCCCCCCCCCCCO
REMARK SMILES IDX 9 1 8 2 7 3 6 4 5 5 4 6 3 7 2 8 1 9 10 10 11 11 12 12 13 13
REMARK SMILES IDX 14 14 15 15 16 16 17 17
REMARK H PARENT 17 18
REMARK Flexibility Score: inf
ROOT
ATOM      1  C   UNL     1      26.894 -22.681  21.496  1.00  0.00     0.000 C 
ENDROOT
BRANCH   1   2
ATOM      2  C   UNL     1      27.672 -23.961  21.159  1.00  0.00    -0.000 C 
BRANCH   2   3
ATOM      3  C   UNL     1      29.109 -23.630  20.725  1.00  0.00    -0.000 C 
BRANCH   3   4
ATOM      4  C   UNL     1      30.130 -23.819  21.858  1.00  0.00    -0.000 C 
BRANCH   4   5
ATOM      5  C   UNL     1      31.103 -22.633  21.980  1.00  0.00    -0.000 C 
BRANCH   5   6
ATOM      6  C   UNL     1      30.509 -21.325  21.432  1.00  0.00    -0.000 C 
BRANCH   6   7
ATOM      7  C   UNL     1      30.176 -20.312  22.542  1.00  0.00    -0.000 C 
BRANCH   7   8
ATOM      8  C   UNL     1      28.865 -19.556  22.274  1.00  0.00    -0.003 C 
ATOM      9  C   UNL     1      28.900 -18.116  22.786  1.00  0.00     0.004 C 
ENDBRANCH   7   8
ENDBRANCH   6   7
ENDBRANCH   5   6
ENDBRANCH   4   5
ENDBRANCH   3   4
ENDBRANCH   2   3
ENDBRANCH   1   2
BRANCH   1  10
ATOM     10  C   UNL     1      26.724 -22.463  23.011  1.00  0.00     0.000 C 
BRANCH  10  11
ATOM     11  C   UNL     1      26.612 -23.751  23.846  1.00  0.00     0.000 C 
BRANCH  11  12
ATOM     12  C   UNL     1      27.702 -23.865  24.922  1.00  0.00     0.000 C 
BRANCH  12  13
ATOM     13  C   UNL     1      28.550 -22.585  24.980  1.00  0.00     0.000 C 
BRANCH  13  14
ATOM     14  C   UNL     1      29.164 -22.343  26.368  1.00  0.00     0.002 C 
BRANCH  14  15
ATOM     15  C   UNL     1      30.067 -21.099  26.407  1.00  0.00     0.028 C 
BRANCH  15  16
ATOM     16  C   UNL     1      30.834 -20.996  27.730  1.00  0.00     0.156 C 
BRANCH  16  17
ATOM     17  O   UNL     1      30.339 -21.912  28.669  1.00  0.00    -0.396 OA
ATOM     18  H   UNL     1      29.645 -21.434  29.195  1.00  0.00     0.210 HD
ENDBRANCH  16  17
ENDBRANCH  15  16
ENDBRANCH  14  15
ENDBRANCH  13  14
ENDBRANCH  12  13
ENDBRANCH  11  12
ENDBRANCH  10  11
ENDBRANCH   1  10
TORSDOF 15
ENDMDL
MODEL 3
REMARK VINA RESULT:    -3.136      2.080      5.226
REMARK INTER + INTRA:          -7.588
REMARK INTER:                  -6.208
REMARK INTRA:                  -1.380
REMARK UNBOUND:                -1.793
REMARK SMILES CCCCCCCCCCCCCCCCO
REMARK SMILES IDX 9 1 8 2 7 3 6 4 5 5 4 6 3 7 2 8 1 9 10 10 11 11 12 12 13 13
REMARK SMILES IDX 14 14 15 15 16 16 17 17
REMARK H PARENT 17 18
REMARK Flexibility Score: inf
ROOT
ATOM      1  C   UNL     1      29.962 -21.029  25.745  1.00  0.00     0.000 C 
ENDROOT
BRANCH   1   2
ATOM      2  C   UNL     1      28.622 -21.419  25.106  1.00  0.00    -0.000 C 
BRANCH   2   3
ATOM      3  C   UNL     1      28.286 -22.891  25.392  1.00  0.00    -0.000 C 
BRANCH   3   4
ATOM      4  C   UNL     1      28.679 -23.826  24.236  1.00  0.00    -0.000 C 
BRANCH   4   5
ATOM      5  C   UNL     1      28.877 -23.073  22.909  1.00  0.00    -0.000 C 
BRANCH   5   6
ATOM      6  C   UNL     1      30.196 -23.445  22.212  1.00  0.00    -0.000 C 
BRANCH   6   7
ATOM      7  C   UNL     1      30.791 -22.277  21.405  1.00  0.00    -0.000 C 
BRANCH   7   8
ATOM      8  C   UNL     1      30.390 -20.906  21.973  1.00  0.00    -0.003 C 
ATOM      9  C   UNL     1      29.481 -20.120  21.028  1.00  0.00     0.004 C 
ENDBRANCH   7   8
ENDBRANCH   6   7
ENDBRANCH   5   6
ENDBRANCH   4   5
ENDBRANCH   3   4
ENDBRANCH   2   3
ENDBRANCH   1   2
BRANCH   1  10
ATOM     10  C   UNL     1      30.141 -21.602  27.163  1.00  0.00     0.000 C 
BRANCH  10  11
ATOM     11  C   UNL     1      31.084 -20.797  28.076  1.00  0.00     0.000 C 
BRANCH  11  12
ATOM     12  C   UNL     1      30.901 -19.279  27.937  1.00  0.00     0.000 C 
BRANCH  12  13
ATOM     13  C   UNL     1      32.249 -18.551  28.060  1.00  0.00     0.000 C 
BRANCH  13  14
ATOM     14  C   UNL     1      32.502 -17.572  26.902  1.00  0.00     0.002 C 
BRANCH  14  15
ATOM     15  C   UNL     1      31.385 -17.605  25.845  1.00  0.00     0.028 C 
BRANCH  15  16
ATOM     16  C   UNL     1      31.668 -16.635  24.692  1.00  0.00     0.156 C 
BRANCH  16  17
ATOM     17  O   UNL     1      32.668 -17.138  23.847  1.00  0.00    -0.396 OA
ATOM     18  H   UNL     1      32.222 -17.380  22.993  1.00  0.00     0.210 HD
ENDBRANCH  16  17
ENDBRANCH  15  16
ENDBRANCH  14  15
ENDBRANCH  13  14
ENDBRANCH  12  13
ENDBRANCH  11  12
ENDBRANCH  10  11
ENDBRANCH   1  10
TORSDOF 15
ENDMDL
MODEL 4
REMARK VINA RESULT:    -3.132      2.787      5.691
REMARK INTER + INTRA:          -7.580
REMARK INTER:                  -5.406
REMARK INTRA:                  -2.174
REMARK UNBOUND:                -1.793
REMARK SMILES CCCCCCCCCCCCCCCCO
REMARK SMILES IDX 9 1 8 2 7 3 6 4 5 5 4 6 3 7 2 8 1 9 10 10 11 11 12 12 13 13
REMARK SMILES IDX 14 14 15 15 16 16 17 17
REMARK H PARENT 17 18
REMARK Flexibility Score: inf
ROOT
ATOM      1  C   UNL     1      28.047 -23.608  22.630  1.00  0.00     0.000 C 
ENDROOT
BRANCH   1   2
ATOM      2  C   UNL     1      29.047 -23.375  21.488  1.00  0.00    -0.000 C 
BRANCH   2   3
ATOM      3  C   UNL     1      30.455 -23.103  22.040  1.00  0.00    -0.000 C 
BRANCH   3   4
ATOM      4  C   UNL     1      30.844 -21.617  21.973  1.00  0.00    -0.000 C 
BRANCH   4   5
ATOM      5  C   UNL     1      29.762 -20.754  21.301  1.00  0.00    -0.000 C 
BRANCH   5   6
ATOM      6  C   UNL     1      29.288 -19.598  22.197  1.00  0.00    -0.000 C 
BRANCH   6   7
ATOM      7  C   UNL     1      27.855 -19.142  21.869  1.00  0.00    -0.000 C 
BRANCH   7   8
ATOM      8  C   UNL     1      26.912 -20.322  21.589  1.00  0.00    -0.003 C 
ATOM      9  C   UNL     1      25.817 -20.465  22.646  1.00  0.00     0.004 C 
ENDBRANCH   7   8
ENDBRANCH   6   7
ENDBRANCH   5   6
ENDBRANCH   4   5
ENDBRANCH   3   4
ENDBRANCH   2   3
ENDBRANCH   1   2
BRANCH   1  10
ATOM     10  C   UNL     1      28.728 -23.773  24.001  1.00  0.00     0.000 C 
BRANCH  10  11
ATOM     11  C   UNL     1      28.059 -23.006  25.156  1.00  0.00     0.000 C 
BRANCH  11  12
ATOM     12  C   UNL     1      28.349 -21.498  25.121  1.00  0.00     0.000 C 
BRANCH  12  13
ATOM     13  C   UNL     1      29.771 -21.202  25.620  1.00  0.00     0.000 C 
BRANCH  13  14
ATOM     14  C   UNL     1      30.060 -21.824  26.995  1.00  0.00     0.002 C 
BRANCH  14  15
ATOM     15  C   UNL     1      30.881 -20.895  27.905  1.00  0.00     0.028 C 
BRANCH  15  16
ATOM     16  C   UNL     1      30.799 -21.323  29.374  1.00  0.00     0.156 C 
BRANCH  16  17
ATOM     17  O   UNL     1      30.329 -22.639  29.488  1.00  0.00    -0.396 OA
ATOM     18  H   UNL     1      29.519 -22.703  28.917  1.00  0.00     0.210 HD
ENDBRANCH  16  17
ENDBRANCH  15  16
ENDBRANCH  14  15
ENDBRANCH  13  14
ENDBRANCH  12  13
ENDBRANCH  11  12
ENDBRANCH  10  11
ENDBRANCH   1  10
TORSDOF 15
ENDMDL
MODEL 5
REMARK VINA RESULT:    -3.108     10.594     13.264
REMARK INTER + INTRA:          -7.536
REMARK INTER:                  -5.177
REMARK INTRA:                  -2.359
REMARK UNBOUND:                -1.793
REMARK SMILES CCCCCCCCCCCCCCCCO
REMARK SMILES IDX 9 1 8 2 7 3 6 4 5 5 4 6 3 7 2 8 1 9 10 10 11 11 12 12 13 13
REMARK SMILES IDX 14 14 15 15 16 16 17 17
REMARK H PARENT 17 18
REMARK Flexibility Score: inf
ROOT
ATOM      1  C   UNL     1      26.820 -19.448  35.543  1.00  0.00     0.000 C 
ENDROOT
BRANCH   1   2
ATOM      2  C   UNL     1      25.713 -20.491  35.751  1.00  0.00    -0.000 C 
BRANCH   2   3
ATOM      3  C   UNL     1      25.763 -21.067  37.176  1.00  0.00    -0.000 C 
BRANCH   3   4
ATOM      4  C   UNL     1      25.828 -22.603  37.194  1.00  0.00    -0.000 C 
BRANCH   4   5
ATOM      5  C   UNL     1      26.743 -23.169  36.095  1.00  0.00    -0.000 C 
BRANCH   5   6
ATOM      6  C   UNL     1      28.208 -23.279  36.546  1.00  0.00    -0.000 C 
BRANCH   6   7
ATOM      7  C   UNL     1      29.195 -22.731  35.501  1.00  0.00    -0.000 C 
BRANCH   7   8
ATOM      8  C   UNL     1      28.533 -22.499  34.133  1.00  0.00    -0.003 C 
ATOM      9  C   UNL     1      29.200 -21.376  33.338  1.00  0.00     0.004 C 
ENDBRANCH   7   8
ENDBRANCH   6   7
ENDBRANCH   5   6
ENDBRANCH   4   5
ENDBRANCH   3   4
ENDBRANCH   2   3
ENDBRANCH   1   2
BRANCH   1  10
ATOM     10  C   UNL     1      27.862 -19.443  36.677  1.00  0.00     0.000 C 
BRANCH  10  11
ATOM     11  C   UNL     1      29.277 -19.006  36.257  1.00  0.00     0.000 C 
BRANCH  11  12
ATOM     12  C   UNL     1      29.275 -17.818  35.286  1.00  0.00     0.000 C 
BRANCH  12  13
ATOM     13  C   UNL     1      30.336 -16.781  35.685  1.00  0.00     0.000 C 
BRANCH  13  14
ATOM     14  C   UNL     1      29.756 -15.630  36.522  1.00  0.00     0.002 C 
BRANCH  14  15
ATOM     15  C   UNL     1      28.222 -15.553  36.440  1.00  0.00     0.028 C 
BRANCH  15  16
ATOM     16  C   UNL     1      27.573 -15.697  37.821  1.00  0.00     0.156 C 
BRANCH  16  17
ATOM     17  O   UNL     1      28.301 -16.582  38.628  1.00  0.00    -0.396 OA
ATOM     18  H   UNL     1      28.987 -16.039  39.099  1.00  0.00     0.210 HD
ENDBRANCH  16  17
ENDBRANCH  15  16
ENDBRANCH  14  15
ENDBRANCH  13  14
ENDBRANCH  12  13
ENDBRANCH  11  12
ENDBRANCH  10  11
ENDBRANCH   1  10
TORSDOF 15
ENDMDL
MODEL 6
REMARK VINA RESULT:    -3.096      1.732      2.492
REMARK INTER + INTRA:          -7.514
REMARK INTER:                  -5.411
REMARK INTRA:                  -2.104
REMARK UNBOUND:                -1.793
REMARK SMILES CCCCCCCCCCCCCCCCO
REMARK SMILES IDX 9 1 8 2 7 3 6 4 5 5 4 6 3 7 2 8 1 9 10 10 11 11 12 12 13 13
REMARK SMILES IDX 14 14 15 15 16 16 17 17
REMARK H PARENT 17 18
REMARK Flexibility Score: inf
ROOT
ATOM      1  C   UNL     1      31.086 -22.673  21.599  1.00  0.00     0.000 C 
ENDROOT
BRANCH   1   2
ATOM      2  C   UNL     1      29.915 -23.660  21.709  1.00  0.00    -0.000 C 
BRANCH   2   3
ATOM      3  C   UNL     1      29.298 -23.622  23.117  1.00  0.00    -0.000 C 
BRANCH   3   4
ATOM      4  C   UNL     1      27.802 -23.269  23.100  1.00  0.00    -0.000 C 
BRANCH   4   5
ATOM      5  C   UNL     1      27.326 -22.651  24.426  1.00  0.00    -0.000 C 
BRANCH   5   6
ATOM      6  C   UNL     1      28.178 -23.100  25.625  1.00  0.00    -0.000 C 
BRANCH   6   7
ATOM      7  C   UNL     1      28.608 -21.925  26.521  1.00  0.00    -0.000 C 
BRANCH   7   8
ATOM      8  C   UNL     1      30.113 -21.629  26.419  1.00  0.00    -0.003 C 
ATOM      9  C   UNL     1      30.576 -20.578  27.428  1.00  0.00     0.004 C 
ENDBRANCH   7   8
ENDBRANCH   6   7
ENDBRANCH   5   6
ENDBRANCH   4   5
ENDBRANCH   3   4
ENDBRANCH   2   3
ENDBRANCH   1   2
BRANCH   1  10
ATOM     10  C   UNL     1      30.736 -21.265  22.115  1.00  0.00     0.000 C 
BRANCH  10  11
ATOM     11  C   UNL     1      29.715 -20.494  21.261  1.00  0.00     0.000 C 
BRANCH  11  12
ATOM     12  C   UNL     1      28.727 -19.673  22.103  1.00  0.00     0.000 C 
BRANCH  12  13
ATOM     13  C   UNL     1      29.137 -19.673  23.583  1.00  0.00     0.000 C 
BRANCH  13  14
ATOM     14  C   UNL     1      29.182 -18.260  24.187  1.00  0.00     0.002 C 
BRANCH  14  15
ATOM     15  C   UNL     1      30.559 -17.911  24.774  1.00  0.00     0.028 C 
BRANCH  15  16
ATOM     16  C   UNL     1      31.245 -16.792  23.983  1.00  0.00     0.156 C 
BRANCH  16  17
ATOM     17  O   UNL     1      32.599 -17.086  23.768  1.00  0.00    -0.396 OA
ATOM     18  H   UNL     1      33.115 -16.542  24.419  1.00  0.00     0.210 HD
ENDBRANCH  16  17
ENDBRANCH  15  16
ENDBRANCH  14  15
ENDBRANCH  13  14
ENDBRANCH  12  13
ENDBRANCH  11  12
ENDBRANCH  10  11
ENDBRANCH   1  10
TORSDOF 15
ENDMDL
MODEL 7
REMARK VINA RESULT:    -3.092      2.790      6.034
REMARK INTER + INTRA:          -7.507
REMARK INTER:                  -5.686
REMARK INTRA:                  -1.821
REMARK UNBOUND:                -1.793
REMARK SMILES CCCCCCCCCCCCCCCCO
REMARK SMILES IDX 9 1 8 2 7 3 6 4 5 5 4 6 3 7 2 8 1 9 10 10 11 11 12 12 13 13
REMARK SMILES IDX 14 14 15 15 16 16 17 17
REMARK H PARENT 17 18
REMARK Flexibility Score: inf
ROOT
ATOM      1  C   UNL     1      28.454 -23.264  25.289  1.00  0.00     0.000 C 
ENDROOT
BRANCH   1   2
ATOM      2  C   UNL     1      27.704 -22.631  24.108  1.00  0.00    -0.000 C 
BRANCH   2   3
ATOM      3  C   UNL     1      27.983 -23.400  22.807  1.00  0.00    -0.000 C 
BRANCH   3   4
ATOM      4  C   UNL     1      29.446 -23.857  22.688  1.00  0.00    -0.000 C 
BRANCH   4   5
ATOM      5  C   UNL     1      30.006 -23.678  21.266  1.00  0.00    -0.000 C 
BRANCH   5   6
ATOM      6  C   UNL     1      30.253 -22.203  20.911  1.00  0.00    -0.000 C 
BRANCH   6   7
ATOM      7  C   UNL     1      30.817 -21.394  22.092  1.00  0.00    -0.000 C 
BRANCH   7   8
ATOM      8  C   UNL     1      29.971 -20.151  22.410  1.00  0.00    -0.003 C 
ATOM      9  C   UNL     1      28.776 -19.995  21.470  1.00  0.00     0.004 C 
ENDBRANCH   7   8
ENDBRANCH   6   7
ENDBRANCH   5   6
ENDBRANCH   4   5
ENDBRANCH   3   4
ENDBRANCH   2   3
ENDBRANCH   1   2
BRANCH   1  10
ATOM     10  C   UNL     1      28.817 -22.246  26.386  1.00  0.00     0.000 C 
BRANCH  10  11
ATOM     11  C   UNL     1      29.932 -21.254  26.010  1.00  0.00     0.000 C 
BRANCH  11  12
ATOM     12  C   UNL     1      29.734 -19.865  26.633  1.00  0.00     0.000 C 
BRANCH  12  13
ATOM     13  C   UNL     1      30.973 -19.442  27.437  1.00  0.00     0.000 C 
BRANCH  13  14
ATOM     14  C   UNL     1      31.542 -20.585  28.293  1.00  0.00     0.002 C 
BRANCH  14  15
ATOM     15  C   UNL     1      31.043 -20.541  29.746  1.00  0.00     0.028 C 
BRANCH  15  16
ATOM     16  C   UNL     1      29.910 -21.546  29.986  1.00  0.00     0.156 C 
BRANCH  16  17
ATOM     17  O   UNL     1      30.288 -22.834  29.582  1.00  0.00    -0.396 OA
ATOM     18  H   UNL     1      31.265 -22.907  29.742  1.00  0.00     0.210 HD
ENDBRANCH  16  17
ENDBRANCH  15  16
ENDBRANCH  14  15
ENDBRANCH  13  14
ENDBRANCH  12  13
ENDBRANCH  11  12
ENDBRANCH  10  11
ENDBRANCH   1  10
TORSDOF 15
ENDMDL
MODEL 8
REMARK VINA RESULT:    -3.016     14.983     17.046
REMARK INTER + INTRA:          -7.365
REMARK INTER:                  -5.852
REMARK INTRA:                  -1.513
REMARK UNBOUND:                -1.793
REMARK SMILES CCCCCCCCCCCCCCCCO
REMARK SMILES IDX 9 1 8 2 7 3 6 4 5 5 4 6 3 7 2 8 1 9 10 10 11 11 12 12 13 13
REMARK SMILES IDX 14 14 15 15 16 16 17 17
REMARK H PARENT 17 18
REMARK Flexibility Score: inf
ROOT
ATOM      1  C   UNL     1      26.990  -8.143  30.630  1.00  0.00     0.000 C 
ENDROOT
BRANCH   1   2
ATOM      2  C   UNL     1      25.721  -7.406  31.079  1.00  0.00    -0.000 C 
BRANCH   2   3
ATOM      3  C   UNL     1      26.027  -5.935  31.404  1.00  0.00    -0.000 C 
BRANCH   3   4
ATOM      4  C   UNL     1      25.805  -5.002  30.202  1.00  0.00    -0.000 C 
BRANCH   4   5
ATOM      5  C   UNL     1      24.800  -5.575  29.188  1.00  0.00    -0.000 C 
BRANCH   5   6
ATOM      6  C   UNL     1      25.407  -5.743  27.786  1.00  0.00    -0.000 C 
BRANCH   6   7
ATOM      7  C   UNL     1      26.945  -5.696  27.796  1.00  0.00    -0.000 C 
BRANCH   7   8
ATOM      8  C   UNL     1      27.574  -6.889  27.057  1.00  0.00    -0.003 C 
ATOM      9  C   UNL     1      29.009  -7.168  27.503  1.00  0.00     0.004 C 
ENDBRANCH   7   8
ENDBRANCH   6   7
ENDBRANCH   5   6
ENDBRANCH   4   5
ENDBRANCH   3   4
ENDBRANCH   2   3
ENDBRANCH   1   2
BRANCH   1  10
ATOM     10  C   UNL     1      28.261  -7.637  31.335  1.00  0.00     0.000 C 
BRANCH  10  11
ATOM     11  C   UNL     1      29.551  -8.396  30.977  1.00  0.00     0.000 C 
BRANCH  11  12
ATOM     12  C   UNL     1      30.775  -7.477  30.857  1.00  0.00     0.000 C 
BRANCH  12  13
ATOM     13  C   UNL     1      31.109  -6.830  32.210  1.00  0.00     0.000 C 
BRANCH  13  14
ATOM     14  C   UNL     1      32.581  -7.017  32.609  1.00  0.00     0.002 C 
BRANCH  14  15
ATOM     15  C   UNL     1      33.423  -5.752  32.374  1.00  0.00     0.028 C 
BRANCH  15  16
ATOM     16  C   UNL     1      34.668  -5.726  33.268  1.00  0.00     0.156 C 
BRANCH  16  17
ATOM     17  O   UNL     1      34.454  -4.930  34.402  1.00  0.00    -0.396 OA
ATOM     18  H   UNL     1      35.275  -5.000  34.958  1.00  0.00     0.210 HD
ENDBRANCH  16  17
ENDBRANCH  15  16
ENDBRANCH  14  15
ENDBRANCH  13  14
ENDBRANCH  12  13
ENDBRANCH  11  12
ENDBRANCH  10  11
ENDBRANCH   1  10
TORSDOF 15
ENDMDL
MODEL 9
REMARK VINA RESULT:    -2.957      1.549      4.394
REMARK INTER + INTRA:          -7.257
REMARK INTER:                  -5.200
REMARK INTRA:                  -2.057
REMARK UNBOUND:                -1.793
REMARK SMILES CCCCCCCCCCCCCCCCO
REMARK SMILES IDX 9 1 8 2 7 3 6 4 5 5 4 6 3 7 2 8 1 9 10 10 11 11 12 12 13 13
REMARK SMILES IDX 14 14 15 15 16 16 17 17
REMARK H PARENT 17 18
REMARK Flexibility Score: inf
ROOT
ATOM      1  C   UNL     1      28.147 -22.463  24.660  1.00  0.00     0.000 C 
ENDROOT
BRANCH   1   2
ATOM      2  C   UNL     1      28.500 -23.743  23.888  1.00  0.00    -0.000 C 
BRANCH   2   3
ATOM      3  C   UNL     1      28.854 -23.422  22.427  1.00  0.00    -0.000 C 
BRANCH   3   4
ATOM      4  C   UNL     1      30.350 -23.607  22.123  1.00  0.00    -0.000 C 
BRANCH   4   5
ATOM      5  C   UNL     1      31.082 -22.268  21.926  1.00  0.00    -0.000 C 
BRANCH   5   6
ATOM      6  C   UNL     1      30.150 -21.155  21.419  1.00  0.00    -0.000 C 
BRANCH   6   7
ATOM      7  C   UNL     1      30.000 -20.002  22.426  1.00  0.00    -0.000 C 
BRANCH   7   8
ATOM      8  C   UNL     1      28.585 -19.401  22.424  1.00  0.00    -0.003 C 
ATOM      9  C   UNL     1      28.338 -18.477  21.232  1.00  0.00     0.004 C 
ENDBRANCH   7   8
ENDBRANCH   6   7
ENDBRANCH   5   6
ENDBRANCH   4   5
ENDBRANCH   3   4
ENDBRANCH   2   3
ENDBRANCH   1   2
BRANCH   1  10
ATOM     10  C   UNL     1      28.994 -22.275  25.932  1.00  0.00     0.000 C 
BRANCH  10  11
ATOM     11  C   UNL     1      30.003 -21.114  25.876  1.00  0.00     0.000 C 
BRANCH  11  12
ATOM     12  C   UNL     1      29.348 -19.740  26.081  1.00  0.00     0.000 C 
BRANCH  12  13
ATOM     13  C   UNL     1      30.394 -18.687  26.476  1.00  0.00     0.000 C 
BRANCH  13  14
ATOM     14  C   UNL     1      30.840 -17.819  25.288  1.00  0.00     0.002 C 
BRANCH  14  15
ATOM     15  C   UNL     1      29.764 -16.809  24.857  1.00  0.00     0.028 C 
BRANCH  15  16
ATOM     16  C   UNL     1      30.136 -16.111  23.544  1.00  0.00     0.156 C 
BRANCH  16  17
ATOM     17  O   UNL     1      31.496 -16.285  23.251  1.00  0.00    -0.396 OA
ATOM     18  H   UNL     1      32.002 -15.745  23.914  1.00  0.00     0.210 HD
ENDBRANCH  16  17
ENDBRANCH  15  16
ENDBRANCH  14  15
ENDBRANCH  13  14
ENDBRANCH  12  13
ENDBRANCH  11  12
ENDBRANCH  10  11
ENDBRANCH   1  10
TORSDOF 15
ENDMDL
