MODEL 1
REMARK VINA RESULT:    -2.559      0.000      0.000
REMARK INTER + INTRA:          -2.559
REMARK INTER:                  -2.559
REMARK INTRA:                   0.000
REMARK UNBOUND:                 0.000
REMARK SMILES C=C1CC[C@H]2C[C@@H]1C2(C)C
REMARK SMILES IDX 9 1 8 2 5 3 4 4 3 5 2 6 1 7 7 8 6 9 10 10
REMARK H PARENT
REMARK Flexibility Score: inf
ROOT
ATOM      1  C   UNL     1     166.332 173.229 138.386  1.00  0.00     0.012 C 
ATOM      2  C   UNL     1     167.621 174.094 138.447  1.00  0.00    -0.026 C 
ATOM      3  C   UNL     1     167.484 175.636 138.369  1.00  0.00    -0.004 C 
ATOM      4  C   UNL     1     166.205 176.125 139.120  1.00  0.00     0.008 C 
ATOM      5  C   UNL     1     166.109 175.556 140.587  1.00  0.00     0.031 C 
ATOM      6  C   UNL     1     167.203 174.518 140.883  1.00  0.00    -0.074 C 
ATOM      7  C   UNL     1     167.208 173.817 142.021  1.00  0.00     0.008 C 
ATOM      8  C   UNL     1     168.285 174.328 139.824  1.00  0.00     0.021 C 
ATOM      9  C   UNL     1     168.648 175.751 139.368  1.00  0.00     0.012 C 
ATOM     10  C   UNL     1     168.626 173.548 137.403  1.00  0.00     0.012 C 
ENDROOT
TORSDOF 0
ENDMDL
MODEL 2
REMARK VINA RESULT:    -2.556     16.126     17.737
REMARK INTER + INTRA:          -2.556
REMARK INTER:                  -2.556
REMARK INTRA:                   0.000
REMARK UNBOUND:                 0.000
REMARK SMILES C=C1CC[C@H]2C[C@@H]1C2(C)C
REMARK SMILES IDX 9 1 8 2 5 3 4 4 3 5 2 6 1 7 7 8 6 9 10 10
REMARK H PARENT
REMARK Flexibility Score: inf
ROOT
ATOM      1  C   UNL     1     165.674 158.770 138.380  1.00  0.00     0.012 C 
ATOM      2  C   UNL     1     164.387 157.903 138.447  1.00  0.00    -0.026 C 
ATOM      3  C   UNL     1     164.525 156.361 138.371  1.00  0.00    -0.004 C 
ATOM      4  C   UNL     1     165.809 155.875 139.116  1.00  0.00     0.008 C 
ATOM      5  C   UNL     1     165.911 156.446 140.582  1.00  0.00     0.031 C 
ATOM      6  C   UNL     1     164.817 157.482 140.881  1.00  0.00    -0.074 C 
ATOM      7  C   UNL     1     164.817 158.185 142.019  1.00  0.00     0.008 C 
ATOM      8  C   UNL     1     163.730 157.670 139.828  1.00  0.00     0.021 C 
ATOM      9  C   UNL     1     163.366 156.246 139.376  1.00  0.00     0.012 C 
ATOM     10  C   UNL     1     163.376 158.446 137.408  1.00  0.00     0.012 C 
ENDROOT
TORSDOF 0
ENDMDL
MODEL 3
REMARK VINA RESULT:    -2.471      1.032      3.130
REMARK INTER + INTRA:          -2.471
REMARK INTER:                  -2.471
REMARK INTRA:                   0.000
REMARK UNBOUND:                 0.000
REMARK SMILES C=C1CC[C@H]2C[C@@H]1C2(C)C
REMARK SMILES IDX 9 1 8 2 5 3 4 4 3 5 2 6 1 7 7 8 6 9 10 10
REMARK H PARENT
REMARK Flexibility Score: inf
ROOT
ATOM      1  C   UNL     1     165.730 173.608 139.120  1.00  0.00     0.012 C 
ATOM      2  C   UNL     1     166.628 174.873 139.203  1.00  0.00    -0.026 C 
ATOM      3  C   UNL     1     167.669 174.971 140.347  1.00  0.00    -0.004 C 
ATOM      4  C   UNL     1     168.294 173.573 140.659  1.00  0.00     0.008 C 
ATOM      5  C   UNL     1     168.840 172.853 139.369  1.00  0.00     0.031 C 
ATOM      6  C   UNL     1     168.482 173.611 138.081  1.00  0.00    -0.074 C 
ATOM      7  C   UNL     1     168.733 173.091 136.875  1.00  0.00     0.008 C 
ATOM      8  C   UNL     1     167.834 174.982 138.239  1.00  0.00     0.021 C 
ATOM      9  C   UNL     1     168.626 175.668 139.365  1.00  0.00     0.012 C 
ATOM     10  C   UNL     1     165.718 176.124 139.138  1.00  0.00     0.012 C 
ENDROOT
TORSDOF 0
ENDMDL
MODEL 4
REMARK VINA RESULT:    -2.400     16.200     17.869
REMARK INTER + INTRA:          -2.400
REMARK INTER:                  -2.400
REMARK INTRA:                   0.000
REMARK UNBOUND:                 0.000
REMARK SMILES C=C1CC[C@H]2C[C@@H]1C2(C)C
REMARK SMILES IDX 9 1 8 2 5 3 4 4 3 5 2 6 1 7 7 8 6 9 10 10
REMARK H PARENT
REMARK Flexibility Score: inf
ROOT
ATOM      1  C   UNL     1     164.137 158.182 141.141  1.00  0.00     0.012 C 
ATOM      2  C   UNL     1     165.158 157.104 140.686  1.00  0.00    -0.026 C 
ATOM      3  C   UNL     1     164.640 155.875 139.896  1.00  0.00    -0.004 C 
ATOM      4  C   UNL     1     163.479 156.278 138.931  1.00  0.00     0.008 C 
ATOM      5  C   UNL     1     163.851 157.506 138.016  1.00  0.00     0.031 C 
ATOM      6  C   UNL     1     165.201 158.131 138.399  1.00  0.00    -0.074 C 
ATOM      7  C   UNL     1     165.627 159.267 137.835  1.00  0.00     0.008 C 
ATOM      8  C   UNL     1     166.034 157.399 139.446  1.00  0.00     0.021 C 
ATOM      9  C   UNL     1     165.933 155.913 139.065  1.00  0.00     0.012 C 
ATOM     10  C   UNL     1     166.009 156.688 141.912  1.00  0.00     0.012 C 
ENDROOT
TORSDOF 0
ENDMDL
MODEL 5
REMARK VINA RESULT:    -2.148      1.261      2.284
REMARK INTER + INTRA:          -2.148
REMARK INTER:                  -2.148
REMARK INTRA:                   0.000
REMARK UNBOUND:                 0.000
REMARK SMILES C=C1CC[C@H]2C[C@@H]1C2(C)C
REMARK SMILES IDX 9 1 8 2 5 3 4 4 3 5 2 6 1 7 7 8 6 9 10 10
REMARK H PARENT
REMARK Flexibility Score: inf
ROOT
ATOM      1  C   UNL     1     168.199 173.632 140.642  1.00  0.00     0.012 C 
ATOM      2  C   UNL     1     167.765 174.894 139.846  1.00  0.00    -0.026 C 
ATOM      3  C   UNL     1     166.752 174.728 138.686  1.00  0.00    -0.004 C 
ATOM      4  C   UNL     1     165.683 173.639 139.025  1.00  0.00     0.008 C 
ATOM      5  C   UNL     1     165.005 173.874 140.428  1.00  0.00     0.031 C 
ATOM      6  C   UNL     1     165.667 175.016 141.213  1.00  0.00    -0.074 C 
ATOM      7  C   UNL     1     165.328 175.278 142.480  1.00  0.00     0.008 C 
ATOM      8  C   UNL     1     166.722 175.841 140.483  1.00  0.00     0.021 C 
ATOM      9  C   UNL     1     166.137 176.082 139.081  1.00  0.00     0.012 C 
ATOM     10  C   UNL     1     169.040 175.651 139.398  1.00  0.00     0.012 C 
ENDROOT
TORSDOF 0
ENDMDL
MODEL 6
REMARK VINA RESULT:    -2.085     15.818     16.961
REMARK INTER + INTRA:          -2.085
REMARK INTER:                  -2.085
REMARK INTRA:                   0.000
REMARK UNBOUND:                 0.000
REMARK SMILES C=C1CC[C@H]2C[C@@H]1C2(C)C
REMARK SMILES IDX 9 1 8 2 5 3 4 4 3 5 2 6 1 7 7 8 6 9 10 10
REMARK H PARENT
REMARK Flexibility Score: inf
ROOT
ATOM      1  C   UNL     1     162.847 156.369 139.422  1.00  0.00     0.012 C 
ATOM      2  C   UNL     1     164.149 157.006 138.862  1.00  0.00    -0.026 C 
ATOM      3  C   UNL     1     164.042 157.976 137.658  1.00  0.00    -0.004 C 
ATOM      4  C   UNL     1     162.749 158.848 137.752  1.00  0.00     0.008 C 
ATOM      5  C   UNL     1     162.599 159.558 139.151  1.00  0.00     0.031 C 
ATOM      6  C   UNL     1     163.664 159.097 140.157  1.00  0.00    -0.074 C 
ATOM      7  C   UNL     1     163.621 159.476 141.439  1.00  0.00     0.008 C 
ATOM      8  C   UNL     1     164.774 158.194 139.630  1.00  0.00     0.021 C 
ATOM      9  C   UNL     1     165.177 158.809 138.279  1.00  0.00     0.012 C 
ATOM     10  C   UNL     1     165.176 155.875 138.605  1.00  0.00     0.012 C 
ENDROOT
TORSDOF 0
ENDMDL
MODEL 7
REMARK VINA RESULT:    -2.030      1.631      3.223
REMARK INTER + INTRA:          -2.030
REMARK INTER:                  -2.030
REMARK INTRA:                   0.000
REMARK UNBOUND:                 0.000
REMARK SMILES C=C1CC[C@H]2C[C@@H]1C2(C)C
REMARK SMILES IDX 9 1 8 2 5 3 4 4 3 5 2 6 1 7 7 8 6 9 10 10
REMARK H PARENT
REMARK Flexibility Score: inf
ROOT
ATOM      1  C   UNL     1     170.910 173.166 139.145  1.00  0.00     0.012 C 
ATOM      2  C   UNL     1     169.681 172.898 138.232  1.00  0.00    -0.026 C 
ATOM      3  C   UNL     1     168.508 172.055 138.794  1.00  0.00    -0.004 C 
ATOM      4  C   UNL     1     168.278 172.353 140.310  1.00  0.00     0.008 C 
ATOM      5  C   UNL     1     168.148 173.895 140.610  1.00  0.00     0.031 C 
ATOM      6  C   UNL     1     168.447 174.758 139.375  1.00  0.00    -0.074 C 
ATOM      7  C   UNL     1     168.527 176.090 139.459  1.00  0.00     0.008 C 
ATOM      8  C   UNL     1     168.642 174.029 138.049  1.00  0.00     0.021 C 
ATOM      9  C   UNL     1     167.537 172.960 138.017  1.00  0.00     0.012 C 
ATOM     10  C   UNL     1     170.190 172.352 136.875  1.00  0.00     0.012 C 
ENDROOT
TORSDOF 0
ENDMDL
