MODEL 1
REMARK VINA RESULT:    -3.348      0.000      0.000
REMARK INTER + INTRA:         -14.087
REMARK INTER:                  -8.438
REMARK INTRA:                  -5.649
REMARK UNBOUND:                -5.649
REMARK SMILES CCCCCCCCCCCCCCCCCCCCCCCCCCCC(=O)[O-]
REMARK SMILES IDX 15 1 16 2 17 3 18 4 19 5 20 6 21 7 22 8 23 9 24 10 25 11
REMARK SMILES IDX 26 12 27 13 28 14 29 15 30 16 14 17 13 18 12 19 11 20 10 21
REMARK SMILES IDX 9 22 8 23 7 24 6 25 5 26 4 27 3 28 2 29 1 30
REMARK H PARENT
REMARK Flexibility Score: inf
ROOT
ATOM      1  C   UNL     1      -1.937   6.067  -8.546  1.00  0.00     0.000 C 
ENDROOT
BRANCH   1   2
ATOM      2  C   UNL     1      -0.878   5.025  -8.146  1.00  0.00     0.000 C 
BRANCH   2   3
ATOM      3  C   UNL     1      -1.279   3.557  -8.390  1.00  0.00     0.000 C 
BRANCH   3   4
ATOM      4  C   UNL     1      -0.236   2.512  -7.941  1.00  0.00     0.000 C 
BRANCH   4   5
ATOM      5  C   UNL     1       0.090   1.430  -8.986  1.00  0.00     0.000 C 
BRANCH   5   6
ATOM      6  C   UNL     1       0.970   1.899 -10.162  1.00  0.00     0.000 C 
BRANCH   6   7
ATOM      7  C   UNL     1       0.413   1.525 -11.551  1.00  0.00     0.000 C 
BRANCH   7   8
ATOM      8  C   UNL     1      -1.063   1.098 -11.499  1.00  0.00     0.000 C 
BRANCH   8   9
ATOM      9  C   UNL     1      -1.662   0.986 -12.906  1.00  0.00     0.000 C 
BRANCH   9  10
ATOM     10  C   UNL     1      -3.096   1.538 -12.989  1.00  0.00     0.000 C 
BRANCH  10  11
ATOM     11  C   UNL     1      -3.817   1.596 -11.627  1.00  0.00     0.000 C 
BRANCH  11  12
ATOM     12  C   UNL     1      -4.925   2.664 -11.601  1.00  0.00     0.006 C 
BRANCH  12  13
ATOM     13  C   UNL     1      -5.023   3.365 -10.241  1.00  0.00     0.053 C 
BRANCH  13  14
ATOM     14  C   UNL     1      -6.059   2.735  -9.361  1.00  0.00     0.041 C 
ATOM     15  O   UNL     1      -7.234   3.187  -9.344  1.00  0.00    -0.550 OA
ATOM     16  O   UNL     1      -5.730   1.643  -8.567  1.00  0.00    -0.550 OA
ENDBRANCH  13  14
ENDBRANCH  12  13
ENDBRANCH  11  12
ENDBRANCH  10  11
ENDBRANCH   9  10
ENDBRANCH   8   9
ENDBRANCH   7   8
ENDBRANCH   6   7
ENDBRANCH   5   6
ENDBRANCH   4   5
ENDBRANCH   3   4
ENDBRANCH   2   3
ENDBRANCH   1   2
BRANCH   1  17
ATOM     17  C   UNL     1      -1.324   7.437  -8.882  1.00  0.00     0.000 C 
BRANCH  17  18
ATOM     18  C   UNL     1       0.005   7.688  -8.151  1.00  0.00     0.000 C 
BRANCH  18  19
ATOM     19  C   UNL     1       1.203   7.754  -9.111  1.00  0.00     0.000 C 
BRANCH  19  20
ATOM     20  C   UNL     1       0.736   7.900 -10.566  1.00  0.00     0.000 C 
BRANCH  20  21
ATOM     21  C   UNL     1       1.375   6.868 -11.513  1.00  0.00     0.000 C 
BRANCH  21  22
ATOM     22  C   UNL     1       0.786   5.445 -11.426  1.00  0.00    -0.000 C 
BRANCH  22  23
ATOM     23  C   UNL     1      -0.290   5.121 -12.475  1.00  0.00    -0.000 C 
BRANCH  23  24
ATOM     24  C   UNL     1      -1.609   4.634 -11.852  1.00  0.00    -0.000 C 
BRANCH  24  25
ATOM     25  C   UNL     1      -2.816   5.481 -12.313  1.00  0.00    -0.000 C 
BRANCH  25  26
ATOM     26  C   UNL     1      -2.533   6.995 -12.358  1.00  0.00    -0.000 C 
BRANCH  26  27
ATOM     27  C   UNL     1      -3.641   7.878 -11.761  1.00  0.00    -0.000 C 
BRANCH  27  28
ATOM     28  C   UNL     1      -4.594   7.095 -10.842  1.00  0.00    -0.000 C 
BRANCH  28  29
ATOM     29  C   UNL     1      -6.064   7.491 -11.046  1.00  0.00    -0.003 C 
ATOM     30  C   UNL     1      -6.862   6.425 -11.796  1.00  0.00     0.004 C 
ENDBRANCH  28  29
ENDBRANCH  27  28
ENDBRANCH  26  27
ENDBRANCH  25  26
ENDBRANCH  24  25
ENDBRANCH  23  24
ENDBRANCH  22  23
ENDBRANCH  21  22
ENDBRANCH  20  21
ENDBRANCH  19  20
ENDBRANCH  18  19
ENDBRANCH  17  18
ENDBRANCH   1  17
TORSDOF 26
ENDMDL
MODEL 2
REMARK VINA RESULT:    -3.339      2.917      6.920
REMARK INTER + INTRA:         -14.062
REMARK INTER:                  -9.486
REMARK INTRA:                  -4.576
REMARK UNBOUND:                -5.649
REMARK SMILES CCCCCCCCCCCCCCCCCCCCCCCCCCCC(=O)[O-]
REMARK SMILES IDX 15 1 16 2 17 3 18 4 19 5 20 6 21 7 22 8 23 9 24 10 25 11
REMARK SMILES IDX 26 12 27 13 28 14 29 15 30 16 14 17 13 18 12 19 11 20 10 21
REMARK SMILES IDX 9 22 8 23 7 24 6 25 5 26 4 27 3 28 2 29 1 30
REMARK H PARENT
REMARK Flexibility Score: inf
ROOT
ATOM      1  C   UNL     1      -1.691   3.219  -8.571  1.00  0.00     0.000 C 
ENDROOT
BRANCH   1   2
ATOM      2  C   UNL     1      -0.748   4.422  -8.398  1.00  0.00     0.000 C 
BRANCH   2   3
ATOM      3  C   UNL     1      -1.446   5.796  -8.335  1.00  0.00     0.000 C 
BRANCH   3   4
ATOM      4  C   UNL     1      -1.238   6.691  -9.575  1.00  0.00     0.000 C 
BRANCH   4   5
ATOM      5  C   UNL     1      -0.782   5.948 -10.843  1.00  0.00     0.000 C 
BRANCH   5   6
ATOM      6  C   UNL     1      -1.860   5.789 -11.933  1.00  0.00     0.000 C 
BRANCH   6   7
ATOM      7  C   UNL     1      -2.930   4.726 -11.608  1.00  0.00     0.000 C 
BRANCH   7   8
ATOM      8  C   UNL     1      -4.357   5.294 -11.651  1.00  0.00     0.000 C 
BRANCH   8   9
ATOM      9  C   UNL     1      -4.765   5.881 -10.294  1.00  0.00     0.000 C 
BRANCH   9  10
ATOM     10  C   UNL     1      -4.765   4.833  -9.167  1.00  0.00     0.000 C 
BRANCH  10  11
ATOM     11  C   UNL     1      -5.840   3.740  -9.338  1.00  0.00     0.000 C 
BRANCH  11  12
ATOM     12  C   UNL     1      -5.253   2.324  -9.208  1.00  0.00     0.006 C 
BRANCH  12  13
ATOM     13  C   UNL     1      -4.866   1.729 -10.567  1.00  0.00     0.053 C 
BRANCH  13  14
ATOM     14  C   UNL     1      -6.048   1.602 -11.479  1.00  0.00     0.041 C 
ATOM     15  O   UNL     1      -5.995   2.061 -12.651  1.00  0.00    -0.550 OA
ATOM     16  O   UNL     1      -7.205   0.971 -11.038  1.00  0.00    -0.550 OA
ENDBRANCH  13  14
ENDBRANCH  12  13
ENDBRANCH  11  12
ENDBRANCH  10  11
ENDBRANCH   9  10
ENDBRANCH   8   9
ENDBRANCH   7   8
ENDBRANCH   6   7
ENDBRANCH   5   6
ENDBRANCH   4   5
ENDBRANCH   3   4
ENDBRANCH   2   3
ENDBRANCH   1   2
BRANCH   1  17
ATOM     17  C   UNL     1      -1.161   2.192  -9.586  1.00  0.00     0.000 C 
BRANCH  17  18
ATOM     18  C   UNL     1       0.260   1.707  -9.254  1.00  0.00     0.000 C 
BRANCH  18  19
ATOM     19  C   UNL     1       1.254   1.963 -10.396  1.00  0.00     0.000 C 
BRANCH  19  20
ATOM     20  C   UNL     1       0.558   2.620 -11.597  1.00  0.00     0.000 C 
BRANCH  20  21
ATOM     21  C   UNL     1       0.523   1.719 -12.844  1.00  0.00     0.000 C 
BRANCH  21  22
ATOM     22  C   UNL     1       0.656   0.208 -12.565  1.00  0.00    -0.000 C 
BRANCH  22  23
ATOM     23  C   UNL     1       1.843  -0.479 -13.259  1.00  0.00    -0.000 C 
BRANCH  23  24
ATOM     24  C   UNL     1       2.923   0.512 -13.726  1.00  0.00    -0.000 C 
BRANCH  24  25
ATOM     25  C   UNL     1       4.148   0.520 -12.785  1.00  0.00    -0.000 C 
BRANCH  25  26
ATOM     26  C   UNL     1       4.458   1.901 -12.177  1.00  0.00    -0.000 C 
BRANCH  26  27
ATOM     27  C   UNL     1       5.540   1.898 -11.084  1.00  0.00    -0.000 C 
BRANCH  27  28
ATOM     28  C   UNL     1       6.904   1.409 -11.600  1.00  0.00    -0.000 C 
BRANCH  28  29
ATOM     29  C   UNL     1       7.562   0.397 -10.650  1.00  0.00    -0.003 C 
ATOM     30  C   UNL     1       6.948  -0.999 -10.759  1.00  0.00     0.004 C 
ENDBRANCH  28  29
ENDBRANCH  27  28
ENDBRANCH  26  27
ENDBRANCH  25  26
ENDBRANCH  24  25
ENDBRANCH  23  24
ENDBRANCH  22  23
ENDBRANCH  21  22
ENDBRANCH  20  21
ENDBRANCH  19  20
ENDBRANCH  18  19
ENDBRANCH  17  18
ENDBRANCH   1  17
TORSDOF 26
ENDMDL
MODEL 3
REMARK VINA RESULT:    -3.331      4.042      7.731
REMARK INTER + INTRA:         -14.044
REMARK INTER:                  -9.999
REMARK INTRA:                  -4.045
REMARK UNBOUND:                -5.649
REMARK SMILES CCCCCCCCCCCCCCCCCCCCCCCCCCCC(=O)[O-]
REMARK SMILES IDX 15 1 16 2 17 3 18 4 19 5 20 6 21 7 22 8 23 9 24 10 25 11
REMARK SMILES IDX 26 12 27 13 28 14 29 15 30 16 14 17 13 18 12 19 11 20 10 21
REMARK SMILES IDX 9 22 8 23 7 24 6 25 5 26 4 27 3 28 2 29 1 30
REMARK H PARENT
REMARK Flexibility Score: inf
ROOT
ATOM      1  C   UNL     1      -0.946   2.678 -12.126  1.00  0.00     0.000 C 
ENDROOT
BRANCH   1   2
ATOM      2  C   UNL     1      -1.200   1.646 -11.014  1.00  0.00     0.000 C 
BRANCH   2   3
ATOM      3  C   UNL     1       0.042   1.256 -10.188  1.00  0.00     0.000 C 
BRANCH   3   4
ATOM      4  C   UNL     1       0.357   2.191  -9.002  1.00  0.00     0.000 C 
BRANCH   4   5
ATOM      5  C   UNL     1      -0.875   2.712  -8.240  1.00  0.00     0.000 C 
BRANCH   5   6
ATOM      6  C   UNL     1      -0.978   4.246  -8.133  1.00  0.00     0.000 C 
BRANCH   6   7
ATOM      7  C   UNL     1      -0.440   5.000  -9.367  1.00  0.00     0.000 C 
BRANCH   7   8
ATOM      8  C   UNL     1      -1.498   5.911 -10.009  1.00  0.00     0.000 C 
BRANCH   8   9
ATOM      9  C   UNL     1      -2.713   6.088  -9.090  1.00  0.00     0.000 C 
BRANCH   9  10
ATOM     10  C   UNL     1      -4.033   5.661  -9.757  1.00  0.00     0.000 C 
BRANCH  10  11
ATOM     11  C   UNL     1      -3.837   4.799 -11.020  1.00  0.00     0.000 C 
BRANCH  11  12
ATOM     12  C   UNL     1      -4.366   3.366 -10.832  1.00  0.00     0.006 C 
BRANCH  12  13
ATOM     13  C   UNL     1      -4.433   2.961  -9.354  1.00  0.00     0.053 C 
BRANCH  13  14
ATOM     14  C   UNL     1      -5.674   2.179  -9.046  1.00  0.00     0.041 C 
ATOM     15  O   UNL     1      -6.301   1.598  -9.970  1.00  0.00    -0.550 OA
ATOM     16  O   UNL     1      -6.131   2.083  -7.737  1.00  0.00    -0.550 OA
ENDBRANCH  13  14
ENDBRANCH  12  13
ENDBRANCH  11  12
ENDBRANCH  10  11
ENDBRANCH   9  10
ENDBRANCH   8   9
ENDBRANCH   7   8
ENDBRANCH   6   7
ENDBRANCH   5   6
ENDBRANCH   4   5
ENDBRANCH   3   4
ENDBRANCH   2   3
ENDBRANCH   1   2
BRANCH   1  17
ATOM     17  C   UNL     1       0.479   2.593 -12.699  1.00  0.00     0.000 C 
BRANCH  17  18
ATOM     18  C   UNL     1       1.269   3.900 -12.524  1.00  0.00     0.000 C 
BRANCH  18  19
ATOM     19  C   UNL     1       2.772   3.659 -12.318  1.00  0.00     0.000 C 
BRANCH  19  20
ATOM     20  C   UNL     1       3.028   2.280 -11.693  1.00  0.00     0.000 C 
BRANCH  20  21
ATOM     21  C   UNL     1       4.243   1.556 -12.302  1.00  0.00     0.000 C 
BRANCH  21  22
ATOM     22  C   UNL     1       3.941   0.179 -12.926  1.00  0.00    -0.000 C 
BRANCH  22  23
ATOM     23  C   UNL     1       5.105  -0.825 -12.882  1.00  0.00    -0.000 C 
BRANCH  23  24
ATOM     24  C   UNL     1       6.406  -0.212 -12.336  1.00  0.00    -0.000 C 
BRANCH  24  25
ATOM     25  C   UNL     1       6.940  -0.983 -11.109  1.00  0.00    -0.000 C 
BRANCH  25  26
ATOM     26  C   UNL     1       8.370  -0.585 -10.695  1.00  0.00    -0.000 C 
BRANCH  26  27
ATOM     27  C   UNL     1       8.918   0.670 -11.395  1.00  0.00    -0.000 C 
BRANCH  27  28
ATOM     28  C   UNL     1       9.552   1.669 -10.412  1.00  0.00    -0.000 C 
BRANCH  28  29
ATOM     29  C   UNL     1       8.505   2.379  -9.540  1.00  0.00    -0.003 C 
ATOM     30  C   UNL     1       7.373   2.993 -10.363  1.00  0.00     0.004 C 
ENDBRANCH  28  29
ENDBRANCH  27  28
ENDBRANCH  26  27
ENDBRANCH  25  26
ENDBRANCH  24  25
ENDBRANCH  23  24
ENDBRANCH  22  23
ENDBRANCH  21  22
ENDBRANCH  20  21
ENDBRANCH  19  20
ENDBRANCH  18  19
ENDBRANCH  17  18
ENDBRANCH   1  17
TORSDOF 26
ENDMDL
MODEL 4
REMARK VINA RESULT:    -3.330      2.081      4.965
REMARK INTER + INTRA:         -14.039
REMARK INTER:                  -8.594
REMARK INTRA:                  -5.445
REMARK UNBOUND:                -5.649
REMARK SMILES CCCCCCCCCCCCCCCCCCCCCCCCCCCC(=O)[O-]
REMARK SMILES IDX 15 1 16 2 17 3 18 4 19 5 20 6 21 7 22 8 23 9 24 10 25 11
REMARK SMILES IDX 26 12 27 13 28 14 29 15 30 16 14 17 13 18 12 19 11 20 10 21
REMARK SMILES IDX 9 22 8 23 7 24 6 25 5 26 4 27 3 28 2 29 1 30
REMARK H PARENT
REMARK Flexibility Score: inf
ROOT
ATOM      1  C   UNL     1      -2.435   3.210  -8.707  1.00  0.00     0.000 C 
ENDROOT
BRANCH   1   2
ATOM      2  C   UNL     1      -1.013   3.243  -8.120  1.00  0.00     0.000 C 
BRANCH   2   3
ATOM      3  C   UNL     1      -0.076   2.123  -8.614  1.00  0.00     0.000 C 
BRANCH   3   4
ATOM      4  C   UNL     1       0.629   2.407  -9.957  1.00  0.00     0.000 C 
BRANCH   4   5
ATOM      5  C   UNL     1       0.491   1.295 -11.011  1.00  0.00     0.000 C 
BRANCH   5   6
ATOM      6  C   UNL     1      -0.613   1.522 -12.063  1.00  0.00     0.000 C 
BRANCH   6   7
ATOM      7  C   UNL     1      -1.167   2.962 -12.091  1.00  0.00     0.000 C 
BRANCH   7   8
ATOM      8  C   UNL     1      -2.692   3.003 -12.269  1.00  0.00     0.000 C 
BRANCH   8   9
ATOM      9  C   UNL     1      -3.191   4.437 -12.490  1.00  0.00     0.000 C 
BRANCH   9  10
ATOM     10  C   UNL     1      -4.726   4.532 -12.547  1.00  0.00     0.000 C 
BRANCH  10  11
ATOM     11  C   UNL     1      -5.311   5.644 -11.653  1.00  0.00     0.000 C 
BRANCH  11  12
ATOM     12  C   UNL     1      -5.947   5.081 -10.370  1.00  0.00     0.006 C 
BRANCH  12  13
ATOM     13  C   UNL     1      -6.438   3.639 -10.549  1.00  0.00     0.053 C 
BRANCH  13  14
ATOM     14  C   UNL     1      -6.254   2.828  -9.302  1.00  0.00     0.041 C 
ATOM     15  O   UNL     1      -5.827   1.646  -9.374  1.00  0.00    -0.550 OA
ATOM     16  O   UNL     1      -6.545   3.380  -8.061  1.00  0.00    -0.550 OA
ENDBRANCH  13  14
ENDBRANCH  12  13
ENDBRANCH  11  12
ENDBRANCH  10  11
ENDBRANCH   9  10
ENDBRANCH   8   9
ENDBRANCH   7   8
ENDBRANCH   6   7
ENDBRANCH   5   6
ENDBRANCH   4   5
ENDBRANCH   3   4
ENDBRANCH   2   3
ENDBRANCH   1   2
BRANCH   1  17
ATOM     17  C   UNL     1      -3.094   4.600  -8.741  1.00  0.00     0.000 C 
BRANCH  17  18
ATOM     18  C   UNL     1      -2.079   5.742  -8.575  1.00  0.00     0.000 C 
BRANCH  18  19
ATOM     19  C   UNL     1      -2.273   6.860  -9.611  1.00  0.00     0.000 C 
BRANCH  19  20
ATOM     20  C   UNL     1      -1.144   6.849 -10.652  1.00  0.00     0.000 C 
BRANCH  20  21
ATOM     21  C   UNL     1       0.123   6.125 -10.163  1.00  0.00     0.000 C 
BRANCH  21  22
ATOM     22  C   UNL     1       1.258   6.014 -11.201  1.00  0.00    -0.000 C 
BRANCH  22  23
ATOM     23  C   UNL     1       0.795   5.920 -12.664  1.00  0.00    -0.000 C 
BRANCH  23  24
ATOM     24  C   UNL     1       1.697   5.016 -13.523  1.00  0.00    -0.000 C 
BRANCH  24  25
ATOM     25  C   UNL     1       2.545   4.057 -12.660  1.00  0.00    -0.000 C 
BRANCH  25  26
ATOM     26  C   UNL     1       4.064   4.281 -12.789  1.00  0.00    -0.000 C 
BRANCH  26  27
ATOM     27  C   UNL     1       4.933   3.311 -11.970  1.00  0.00    -0.000 C 
BRANCH  27  28
ATOM     28  C   UNL     1       4.167   2.049 -11.538  1.00  0.00    -0.000 C 
BRANCH  28  29
ATOM     29  C   UNL     1       4.451   0.849 -12.454  1.00  0.00    -0.003 C 
ATOM     30  C   UNL     1       3.275   0.515 -13.370  1.00  0.00     0.004 C 
ENDBRANCH  28  29
ENDBRANCH  27  28
ENDBRANCH  26  27
ENDBRANCH  25  26
ENDBRANCH  24  25
ENDBRANCH  23  24
ENDBRANCH  22  23
ENDBRANCH  21  22
ENDBRANCH  20  21
ENDBRANCH  19  20
ENDBRANCH  18  19
ENDBRANCH  17  18
ENDBRANCH   1  17
TORSDOF 26
ENDMDL
MODEL 5
REMARK VINA RESULT:    -3.308      3.608      7.663
REMARK INTER + INTRA:         -13.985
REMARK INTER:                  -9.699
REMARK INTRA:                  -4.287
REMARK UNBOUND:                -5.649
REMARK SMILES CCCCCCCCCCCCCCCCCCCCCCCCCCCC(=O)[O-]
REMARK SMILES IDX 15 1 16 2 17 3 18 4 19 5 20 6 21 7 22 8 23 9 24 10 25 11
REMARK SMILES IDX 26 12 27 13 28 14 29 15 30 16 14 17 13 18 12 19 11 20 10 21
REMARK SMILES IDX 9 22 8 23 7 24 6 25 5 26 4 27 3 28 2 29 1 30
REMARK H PARENT
REMARK Flexibility Score: inf
ROOT
ATOM      1  C   UNL     1      -2.148   1.627 -11.951  1.00  0.00     0.000 C 
ENDROOT
BRANCH   1   2
ATOM      2  C   UNL     1      -2.272   2.540 -13.183  1.00  0.00     0.000 C 
BRANCH   2   3
ATOM      3  C   UNL     1      -2.110   4.047 -12.899  1.00  0.00     0.000 C 
BRANCH   3   4
ATOM      4  C   UNL     1      -0.690   4.483 -12.480  1.00  0.00     0.000 C 
BRANCH   4   5
ATOM      5  C   UNL     1      -0.639   5.552 -11.373  1.00  0.00     0.000 C 
BRANCH   5   6
ATOM      6  C   UNL     1       0.171   5.160 -10.121  1.00  0.00     0.000 C 
BRANCH   6   7
ATOM      7  C   UNL     1      -0.612   5.296  -8.798  1.00  0.00     0.000 C 
BRANCH   7   8
ATOM      8  C   UNL     1      -1.060   3.937  -8.237  1.00  0.00     0.000 C 
BRANCH   8   9
ATOM      9  C   UNL     1      -2.352   3.454  -8.908  1.00  0.00     0.000 C 
BRANCH   9  10
ATOM     10  C   UNL     1      -3.513   4.452  -8.752  1.00  0.00     0.000 C 
BRANCH  10  11
ATOM     11  C   UNL     1      -4.090   4.945 -10.094  1.00  0.00     0.000 C 
BRANCH  11  12
ATOM     12  C   UNL     1      -5.533   4.461 -10.319  1.00  0.00     0.006 C 
BRANCH  12  13
ATOM     13  C   UNL     1      -5.585   3.084 -10.993  1.00  0.00     0.053 C 
BRANCH  13  14
ATOM     14  C   UNL     1      -6.231   2.056 -10.114  1.00  0.00     0.041 C 
ATOM     15  O   UNL     1      -7.341   1.558 -10.435  1.00  0.00    -0.550 OA
ATOM     16  O   UNL     1      -5.602   1.643  -8.945  1.00  0.00    -0.550 OA
ENDBRANCH  13  14
ENDBRANCH  12  13
ENDBRANCH  11  12
ENDBRANCH  10  11
ENDBRANCH   9  10
ENDBRANCH   8   9
ENDBRANCH   7   8
ENDBRANCH   6   7
ENDBRANCH   5   6
ENDBRANCH   4   5
ENDBRANCH   3   4
ENDBRANCH   2   3
ENDBRANCH   1   2
BRANCH   1  17
ATOM     17  C   UNL     1      -1.367   0.335 -12.248  1.00  0.00     0.000 C 
BRANCH  17  18
ATOM     18  C   UNL     1       0.116   0.434 -11.856  1.00  0.00     0.000 C 
BRANCH  18  19
ATOM     19  C   UNL     1       0.349   1.365 -10.656  1.00  0.00     0.000 C 
BRANCH  19  20
ATOM     20  C   UNL     1       1.705   2.077 -10.765  1.00  0.00     0.000 C 
BRANCH  20  21
ATOM     21  C   UNL     1       2.303   2.023 -12.182  1.00  0.00     0.000 C 
BRANCH  21  22
ATOM     22  C   UNL     1       3.794   1.633 -12.251  1.00  0.00    -0.000 C 
BRANCH  22  23
ATOM     23  C   UNL     1       4.700   2.344 -11.232  1.00  0.00    -0.000 C 
BRANCH  23  24
ATOM     24  C   UNL     1       6.134   2.553 -11.746  1.00  0.00    -0.000 C 
BRANCH  24  25
ATOM     25  C   UNL     1       7.094   2.999 -10.622  1.00  0.00    -0.000 C 
BRANCH  25  26
ATOM     26  C   UNL     1       8.458   2.283 -10.645  1.00  0.00    -0.000 C 
BRANCH  26  27
ATOM     27  C   UNL     1       8.474   0.902  -9.968  1.00  0.00    -0.000 C 
BRANCH  27  28
ATOM     28  C   UNL     1       8.296  -0.252 -10.969  1.00  0.00    -0.000 C 
BRANCH  28  29
ATOM     29  C   UNL     1       7.020  -1.065 -10.707  1.00  0.00    -0.003 C 
ATOM     30  C   UNL     1       6.188  -1.280 -11.971  1.00  0.00     0.004 C 
ENDBRANCH  28  29
ENDBRANCH  27  28
ENDBRANCH  26  27
ENDBRANCH  25  26
ENDBRANCH  24  25
ENDBRANCH  23  24
ENDBRANCH  22  23
ENDBRANCH  21  22
ENDBRANCH  20  21
ENDBRANCH  19  20
ENDBRANCH  18  19
ENDBRANCH  17  18
ENDBRANCH   1  17
TORSDOF 26
ENDMDL
MODEL 6
REMARK VINA RESULT:    -3.307      1.849      5.241
REMARK INTER + INTRA:         -13.982
REMARK INTER:                  -8.423
REMARK INTRA:                  -5.558
REMARK UNBOUND:                -5.649
REMARK SMILES CCCCCCCCCCCCCCCCCCCCCCCCCCCC(=O)[O-]
REMARK SMILES IDX 15 1 16 2 17 3 18 4 19 5 20 6 21 7 22 8 23 9 24 10 25 11
REMARK SMILES IDX 26 12 27 13 28 14 29 15 30 16 14 17 13 18 12 19 11 20 10 21
REMARK SMILES IDX 9 22 8 23 7 24 6 25 5 26 4 27 3 28 2 29 1 30
REMARK H PARENT
REMARK Flexibility Score: inf
ROOT
ATOM      1  C   UNL     1       0.111   1.770  -8.703  1.00  0.00     0.000 C 
ENDROOT
BRANCH   1   2
ATOM      2  C   UNL     1      -0.678   2.934  -8.079  1.00  0.00     0.000 C 
BRANCH   2   3
ATOM      3  C   UNL     1      -0.627   4.257  -8.869  1.00  0.00     0.000 C 
BRANCH   3   4
ATOM      4  C   UNL     1      -1.157   5.492  -8.110  1.00  0.00     0.000 C 
BRANCH   4   5
ATOM      5  C   UNL     1      -1.722   6.610  -9.004  1.00  0.00     0.000 C 
BRANCH   5   6
ATOM      6  C   UNL     1      -3.174   6.400  -9.478  1.00  0.00     0.000 C 
BRANCH   6   7
ATOM      7  C   UNL     1      -3.473   6.997 -10.869  1.00  0.00     0.000 C 
BRANCH   7   8
ATOM      8  C   UNL     1      -4.220   6.013 -11.784  1.00  0.00     0.000 C 
BRANCH   8   9
ATOM      9  C   UNL     1      -3.260   5.321 -12.761  1.00  0.00     0.000 C 
BRANCH   9  10
ATOM     10  C   UNL     1      -2.623   4.051 -12.172  1.00  0.00     0.000 C 
BRANCH  10  11
ATOM     11  C   UNL     1      -3.646   2.960 -11.799  1.00  0.00     0.000 C 
BRANCH  11  12
ATOM     12  C   UNL     1      -3.468   2.466 -10.353  1.00  0.00     0.006 C 
BRANCH  12  13
ATOM     13  C   UNL     1      -4.537   3.031  -9.410  1.00  0.00     0.053 C 
BRANCH  13  14
ATOM     14  C   UNL     1      -5.637   2.045  -9.157  1.00  0.00     0.041 C 
ATOM     15  O   UNL     1      -6.227   1.494 -10.123  1.00  0.00    -0.550 OA
ATOM     16  O   UNL     1      -6.004   1.728  -7.855  1.00  0.00    -0.550 OA
ENDBRANCH  13  14
ENDBRANCH  12  13
ENDBRANCH  11  12
ENDBRANCH  10  11
ENDBRANCH   9  10
ENDBRANCH   8   9
ENDBRANCH   7   8
ENDBRANCH   6   7
ENDBRANCH   5   6
ENDBRANCH   4   5
ENDBRANCH   3   4
ENDBRANCH   2   3
ENDBRANCH   1   2
BRANCH   1  17
ATOM     17  C   UNL     1       0.624   2.094 -10.117  1.00  0.00     0.000 C 
BRANCH  17  18
ATOM     18  C   UNL     1       0.234   1.024 -11.149  1.00  0.00     0.000 C 
BRANCH  18  19
ATOM     19  C   UNL     1      -0.086   1.622 -12.528  1.00  0.00     0.000 C 
BRANCH  19  20
ATOM     20  C   UNL     1       0.471   0.740 -13.654  1.00  0.00     0.000 C 
BRANCH  20  21
ATOM     21  C   UNL     1       1.421  -0.360 -13.148  1.00  0.00     0.000 C 
BRANCH  21  22
ATOM     22  C   UNL     1       2.890  -0.215 -13.593  1.00  0.00    -0.000 C 
BRANCH  22  23
ATOM     23  C   UNL     1       3.752   0.699 -12.707  1.00  0.00    -0.000 C 
BRANCH  23  24
ATOM     24  C   UNL     1       3.883   2.127 -13.264  1.00  0.00    -0.000 C 
BRANCH  24  25
ATOM     25  C   UNL     1       3.407   3.191 -12.251  1.00  0.00    -0.000 C 
BRANCH  25  26
ATOM     26  C   UNL     1       2.479   4.260 -12.860  1.00  0.00    -0.000 C 
BRANCH  26  27
ATOM     27  C   UNL     1       1.754   5.146 -11.833  1.00  0.00    -0.000 C 
BRANCH  27  28
ATOM     28  C   UNL     1       0.476   5.787 -12.399  1.00  0.00    -0.000 C 
BRANCH  28  29
ATOM     29  C   UNL     1       0.323   7.258 -11.982  1.00  0.00    -0.003 C 
ATOM     30  C   UNL     1      -0.612   8.038 -12.906  1.00  0.00     0.004 C 
ENDBRANCH  28  29
ENDBRANCH  27  28
ENDBRANCH  26  27
ENDBRANCH  25  26
ENDBRANCH  24  25
ENDBRANCH  23  24
ENDBRANCH  22  23
ENDBRANCH  21  22
ENDBRANCH  20  21
ENDBRANCH  19  20
ENDBRANCH  18  19
ENDBRANCH  17  18
ENDBRANCH   1  17
TORSDOF 26
ENDMDL
MODEL 7
REMARK VINA RESULT:    -3.305      2.947      6.842
REMARK INTER + INTRA:         -13.976
REMARK INTER:                  -9.495
REMARK INTRA:                  -4.482
REMARK UNBOUND:                -5.649
REMARK SMILES CCCCCCCCCCCCCCCCCCCCCCCCCCCC(=O)[O-]
REMARK SMILES IDX 15 1 16 2 17 3 18 4 19 5 20 6 21 7 22 8 23 9 24 10 25 11
REMARK SMILES IDX 26 12 27 13 28 14 29 15 30 16 14 17 13 18 12 19 11 20 10 21
REMARK SMILES IDX 9 22 8 23 7 24 6 25 5 26 4 27 3 28 2 29 1 30
REMARK H PARENT
REMARK Flexibility Score: inf
ROOT
ATOM      1  C   UNL     1      -2.620   4.488  -8.950  1.00  0.00     0.000 C 
ENDROOT
BRANCH   1   2
ATOM      2  C   UNL     1      -1.685   5.516  -8.289  1.00  0.00     0.000 C 
BRANCH   2   3
ATOM      3  C   UNL     1      -1.745   6.935  -8.889  1.00  0.00     0.000 C 
BRANCH   3   4
ATOM      4  C   UNL     1      -0.688   7.230  -9.973  1.00  0.00     0.000 C 
BRANCH   4   5
ATOM      5  C   UNL     1       0.583   6.366  -9.894  1.00  0.00     0.000 C 
BRANCH   5   6
ATOM      6  C   UNL     1       0.795   5.402 -11.077  1.00  0.00     0.000 C 
BRANCH   6   7
ATOM      7  C   UNL     1      -0.270   5.526 -12.188  1.00  0.00     0.000 C 
BRANCH   7   8
ATOM      8  C   UNL     1      -1.242   4.336 -12.207  1.00  0.00     0.000 C 
BRANCH   8   9
ATOM      9  C   UNL     1      -2.639   4.763 -12.675  1.00  0.00     0.000 C 
BRANCH   9  10
ATOM     10  C   UNL     1      -3.500   3.576 -13.139  1.00  0.00     0.000 C 
BRANCH  10  11
ATOM     11  C   UNL     1      -2.972   2.206 -12.668  1.00  0.00     0.000 C 
BRANCH  11  12
ATOM     12  C   UNL     1      -3.970   1.487 -11.743  1.00  0.00     0.006 C 
BRANCH  12  13
ATOM     13  C   UNL     1      -5.061   2.430 -11.221  1.00  0.00     0.053 C 
BRANCH  13  14
ATOM     14  C   UNL     1      -5.991   1.736 -10.272  1.00  0.00     0.041 C 
ATOM     15  O   UNL     1      -5.772   1.770  -9.033  1.00  0.00    -0.550 OA
ATOM     16  O   UNL     1      -7.105   1.060 -10.756  1.00  0.00    -0.550 OA
ENDBRANCH  13  14
ENDBRANCH  12  13
ENDBRANCH  11  12
ENDBRANCH  10  11
ENDBRANCH   9  10
ENDBRANCH   8   9
ENDBRANCH   7   8
ENDBRANCH   6   7
ENDBRANCH   5   6
ENDBRANCH   4   5
ENDBRANCH   3   4
ENDBRANCH   2   3
ENDBRANCH   1   2
BRANCH   1  17
ATOM     17  C   UNL     1      -2.068   3.054  -8.881  1.00  0.00     0.000 C 
BRANCH  17  18
ATOM     18  C   UNL     1      -0.654   2.991  -8.279  1.00  0.00     0.000 C 
BRANCH  18  19
ATOM     19  C   UNL     1       0.120   1.740  -8.721  1.00  0.00     0.000 C 
BRANCH  19  20
ATOM     20  C   UNL     1       0.750   1.941 -10.106  1.00  0.00     0.000 C 
BRANCH  20  21
ATOM     21  C   UNL     1       0.115   1.057 -11.194  1.00  0.00     0.000 C 
BRANCH  21  22
ATOM     22  C   UNL     1       0.826   1.087 -12.562  1.00  0.00    -0.000 C 
BRANCH  22  23
ATOM     23  C   UNL     1       1.914   2.163 -12.707  1.00  0.00    -0.000 C 
BRANCH  23  24
ATOM     24  C   UNL     1       3.292   1.580 -13.063  1.00  0.00    -0.000 C 
BRANCH  24  25
ATOM     25  C   UNL     1       3.268   0.037 -13.135  1.00  0.00    -0.000 C 
BRANCH  25  26
ATOM     26  C   UNL     1       4.666  -0.606 -13.192  1.00  0.00    -0.000 C 
BRANCH  26  27
ATOM     27  C   UNL     1       5.723   0.065 -12.299  1.00  0.00    -0.000 C 
BRANCH  27  28
ATOM     28  C   UNL     1       6.995  -0.786 -12.141  1.00  0.00    -0.000 C 
BRANCH  28  29
ATOM     29  C   UNL     1       7.544  -0.758 -10.707  1.00  0.00    -0.003 C 
ATOM     30  C   UNL     1       8.066   0.620 -10.302  1.00  0.00     0.004 C 
ENDBRANCH  28  29
ENDBRANCH  27  28
ENDBRANCH  26  27
ENDBRANCH  25  26
ENDBRANCH  24  25
ENDBRANCH  23  24
ENDBRANCH  22  23
ENDBRANCH  21  22
ENDBRANCH  20  21
ENDBRANCH  19  20
ENDBRANCH  18  19
ENDBRANCH  17  18
ENDBRANCH   1  17
TORSDOF 26
ENDMDL
MODEL 8
REMARK VINA RESULT:    -3.275      3.186      6.939
REMARK INTER + INTRA:         -13.901
REMARK INTER:                  -9.270
REMARK INTRA:                  -4.631
REMARK UNBOUND:                -5.649
REMARK SMILES CCCCCCCCCCCCCCCCCCCCCCCCCCCC(=O)[O-]
REMARK SMILES IDX 15 1 16 2 17 3 18 4 19 5 20 6 21 7 22 8 23 9 24 10 25 11
REMARK SMILES IDX 26 12 27 13 28 14 29 15 30 16 14 17 13 18 12 19 11 20 10 21
REMARK SMILES IDX 9 22 8 23 7 24 6 25 5 26 4 27 3 28 2 29 1 30
REMARK H PARENT
REMARK Flexibility Score: inf
ROOT
ATOM      1  C   UNL     1      -0.518   2.845  -7.896  1.00  0.00     0.000 C 
ENDROOT
BRANCH   1   2
ATOM      2  C   UNL     1      -1.871   3.215  -8.527  1.00  0.00     0.000 C 
BRANCH   2   3
ATOM      3  C   UNL     1      -2.139   4.728  -8.660  1.00  0.00     0.000 C 
BRANCH   3   4
ATOM      4  C   UNL     1      -0.877   5.616  -8.667  1.00  0.00     0.000 C 
BRANCH   4   5
ATOM      5  C   UNL     1      -0.425   6.090 -10.060  1.00  0.00     0.000 C 
BRANCH   5   6
ATOM      6  C   UNL     1       0.645   5.211 -10.736  1.00  0.00     0.000 C 
BRANCH   6   7
ATOM      7  C   UNL     1       0.324   4.845 -12.201  1.00  0.00     0.000 C 
BRANCH   7   8
ATOM      8  C   UNL     1      -1.178   4.938 -12.514  1.00  0.00     0.000 C 
BRANCH   8   9
ATOM      9  C   UNL     1      -1.788   3.549 -12.743  1.00  0.00     0.000 C 
BRANCH   9  10
ATOM     10  C   UNL     1      -3.118   3.353 -11.993  1.00  0.00     0.000 C 
BRANCH  10  11
ATOM     11  C   UNL     1      -3.417   1.882 -11.639  1.00  0.00     0.000 C 
BRANCH  11  12
ATOM     12  C   UNL     1      -4.919   1.633 -11.415  1.00  0.00     0.006 C 
BRANCH  12  13
ATOM     13  C   UNL     1      -5.637   2.871 -10.866  1.00  0.00     0.053 C 
BRANCH  13  14
ATOM     14  C   UNL     1      -5.650   2.890  -9.367  1.00  0.00     0.041 C 
ATOM     15  O   UNL     1      -5.568   3.983  -8.748  1.00  0.00    -0.550 OA
ATOM     16  O   UNL     1      -5.763   1.701  -8.655  1.00  0.00    -0.550 OA
ENDBRANCH  13  14
ENDBRANCH  12  13
ENDBRANCH  11  12
ENDBRANCH  10  11
ENDBRANCH   9  10
ENDBRANCH   8   9
ENDBRANCH   7   8
ENDBRANCH   6   7
ENDBRANCH   5   6
ENDBRANCH   4   5
ENDBRANCH   3   4
ENDBRANCH   2   3
ENDBRANCH   1   2
BRANCH   1  17
ATOM     17  C   UNL     1       0.160   1.658  -8.603  1.00  0.00     0.000 C 
BRANCH  17  18
ATOM     18  C   UNL     1      -0.159   1.601 -10.105  1.00  0.00     0.000 C 
BRANCH  18  19
ATOM     19  C   UNL     1       1.104   1.501 -10.974  1.00  0.00     0.000 C 
BRANCH  19  20
ATOM     20  C   UNL     1       0.788   0.866 -12.336  1.00  0.00     0.000 C 
BRANCH  20  21
ATOM     21  C   UNL     1       1.908   1.066 -13.372  1.00  0.00     0.000 C 
BRANCH  21  22
ATOM     22  C   UNL     1       2.979  -0.044 -13.404  1.00  0.00    -0.000 C 
BRANCH  22  23
ATOM     23  C   UNL     1       4.356   0.365 -12.858  1.00  0.00    -0.000 C 
BRANCH  23  24
ATOM     24  C   UNL     1       4.727   1.820 -13.191  1.00  0.00    -0.000 C 
BRANCH  24  25
ATOM     25  C   UNL     1       4.722   2.721 -11.937  1.00  0.00    -0.000 C 
BRANCH  25  26
ATOM     26  C   UNL     1       5.573   2.176 -10.774  1.00  0.00    -0.000 C 
BRANCH  26  27
ATOM     27  C   UNL     1       7.093   2.234 -11.003  1.00  0.00    -0.000 C 
BRANCH  27  28
ATOM     28  C   UNL     1       7.826   1.002 -10.445  1.00  0.00    -0.000 C 
BRANCH  28  29
ATOM     29  C   UNL     1       7.684  -0.227 -11.355  1.00  0.00    -0.003 C 
ATOM     30  C   UNL     1       6.846  -1.337 -10.720  1.00  0.00     0.004 C 
ENDBRANCH  28  29
ENDBRANCH  27  28
ENDBRANCH  26  27
ENDBRANCH  25  26
ENDBRANCH  24  25
ENDBRANCH  23  24
ENDBRANCH  22  23
ENDBRANCH  21  22
ENDBRANCH  20  21
ENDBRANCH  19  20
ENDBRANCH  18  19
ENDBRANCH  17  18
ENDBRANCH   1  17
TORSDOF 26
ENDMDL
MODEL 9
REMARK VINA RESULT:    -3.261      2.863      6.096
REMARK INTER + INTRA:         -13.867
REMARK INTER:                  -9.562
REMARK INTRA:                  -4.305
REMARK UNBOUND:                -5.649
REMARK SMILES CCCCCCCCCCCCCCCCCCCCCCCCCCCC(=O)[O-]
REMARK SMILES IDX 15 1 16 2 17 3 18 4 19 5 20 6 21 7 22 8 23 9 24 10 25 11
REMARK SMILES IDX 26 12 27 13 28 14 29 15 30 16 14 17 13 18 12 19 11 20 10 21
REMARK SMILES IDX 9 22 8 23 7 24 6 25 5 26 4 27 3 28 2 29 1 30
REMARK H PARENT
REMARK Flexibility Score: inf
ROOT
ATOM      1  C   UNL     1      -1.570   3.448  -8.527  1.00  0.00     0.000 C 
ENDROOT
BRANCH   1   2
ATOM      2  C   UNL     1      -0.640   2.519  -7.727  1.00  0.00     0.000 C 
BRANCH   2   3
ATOM      3  C   UNL     1       0.282   1.625  -8.580  1.00  0.00     0.000 C 
BRANCH   3   4
ATOM      4  C   UNL     1       0.397   2.033 -10.063  1.00  0.00     0.000 C 
BRANCH   4   5
ATOM      5  C   UNL     1      -0.350   1.116 -11.048  1.00  0.00     0.000 C 
BRANCH   5   6
ATOM      6  C   UNL     1      -1.428   1.813 -11.902  1.00  0.00     0.000 C 
BRANCH   6   7
ATOM      7  C   UNL     1      -0.974   3.154 -12.517  1.00  0.00     0.000 C 
BRANCH   7   8
ATOM      8  C   UNL     1      -2.061   4.237 -12.435  1.00  0.00     0.000 C 
BRANCH   8   9
ATOM      9  C   UNL     1      -3.301   3.729 -11.689  1.00  0.00     0.000 C 
BRANCH   9  10
ATOM     10  C   UNL     1      -4.388   4.807 -11.538  1.00  0.00     0.000 C 
BRANCH  10  11
ATOM     11  C   UNL     1      -4.435   5.447 -10.136  1.00  0.00     0.000 C 
BRANCH  11  12
ATOM     12  C   UNL     1      -4.908   4.454  -9.060  1.00  0.00     0.006 C 
BRANCH  12  13
ATOM     13  C   UNL     1      -6.175   3.701  -9.482  1.00  0.00     0.053 C 
BRANCH  13  14
ATOM     14  C   UNL     1      -6.024   2.218  -9.320  1.00  0.00     0.041 C 
ATOM     15  O   UNL     1      -5.736   1.732  -8.195  1.00  0.00    -0.550 OA
ATOM     16  O   UNL     1      -6.211   1.375 -10.408  1.00  0.00    -0.550 OA
ENDBRANCH  13  14
ENDBRANCH  12  13
ENDBRANCH  11  12
ENDBRANCH  10  11
ENDBRANCH   9  10
ENDBRANCH   8   9
ENDBRANCH   7   8
ENDBRANCH   6   7
ENDBRANCH   5   6
ENDBRANCH   4   5
ENDBRANCH   3   4
ENDBRANCH   2   3
ENDBRANCH   1   2
BRANCH   1  17
ATOM     17  C   UNL     1      -1.288   4.937  -8.265  1.00  0.00     0.000 C 
BRANCH  17  18
ATOM     18  C   UNL     1      -0.237   5.521  -9.222  1.00  0.00     0.000 C 
BRANCH  18  19
ATOM     19  C   UNL     1      -0.815   6.604 -10.146  1.00  0.00     0.000 C 
BRANCH  19  20
ATOM     20  C   UNL     1       0.170   6.953 -11.271  1.00  0.00     0.000 C 
BRANCH  20  21
ATOM     21  C   UNL     1       1.411   6.044 -11.291  1.00  0.00     0.000 C 
BRANCH  21  22
ATOM     22  C   UNL     1       1.821   5.523 -12.684  1.00  0.00    -0.000 C 
BRANCH  22  23
ATOM     23  C   UNL     1       3.034   4.579 -12.695  1.00  0.00    -0.000 C 
BRANCH  23  24
ATOM     24  C   UNL     1       2.639   3.093 -12.721  1.00  0.00    -0.000 C 
BRANCH  24  25
ATOM     25  C   UNL     1       3.610   2.220 -11.896  1.00  0.00    -0.000 C 
BRANCH  25  26
ATOM     26  C   UNL     1       4.981   2.878 -11.649  1.00  0.00    -0.000 C 
BRANCH  26  27
ATOM     27  C   UNL     1       5.957   2.039 -10.807  1.00  0.00    -0.000 C 
BRANCH  27  28
ATOM     28  C   UNL     1       6.630   0.919 -11.617  1.00  0.00    -0.000 C 
BRANCH  28  29
ATOM     29  C   UNL     1       7.071  -0.260 -10.736  1.00  0.00    -0.003 C 
ATOM     30  C   UNL     1       8.581  -0.492 -10.775  1.00  0.00     0.004 C 
ENDBRANCH  28  29
ENDBRANCH  27  28
ENDBRANCH  26  27
ENDBRANCH  25  26
ENDBRANCH  24  25
ENDBRANCH  23  24
ENDBRANCH  22  23
ENDBRANCH  21  22
ENDBRANCH  20  21
ENDBRANCH  19  20
ENDBRANCH  18  19
ENDBRANCH  17  18
ENDBRANCH   1  17
TORSDOF 26
ENDMDL
