MODEL 1
REMARK VINA RESULT:    -7.309      0.000      0.000
REMARK INTER + INTRA:          -7.522
REMARK INTER:                  -7.522
REMARK INTRA:                   0.000
REMARK UNBOUND:                 0.000
REMARK SMILES C[C@@H]1CC[C@@]2(OC1)O[C@H]1C[C@H]3[C@@H]4CC=C5C[C@@H](O)CC[C@@]5(C)[C@H]4CC[C@@]3(C)[C@H]1[C@@H]2C
REMARK SMILES IDX 1 1 2 2 3 3 4 4 5 5 29 6 28 7 9 8 8 9 10 10 11 11 26 12
REMARK SMILES IDX 25 13 24 14 23 15 12 16 13 17 14 18 15 19 21 20 20 21 19 22
REMARK SMILES IDX 17 23 16 24 22 25 27 26 30 27 6 28 7 29 18 30
REMARK H PARENT 18 31
REMARK Flexibility Score: inf
ROOT
ATOM      1  C   UNL     1       8.337  22.088  23.875  1.00  0.00     0.010 C 
ATOM      2  C   UNL     1       9.333  22.573  22.813  1.00  0.00     0.012 C 
ATOM      3  C   UNL     1      10.000  23.901  23.250  1.00  0.00     0.011 C 
ATOM      4  C   UNL     1      10.060  24.899  22.103  1.00  0.00     0.066 C 
ATOM      5  C   UNL     1       8.629  25.117  21.515  1.00  0.00     0.171 C 
ATOM      6  C   UNL     1       8.702  25.887  20.161  1.00  0.00     0.052 C 
ATOM      7  C   UNL     1       7.749  27.067  20.346  1.00  0.00     0.033 C 
ATOM      8  C   UNL     1       7.179  26.881  21.735  1.00  0.00     0.126 C 
ATOM      9  O   UNL     1       7.938  25.931  22.448  1.00  0.00    -0.346 OA
ATOM     10  C   UNL     1       7.235  28.241  22.429  1.00  0.00     0.037 C 
ATOM     11  C   UNL     1       7.425  29.267  21.311  1.00  0.00     0.002 C 
ATOM     12  C   UNL     1       8.307  28.536  20.267  1.00  0.00    -0.024 C 
ATOM     13  C   UNL     1       9.825  28.647  20.633  1.00  0.00     0.008 C 
ATOM     14  C   UNL     1      10.293  29.957  21.304  1.00  0.00     0.005 C 
ATOM     15  C   UNL     1       9.273  31.109  21.259  1.00  0.00     0.003 C 
ATOM     16  C   UNL     1       7.939  30.639  21.869  1.00  0.00     0.000 C 
ATOM     17  C   UNL     1       6.900  31.744  21.626  1.00  0.00     0.031 C 
ATOM     18  C   UNL     1       7.332  33.007  22.302  1.00  0.00    -0.027 C 
ATOM     19  C   UNL     1       8.630  33.368  22.386  1.00  0.00    -0.065 C 
ATOM     20  C   UNL     1       9.790  32.473  21.888  1.00  0.00    -0.008 C 
ATOM     21  C   UNL     1      10.744  32.229  23.101  1.00  0.00     0.014 C 
ATOM     22  C   UNL     1      11.125  33.504  23.875  1.00  0.00     0.033 C 
ATOM     23  C   UNL     1       9.889  34.281  24.346  1.00  0.00     0.118 C 
ATOM     24  C   UNL     1       8.989  34.625  23.154  1.00  0.00     0.063 C 
ATOM     25  C   UNL     1      10.557  33.239  20.783  1.00  0.00     0.016 C 
ATOM     26  C   UNL     1       8.060  29.049  18.825  1.00  0.00     0.012 C 
ATOM     27  C   UNL     1       8.328  25.042  18.931  1.00  0.00     0.014 C 
ATOM     28  O   UNL     1       7.865  23.906  21.370  1.00  0.00    -0.349 OA
ATOM     29  C   UNL     1       8.644  22.722  21.437  1.00  0.00     0.167 C 
ENDROOT
BRANCH  23  30
ATOM     30  O   UNL     1       9.177  33.511  25.276  1.00  0.00    -0.393 OA
ATOM     31  H   UNL     1       9.829  33.215  25.963  1.00  0.00     0.210 HD
ENDBRANCH  23  30
TORSDOF 1
ENDMDL
MODEL 2
REMARK VINA RESULT:    -6.315      4.039     10.712
REMARK INTER + INTRA:          -6.500
REMARK INTER:                  -6.500
REMARK INTRA:                   0.000
REMARK UNBOUND:                 0.000
REMARK SMILES C[C@@H]1CC[C@@]2(OC1)O[C@H]1C[C@H]3[C@@H]4CC=C5C[C@@H](O)CC[C@@]5(C)[C@H]4CC[C@@]3(C)[C@H]1[C@@H]2C
REMARK SMILES IDX 1 1 2 2 3 3 4 4 5 5 29 6 28 7 9 8 8 9 10 10 11 11 26 12
REMARK SMILES IDX 25 13 24 14 23 15 12 16 13 17 14 18 15 19 21 20 20 21 19 22
REMARK SMILES IDX 17 23 16 24 22 25 27 26 30 27 6 28 7 29 18 30
REMARK H PARENT 18 31
REMARK Flexibility Score: inf
ROOT
ATOM      1  C   UNL     1      11.365  28.624  19.297  1.00  0.00     0.010 C 
ATOM      2  C   UNL     1      11.258  28.270  20.788  1.00  0.00     0.012 C 
ATOM      3  C   UNL     1      12.171  27.069  21.135  1.00  0.00     0.011 C 
ATOM      4  C   UNL     1      11.457  26.066  22.028  1.00  0.00     0.066 C 
ATOM      5  C   UNL     1      10.117  25.621  21.360  1.00  0.00     0.171 C 
ATOM      6  C   UNL     1       9.228  24.840  22.376  1.00  0.00     0.052 C 
ATOM      7  C   UNL     1       8.891  23.534  21.657  1.00  0.00     0.033 C 
ATOM      8  C   UNL     1       9.554  23.664  20.303  1.00  0.00     0.126 C 
ATOM      9  O   UNL     1      10.473  24.733  20.313  1.00  0.00    -0.346 OA
ATOM     10  C   UNL     1      10.273  22.344  20.027  1.00  0.00     0.037 C 
ATOM     11  C   UNL     1       9.668  21.333  21.003  1.00  0.00     0.002 C 
ATOM     12  C   UNL     1       9.360  22.165  22.274  1.00  0.00    -0.024 C 
ATOM     13  C   UNL     1      10.626  22.293  23.186  1.00  0.00     0.008 C 
ATOM     14  C   UNL     1      11.587  21.084  23.229  1.00  0.00     0.005 C 
ATOM     15  C   UNL     1      11.030  19.791  22.607  1.00  0.00     0.003 C 
ATOM     16  C   UNL     1      10.579  20.068  21.160  1.00  0.00     0.000 C 
ATOM     17  C   UNL     1       9.855  18.813  20.649  1.00  0.00     0.031 C 
ATOM     18  C   UNL     1      10.790  17.645  20.659  1.00  0.00    -0.027 C 
ATOM     19  C   UNL     1      11.730  17.487  21.614  1.00  0.00    -0.065 C 
ATOM     20  C   UNL     1      11.996  18.535  22.720  1.00  0.00    -0.008 C 
ATOM     21  C   UNL     1      13.500  18.947  22.620  1.00  0.00     0.014 C 
ATOM     22  C   UNL     1      14.478  17.762  22.528  1.00  0.00     0.033 C 
ATOM     23  C   UNL     1      14.130  16.819  21.370  1.00  0.00     0.118 C 
ATOM     24  C   UNL     1      12.688  16.316  21.507  1.00  0.00     0.063 C 
ATOM     25  C   UNL     1      11.742  17.869  24.095  1.00  0.00     0.016 C 
ATOM     26  C   UNL     1       8.169  21.588  23.082  1.00  0.00     0.012 C 
ATOM     27  C   UNL     1       7.959  25.591  22.814  1.00  0.00     0.014 C 
ATOM     28  O   UNL     1       9.375  26.699  20.761  1.00  0.00    -0.349 OA
ATOM     29  C   UNL     1       9.790  27.988  21.183  1.00  0.00     0.167 C 
ENDROOT
BRANCH  23  30
ATOM     30  O   UNL     1      14.286  17.494  20.152  1.00  0.00    -0.393 OA
ATOM     31  H   UNL     1      13.705  17.033  19.492  1.00  0.00     0.210 HD
ENDBRANCH  23  30
TORSDOF 1
ENDMDL
MODEL 3
REMARK VINA RESULT:    -6.199      1.926      2.987
REMARK INTER + INTRA:          -6.381
REMARK INTER:                  -6.381
REMARK INTRA:                   0.000
REMARK UNBOUND:                 0.000
REMARK SMILES C[C@@H]1CC[C@@]2(OC1)O[C@H]1C[C@H]3[C@@H]4CC=C5C[C@@H](O)CC[C@@]5(C)[C@H]4CC[C@@]3(C)[C@H]1[C@@H]2C
REMARK SMILES IDX 1 1 2 2 3 3 4 4 5 5 29 6 28 7 9 8 8 9 10 10 11 11 26 12
REMARK SMILES IDX 25 13 24 14 23 15 12 16 13 17 14 18 15 19 21 20 20 21 19 22
REMARK SMILES IDX 17 23 16 24 22 25 27 26 30 27 6 28 7 29 18 30
REMARK H PARENT 18 31
REMARK Flexibility Score: inf
ROOT
ATOM      1  C   UNL     1      12.809  21.163  21.430  1.00  0.00     0.010 C 
ATOM      2  C   UNL     1      12.148  21.784  20.191  1.00  0.00     0.012 C 
ATOM      3  C   UNL     1      12.285  23.326  20.209  1.00  0.00     0.011 C 
ATOM      4  C   UNL     1      10.980  24.007  19.824  1.00  0.00     0.066 C 
ATOM      5  C   UNL     1       9.827  23.501  20.748  1.00  0.00     0.171 C 
ATOM      6  C   UNL     1       8.439  23.942  20.188  1.00  0.00     0.052 C 
ATOM      7  C   UNL     1       7.763  24.644  21.364  1.00  0.00     0.033 C 
ATOM      8  C   UNL     1       8.758  24.530  22.499  1.00  0.00     0.126 C 
ATOM      9  O   UNL     1      10.017  24.136  22.002  1.00  0.00    -0.346 OA
ATOM     10  C   UNL     1       8.849  25.906  23.157  1.00  0.00     0.037 C 
ATOM     11  C   UNL     1       7.610  26.670  22.687  1.00  0.00     0.002 C 
ATOM     12  C   UNL     1       7.374  26.164  21.241  1.00  0.00    -0.024 C 
ATOM     13  C   UNL     1       8.254  26.953  20.215  1.00  0.00     0.008 C 
ATOM     14  C   UNL     1       8.512  28.446  20.511  1.00  0.00     0.005 C 
ATOM     15  C   UNL     1       7.628  29.050  21.618  1.00  0.00     0.003 C 
ATOM     16  C   UNL     1       7.769  28.215  22.904  1.00  0.00     0.000 C 
ATOM     17  C   UNL     1       6.730  28.729  23.911  1.00  0.00     0.031 C 
ATOM     18  C   UNL     1       6.994  30.167  24.227  1.00  0.00    -0.027 C 
ATOM     19  C   UNL     1       7.457  31.032  23.300  1.00  0.00    -0.065 C 
ATOM     20  C   UNL     1       7.850  30.603  21.866  1.00  0.00    -0.008 C 
ATOM     21  C   UNL     1       9.340  31.019  21.647  1.00  0.00     0.014 C 
ATOM     22  C   UNL     1       9.661  32.468  22.058  1.00  0.00     0.033 C 
ATOM     23  C   UNL     1       9.260  32.755  23.510  1.00  0.00     0.118 C 
ATOM     24  C   UNL     1       7.771  32.454  23.721  1.00  0.00     0.063 C 
ATOM     25  C   UNL     1       6.955  31.372  20.864  1.00  0.00     0.016 C 
ATOM     26  C   UNL     1       5.879  26.228  20.832  1.00  0.00     0.012 C 
ATOM     27  C   UNL     1       7.580  22.787  19.646  1.00  0.00     0.014 C 
ATOM     28  O   UNL     1       9.849  22.083  20.990  1.00  0.00    -0.349 OA
ATOM     29  C   UNL     1      10.666  21.357  20.085  1.00  0.00     0.167 C 
ENDROOT
BRANCH  23  30
ATOM     30  O   UNL     1      10.033  31.969  24.375  1.00  0.00    -0.393 OA
ATOM     31  H   UNL     1      10.743  31.548  23.824  1.00  0.00     0.210 HD
ENDBRANCH  23  30
TORSDOF 1
ENDMDL
MODEL 4
REMARK VINA RESULT:    -6.165      3.158      8.492
REMARK INTER + INTRA:          -6.346
REMARK INTER:                  -6.346
REMARK INTRA:                   0.000
REMARK UNBOUND:                 0.000
REMARK SMILES C[C@@H]1CC[C@@]2(OC1)O[C@H]1C[C@H]3[C@@H]4CC=C5C[C@@H](O)CC[C@@]5(C)[C@H]4CC[C@@]3(C)[C@H]1[C@@H]2C
REMARK SMILES IDX 1 1 2 2 3 3 4 4 5 5 29 6 28 7 9 8 8 9 10 10 11 11 26 12
REMARK SMILES IDX 25 13 24 14 23 15 12 16 13 17 14 18 15 19 21 20 20 21 19 22
REMARK SMILES IDX 17 23 16 24 22 25 27 26 30 27 6 28 7 29 18 30
REMARK H PARENT 18 31
REMARK Flexibility Score: inf
ROOT
ATOM      1  C   UNL     1      14.932  33.140  22.256  1.00  0.00     0.010 C 
ATOM      2  C   UNL     1      13.498  33.129  21.708  1.00  0.00     0.012 C 
ATOM      3  C   UNL     1      12.637  32.071  22.441  1.00  0.00     0.011 C 
ATOM      4  C   UNL     1      11.787  31.271  21.466  1.00  0.00     0.066 C 
ATOM      5  C   UNL     1      12.698  30.637  20.367  1.00  0.00     0.171 C 
ATOM      6  C   UNL     1      11.836  30.073  19.195  1.00  0.00     0.052 C 
ATOM      7  C   UNL     1      12.306  28.627  19.042  1.00  0.00     0.033 C 
ATOM      8  C   UNL     1      13.401  28.472  20.076  1.00  0.00     0.126 C 
ATOM      9  O   UNL     1      13.366  29.550  20.985  1.00  0.00    -0.346 OA
ATOM     10  C   UNL     1      13.148  27.152  20.802  1.00  0.00     0.037 C 
ATOM     11  C   UNL     1      12.189  26.366  19.907  1.00  0.00     0.002 C 
ATOM     12  C   UNL     1      11.286  27.452  19.268  1.00  0.00    -0.024 C 
ATOM     13  C   UNL     1      10.098  27.829  20.216  1.00  0.00     0.008 C 
ATOM     14  C   UNL     1       9.504  26.697  21.083  1.00  0.00     0.005 C 
ATOM     15  C   UNL     1       9.951  25.277  20.692  1.00  0.00     0.003 C 
ATOM     16  C   UNL     1      11.490  25.203  20.692  1.00  0.00     0.000 C 
ATOM     17  C   UNL     1      11.892  23.840  20.110  1.00  0.00     0.031 C 
ATOM     18  C   UNL     1      11.346  22.739  20.964  1.00  0.00    -0.027 C 
ATOM     19  C   UNL     1      10.148  22.836  21.579  1.00  0.00    -0.065 C 
ATOM     20  C   UNL     1       9.280  24.116  21.543  1.00  0.00    -0.008 C 
ATOM     21  C   UNL     1       9.029  24.550  23.022  1.00  0.00     0.014 C 
ATOM     22  C   UNL     1       8.561  23.412  23.948  1.00  0.00     0.033 C 
ATOM     23  C   UNL     1       9.525  22.219  23.923  1.00  0.00     0.118 C 
ATOM     24  C   UNL     1       9.703  21.707  22.489  1.00  0.00     0.063 C 
ATOM     25  C   UNL     1       7.926  23.768  20.878  1.00  0.00     0.016 C 
ATOM     26  C   UNL     1      10.751  27.028  17.875  1.00  0.00     0.012 C 
ATOM     27  C   UNL     1      11.968  30.856  17.878  1.00  0.00     0.014 C 
ATOM     28  O   UNL     1      13.715  31.524  19.867  1.00  0.00    -0.349 OA
ATOM     29  C   UNL     1      13.494  32.890  20.181  1.00  0.00     0.167 C 
ENDROOT
BRANCH  23  30
ATOM     30  O   UNL     1      10.764  22.607  24.450  1.00  0.00    -0.393 OA
ATOM     31  H   UNL     1      11.454  22.338  23.788  1.00  0.00     0.210 HD
ENDBRANCH  23  30
TORSDOF 1
ENDMDL
MODEL 5
REMARK VINA RESULT:    -6.096      3.106      8.890
REMARK INTER + INTRA:          -6.274
REMARK INTER:                  -6.274
REMARK INTRA:                   0.000
REMARK UNBOUND:                 0.000
REMARK SMILES C[C@@H]1CC[C@@]2(OC1)O[C@H]1C[C@H]3[C@@H]4CC=C5C[C@@H](O)CC[C@@]5(C)[C@H]4CC[C@@]3(C)[C@H]1[C@@H]2C
REMARK SMILES IDX 1 1 2 2 3 3 4 4 5 5 29 6 28 7 9 8 8 9 10 10 11 11 26 12
REMARK SMILES IDX 25 13 24 14 23 15 12 16 13 17 14 18 15 19 21 20 20 21 19 22
REMARK SMILES IDX 17 23 16 24 22 25 27 26 30 27 6 28 7 29 18 30
REMARK H PARENT 18 31
REMARK Flexibility Score: inf
ROOT
ATOM      1  C   UNL     1       7.013  30.352  24.355  1.00  0.00     0.010 C 
ATOM      2  C   UNL     1       6.123  29.391  23.553  1.00  0.00     0.012 C 
ATOM      3  C   UNL     1       6.419  27.919  23.935  1.00  0.00     0.011 C 
ATOM      4  C   UNL     1       6.507  27.030  22.704  1.00  0.00     0.066 C 
ATOM      5  C   UNL     1       7.561  27.610  21.707  1.00  0.00     0.171 C 
ATOM      6  C   UNL     1       7.456  26.902  20.321  1.00  0.00     0.052 C 
ATOM      7  C   UNL     1       8.878  26.425  20.031  1.00  0.00     0.033 C 
ATOM      8  C   UNL     1       9.690  26.909  21.213  1.00  0.00     0.126 C 
ATOM      9  O   UNL     1       8.834  27.310  22.259  1.00  0.00    -0.346 OA
ATOM     10  C   UNL     1      10.571  25.743  21.660  1.00  0.00     0.037 C 
ATOM     11  C   UNL     1      10.580  24.760  20.488  1.00  0.00     0.002 C 
ATOM     12  C   UNL     1       9.163  24.886  19.872  1.00  0.00    -0.024 C 
ATOM     13  C   UNL     1       8.135  23.979  20.629  1.00  0.00     0.008 C 
ATOM     14  C   UNL     1       8.656  22.634  21.179  1.00  0.00     0.005 C 
ATOM     15  C   UNL     1      10.042  22.212  20.658  1.00  0.00     0.003 C 
ATOM     16  C   UNL     1      11.059  23.336  20.934  1.00  0.00     0.000 C 
ATOM     17  C   UNL     1      12.371  22.962  20.227  1.00  0.00     0.031 C 
ATOM     18  C   UNL     1      12.897  21.674  20.779  1.00  0.00    -0.027 C 
ATOM     19  C   UNL     1      12.080  20.672  21.167  1.00  0.00    -0.065 C 
ATOM     20  C   UNL     1      10.538  20.794  21.173  1.00  0.00    -0.008 C 
ATOM     21  C   UNL     1      10.053  20.502  22.629  1.00  0.00     0.014 C 
ATOM     22  C   UNL     1      10.659  19.234  23.258  1.00  0.00     0.033 C 
ATOM     23  C   UNL     1      12.192  19.252  23.224  1.00  0.00     0.118 C 
ATOM     24  C   UNL     1      12.692  19.431  21.786  1.00  0.00     0.063 C 
ATOM     25  C   UNL     1       9.960  19.719  20.220  1.00  0.00     0.016 C 
ATOM     26  C   UNL     1       9.149  24.566  18.355  1.00  0.00     0.012 C 
ATOM     27  C   UNL     1       6.916  27.798  19.193  1.00  0.00     0.014 C 
ATOM     28  O   UNL     1       7.499  29.039  21.554  1.00  0.00    -0.349 OA
ATOM     29  C   UNL     1       6.296  29.618  22.034  1.00  0.00     0.167 C 
ENDROOT
BRANCH  23  30
ATOM     30  O   UNL     1      12.666  20.298  24.028  1.00  0.00    -0.393 OA
ATOM     31  H   UNL     1      13.601  20.477  23.745  1.00  0.00     0.210 HD
ENDBRANCH  23  30
TORSDOF 1
ENDMDL
MODEL 6
REMARK VINA RESULT:    -5.926      3.767     10.378
REMARK INTER + INTRA:          -6.099
REMARK INTER:                  -6.099
REMARK INTRA:                   0.000
REMARK UNBOUND:                 0.000
REMARK SMILES C[C@@H]1CC[C@@]2(OC1)O[C@H]1C[C@H]3[C@@H]4CC=C5C[C@@H](O)CC[C@@]5(C)[C@H]4CC[C@@]3(C)[C@H]1[C@@H]2C
REMARK SMILES IDX 1 1 2 2 3 3 4 4 5 5 29 6 28 7 9 8 8 9 10 10 11 11 26 12
REMARK SMILES IDX 25 13 24 14 23 15 12 16 13 17 14 18 15 19 21 20 20 21 19 22
REMARK SMILES IDX 17 23 16 24 22 25 27 26 30 27 6 28 7 29 18 30
REMARK H PARENT 18 31
REMARK Flexibility Score: inf
ROOT
ATOM      1  C   UNL     1       6.045  28.211  23.845  1.00  0.00     0.010 C 
ATOM      2  C   UNL     1       6.232  27.710  22.406  1.00  0.00     0.012 C 
ATOM      3  C   UNL     1       5.971  26.185  22.316  1.00  0.00     0.011 C 
ATOM      4  C   UNL     1       7.027  25.489  21.471  1.00  0.00     0.066 C 
ATOM      5  C   UNL     1       8.450  25.817  22.025  1.00  0.00     0.171 C 
ATOM      6  C   UNL     1       9.551  25.374  21.012  1.00  0.00     0.052 C 
ATOM      7  C   UNL     1      10.494  24.501  21.838  1.00  0.00     0.033 C 
ATOM      8  C   UNL     1       9.915  24.531  23.235  1.00  0.00     0.126 C 
ATOM      9  O   UNL     1       8.603  25.047  23.206  1.00  0.00    -0.346 OA
ATOM     10  C   UNL     1       9.911  23.092  23.751  1.00  0.00     0.037 C 
ATOM     11  C   UNL     1      10.871  22.325  22.839  1.00  0.00     0.002 C 
ATOM     12  C   UNL     1      10.690  22.989  21.450  1.00  0.00    -0.024 C 
ATOM     13  C   UNL     1       9.469  22.377  20.685  1.00  0.00     0.008 C 
ATOM     14  C   UNL     1       9.185  20.874  20.901  1.00  0.00     0.005 C 
ATOM     15  C   UNL     1      10.312  20.095  21.604  1.00  0.00     0.003 C 
ATOM     16  C   UNL     1      10.651  20.777  22.944  1.00  0.00     0.000 C 
ATOM     17  C   UNL     1      11.902  20.091  23.512  1.00  0.00     0.031 C 
ATOM     18  C   UNL     1      11.623  18.641  23.754  1.00  0.00    -0.027 C 
ATOM     19  C   UNL     1      10.821  17.919  22.943  1.00  0.00    -0.065 C 
ATOM     20  C   UNL     1      10.041  18.538  21.758  1.00  0.00    -0.008 C 
ATOM     21  C   UNL     1       8.527  18.230  21.985  1.00  0.00     0.014 C 
ATOM     22  C   UNL     1       8.222  16.762  22.334  1.00  0.00     0.033 C 
ATOM     23  C   UNL     1       9.028  16.282  23.548  1.00  0.00     0.118 C 
ATOM     24  C   UNL     1      10.529  16.476  23.302  1.00  0.00     0.063 C 
ATOM     25  C   UNL     1      10.510  17.848  20.453  1.00  0.00     0.016 C 
ATOM     26  C   UNL     1      11.972  22.895  20.582  1.00  0.00     0.012 C 
ATOM     27  C   UNL     1      10.298  26.539  20.340  1.00  0.00     0.014 C 
ATOM     28  O   UNL     1       8.630  27.195  22.398  1.00  0.00    -0.349 OA
ATOM     29  C   UNL     1       7.639  28.067  21.876  1.00  0.00     0.167 C 
ENDROOT
BRANCH  23  30
ATOM     30  O   UNL     1       8.634  16.998  24.686  1.00  0.00    -0.393 OA
ATOM     31  H   UNL     1       8.047  17.735  24.373  1.00  0.00     0.210 HD
ENDBRANCH  23  30
TORSDOF 1
ENDMDL
MODEL 7
REMARK VINA RESULT:    -5.923      3.067      4.434
REMARK INTER + INTRA:          -6.096
REMARK INTER:                  -6.096
REMARK INTRA:                   0.000
REMARK UNBOUND:                 0.000
REMARK SMILES C[C@@H]1CC[C@@]2(OC1)O[C@H]1C[C@H]3[C@@H]4CC=C5C[C@@H](O)CC[C@@]5(C)[C@H]4CC[C@@]3(C)[C@H]1[C@@H]2C
REMARK SMILES IDX 1 1 2 2 3 3 4 4 5 5 29 6 28 7 9 8 8 9 10 10 11 11 26 12
REMARK SMILES IDX 25 13 24 14 23 15 12 16 13 17 14 18 15 19 21 20 20 21 19 22
REMARK SMILES IDX 17 23 16 24 22 25 27 26 30 27 6 28 7 29 18 30
REMARK H PARENT 18 31
REMARK Flexibility Score: inf
ROOT
ATOM      1  C   UNL     1      11.817  19.337  23.891  1.00  0.00     0.010 C 
ATOM      2  C   UNL     1      11.909  19.532  22.370  1.00  0.00     0.012 C 
ATOM      3  C   UNL     1      12.761  20.779  22.027  1.00  0.00     0.011 C 
ATOM      4  C   UNL     1      12.110  21.615  20.935  1.00  0.00     0.066 C 
ATOM      5  C   UNL     1      10.651  21.986  21.351  1.00  0.00     0.171 C 
ATOM      6  C   UNL     1       9.864  22.573  20.139  1.00  0.00     0.052 C 
ATOM      7  C   UNL     1       9.313  23.902  20.653  1.00  0.00     0.033 C 
ATOM      8  C   UNL     1       9.771  23.971  22.094  1.00  0.00     0.126 C 
ATOM      9  O   UNL     1      10.767  23.002  22.334  1.00  0.00    -0.346 OA
ATOM     10  C   UNL     1      10.326  25.376  22.322  1.00  0.00     0.037 C 
ATOM     11  C   UNL     1       9.793  26.223  21.164  1.00  0.00     0.002 C 
ATOM     12  C   UNL     1       9.755  25.245  19.963  1.00  0.00    -0.024 C 
ATOM     13  C   UNL     1      11.152  25.156  19.261  1.00  0.00     0.008 C 
ATOM     14  C   UNL     1      12.002  26.444  19.222  1.00  0.00     0.005 C 
ATOM     15  C   UNL     1      11.250  27.730  19.611  1.00  0.00     0.003 C 
ATOM     16  C   UNL     1      10.609  27.551  21.000  1.00  0.00     0.000 C 
ATOM     17  C   UNL     1       9.712  28.771  21.261  1.00  0.00     0.031 C 
ATOM     18  C   UNL     1      10.536  30.020  21.256  1.00  0.00    -0.027 C 
ATOM     19  C   UNL     1      11.595  30.178  20.434  1.00  0.00    -0.065 C 
ATOM     20  C   UNL     1      12.114  29.059  19.499  1.00  0.00    -0.008 C 
ATOM     21  C   UNL     1      13.613  28.810  19.858  1.00  0.00     0.014 C 
ATOM     22  C   UNL     1      14.463  30.090  19.958  1.00  0.00     0.033 C 
ATOM     23  C   UNL     1      13.864  31.102  20.943  1.00  0.00     0.118 C 
ATOM     24  C   UNL     1      12.423  31.443  20.546  1.00  0.00     0.063 C 
ATOM     25  C   UNL     1      12.017  29.560  18.038  1.00  0.00     0.016 C 
ATOM     26  C   UNL     1       8.657  25.619  18.934  1.00  0.00     0.012 C 
ATOM     27  C   UNL     1       8.745  21.661  19.609  1.00  0.00     0.014 C 
ATOM     28  O   UNL     1       9.920  20.903  21.954  1.00  0.00    -0.349 OA
ATOM     29  C   UNL     1      10.501  19.627  21.740  1.00  0.00     0.167 C 
ENDROOT
BRANCH  23  30
ATOM     30  O   UNL     1      13.889  30.567  22.238  1.00  0.00    -0.393 OA
ATOM     31  H   UNL     1      14.790  30.171  22.368  1.00  0.00     0.210 HD
ENDBRANCH  23  30
TORSDOF 1
ENDMDL
MODEL 8
REMARK VINA RESULT:    -5.910      3.179      8.863
REMARK INTER + INTRA:          -6.083
REMARK INTER:                  -6.083
REMARK INTRA:                   0.000
REMARK UNBOUND:                 0.000
REMARK SMILES C[C@@H]1CC[C@@]2(OC1)O[C@H]1C[C@H]3[C@@H]4CC=C5C[C@@H](O)CC[C@@]5(C)[C@H]4CC[C@@]3(C)[C@H]1[C@@H]2C
REMARK SMILES IDX 1 1 2 2 3 3 4 4 5 5 29 6 28 7 9 8 8 9 10 10 11 11 26 12
REMARK SMILES IDX 25 13 24 14 23 15 12 16 13 17 14 18 15 19 21 20 20 21 19 22
REMARK SMILES IDX 17 23 16 24 22 25 27 26 30 27 6 28 7 29 18 30
REMARK H PARENT 18 31
REMARK Flexibility Score: inf
ROOT
ATOM      1  C   UNL     1      15.061  30.058  18.261  1.00  0.00     0.010 C 
ATOM      2  C   UNL     1      14.487  30.167  19.681  1.00  0.00     0.012 C 
ATOM      3  C   UNL     1      14.491  28.787  20.383  1.00  0.00     0.011 C 
ATOM      4  C   UNL     1      13.182  28.531  21.116  1.00  0.00     0.066 C 
ATOM      5  C   UNL     1      11.982  28.694  20.129  1.00  0.00     0.171 C 
ATOM      6  C   UNL     1      10.631  28.740  20.908  1.00  0.00     0.052 C 
ATOM      7  C   UNL     1       9.774  27.666  20.240  1.00  0.00     0.033 C 
ATOM      8  C   UNL     1      10.646  27.118  19.131  1.00  0.00     0.126 C 
ATOM      9  O   UNL     1      11.981  27.534  19.313  1.00  0.00    -0.346 OA
ATOM     10  C   UNL     1      10.548  25.594  19.194  1.00  0.00     0.037 C 
ATOM     11  C   UNL     1       9.307  25.296  20.037  1.00  0.00     0.002 C 
ATOM     12  C   UNL     1       9.273  26.437  21.085  1.00  0.00    -0.024 C 
ATOM     13  C   UNL     1      10.190  26.106  22.310  1.00  0.00     0.008 C 
ATOM     14  C   UNL     1      10.286  24.625  22.737  1.00  0.00     0.005 C 
ATOM     15  C   UNL     1       9.239  23.696  22.097  1.00  0.00     0.003 C 
ATOM     16  C   UNL     1       9.310  23.819  20.563  1.00  0.00     0.000 C 
ATOM     17  C   UNL     1       8.127  23.034  19.976  1.00  0.00     0.031 C 
ATOM     18  C   UNL     1       8.233  21.591  20.360  1.00  0.00    -0.027 C 
ATOM     19  C   UNL     1       8.719  21.201  21.557  1.00  0.00    -0.065 C 
ATOM     20  C   UNL     1       9.300  22.189  22.596  1.00  0.00    -0.008 C 
ATOM     21  C   UNL     1      10.764  21.737  22.900  1.00  0.00     0.014 C 
ATOM     22  C   UNL     1      10.915  20.234  23.201  1.00  0.00     0.033 C 
ATOM     23  C   UNL     1      10.335  19.363  22.080  1.00  0.00     0.118 C 
ATOM     24  C   UNL     1       8.863  19.718  21.837  1.00  0.00     0.063 C 
ATOM     25  C   UNL     1       8.457  22.088  23.890  1.00  0.00     0.016 C 
ATOM     26  C   UNL     1       7.832  26.758  21.560  1.00  0.00     0.012 C 
ATOM     27  C   UNL     1       9.937  30.113  20.891  1.00  0.00     0.014 C 
ATOM     28  O   UNL     1      12.098  29.826  19.248  1.00  0.00    -0.349 OA
ATOM     29  C   UNL     1      13.068  30.778  19.657  1.00  0.00     0.167 C 
ENDROOT
BRANCH  23  30
ATOM     30  O   UNL     1      11.074  19.558  20.905  1.00  0.00    -0.393 OA
ATOM     31  H   UNL     1      10.418  19.703  20.174  1.00  0.00     0.210 HD
ENDBRANCH  23  30
TORSDOF 1
ENDMDL
MODEL 9
REMARK VINA RESULT:    -5.816      1.794      8.081
REMARK INTER + INTRA:          -5.986
REMARK INTER:                  -5.986
REMARK INTRA:                   0.000
REMARK UNBOUND:                 0.000
REMARK SMILES C[C@@H]1CC[C@@]2(OC1)O[C@H]1C[C@H]3[C@@H]4CC=C5C[C@@H](O)CC[C@@]5(C)[C@H]4CC[C@@]3(C)[C@H]1[C@@H]2C
REMARK SMILES IDX 1 1 2 2 3 3 4 4 5 5 29 6 28 7 9 8 8 9 10 10 11 11 26 12
REMARK SMILES IDX 25 13 24 14 23 15 12 16 13 17 14 18 15 19 21 20 20 21 19 22
REMARK SMILES IDX 17 23 16 24 22 25 27 26 30 27 6 28 7 29 18 30
REMARK H PARENT 18 31
REMARK Flexibility Score: inf
ROOT
ATOM      1  C   UNL     1       9.999  34.028  24.843  1.00  0.00     0.010 C 
ATOM      2  C   UNL     1       8.551  33.523  24.764  1.00  0.00     0.012 C 
ATOM      3  C   UNL     1       8.480  32.008  25.080  1.00  0.00     0.011 C 
ATOM      4  C   UNL     1       7.571  31.277  24.103  1.00  0.00     0.066 C 
ATOM      5  C   UNL     1       8.034  31.558  22.638  1.00  0.00     0.171 C 
ATOM      6  C   UNL     1       6.955  31.079  21.619  1.00  0.00     0.052 C 
ATOM      7  C   UNL     1       7.721  30.174  20.655  1.00  0.00     0.033 C 
ATOM      8  C   UNL     1       9.151  30.222  21.145  1.00  0.00     0.126 C 
ATOM      9  O   UNL     1       9.204  30.781  22.438  1.00  0.00    -0.346 OA
ATOM     10  C   UNL     1       9.668  28.783  21.164  1.00  0.00     0.037 C 
ATOM     11  C   UNL     1       8.698  27.986  20.289  1.00  0.00     0.002 C 
ATOM     12  C   UNL     1       7.323  28.657  20.534  1.00  0.00    -0.024 C 
ATOM     13  C   UNL     1       6.637  28.086  21.821  1.00  0.00     0.008 C 
ATOM     14  C   UNL     1       6.872  26.594  22.141  1.00  0.00     0.005 C 
ATOM     15  C   UNL     1       7.504  25.777  20.998  1.00  0.00     0.003 C 
ATOM     16  C   UNL     1       8.818  26.445  20.554  1.00  0.00     0.000 C 
ATOM     17  C   UNL     1       9.308  25.718  19.293  1.00  0.00     0.031 C 
ATOM     18  C   UNL     1       9.569  24.277  19.604  1.00  0.00    -0.027 C 
ATOM     19  C   UNL     1       8.810  23.584  20.480  1.00  0.00    -0.065 C 
ATOM     20  C   UNL     1       7.675  24.229  21.311  1.00  0.00    -0.008 C 
ATOM     21  C   UNL     1       7.998  23.972  22.817  1.00  0.00     0.014 C 
ATOM     22  C   UNL     1       8.367  22.515  23.148  1.00  0.00     0.033 C 
ATOM     23  C   UNL     1       9.528  22.006  22.284  1.00  0.00     0.118 C 
ATOM     24  C   UNL     1       9.188  22.150  20.796  1.00  0.00     0.063 C 
ATOM     25  C   UNL     1       6.345  23.526  20.948  1.00  0.00     0.016 C 
ATOM     26  C   UNL     1       6.376  28.521  19.313  1.00  0.00     0.012 C 
ATOM     27  C   UNL     1       6.236  32.219  20.877  1.00  0.00     0.014 C 
ATOM     28  O   UNL     1       8.394  32.929  22.390  1.00  0.00    -0.349 OA
ATOM     29  C   UNL     1       7.934  33.833  23.382  1.00  0.00     0.167 C 
ENDROOT
BRANCH  23  30
ATOM     30  O   UNL     1      10.688  22.734  22.582  1.00  0.00    -0.393 OA
ATOM     31  H   UNL     1      10.930  22.517  23.520  1.00  0.00     0.210 HD
ENDBRANCH  23  30
TORSDOF 1
ENDMDL
