MODEL 1
REMARK VINA RESULT:    -6.120      0.000      0.000
REMARK INTER + INTRA:         -10.691
REMARK INTER:                  -9.340
REMARK INTRA:                  -1.351
REMARK UNBOUND:                -1.351
REMARK SMILES CC(=O)CCC=C(C)CCC=C(C)CCC=C(C)C
REMARK SMILES IDX 10 1 11 2 12 3 13 4 14 5 15 6 16 7 18 8 17 9 19 10 9 11 7 12
REMARK SMILES IDX 6 13 8 14 5 15 4 16 2 17 3 18 1 19
REMARK H PARENT
REMARK Flexibility Score: inf
ROOT
ATOM      1  C   UNL     1     -10.303 -18.171  31.782  1.00  0.00     0.032 C 
ENDROOT
BRANCH   1   2
ATOM      2  C   UNL     1     -11.060 -18.688  30.581  1.00  0.00    -0.028 C 
ATOM      3  C   UNL     1     -12.055 -19.603  30.626  1.00  0.00    -0.077 C 
ATOM      4  C   UNL     1     -12.496 -20.237  31.924  1.00  0.00     0.039 C 
BRANCH   3   5
ATOM      5  C   UNL     1     -12.732 -20.023  29.333  1.00  0.00     0.034 C 
BRANCH   5   6
ATOM      6  C   UNL     1     -13.185 -18.816  28.496  1.00  0.00     0.032 C 
BRANCH   6   7
ATOM      7  C   UNL     1     -12.144 -18.407  27.479  1.00  0.00    -0.028 C 
ATOM      8  C   UNL     1     -11.198 -17.033  25.673  1.00  0.00     0.039 C 
ATOM      9  C   UNL     1     -12.295 -17.347  26.656  1.00  0.00    -0.080 C 
ATOM     10  C   UNL     1     -13.534 -16.483  26.697  1.00  0.00     0.039 C 
ENDBRANCH   6   7
ENDBRANCH   5   6
ENDBRANCH   3   5
ENDBRANCH   1   2
BRANCH   1  11
ATOM     11  C   UNL     1     -10.204 -16.643  31.733  1.00  0.00     0.034 C 
BRANCH  11  12
ATOM     12  C   UNL     1     -11.228 -16.070  30.776  1.00  0.00    -0.077 C 
ATOM     13  C   UNL     1     -12.531 -16.050  31.142  1.00  0.00    -0.028 C 
ATOM     14  C   UNL     1     -10.769 -15.549  29.434  1.00  0.00     0.039 C 
BRANCH  13  15
ATOM     15  C   UNL     1     -13.637 -15.432  30.325  1.00  0.00     0.035 C 
BRANCH  15  16
ATOM     16  C   UNL     1     -14.361 -14.352  31.132  1.00  0.00     0.079 C 
BRANCH  16  17
ATOM     17  C   UNL     1     -14.677 -14.837  32.524  1.00  0.00     0.130 C 
ATOM     18  O   UNL     1     -15.495 -15.732  32.676  1.00  0.00    -0.300 OA
ATOM     19  C   UNL     1     -14.018 -14.238  33.730  1.00  0.00     0.087 C 
ENDBRANCH  16  17
ENDBRANCH  15  16
ENDBRANCH  13  15
ENDBRANCH  11  12
ENDBRANCH   1  11
TORSDOF 9
ENDMDL
MODEL 2
REMARK VINA RESULT:    -6.060      1.564      1.873
REMARK INTER + INTRA:         -10.600
REMARK INTER:                  -9.425
REMARK INTRA:                  -1.175
REMARK UNBOUND:                -1.351
REMARK SMILES CC(=O)CCC=C(C)CCC=C(C)CCC=C(C)C
REMARK SMILES IDX 10 1 11 2 12 3 13 4 14 5 15 6 16 7 18 8 17 9 19 10 9 11 7 12
REMARK SMILES IDX 6 13 8 14 5 15 4 16 2 17 3 18 1 19
REMARK H PARENT
REMARK Flexibility Score: inf
ROOT
ATOM      1  C   UNL     1     -10.217 -18.375  31.243  1.00  0.00     0.032 C 
ENDROOT
BRANCH   1   2
ATOM      2  C   UNL     1     -11.241 -18.843  30.236  1.00  0.00    -0.028 C 
ATOM      3  C   UNL     1     -12.264 -19.686  30.505  1.00  0.00    -0.077 C 
ATOM      4  C   UNL     1     -12.466 -20.281  31.878  1.00  0.00     0.039 C 
BRANCH   3   5
ATOM      5  C   UNL     1     -13.223 -20.063  29.390  1.00  0.00     0.034 C 
BRANCH   5   6
ATOM      6  C   UNL     1     -13.515 -18.883  28.450  1.00  0.00     0.032 C 
BRANCH   6   7
ATOM      7  C   UNL     1     -12.326 -18.539  27.582  1.00  0.00    -0.028 C 
ATOM      8  C   UNL     1     -11.081 -17.248  25.900  1.00  0.00     0.039 C 
ATOM      9  C   UNL     1     -12.317 -17.495  26.725  1.00  0.00    -0.080 C 
ATOM     10  C   UNL     1     -13.514 -16.585  26.572  1.00  0.00     0.039 C 
ENDBRANCH   6   7
ENDBRANCH   5   6
ENDBRANCH   3   5
ENDBRANCH   1   2
BRANCH   1  11
ATOM     11  C   UNL     1     -10.520 -16.940  31.684  1.00  0.00     0.034 C 
BRANCH  11  12
ATOM     12  C   UNL     1     -11.184 -16.164  30.566  1.00  0.00    -0.077 C 
ATOM     13  C   UNL     1     -12.515 -15.929  30.631  1.00  0.00    -0.028 C 
ATOM     14  C   UNL     1     -10.345 -15.685  29.404  1.00  0.00     0.039 C 
BRANCH  13  15
ATOM     15  C   UNL     1     -13.284 -15.100  29.634  1.00  0.00     0.035 C 
BRANCH  15  16
ATOM     16  C   UNL     1     -14.389 -14.305  30.335  1.00  0.00     0.079 C 
BRANCH  16  17
ATOM     17  C   UNL     1     -15.218 -13.537  29.338  1.00  0.00     0.130 C 
ATOM     18  O   UNL     1     -14.717 -13.196  28.277  1.00  0.00    -0.300 OA
ATOM     19  C   UNL     1     -16.643 -13.171  29.622  1.00  0.00     0.087 C 
ENDBRANCH  16  17
ENDBRANCH  15  16
ENDBRANCH  13  15
ENDBRANCH  11  12
ENDBRANCH   1  11
TORSDOF 9
ENDMDL
MODEL 3
REMARK VINA RESULT:    -5.564      1.333      4.931
REMARK INTER + INTRA:          -9.842
REMARK INTER:                  -8.364
REMARK INTRA:                  -1.479
REMARK UNBOUND:                -1.351
REMARK SMILES CC(=O)CCC=C(C)CCC=C(C)CCC=C(C)C
REMARK SMILES IDX 10 1 11 2 12 3 13 4 14 5 15 6 16 7 18 8 17 9 19 10 9 11 7 12
REMARK SMILES IDX 6 13 8 14 5 15 4 16 2 17 3 18 1 19
REMARK H PARENT
REMARK Flexibility Score: inf
ROOT
ATOM      1  C   UNL     1     -10.009 -17.314  27.407  1.00  0.00     0.032 C 
ENDROOT
BRANCH   1   2
ATOM      2  C   UNL     1     -10.414 -16.487  28.605  1.00  0.00    -0.028 C 
ATOM      3  C   UNL     1     -10.375 -16.909  29.889  1.00  0.00    -0.077 C 
ATOM      4  C   UNL     1      -9.936 -18.307  30.255  1.00  0.00     0.039 C 
BRANCH   3   5
ATOM      5  C   UNL     1     -10.807 -15.960  30.992  1.00  0.00     0.034 C 
BRANCH   5   6
ATOM      6  C   UNL     1     -12.298 -16.107  31.335  1.00  0.00     0.032 C 
BRANCH   6   7
ATOM      7  C   UNL     1     -13.172 -15.251  30.448  1.00  0.00    -0.028 C 
ATOM      8  C   UNL     1     -15.074 -13.783  29.925  1.00  0.00     0.039 C 
ATOM      9  C   UNL     1     -14.269 -14.603  30.898  1.00  0.00    -0.080 C 
ATOM     10  C   UNL     1     -14.704 -14.693  32.342  1.00  0.00     0.039 C 
ENDBRANCH   6   7
ENDBRANCH   5   6
ENDBRANCH   3   5
ENDBRANCH   1   2
BRANCH   1  11
ATOM     11  C   UNL     1     -11.102 -17.273  26.336  1.00  0.00     0.034 C 
BRANCH  11  12
ATOM     12  C   UNL     1     -12.457 -17.571  26.941  1.00  0.00    -0.077 C 
ATOM     13  C   UNL     1     -12.603 -18.672  27.714  1.00  0.00    -0.028 C 
ATOM     14  C   UNL     1     -13.612 -16.639  26.656  1.00  0.00     0.039 C 
BRANCH  13  15
ATOM     15  C   UNL     1     -13.870 -19.040  28.445  1.00  0.00     0.035 C 
BRANCH  15  16
ATOM     16  C   UNL     1     -13.658 -20.304  29.282  1.00  0.00     0.079 C 
BRANCH  16  17
ATOM     17  C   UNL     1     -13.188 -19.958  30.672  1.00  0.00     0.130 C 
ATOM     18  O   UNL     1     -13.516 -18.891  31.168  1.00  0.00    -0.300 OA
ATOM     19  C   UNL     1     -12.315 -20.890  31.457  1.00  0.00     0.087 C 
ENDBRANCH  16  17
ENDBRANCH  15  16
ENDBRANCH  13  15
ENDBRANCH  11  12
ENDBRANCH   1  11
TORSDOF 9
ENDMDL
MODEL 4
REMARK VINA RESULT:    -5.226      1.623      3.962
REMARK INTER + INTRA:          -9.326
REMARK INTER:                  -7.821
REMARK INTRA:                  -1.505
REMARK UNBOUND:                -1.351
REMARK SMILES CC(=O)CCC=C(C)CCC=C(C)CCC=C(C)C
REMARK SMILES IDX 10 1 11 2 12 3 13 4 14 5 15 6 16 7 18 8 17 9 19 10 9 11 7 12
REMARK SMILES IDX 6 13 8 14 5 15 4 16 2 17 3 18 1 19
REMARK H PARENT
REMARK Flexibility Score: inf
ROOT
ATOM      1  C   UNL     1     -10.370 -16.060  28.458  1.00  0.00     0.032 C 
ENDROOT
BRANCH   1   2
ATOM      2  C   UNL     1      -9.913 -16.752  29.721  1.00  0.00    -0.028 C 
ATOM      3  C   UNL     1     -10.558 -16.706  30.909  1.00  0.00    -0.077 C 
ATOM      4  C   UNL     1     -11.825 -15.906  31.096  1.00  0.00     0.039 C 
BRANCH   3   5
ATOM      5  C   UNL     1      -9.981 -17.461  32.093  1.00  0.00     0.034 C 
BRANCH   5   6
ATOM      6  C   UNL     1     -10.377 -18.946  32.085  1.00  0.00     0.032 C 
BRANCH   6   7
ATOM      7  C   UNL     1     -10.916 -19.383  30.743  1.00  0.00    -0.028 C 
ATOM      8  C   UNL     1     -12.654 -20.065  29.142  1.00  0.00     0.039 C 
ATOM      9  C   UNL     1     -12.226 -19.624  30.518  1.00  0.00    -0.080 C 
ATOM     10  C   UNL     1     -13.258 -19.471  31.610  1.00  0.00     0.039 C 
ENDBRANCH   6   7
ENDBRANCH   5   6
ENDBRANCH   3   5
ENDBRANCH   1   2
BRANCH   1  11
ATOM     11  C   UNL     1     -11.134 -17.038  27.561  1.00  0.00     0.034 C 
BRANCH  11  12
ATOM     12  C   UNL     1     -12.553 -16.564  27.338  1.00  0.00    -0.077 C 
ATOM     13  C   UNL     1     -12.969 -15.426  27.941  1.00  0.00    -0.028 C 
ATOM     14  C   UNL     1     -13.472 -17.379  26.457  1.00  0.00     0.039 C 
BRANCH  13  15
ATOM     15  C   UNL     1     -14.324 -14.797  27.738  1.00  0.00     0.035 C 
BRANCH  15  16
ATOM     16  C   UNL     1     -14.423 -13.475  28.503  1.00  0.00     0.079 C 
BRANCH  16  17
ATOM     17  C   UNL     1     -15.404 -13.583  29.642  1.00  0.00     0.130 C 
ATOM     18  O   UNL     1     -16.573 -13.279  29.458  1.00  0.00    -0.300 OA
ATOM     19  C   UNL     1     -14.977 -14.044  31.003  1.00  0.00     0.087 C 
ENDBRANCH  16  17
ENDBRANCH  15  16
ENDBRANCH  13  15
ENDBRANCH  11  12
ENDBRANCH   1  11
TORSDOF 9
ENDMDL
MODEL 5
REMARK VINA RESULT:    -5.195      1.630      5.195
REMARK INTER + INTRA:          -9.280
REMARK INTER:                  -8.078
REMARK INTRA:                  -1.202
REMARK UNBOUND:                -1.351
REMARK SMILES CC(=O)CCC=C(C)CCC=C(C)CCC=C(C)C
REMARK SMILES IDX 10 1 11 2 12 3 13 4 14 5 15 6 16 7 18 8 17 9 19 10 9 11 7 12
REMARK SMILES IDX 6 13 8 14 5 15 4 16 2 17 3 18 1 19
REMARK H PARENT
REMARK Flexibility Score: inf
ROOT
ATOM      1  C   UNL     1     -10.918 -17.076  28.007  1.00  0.00     0.032 C 
ENDROOT
BRANCH   1   2
ATOM      2  C   UNL     1     -11.993 -16.023  28.128  1.00  0.00    -0.028 C 
ATOM      3  C   UNL     1     -13.195 -16.066  27.509  1.00  0.00    -0.077 C 
ATOM      4  C   UNL     1     -13.574 -17.198  26.583  1.00  0.00     0.039 C 
BRANCH   3   5
ATOM      5  C   UNL     1     -14.182 -14.934  27.732  1.00  0.00     0.034 C 
BRANCH   5   6
ATOM      6  C   UNL     1     -13.735 -13.985  28.855  1.00  0.00     0.032 C 
BRANCH   6   7
ATOM      7  C   UNL     1     -14.638 -14.070  30.064  1.00  0.00    -0.028 C 
ATOM      8  C   UNL     1     -15.310 -14.818  32.308  1.00  0.00     0.039 C 
ATOM      9  C   UNL     1     -14.333 -14.796  31.162  1.00  0.00    -0.080 C 
ATOM     10  C   UNL     1     -13.048 -15.586  31.257  1.00  0.00     0.039 C 
ENDBRANCH   6   7
ENDBRANCH   5   6
ENDBRANCH   3   5
ENDBRANCH   1   2
BRANCH   1  11
ATOM     11  C   UNL     1      -9.887 -16.917  29.129  1.00  0.00     0.034 C 
BRANCH  11  12
ATOM     12  C   UNL     1     -10.278 -17.742  30.336  1.00  0.00    -0.077 C 
ATOM     13  C   UNL     1     -10.924 -18.917  30.149  1.00  0.00    -0.028 C 
ATOM     14  C   UNL     1      -9.947 -17.227  31.718  1.00  0.00     0.039 C 
BRANCH  13  15
ATOM     15  C   UNL     1     -11.293 -19.874  31.253  1.00  0.00     0.035 C 
BRANCH  15  16
ATOM     16  C   UNL     1     -12.700 -20.435  31.030  1.00  0.00     0.079 C 
BRANCH  16  17
ATOM     17  C   UNL     1     -13.363 -19.776  29.847  1.00  0.00     0.130 C 
ATOM     18  O   UNL     1     -13.677 -18.598  29.915  1.00  0.00    -0.300 OA
ATOM     19  C   UNL     1     -13.658 -20.538  28.591  1.00  0.00     0.087 C 
ENDBRANCH  16  17
ENDBRANCH  15  16
ENDBRANCH  13  15
ENDBRANCH  11  12
ENDBRANCH   1  11
TORSDOF 9
ENDMDL
MODEL 6
REMARK VINA RESULT:    -5.169      1.775      6.414
REMARK INTER + INTRA:          -9.240
REMARK INTER:                  -8.069
REMARK INTRA:                  -1.171
REMARK UNBOUND:                -1.351
REMARK SMILES CC(=O)CCC=C(C)CCC=C(C)CCC=C(C)C
REMARK SMILES IDX 10 1 11 2 12 3 13 4 14 5 15 6 16 7 18 8 17 9 19 10 9 11 7 12
REMARK SMILES IDX 6 13 8 14 5 15 4 16 2 17 3 18 1 19
REMARK H PARENT
REMARK Flexibility Score: inf
ROOT
ATOM      1  C   UNL     1     -12.943 -15.392  29.086  1.00  0.00     0.032 C 
ENDROOT
BRANCH   1   2
ATOM      2  C   UNL     1     -13.376 -15.331  30.532  1.00  0.00    -0.028 C 
ATOM      3  C   UNL     1     -14.372 -14.552  31.011  1.00  0.00    -0.077 C 
ATOM      4  C   UNL     1     -15.152 -13.616  30.118  1.00  0.00     0.039 C 
BRANCH   3   5
ATOM      5  C   UNL     1     -14.701 -14.601  32.492  1.00  0.00     0.034 C 
BRANCH   5   6
ATOM      6  C   UNL     1     -13.441 -14.718  33.364  1.00  0.00     0.032 C 
BRANCH   6   7
ATOM      7  C   UNL     1     -13.508 -13.826  34.582  1.00  0.00    -0.028 C 
ATOM      8  C   UNL     1     -12.608 -12.623  36.529  1.00  0.00     0.039 C 
ATOM      9  C   UNL     1     -12.426 -13.515  35.328  1.00  0.00    -0.080 C 
ATOM     10  C   UNL     1     -11.052 -14.047  34.991  1.00  0.00     0.039 C 
ENDBRANCH   6   7
ENDBRANCH   5   6
ENDBRANCH   3   5
ENDBRANCH   1   2
BRANCH   1  11
ATOM     11  C   UNL     1     -11.421 -15.529  28.990  1.00  0.00     0.034 C 
BRANCH  11  12
ATOM     12  C   UNL     1     -11.012 -16.986  28.986  1.00  0.00    -0.077 C 
ATOM     13  C   UNL     1     -10.647 -17.570  30.151  1.00  0.00    -0.028 C 
ATOM     14  C   UNL     1     -11.012 -17.747  27.680  1.00  0.00     0.039 C 
BRANCH  13  15
ATOM     15  C   UNL     1     -10.301 -19.029  30.304  1.00  0.00     0.035 C 
BRANCH  15  16
ATOM     16  C   UNL     1     -11.219 -19.693  31.334  1.00  0.00     0.079 C 
BRANCH  16  17
ATOM     17  C   UNL     1     -12.662 -19.606  30.909  1.00  0.00     0.130 C 
ATOM     18  O   UNL     1     -13.463 -19.021  31.622  1.00  0.00    -0.300 OA
ATOM     19  C   UNL     1     -13.141 -20.230  29.633  1.00  0.00     0.087 C 
ENDBRANCH  16  17
ENDBRANCH  15  16
ENDBRANCH  13  15
ENDBRANCH  11  12
ENDBRANCH   1  11
TORSDOF 9
ENDMDL
MODEL 7
REMARK VINA RESULT:    -5.105      1.016      3.445
REMARK INTER + INTRA:          -9.141
REMARK INTER:                  -8.113
REMARK INTRA:                  -1.029
REMARK UNBOUND:                -1.351
REMARK SMILES CC(=O)CCC=C(C)CCC=C(C)CCC=C(C)C
REMARK SMILES IDX 10 1 11 2 12 3 13 4 14 5 15 6 16 7 18 8 17 9 19 10 9 11 7 12
REMARK SMILES IDX 6 13 8 14 5 15 4 16 2 17 3 18 1 19
REMARK H PARENT
REMARK Flexibility Score: inf
ROOT
ATOM      1  C   UNL     1     -13.012 -17.847  27.464  1.00  0.00     0.032 C 
ENDROOT
BRANCH   1   2
ATOM      2  C   UNL     1     -13.179 -18.328  28.886  1.00  0.00    -0.028 C 
ATOM      3  C   UNL     1     -13.368 -19.615  29.254  1.00  0.00    -0.077 C 
ATOM      4  C   UNL     1     -13.463 -20.728  28.237  1.00  0.00     0.039 C 
BRANCH   3   5
ATOM      5  C   UNL     1     -13.512 -19.950  30.727  1.00  0.00     0.034 C 
BRANCH   5   6
ATOM      6  C   UNL     1     -12.180 -20.390  31.357  1.00  0.00     0.032 C 
BRANCH   6   7
ATOM      7  C   UNL     1     -11.497 -19.258  32.090  1.00  0.00    -0.028 C 
ATOM      8  C   UNL     1      -9.876 -17.432  32.375  1.00  0.00     0.039 C 
ATOM      9  C   UNL     1     -10.493 -18.533  31.552  1.00  0.00    -0.080 C 
ATOM     10  C   UNL     1      -9.974 -18.808  30.160  1.00  0.00     0.039 C 
ENDBRANCH   6   7
ENDBRANCH   5   6
ENDBRANCH   3   5
ENDBRANCH   1   2
BRANCH   1  11
ATOM     11  C   UNL     1     -11.944 -16.752  27.392  1.00  0.00     0.034 C 
BRANCH  11  12
ATOM     12  C   UNL     1     -11.883 -15.977  28.691  1.00  0.00    -0.077 C 
ATOM     13  C   UNL     1     -13.034 -15.703  29.348  1.00  0.00    -0.028 C 
ATOM     14  C   UNL     1     -10.540 -15.521  29.213  1.00  0.00     0.039 C 
BRANCH  13  15
ATOM     15  C   UNL     1     -13.110 -15.018  30.688  1.00  0.00     0.035 C 
BRANCH  15  16
ATOM     16  C   UNL     1     -14.559 -14.653  31.024  1.00  0.00     0.079 C 
BRANCH  16  17
ATOM     17  C   UNL     1     -14.853 -14.894  32.483  1.00  0.00     0.130 C 
ATOM     18  O   UNL     1     -15.876 -15.482  32.799  1.00  0.00    -0.300 OA
ATOM     19  C   UNL     1     -13.923 -14.418  33.557  1.00  0.00     0.087 C 
ENDBRANCH  16  17
ENDBRANCH  15  16
ENDBRANCH  13  15
ENDBRANCH  11  12
ENDBRANCH   1  11
TORSDOF 9
ENDMDL
MODEL 8
REMARK VINA RESULT:    -5.059      2.157      6.015
REMARK INTER + INTRA:          -9.071
REMARK INTER:                  -7.537
REMARK INTRA:                  -1.534
REMARK UNBOUND:                -1.351
REMARK SMILES CC(=O)CCC=C(C)CCC=C(C)CCC=C(C)C
REMARK SMILES IDX 10 1 11 2 12 3 13 4 14 5 15 6 16 7 18 8 17 9 19 10 9 11 7 12
REMARK SMILES IDX 6 13 8 14 5 15 4 16 2 17 3 18 1 19
REMARK H PARENT
REMARK Flexibility Score: inf
ROOT
ATOM      1  C   UNL     1     -13.197 -15.318  28.428  1.00  0.00     0.032 C 
ENDROOT
BRANCH   1   2
ATOM      2  C   UNL     1     -11.833 -15.400  29.072  1.00  0.00    -0.028 C 
ATOM      3  C   UNL     1     -11.593 -15.840  30.329  1.00  0.00    -0.077 C 
ATOM      4  C   UNL     1     -12.711 -16.277  31.246  1.00  0.00     0.039 C 
BRANCH   3   5
ATOM      5  C   UNL     1     -10.164 -15.873  30.840  1.00  0.00     0.034 C 
BRANCH   5   6
ATOM      6  C   UNL     1     -10.098 -15.991  32.371  1.00  0.00     0.032 C 
BRANCH   6   7
ATOM      7  C   UNL     1     -10.130 -14.640  33.047  1.00  0.00    -0.028 C 
ATOM      8  C   UNL     1     -10.085 -13.090  34.955  1.00  0.00     0.039 C 
ATOM      9  C   UNL     1     -10.032 -14.483  34.385  1.00  0.00    -0.080 C 
ATOM     10  C   UNL     1      -9.883 -15.667  35.312  1.00  0.00     0.039 C 
ENDBRANCH   6   7
ENDBRANCH   5   6
ENDBRANCH   3   5
ENDBRANCH   1   2
BRANCH   1  11
ATOM     11  C   UNL     1     -13.212 -16.099  27.111  1.00  0.00     0.034 C 
BRANCH  11  12
ATOM     12  C   UNL     1     -12.707 -17.510  27.318  1.00  0.00    -0.077 C 
ATOM     13  C   UNL     1     -13.380 -18.332  28.158  1.00  0.00    -0.028 C 
ATOM     14  C   UNL     1     -11.461 -17.960  26.593  1.00  0.00     0.039 C 
BRANCH  13  15
ATOM     15  C   UNL     1     -13.038 -19.782  28.389  1.00  0.00     0.035 C 
BRANCH  15  16
ATOM     16  C   UNL     1     -13.441 -20.209  29.803  1.00  0.00     0.079 C 
BRANCH  16  17
ATOM     17  C   UNL     1     -12.367 -19.857  30.801  1.00  0.00     0.130 C 
ATOM     18  O   UNL     1     -12.620 -19.905  31.995  1.00  0.00    -0.300 OA
ATOM     19  C   UNL     1     -10.998 -19.437  30.361  1.00  0.00     0.087 C 
ENDBRANCH  16  17
ENDBRANCH  15  16
ENDBRANCH  13  15
ENDBRANCH  11  12
ENDBRANCH   1  11
TORSDOF 9
ENDMDL
MODEL 9
REMARK VINA RESULT:    -5.039      1.903      5.084
REMARK INTER + INTRA:          -9.041
REMARK INTER:                  -8.235
REMARK INTRA:                  -0.806
REMARK UNBOUND:                -1.351
REMARK SMILES CC(=O)CCC=C(C)CCC=C(C)CCC=C(C)C
REMARK SMILES IDX 10 1 11 2 12 3 13 4 14 5 15 6 16 7 18 8 17 9 19 10 9 11 7 12
REMARK SMILES IDX 6 13 8 14 5 15 4 16 2 17 3 18 1 19
REMARK H PARENT
REMARK Flexibility Score: inf
ROOT
ATOM      1  C   UNL     1      -9.947 -18.545  31.693  1.00  0.00     0.032 C 
ENDROOT
BRANCH   1   2
ATOM      2  C   UNL     1     -10.418 -17.526  30.683  1.00  0.00    -0.028 C 
ATOM      3  C   UNL     1     -10.469 -16.191  30.893  1.00  0.00    -0.077 C 
ATOM      4  C   UNL     1     -10.073 -15.577  32.216  1.00  0.00     0.039 C 
BRANCH   3   5
ATOM      5  C   UNL     1     -10.960 -15.285  29.778  1.00  0.00     0.034 C 
BRANCH   5   6
ATOM      6  C   UNL     1     -12.484 -15.362  29.596  1.00  0.00     0.032 C 
BRANCH   6   7
ATOM      7  C   UNL     1     -13.208 -15.493  30.916  1.00  0.00    -0.028 C 
ATOM      8  C   UNL     1     -14.964 -14.998  32.564  1.00  0.00     0.039 C 
ATOM      9  C   UNL     1     -14.327 -14.797  31.214  1.00  0.00    -0.080 C 
ATOM     10  C   UNL     1     -14.940 -13.824  30.234  1.00  0.00     0.039 C 
ENDBRANCH   6   7
ENDBRANCH   5   6
ENDBRANCH   3   5
ENDBRANCH   1   2
BRANCH   1  11
ATOM     11  C   UNL     1     -11.059 -19.554  31.992  1.00  0.00     0.034 C 
BRANCH  11  12
ATOM     12  C   UNL     1     -12.172 -19.443  30.972  1.00  0.00    -0.077 C 
ATOM     13  C   UNL     1     -11.878 -19.594  29.659  1.00  0.00    -0.028 C 
ATOM     14  C   UNL     1     -13.578 -19.154  31.445  1.00  0.00     0.039 C 
BRANCH  13  15
ATOM     15  C   UNL     1     -12.898 -19.594  28.550  1.00  0.00     0.035 C 
BRANCH  15  16
ATOM     16  C   UNL     1     -13.330 -18.163  28.218  1.00  0.00     0.079 C 
BRANCH  16  17
ATOM     17  C   UNL     1     -12.620 -17.655  26.989  1.00  0.00     0.130 C 
ATOM     18  O   UNL     1     -13.276 -17.256  26.039  1.00  0.00    -0.300 OA
ATOM     19  C   UNL     1     -11.124 -17.639  26.900  1.00  0.00     0.087 C 
ENDBRANCH  16  17
ENDBRANCH  15  16
ENDBRANCH  13  15
ENDBRANCH  11  12
ENDBRANCH   1  11
TORSDOF 9
ENDMDL
