MODEL 1
REMARK VINA RESULT:    -5.833      0.000      0.000
REMARK INTER + INTRA:          -7.328
REMARK INTER:                  -7.026
REMARK INTRA:                  -0.302
REMARK UNBOUND:                -0.302
REMARK SMILES O=c1c(O)c(-c2ccc(O)c(O)c2)oc2cc(O)cc(O)c12
REMARK SMILES IDX 5 1 3 2 2 3 1 4 22 5 20 6 19 7 17 8 16 9 15 10 14 11 6 12
REMARK SMILES IDX 7 13 8 14 9 15 13 16 11 17 10 18 12 20 4 22 21 24 18 26
REMARK H PARENT 10 19 12 21 4 23 21 25 18 27
REMARK Flexibility Score: inf
ROOT
ATOM      1  C   UNL     1      -6.539   6.481  -7.098  1.00  0.00     0.180 A 
ATOM      2  C   UNL     1      -7.302   7.265  -6.216  1.00  0.00     0.208 A 
ATOM      3  C   UNL     1      -7.395   6.880  -4.868  1.00  0.00     0.238 A 
ATOM      4  O   UNL     1      -8.123   7.556  -4.096  1.00  0.00    -0.285 OA
ATOM      5  C   UNL     1      -6.712   5.726  -4.418  1.00  0.00     0.111 A 
ATOM      6  C   UNL     1      -6.704   5.265  -3.066  1.00  0.00     0.134 A 
ATOM      7  C   UNL     1      -6.102   4.039  -2.758  1.00  0.00     0.093 A 
ATOM      8  C   UNL     1      -5.453   3.289  -3.739  1.00  0.00     0.123 A 
ATOM      9  C   UNL     1      -5.403   3.759  -5.052  1.00  0.00     0.094 A 
ATOM     10  C   UNL     1      -6.026   4.961  -5.396  1.00  0.00     0.146 A 
ATOM     11  O   UNL     1      -5.964   5.367  -6.659  1.00  0.00    -0.452 OA
ENDROOT
BRANCH   1  12
ATOM     12  C   UNL     1      -6.373   6.836  -8.526  1.00  0.00     0.025 A 
ATOM     13  C   UNL     1      -7.094   6.130  -9.501  1.00  0.00     0.016 A 
ATOM     14  C   UNL     1      -6.938   6.434 -10.856  1.00  0.00     0.051 A 
ATOM     15  C   UNL     1      -6.049   7.436 -11.258  1.00  0.00     0.157 A 
ATOM     16  C   UNL     1      -5.464   7.829  -8.933  1.00  0.00     0.062 A 
ATOM     17  C   UNL     1      -5.304   8.135 -10.293  1.00  0.00     0.158 A 
BRANCH  15  18
ATOM     18  O   UNL     1      -5.915   7.720 -12.616  1.00  0.00    -0.504 OA
ATOM     19  H   UNL     1      -6.700   7.684 -13.255  1.00  0.00     0.293 HD
ENDBRANCH  15  18
BRANCH  17  20
ATOM     20  O   UNL     1      -4.405   9.125 -10.686  1.00  0.00    -0.504 OA
ATOM     21  H   UNL     1      -4.721  10.040 -10.986  1.00  0.00     0.293 HD
ENDBRANCH  17  20
ENDBRANCH   1  12
BRANCH   2  22
ATOM     22  O   UNL     1      -7.985   8.390  -6.687  1.00  0.00    -0.502 OA
ATOM     23  H   UNL     1      -7.606   9.327  -6.617  1.00  0.00     0.293 HD
ENDBRANCH   2  22
BRANCH   6  24
ATOM     24  O   UNL     1      -7.243   5.982  -1.995  1.00  0.00    -0.507 OA
ATOM     25  H   UNL     1      -8.056   6.577  -2.052  1.00  0.00     0.293 HD
ENDBRANCH   6  24
BRANCH   8  26
ATOM     26  O   UNL     1      -4.851   2.080  -3.393  1.00  0.00    -0.508 OA
ATOM     27  H   UNL     1      -4.476   1.455  -4.096  1.00  0.00     0.293 HD
ENDBRANCH   8  26
TORSDOF 6
ENDMDL
MODEL 2
REMARK VINA RESULT:    -5.782      1.579      3.533
REMARK INTER + INTRA:          -7.267
REMARK INTER:                  -7.097
REMARK INTRA:                  -0.170
REMARK UNBOUND:                -0.302
REMARK SMILES O=c1c(O)c(-c2ccc(O)c(O)c2)oc2cc(O)cc(O)c12
REMARK SMILES IDX 5 1 3 2 2 3 1 4 22 5 20 6 19 7 17 8 16 9 15 10 14 11 6 12
REMARK SMILES IDX 7 13 8 14 9 15 13 16 11 17 10 18 12 20 4 22 21 24 18 26
REMARK H PARENT 10 19 12 21 4 23 21 25 18 27
REMARK Flexibility Score: inf
ROOT
ATOM      1  C   UNL     1      -5.821   5.348  -5.871  1.00  0.00     0.180 A 
ATOM      2  C   UNL     1      -5.364   4.058  -5.550  1.00  0.00     0.208 A 
ATOM      3  C   UNL     1      -5.597   3.553  -4.261  1.00  0.00     0.238 A 
ATOM      4  O   UNL     1      -5.138   2.420  -3.963  1.00  0.00    -0.285 OA
ATOM      5  C   UNL     1      -6.298   4.337  -3.314  1.00  0.00     0.111 A 
ATOM      6  C   UNL     1      -6.626   3.910  -1.992  1.00  0.00     0.134 A 
ATOM      7  C   UNL     1      -7.208   4.817  -1.097  1.00  0.00     0.093 A 
ATOM      8  C   UNL     1      -7.532   6.114  -1.496  1.00  0.00     0.123 A 
ATOM      9  C   UNL     1      -7.271   6.523  -2.804  1.00  0.00     0.094 A 
ATOM     10  C   UNL     1      -6.658   5.652  -3.708  1.00  0.00     0.146 A 
ATOM     11  O   UNL     1      -6.418   6.085  -4.940  1.00  0.00    -0.452 OA
ENDROOT
BRANCH   1  12
ATOM     12  C   UNL     1      -5.634   5.939  -7.216  1.00  0.00     0.025 A 
ATOM     13  C   UNL     1      -4.906   7.131  -7.351  1.00  0.00     0.016 A 
ATOM     14  C   UNL     1      -4.735   7.717  -8.608  1.00  0.00     0.051 A 
ATOM     15  C   UNL     1      -5.301   7.131  -9.744  1.00  0.00     0.157 A 
ATOM     16  C   UNL     1      -6.220   5.362  -8.357  1.00  0.00     0.062 A 
ATOM     17  C   UNL     1      -6.052   5.949  -9.619  1.00  0.00     0.158 A 
BRANCH  15  18
ATOM     18  O   UNL     1      -5.112   7.737 -10.986  1.00  0.00    -0.504 OA
ATOM     19  H   UNL     1      -4.237   7.669 -11.491  1.00  0.00     0.293 HD
ENDBRANCH  15  18
BRANCH  17  20
ATOM     20  O   UNL     1      -6.630   5.368 -10.745  1.00  0.00    -0.504 OA
ATOM     21  H   UNL     1      -7.620   5.460 -10.942  1.00  0.00     0.293 HD
ENDBRANCH  17  20
ENDBRANCH   1  12
BRANCH   2  22
ATOM     22  O   UNL     1      -4.654   3.309  -6.494  1.00  0.00    -0.502 OA
ATOM     23  H   UNL     1      -4.975   2.407  -6.825  1.00  0.00     0.293 HD
ENDBRANCH   2  22
BRANCH   6  24
ATOM     24  O   UNL     1      -6.429   2.609  -1.521  1.00  0.00    -0.507 OA
ATOM     25  H   UNL     1      -6.941   2.189  -0.760  1.00  0.00     0.293 HD
ENDBRANCH   6  24
BRANCH   8  26
ATOM     26  O   UNL     1      -8.125   6.985  -0.583  1.00  0.00    -0.508 OA
ATOM     27  H   UNL     1      -7.784   7.067   0.368  1.00  0.00     0.293 HD
ENDBRANCH   8  26
TORSDOF 6
ENDMDL
MODEL 3
REMARK VINA RESULT:    -5.733      1.289      3.142
REMARK INTER + INTRA:          -7.207
REMARK INTER:                  -6.898
REMARK INTRA:                  -0.310
REMARK UNBOUND:                -0.302
REMARK SMILES O=c1c(O)c(-c2ccc(O)c(O)c2)oc2cc(O)cc(O)c12
REMARK SMILES IDX 5 1 3 2 2 3 1 4 22 5 20 6 19 7 17 8 16 9 15 10 14 11 6 12
REMARK SMILES IDX 7 13 8 14 9 15 13 16 11 17 10 18 12 20 4 22 21 24 18 26
REMARK H PARENT 10 19 12 21 4 23 21 25 18 27
REMARK Flexibility Score: inf
ROOT
ATOM      1  C   UNL     1      -5.921   6.005  -7.102  1.00  0.00     0.180 A 
ATOM      2  C   UNL     1      -5.277   4.768  -6.925  1.00  0.00     0.208 A 
ATOM      3  C   UNL     1      -5.368   4.123  -5.680  1.00  0.00     0.238 A 
ATOM      4  O   UNL     1      -4.744   3.043  -5.512  1.00  0.00    -0.285 OA
ATOM      5  C   UNL     1      -6.114   4.716  -4.634  1.00  0.00     0.111 A 
ATOM      6  C   UNL     1      -6.307   4.132  -3.345  1.00  0.00     0.134 A 
ATOM      7  C   UNL     1      -6.954   4.867  -2.344  1.00  0.00     0.093 A 
ATOM      8  C   UNL     1      -7.473   6.135  -2.603  1.00  0.00     0.123 A 
ATOM      9  C   UNL     1      -7.342   6.691  -3.877  1.00  0.00     0.094 A 
ATOM     10  C   UNL     1      -6.670   5.997  -4.886  1.00  0.00     0.146 A 
ATOM     11  O   UNL     1      -6.559   6.565  -6.080  1.00  0.00    -0.452 OA
ENDROOT
BRANCH   1  12
ATOM     12  C   UNL     1      -5.892   6.731  -8.392  1.00  0.00     0.025 A 
ATOM     13  C   UNL     1      -4.808   7.572  -8.685  1.00  0.00     0.016 A 
ATOM     14  C   UNL     1      -4.769   8.284  -9.887  1.00  0.00     0.051 A 
ATOM     15  C   UNL     1      -5.818   8.179 -10.805  1.00  0.00     0.157 A 
ATOM     16  C   UNL     1      -6.956   6.643  -9.307  1.00  0.00     0.062 A 
ATOM     17  C   UNL     1      -6.921   7.358 -10.513  1.00  0.00     0.158 A 
BRANCH  15  18
ATOM     18  O   UNL     1      -5.752   8.899 -11.997  1.00  0.00    -0.504 OA
ATOM     19  H   UNL     1      -6.575   9.297 -12.433  1.00  0.00     0.293 HD
ENDBRANCH  15  18
BRANCH  17  20
ATOM     20  O   UNL     1      -7.977   7.260 -11.416  1.00  0.00    -0.504 OA
ATOM     21  H   UNL     1      -8.935   7.155 -11.104  1.00  0.00     0.293 HD
ENDBRANCH  17  20
ENDBRANCH   1  12
BRANCH   2  22
ATOM     22  O   UNL     1      -4.527   4.211  -7.966  1.00  0.00    -0.502 OA
ATOM     23  H   UNL     1      -4.865   4.174  -8.920  1.00  0.00     0.293 HD
ENDBRANCH   2  22
BRANCH   6  24
ATOM     24  O   UNL     1      -5.909   2.835  -3.009  1.00  0.00    -0.507 OA
ATOM     25  H   UNL     1      -6.530   2.109  -2.685  1.00  0.00     0.293 HD
ENDBRANCH   6  24
BRANCH   8  26
ATOM     26  O   UNL     1      -8.125   6.831  -1.587  1.00  0.00    -0.508 OA
ATOM     27  H   UNL     1      -7.699   7.632  -1.136  1.00  0.00     0.293 HD
ENDBRANCH   8  26
TORSDOF 6
ENDMDL
MODEL 4
REMARK VINA RESULT:    -5.640      1.471      1.672
REMARK INTER + INTRA:          -7.095
REMARK INTER:                  -7.131
REMARK INTRA:                   0.035
REMARK UNBOUND:                -0.302
REMARK SMILES O=c1c(O)c(-c2ccc(O)c(O)c2)oc2cc(O)cc(O)c12
REMARK SMILES IDX 5 1 3 2 2 3 1 4 22 5 20 6 19 7 17 8 16 9 15 10 14 11 6 12
REMARK SMILES IDX 7 13 8 14 9 15 13 16 11 17 10 18 12 20 4 22 21 24 18 26
REMARK H PARENT 10 19 12 21 4 23 21 25 18 27
REMARK Flexibility Score: inf
ROOT
ATOM      1  C   UNL     1      -6.135   6.683  -8.422  1.00  0.00     0.180 A 
ATOM      2  C   UNL     1      -6.266   7.776  -7.547  1.00  0.00     0.208 A 
ATOM      3  C   UNL     1      -6.093   7.570  -6.169  1.00  0.00     0.238 A 
ATOM      4  O   UNL     1      -6.265   8.541  -5.387  1.00  0.00    -0.285 OA
ATOM      5  C   UNL     1      -5.776   6.279  -5.684  1.00  0.00     0.111 A 
ATOM      6  C   UNL     1      -5.539   5.965  -4.312  1.00  0.00     0.134 A 
ATOM      7  C   UNL     1      -5.362   4.629  -3.930  1.00  0.00     0.093 A 
ATOM      8  C   UNL     1      -5.348   3.605  -4.877  1.00  0.00     0.123 A 
ATOM      9  C   UNL     1      -5.518   3.908  -6.228  1.00  0.00     0.094 A 
ATOM     10  C   UNL     1      -5.734   5.227  -6.635  1.00  0.00     0.146 A 
ATOM     11  O   UNL     1      -5.902   5.471  -7.930  1.00  0.00    -0.452 OA
ENDROOT
BRANCH   1  12
ATOM     12  C   UNL     1      -6.278   6.826  -9.889  1.00  0.00     0.025 A 
ATOM     13  C   UNL     1      -7.012   5.869 -10.607  1.00  0.00     0.016 A 
ATOM     14  C   UNL     1      -7.142   5.972 -11.994  1.00  0.00     0.051 A 
ATOM     15  C   UNL     1      -6.530   7.022 -12.686  1.00  0.00     0.157 A 
ATOM     16  C   UNL     1      -5.646   7.869 -10.588  1.00  0.00     0.062 A 
ATOM     17  C   UNL     1      -5.773   7.974 -11.981  1.00  0.00     0.158 A 
BRANCH  15  18
ATOM     18  O   UNL     1      -6.679   7.101 -14.070  1.00  0.00    -0.504 OA
ATOM     19  H   UNL     1      -6.219   7.815 -14.621  1.00  0.00     0.293 HD
ENDBRANCH  15  18
BRANCH  17  20
ATOM     20  O   UNL     1      -5.148   9.014 -12.665  1.00  0.00    -0.504 OA
ATOM     21  H   UNL     1      -5.654   9.848 -12.941  1.00  0.00     0.293 HD
ENDBRANCH  17  20
ENDBRANCH   1  12
BRANCH   2  22
ATOM     22  O   UNL     1      -6.601   9.038  -8.046  1.00  0.00    -0.502 OA
ATOM     23  H   UNL     1      -6.472   9.887  -7.508  1.00  0.00     0.293 HD
ENDBRANCH   2  22
BRANCH   6  24
ATOM     24  O   UNL     1      -5.442   6.921  -3.298  1.00  0.00    -0.507 OA
ATOM     25  H   UNL     1      -6.229   7.344  -2.829  1.00  0.00     0.293 HD
ENDBRANCH   6  24
BRANCH   8  26
ATOM     26  O   UNL     1      -5.153   2.289  -4.463  1.00  0.00    -0.508 OA
ATOM     27  H   UNL     1      -4.249   1.964  -4.140  1.00  0.00     0.293 HD
ENDBRANCH   8  26
TORSDOF 6
ENDMDL
MODEL 5
REMARK VINA RESULT:    -5.620     14.497     15.862
REMARK INTER + INTRA:          -7.072
REMARK INTER:                  -6.762
REMARK INTRA:                  -0.310
REMARK UNBOUND:                -0.302
REMARK SMILES O=c1c(O)c(-c2ccc(O)c(O)c2)oc2cc(O)cc(O)c12
REMARK SMILES IDX 5 1 3 2 2 3 1 4 22 5 20 6 19 7 17 8 16 9 15 10 14 11 6 12
REMARK SMILES IDX 7 13 8 14 9 15 13 16 11 17 10 18 12 20 4 22 21 24 18 26
REMARK H PARENT 10 19 12 21 4 23 21 25 18 27
REMARK Flexibility Score: inf
ROOT
ATOM      1  C   UNL     1      -4.406  -8.017 -13.273  1.00  0.00     0.180 A 
ATOM      2  C   UNL     1      -5.197  -6.862 -13.398  1.00  0.00     0.208 A 
ATOM      3  C   UNL     1      -5.955  -6.432 -12.297  1.00  0.00     0.238 A 
ATOM      4  O   UNL     1      -6.703  -5.429 -12.433  1.00  0.00    -0.285 OA
ATOM      5  C   UNL     1      -5.900  -7.153 -11.080  1.00  0.00     0.111 A 
ATOM      6  C   UNL     1      -6.595  -6.785  -9.889  1.00  0.00     0.134 A 
ATOM      7  C   UNL     1      -6.571  -7.643  -8.782  1.00  0.00     0.093 A 
ATOM      8  C   UNL     1      -5.826  -8.822  -8.802  1.00  0.00     0.123 A 
ATOM      9  C   UNL     1      -5.094  -9.162  -9.940  1.00  0.00     0.094 A 
ATOM     10  C   UNL     1      -5.128  -8.343 -11.072  1.00  0.00     0.146 A 
ATOM     11  O   UNL     1      -4.426  -8.708 -12.139  1.00  0.00    -0.452 OA
ENDROOT
BRANCH   1  12
ATOM     12  C   UNL     1      -3.560  -8.517 -14.381  1.00  0.00     0.025 A 
ATOM     13  C   UNL     1      -4.125  -9.353 -15.357  1.00  0.00     0.016 A 
ATOM     14  C   UNL     1      -3.341  -9.854 -16.400  1.00  0.00     0.051 A 
ATOM     15  C   UNL     1      -1.981  -9.540 -16.475  1.00  0.00     0.157 A 
ATOM     16  C   UNL     1      -2.187  -8.220 -14.447  1.00  0.00     0.062 A 
ATOM     17  C   UNL     1      -1.398  -8.723 -15.491  1.00  0.00     0.158 A 
BRANCH  15  18
ATOM     18  O   UNL     1      -1.224 -10.052 -17.528  1.00  0.00    -0.504 OA
ATOM     19  H   UNL     1      -0.730  -9.453 -18.178  1.00  0.00     0.293 HD
ENDBRANCH  15  18
BRANCH  17  20
ATOM     20  O   UNL     1      -0.039  -8.419 -15.551  1.00  0.00    -0.504 OA
ATOM     21  H   UNL     1       0.289  -7.462 -15.597  1.00  0.00     0.293 HD
ENDBRANCH  17  20
ENDBRANCH   1  12
BRANCH   2  22
ATOM     22  O   UNL     1      -5.253  -6.178 -14.616  1.00  0.00    -0.502 OA
ATOM     23  H   UNL     1      -5.640  -5.245 -14.699  1.00  0.00     0.293 HD
ENDBRANCH   2  22
BRANCH   6  24
ATOM     24  O   UNL     1      -7.294  -5.586  -9.732  1.00  0.00    -0.507 OA
ATOM     25  H   UNL     1      -8.151  -5.483  -9.209  1.00  0.00     0.293 HD
ENDBRANCH   6  24
BRANCH   8  26
ATOM     26  O   UNL     1      -5.812  -9.645  -7.677  1.00  0.00    -0.508 OA
ATOM     27  H   UNL     1      -5.490  -9.307  -6.777  1.00  0.00     0.293 HD
ENDBRANCH   8  26
TORSDOF 6
ENDMDL
MODEL 6
REMARK VINA RESULT:    -5.556     14.722     16.404
REMARK INTER + INTRA:          -6.995
REMARK INTER:                  -6.692
REMARK INTRA:                  -0.303
REMARK UNBOUND:                -0.302
REMARK SMILES O=c1c(O)c(-c2ccc(O)c(O)c2)oc2cc(O)cc(O)c12
REMARK SMILES IDX 5 1 3 2 2 3 1 4 22 5 20 6 19 7 17 8 16 9 15 10 14 11 6 12
REMARK SMILES IDX 7 13 8 14 9 15 13 16 11 17 10 18 12 20 4 22 21 24 18 26
REMARK H PARENT 10 19 12 21 4 23 21 25 18 27
REMARK Flexibility Score: inf
ROOT
ATOM      1  C   UNL     1      -4.073  -8.664 -13.219  1.00  0.00     0.180 A 
ATOM      2  C   UNL     1      -4.234  -9.787 -12.388  1.00  0.00     0.208 A 
ATOM      3  C   UNL     1      -5.017  -9.669 -11.229  1.00  0.00     0.238 A 
ATOM      4  O   UNL     1      -5.113 -10.662 -10.461  1.00  0.00    -0.285 OA
ATOM      5  C   UNL     1      -5.641  -8.437 -10.923  1.00  0.00     0.111 A 
ATOM      6  C   UNL     1      -6.490  -8.216  -9.796  1.00  0.00     0.134 A 
ATOM      7  C   UNL     1      -6.948  -6.922  -9.520  1.00  0.00     0.093 A 
ATOM      8  C   UNL     1      -6.644  -5.854 -10.365  1.00  0.00     0.123 A 
ATOM      9  C   UNL     1      -5.865  -6.071 -11.502  1.00  0.00     0.094 A 
ATOM     10  C   UNL     1      -5.363  -7.344 -11.784  1.00  0.00     0.146 A 
ATOM     11  O   UNL     1      -4.618  -7.504 -12.871  1.00  0.00    -0.452 OA
ENDROOT
BRANCH   1  12
ATOM     12  C   UNL     1      -3.283  -8.717 -14.471  1.00  0.00     0.025 A 
ATOM     13  C   UNL     1      -3.937  -8.951 -15.690  1.00  0.00     0.016 A 
ATOM     14  C   UNL     1      -3.210  -9.027 -16.881  1.00  0.00     0.051 A 
ATOM     15  C   UNL     1      -1.819  -8.884 -16.870  1.00  0.00     0.157 A 
ATOM     16  C   UNL     1      -1.882  -8.596 -14.459  1.00  0.00     0.062 A 
ATOM     17  C   UNL     1      -1.149  -8.673 -15.653  1.00  0.00     0.158 A 
BRANCH  15  18
ATOM     18  O   UNL     1      -1.119  -8.962 -18.074  1.00  0.00    -0.504 OA
ATOM     19  H   UNL     1      -1.467  -8.540 -18.927  1.00  0.00     0.293 HD
ENDBRANCH  15  18
BRANCH  17  20
ATOM     20  O   UNL     1       0.238  -8.545 -15.632  1.00  0.00    -0.504 OA
ATOM     21  H   UNL     1       0.836  -9.168 -16.162  1.00  0.00     0.293 HD
ENDBRANCH  17  20
ENDBRANCH   1  12
BRANCH   2  22
ATOM     22  O   UNL     1      -3.590 -10.988 -12.699  1.00  0.00    -0.502 OA
ATOM     23  H   UNL     1      -4.055 -11.744 -13.187  1.00  0.00     0.293 HD
ENDBRANCH   2  22
BRANCH   6  24
ATOM     24  O   UNL     1      -6.929  -9.229  -8.940  1.00  0.00    -0.507 OA
ATOM     25  H   UNL     1      -6.599  -9.369  -7.997  1.00  0.00     0.293 HD
ENDBRANCH   6  24
BRANCH   8  26
ATOM     26  O   UNL     1      -7.131  -4.583 -10.068  1.00  0.00    -0.508 OA
ATOM     27  H   UNL     1      -7.829  -4.133 -10.650  1.00  0.00     0.293 HD
ENDBRANCH   8  26
TORSDOF 6
ENDMDL
MODEL 7
REMARK VINA RESULT:    -5.381     15.444     16.931
REMARK INTER + INTRA:          -6.784
REMARK INTER:                  -6.593
REMARK INTRA:                  -0.191
REMARK UNBOUND:                -0.302
REMARK SMILES O=c1c(O)c(-c2ccc(O)c(O)c2)oc2cc(O)cc(O)c12
REMARK SMILES IDX 5 1 3 2 2 3 1 4 22 5 20 6 19 7 17 8 16 9 15 10 14 11 6 12
REMARK SMILES IDX 7 13 8 14 9 15 13 16 11 17 10 18 12 20 4 22 21 24 18 26
REMARK H PARENT 10 19 12 21 4 23 21 25 18 27
REMARK Flexibility Score: inf
ROOT
ATOM      1  C   UNL     1      -3.490  -8.610 -14.252  1.00  0.00     0.180 A 
ATOM      2  C   UNL     1      -4.629  -8.241 -14.987  1.00  0.00     0.208 A 
ATOM      3  C   UNL     1      -5.749  -7.740 -14.304  1.00  0.00     0.238 A 
ATOM      4  O   UNL     1      -6.785  -7.463 -14.962  1.00  0.00    -0.285 OA
ATOM      5  C   UNL     1      -5.709  -7.599 -12.896  1.00  0.00     0.111 A 
ATOM      6  C   UNL     1      -6.771  -7.064 -12.105  1.00  0.00     0.134 A 
ATOM      7  C   UNL     1      -6.673  -7.092 -10.708  1.00  0.00     0.093 A 
ATOM      8  C   UNL     1      -5.527  -7.574 -10.076  1.00  0.00     0.123 A 
ATOM      9  C   UNL     1      -4.459  -8.044 -10.841  1.00  0.00     0.094 A 
ATOM     10  C   UNL     1      -4.542  -8.062 -12.236  1.00  0.00     0.146 A 
ATOM     11  O   UNL     1      -3.507  -8.527 -12.926  1.00  0.00    -0.452 OA
ENDROOT
BRANCH   1  12
ATOM     12  C   UNL     1      -2.263  -9.123 -14.904  1.00  0.00     0.025 A 
ATOM     13  C   UNL     1      -1.818 -10.421 -14.613  1.00  0.00     0.016 A 
ATOM     14  C   UNL     1      -0.651 -10.918 -15.200  1.00  0.00     0.051 A 
ATOM     15  C   UNL     1       0.095 -10.121 -16.073  1.00  0.00     0.157 A 
ATOM     16  C   UNL     1      -1.499  -8.315 -15.765  1.00  0.00     0.062 A 
ATOM     17  C   UNL     1      -0.327  -8.810 -16.355  1.00  0.00     0.158 A 
BRANCH  15  18
ATOM     18  O   UNL     1       1.254 -10.644 -16.646  1.00  0.00    -0.504 OA
ATOM     19  H   UNL     1       2.119 -10.734 -16.126  1.00  0.00     0.293 HD
ENDBRANCH  15  18
BRANCH  17  20
ATOM     20  O   UNL     1       0.421  -8.005 -17.212  1.00  0.00    -0.504 OA
ATOM     21  H   UNL     1       1.337  -8.286 -17.540  1.00  0.00     0.293 HD
ENDBRANCH  17  20
ENDBRANCH   1  12
BRANCH   2  22
ATOM     22  O   UNL     1      -4.655  -8.410 -16.375  1.00  0.00    -0.502 OA
ATOM     23  H   UNL     1      -3.995  -9.005 -16.863  1.00  0.00     0.293 HD
ENDBRANCH   2  22
BRANCH   6  24
ATOM     24  O   UNL     1      -7.920  -6.474 -12.638  1.00  0.00    -0.507 OA
ATOM     25  H   UNL     1      -8.657  -6.054 -12.092  1.00  0.00     0.293 HD
ENDBRANCH   6  24
BRANCH   8  26
ATOM     26  O   UNL     1      -5.458  -7.572  -8.684  1.00  0.00    -0.508 OA
ATOM     27  H   UNL     1      -6.255  -7.830  -8.114  1.00  0.00     0.293 HD
ENDBRANCH   8  26
TORSDOF 6
ENDMDL
MODEL 8
REMARK VINA RESULT:    -5.298     15.184     17.097
REMARK INTER + INTRA:          -6.683
REMARK INTER:                  -6.467
REMARK INTRA:                  -0.217
REMARK UNBOUND:                -0.302
REMARK SMILES O=c1c(O)c(-c2ccc(O)c(O)c2)oc2cc(O)cc(O)c12
REMARK SMILES IDX 5 1 3 2 2 3 1 4 22 5 20 6 19 7 17 8 16 9 15 10 14 11 6 12
REMARK SMILES IDX 7 13 8 14 9 15 13 16 11 17 10 18 12 20 4 22 21 24 18 26
REMARK H PARENT 10 19 12 21 4 23 21 25 18 27
REMARK Flexibility Score: inf
ROOT
ATOM      1  C   UNL     1      -5.202  -7.834 -13.970  1.00  0.00     0.180 A 
ATOM      2  C   UNL     1      -5.767  -7.957 -15.251  1.00  0.00     0.208 A 
ATOM      3  C   UNL     1      -5.124  -8.761 -16.206  1.00  0.00     0.238 A 
ATOM      4  O   UNL     1      -5.605  -8.824 -17.367  1.00  0.00    -0.285 OA
ATOM      5  C   UNL     1      -3.934  -9.445 -15.862  1.00  0.00     0.111 A 
ATOM      6  C   UNL     1      -3.220 -10.319 -16.737  1.00  0.00     0.134 A 
ATOM      7  C   UNL     1      -1.984 -10.840 -16.336  1.00  0.00     0.093 A 
ATOM      8  C   UNL     1      -1.467 -10.572 -15.068  1.00  0.00     0.123 A 
ATOM      9  C   UNL     1      -2.184  -9.767 -14.183  1.00  0.00     0.094 A 
ATOM     10  C   UNL     1      -3.403  -9.204 -14.568  1.00  0.00     0.146 A 
ATOM     11  O   UNL     1      -4.049  -8.436 -13.699  1.00  0.00    -0.452 OA
ENDROOT
BRANCH   1  12
ATOM     12  C   UNL     1      -5.835  -7.024 -12.904  1.00  0.00     0.025 A 
ATOM     13  C   UNL     1      -7.040  -7.458 -12.331  1.00  0.00     0.016 A 
ATOM     14  C   UNL     1      -7.666  -6.700 -11.338  1.00  0.00     0.051 A 
ATOM     15  C   UNL     1      -7.107  -5.490 -10.915  1.00  0.00     0.157 A 
ATOM     16  C   UNL     1      -5.285  -5.797 -12.492  1.00  0.00     0.062 A 
ATOM     17  C   UNL     1      -5.912  -5.032 -11.497  1.00  0.00     0.158 A 
BRANCH  15  18
ATOM     18  O   UNL     1      -7.752  -4.755  -9.921  1.00  0.00    -0.504 OA
ATOM     19  H   UNL     1      -8.756  -4.625  -9.913  1.00  0.00     0.293 HD
ENDBRANCH  15  18
BRANCH  17  20
ATOM     20  O   UNL     1      -5.357  -3.821 -11.090  1.00  0.00    -0.504 OA
ATOM     21  H   UNL     1      -5.778  -3.263 -10.357  1.00  0.00     0.293 HD
ENDBRANCH  17  20
ENDBRANCH   1  12
BRANCH   2  22
ATOM     22  O   UNL     1      -6.932  -7.255 -15.576  1.00  0.00    -0.502 OA
ATOM     23  H   UNL     1      -7.430  -6.685 -14.901  1.00  0.00     0.293 HD
ENDBRANCH   2  22
BRANCH   6  24
ATOM     24  O   UNL     1      -3.691 -10.726 -17.988  1.00  0.00    -0.507 OA
ATOM     25  H   UNL     1      -3.882 -11.682 -18.249  1.00  0.00     0.293 HD
ENDBRANCH   6  24
BRANCH   8  26
ATOM     26  O   UNL     1      -0.240 -11.120 -14.697  1.00  0.00    -0.508 OA
ATOM     27  H   UNL     1       0.058 -11.144 -13.728  1.00  0.00     0.293 HD
ENDBRANCH   8  26
TORSDOF 6
ENDMDL
MODEL 9
REMARK VINA RESULT:    -5.259     15.539     18.049
REMARK INTER + INTRA:          -6.637
REMARK INTER:                  -6.315
REMARK INTRA:                  -0.323
REMARK UNBOUND:                -0.302
REMARK SMILES O=c1c(O)c(-c2ccc(O)c(O)c2)oc2cc(O)cc(O)c12
REMARK SMILES IDX 5 1 3 2 2 3 1 4 22 5 20 6 19 7 17 8 16 9 15 10 14 11 6 12
REMARK SMILES IDX 7 13 8 14 9 15 13 16 11 17 10 18 12 20 4 22 21 24 18 26
REMARK H PARENT 10 19 12 21 4 23 21 25 18 27
REMARK Flexibility Score: inf
ROOT
ATOM      1  C   UNL     1      -4.209  -9.150 -13.057  1.00  0.00     0.180 A 
ATOM      2  C   UNL     1      -5.100  -8.918 -14.120  1.00  0.00     0.208 A 
ATOM      3  C   UNL     1      -4.586  -8.758 -15.417  1.00  0.00     0.238 A 
ATOM      4  O   UNL     1      -5.384  -8.497 -16.355  1.00  0.00    -0.285 OA
ATOM      5  C   UNL     1      -3.191  -8.846 -15.637  1.00  0.00     0.111 A 
ATOM      6  C   UNL     1      -2.565  -8.740 -16.916  1.00  0.00     0.134 A 
ATOM      7  C   UNL     1      -1.167  -8.712 -17.000  1.00  0.00     0.093 A 
ATOM      8  C   UNL     1      -0.374  -8.852 -15.861  1.00  0.00     0.123 A 
ATOM      9  C   UNL     1      -0.976  -9.017 -14.613  1.00  0.00     0.094 A 
ATOM     10  C   UNL     1      -2.368  -9.012 -14.494  1.00  0.00     0.146 A 
ATOM     11  O   UNL     1      -2.900  -9.162 -13.287  1.00  0.00    -0.452 OA
ENDROOT
BRANCH   1  12
ATOM     12  C   UNL     1      -4.676  -9.354 -11.667  1.00  0.00     0.025 A 
ATOM     13  C   UNL     1      -5.011 -10.646 -11.234  1.00  0.00     0.016 A 
ATOM     14  C   UNL     1      -5.475 -10.859  -9.933  1.00  0.00     0.051 A 
ATOM     15  C   UNL     1      -5.625  -9.785  -9.051  1.00  0.00     0.157 A 
ATOM     16  C   UNL     1      -4.848  -8.271 -10.785  1.00  0.00     0.062 A 
ATOM     17  C   UNL     1      -5.315  -8.482  -9.480  1.00  0.00     0.158 A 
BRANCH  15  18
ATOM     18  O   UNL     1      -6.087 -10.027  -7.758  1.00  0.00    -0.504 OA
ATOM     19  H   UNL     1      -5.500  -9.899  -6.943  1.00  0.00     0.293 HD
ENDBRANCH  15  18
BRANCH  17  20
ATOM     20  O   UNL     1      -5.476  -7.405  -8.611  1.00  0.00    -0.504 OA
ATOM     21  H   UNL     1      -6.136  -7.436  -7.842  1.00  0.00     0.293 HD
ENDBRANCH  17  20
ENDBRANCH   1  12
BRANCH   2  22
ATOM     22  O   UNL     1      -6.472  -8.814 -13.875  1.00  0.00    -0.502 OA
ATOM     23  H   UNL     1      -7.111  -8.387 -14.536  1.00  0.00     0.293 HD
ENDBRANCH   2  22
BRANCH   6  24
ATOM     24  O   UNL     1      -3.263  -8.686 -18.125  1.00  0.00    -0.507 OA
ATOM     25  H   UNL     1      -4.115  -9.191 -18.320  1.00  0.00     0.293 HD
ENDBRANCH   6  24
BRANCH   8  26
ATOM     26  O   UNL     1       1.014  -8.835 -15.985  1.00  0.00    -0.508 OA
ATOM     27  H   UNL     1       1.547  -9.691 -16.091  1.00  0.00     0.293 HD
ENDBRANCH   8  26
TORSDOF 6
ENDMDL
