MODEL 1
REMARK VINA RESULT:    -5.888      0.000      0.000
REMARK INTER + INTRA:          -7.213
REMARK INTER:                  -6.920
REMARK INTRA:                  -0.292
REMARK UNBOUND:                -0.292
REMARK SMILES O=c1cc(-c2ccc(O)c(O)c2)oc2cc(O)cc(O)c12
REMARK SMILES IDX 4 1 3 2 2 3 1 4 21 5 19 6 18 7 16 8 15 9 14 10 13 11 5 12
REMARK SMILES IDX 6 13 7 14 8 15 12 16 10 17 9 18 11 20 20 22 17 24
REMARK H PARENT 9 19 11 21 20 23 17 25
REMARK Flexibility Score: inf
ROOT
ATOM      1  C   UNL     1       5.858   0.468   2.171  1.00  0.00     0.138 A 
ATOM      2  C   UNL     1       5.938   0.435   3.570  1.00  0.00     0.100 A 
ATOM      3  C   UNL     1       6.260  -0.761   4.214  1.00  0.00     0.197 A 
ATOM      4  O   UNL     1       6.386  -0.746   5.466  1.00  0.00    -0.289 OA
ATOM      5  C   UNL     1       6.471  -1.935   3.453  1.00  0.00     0.107 A 
ATOM      6  C   UNL     1       6.764  -3.219   4.005  1.00  0.00     0.134 A 
ATOM      7  C   UNL     1       7.069  -4.284   3.147  1.00  0.00     0.093 A 
ATOM      8  C   UNL     1       7.032  -4.129   1.762  1.00  0.00     0.123 A 
ATOM      9  C   UNL     1       6.693  -2.892   1.212  1.00  0.00     0.094 A 
ATOM     10  C   UNL     1       6.418  -1.801   2.040  1.00  0.00     0.146 A 
ATOM     11  O   UNL     1       6.114  -0.636   1.478  1.00  0.00    -0.456 OA
ENDROOT
BRANCH   1  12
ATOM     12  C   UNL     1       5.518   1.712   1.435  1.00  0.00     0.021 A 
ATOM     13  C   UNL     1       5.774   1.851   0.057  1.00  0.00     0.016 A 
ATOM     14  C   UNL     1       5.454   3.037  -0.607  1.00  0.00     0.051 A 
ATOM     15  C   UNL     1       4.881   4.107   0.091  1.00  0.00     0.157 A 
ATOM     16  C   UNL     1       4.956   2.797   2.132  1.00  0.00     0.062 A 
ATOM     17  C   UNL     1       4.633   3.986   1.468  1.00  0.00     0.158 A 
BRANCH  15  18
ATOM     18  O   UNL     1       4.562   5.288  -0.576  1.00  0.00    -0.504 OA
ATOM     19  H   UNL     1       5.165   6.101  -0.537  1.00  0.00     0.293 HD
ENDBRANCH  15  18
BRANCH  17  20
ATOM     20  O   UNL     1       4.067   5.034   2.193  1.00  0.00    -0.504 OA
ATOM     21  H   UNL     1       3.160   5.422   1.960  1.00  0.00     0.293 HD
ENDBRANCH  17  20
ENDBRANCH   1  12
BRANCH   6  22
ATOM     22  O   UNL     1       6.745  -3.504   5.373  1.00  0.00    -0.507 OA
ATOM     23  H   UNL     1       5.927  -3.456   5.961  1.00  0.00     0.293 HD
ENDBRANCH   6  22
BRANCH   8  24
ATOM     24  O   UNL     1       7.325  -5.215   0.941  1.00  0.00    -0.508 OA
ATOM     25  H   UNL     1       8.074  -5.859   1.161  1.00  0.00     0.293 HD
ENDBRANCH   8  24
TORSDOF 5
ENDMDL
MODEL 2
REMARK VINA RESULT:    -5.837     11.522     13.712
REMARK INTER + INTRA:          -7.153
REMARK INTER:                  -6.863
REMARK INTRA:                  -0.290
REMARK UNBOUND:                -0.292
REMARK SMILES O=c1cc(-c2ccc(O)c(O)c2)oc2cc(O)cc(O)c12
REMARK SMILES IDX 4 1 3 2 2 3 1 4 21 5 19 6 18 7 16 8 15 9 14 10 13 11 5 12
REMARK SMILES IDX 6 13 7 14 8 15 12 16 10 17 9 18 11 20 20 22 17 24
REMARK H PARENT 9 19 11 21 20 23 17 25
REMARK Flexibility Score: inf
ROOT
ATOM      1  C   UNL     1      -5.956  -0.033   2.332  1.00  0.00     0.138 A 
ATOM      2  C   UNL     1      -6.004   0.067   3.729  1.00  0.00     0.100 A 
ATOM      3  C   UNL     1      -6.323   1.290   4.323  1.00  0.00     0.197 A 
ATOM      4  O   UNL     1      -6.418   1.334   5.577  1.00  0.00    -0.289 OA
ATOM      5  C   UNL     1      -6.562   2.424   3.512  1.00  0.00     0.107 A 
ATOM      6  C   UNL     1      -6.855   3.730   4.009  1.00  0.00     0.134 A 
ATOM      7  C   UNL     1      -7.190   4.751   3.109  1.00  0.00     0.093 A 
ATOM      8  C   UNL     1      -7.183   4.530   1.732  1.00  0.00     0.123 A 
ATOM      9  C   UNL     1      -6.846   3.270   1.234  1.00  0.00     0.094 A 
ATOM     10  C   UNL     1      -6.541   2.223   2.107  1.00  0.00     0.146 A 
ATOM     11  O   UNL     1      -6.239   1.035   1.593  1.00  0.00    -0.456 OA
ENDROOT
BRANCH   1  12
ATOM     12  C   UNL     1      -5.622  -1.308   1.648  1.00  0.00     0.021 A 
ATOM     13  C   UNL     1      -6.008  -1.557   0.317  1.00  0.00     0.016 A 
ATOM     14  C   UNL     1      -5.689  -2.771  -0.297  1.00  0.00     0.051 A 
ATOM     15  C   UNL     1      -4.988  -3.758   0.407  1.00  0.00     0.157 A 
ATOM     16  C   UNL     1      -4.931  -2.309   2.352  1.00  0.00     0.062 A 
ATOM     17  C   UNL     1      -4.609  -3.526   1.739  1.00  0.00     0.158 A 
BRANCH  15  18
ATOM     18  O   UNL     1      -4.670  -4.966  -0.211  1.00  0.00    -0.504 OA
ATOM     19  H   UNL     1      -4.894  -5.857   0.218  1.00  0.00     0.293 HD
ENDBRANCH  15  18
BRANCH  17  20
ATOM     20  O   UNL     1      -3.913  -4.489   2.468  1.00  0.00    -0.504 OA
ATOM     21  H   UNL     1      -2.927  -4.669   2.318  1.00  0.00     0.293 HD
ENDBRANCH  17  20
ENDBRANCH   1  12
BRANCH   6  22
ATOM     22  O   UNL     1      -6.806   4.081   5.361  1.00  0.00    -0.507 OA
ATOM     23  H   UNL     1      -5.987   4.017   5.944  1.00  0.00     0.293 HD
ENDBRANCH   6  22
BRANCH   8  24
ATOM     24  O   UNL     1      -7.506   5.572   0.867  1.00  0.00    -0.508 OA
ATOM     25  H   UNL     1      -6.790   6.146   0.438  1.00  0.00     0.293 HD
ENDBRANCH   8  24
TORSDOF 5
ENDMDL
MODEL 3
REMARK VINA RESULT:    -5.640     11.459     12.002
REMARK INTER + INTRA:          -6.921
REMARK INTER:                  -6.609
REMARK INTRA:                  -0.311
REMARK UNBOUND:                -0.292
REMARK SMILES O=c1cc(-c2ccc(O)c(O)c2)oc2cc(O)cc(O)c12
REMARK SMILES IDX 4 1 3 2 2 3 1 4 21 5 19 6 18 7 16 8 15 9 14 10 13 11 5 12
REMARK SMILES IDX 6 13 7 14 8 15 12 16 10 17 9 18 11 20 20 22 17 24
REMARK H PARENT 9 19 11 21 20 23 17 25
REMARK Flexibility Score: inf
ROOT
ATOM      1  C   UNL     1      -5.713   0.376   2.571  1.00  0.00     0.138 A 
ATOM      2  C   UNL     1      -4.816  -0.199   3.482  1.00  0.00     0.100 A 
ATOM      3  C   UNL     1      -4.362  -1.502   3.274  1.00  0.00     0.197 A 
ATOM      4  O   UNL     1      -3.510  -1.969   4.075  1.00  0.00    -0.289 OA
ATOM      5  C   UNL     1      -4.834  -2.243   2.165  1.00  0.00     0.107 A 
ATOM      6  C   UNL     1      -4.472  -3.594   1.877  1.00  0.00     0.134 A 
ATOM      7  C   UNL     1      -4.911  -4.186   0.686  1.00  0.00     0.093 A 
ATOM      8  C   UNL     1      -5.747  -3.501  -0.195  1.00  0.00     0.123 A 
ATOM      9  C   UNL     1      -6.151  -2.199   0.104  1.00  0.00     0.094 A 
ATOM     10  C   UNL     1      -5.702  -1.568   1.267  1.00  0.00     0.146 A 
ATOM     11  O   UNL     1      -6.098  -0.323   1.508  1.00  0.00    -0.456 OA
ENDROOT
BRANCH   1  12
ATOM     12  C   UNL     1      -6.228   1.758   2.744  1.00  0.00     0.021 A 
ATOM     13  C   UNL     1      -6.267   2.381   4.006  1.00  0.00     0.016 A 
ATOM     14  C   UNL     1      -6.767   3.678   4.141  1.00  0.00     0.051 A 
ATOM     15  C   UNL     1      -7.244   4.373   3.022  1.00  0.00     0.157 A 
ATOM     16  C   UNL     1      -6.721   2.457   1.628  1.00  0.00     0.062 A 
ATOM     17  C   UNL     1      -7.222   3.757   1.760  1.00  0.00     0.158 A 
BRANCH  15  18
ATOM     18  O   UNL     1      -7.740   5.668   3.161  1.00  0.00    -0.504 OA
ATOM     19  H   UNL     1      -8.432   6.043   2.523  1.00  0.00     0.293 HD
ENDBRANCH  15  18
BRANCH  17  20
ATOM     20  O   UNL     1      -7.692   4.421   0.627  1.00  0.00    -0.504 OA
ATOM     21  H   UNL     1      -7.616   5.426   0.522  1.00  0.00     0.293 HD
ENDBRANCH  17  20
ENDBRANCH   1  12
BRANCH   6  22
ATOM     22  O   UNL     1      -3.711  -4.397   2.731  1.00  0.00    -0.507 OA
ATOM     23  H   UNL     1      -3.220  -4.068   3.547  1.00  0.00     0.293 HD
ENDBRANCH   6  22
BRANCH   8  24
ATOM     24  O   UNL     1      -6.177  -4.127  -1.362  1.00  0.00    -0.508 OA
ATOM     25  H   UNL     1      -6.150  -3.656  -2.258  1.00  0.00     0.293 HD
ENDBRANCH   8  24
TORSDOF 5
ENDMDL
MODEL 4
REMARK VINA RESULT:    -5.639      1.390      6.972
REMARK INTER + INTRA:          -6.920
REMARK INTER:                  -6.603
REMARK INTRA:                  -0.316
REMARK UNBOUND:                -0.292
REMARK SMILES O=c1cc(-c2ccc(O)c(O)c2)oc2cc(O)cc(O)c12
REMARK SMILES IDX 4 1 3 2 2 3 1 4 21 5 19 6 18 7 16 8 15 9 14 10 13 11 5 12
REMARK SMILES IDX 6 13 7 14 8 15 12 16 10 17 9 18 11 20 20 22 17 24
REMARK H PARENT 9 19 11 21 20 23 17 25
REMARK Flexibility Score: inf
ROOT
ATOM      1  C   UNL     1       5.678  -0.006   2.688  1.00  0.00     0.138 A 
ATOM      2  C   UNL     1       4.825   0.636   3.595  1.00  0.00     0.100 A 
ATOM      3  C   UNL     1       4.393   1.938   3.334  1.00  0.00     0.197 A 
ATOM      4  O   UNL     1       3.578   2.465   4.135  1.00  0.00    -0.289 OA
ATOM      5  C   UNL     1       4.845   2.609   2.174  1.00  0.00     0.107 A 
ATOM      6  C   UNL     1       4.504   3.951   1.827  1.00  0.00     0.134 A 
ATOM      7  C   UNL     1       4.918   4.471   0.593  1.00  0.00     0.093 A 
ATOM      8  C   UNL     1       5.709   3.721  -0.277  1.00  0.00     0.123 A 
ATOM      9  C   UNL     1       6.094   2.427   0.077  1.00  0.00     0.094 A 
ATOM     10  C   UNL     1       5.668   1.868   1.285  1.00  0.00     0.146 A 
ATOM     11  O   UNL     1       6.044   0.628   1.578  1.00  0.00    -0.456 OA
ENDROOT
BRANCH   1  12
ATOM     12  C   UNL     1       6.168  -1.389   2.916  1.00  0.00     0.021 A 
ATOM     13  C   UNL     1       6.042  -2.021   4.168  1.00  0.00     0.016 A 
ATOM     14  C   UNL     1       6.521  -3.320   4.357  1.00  0.00     0.051 A 
ATOM     15  C   UNL     1       7.142  -4.006   3.306  1.00  0.00     0.157 A 
ATOM     16  C   UNL     1       6.805  -2.079   1.870  1.00  0.00     0.062 A 
ATOM     17  C   UNL     1       7.286  -3.380   2.057  1.00  0.00     0.158 A 
BRANCH  15  18
ATOM     18  O   UNL     1       7.618  -5.301   3.499  1.00  0.00    -0.504 OA
ATOM     19  H   UNL     1       8.450  -5.637   3.029  1.00  0.00     0.293 HD
ENDBRANCH  15  18
BRANCH  17  20
ATOM     20  O   UNL     1       7.902  -4.035   0.990  1.00  0.00    -0.504 OA
ATOM     21  H   UNL     1       8.909  -4.103   0.911  1.00  0.00     0.293 HD
ENDBRANCH  17  20
ENDBRANCH   1  12
BRANCH   6  22
ATOM     22  O   UNL     1       3.789   4.816   2.661  1.00  0.00    -0.507 OA
ATOM     23  H   UNL     1       3.292   5.636   2.350  1.00  0.00     0.293 HD
ENDBRANCH   6  22
BRANCH   8  24
ATOM     24  O   UNL     1       6.115   4.277  -1.487  1.00  0.00    -0.508 OA
ATOM     25  H   UNL     1       7.092   4.451  -1.689  1.00  0.00     0.293 HD
ENDBRANCH   8  24
TORSDOF 5
ENDMDL
MODEL 5
REMARK VINA RESULT:    -5.449      3.307      6.828
REMARK INTER + INTRA:          -6.697
REMARK INTER:                  -6.417
REMARK INTRA:                  -0.280
REMARK UNBOUND:                -0.292
REMARK SMILES O=c1cc(-c2ccc(O)c(O)c2)oc2cc(O)cc(O)c12
REMARK SMILES IDX 4 1 3 2 2 3 1 4 21 5 19 6 18 7 16 8 15 9 14 10 13 11 5 12
REMARK SMILES IDX 6 13 7 14 8 15 12 16 10 17 9 18 11 20 20 22 17 24
REMARK H PARENT 9 19 11 21 20 23 17 25
REMARK Flexibility Score: inf
ROOT
ATOM      1  C   UNL     1       5.227   1.337   3.835  1.00  0.00     0.138 A 
ATOM      2  C   UNL     1       3.836   1.185   3.758  1.00  0.00     0.100 A 
ATOM      3  C   UNL     1       3.150   1.670   2.643  1.00  0.00     0.197 A 
ATOM      4  O   UNL     1       1.911   1.465   2.573  1.00  0.00    -0.289 OA
ATOM      5  C   UNL     1       3.859   2.339   1.617  1.00  0.00     0.107 A 
ATOM      6  C   UNL     1       3.260   2.910   0.454  1.00  0.00     0.134 A 
ATOM      7  C   UNL     1       4.076   3.445  -0.551  1.00  0.00     0.093 A 
ATOM      8  C   UNL     1       5.463   3.483  -0.410  1.00  0.00     0.123 A 
ATOM      9  C   UNL     1       6.056   2.976   0.748  1.00  0.00     0.094 A 
ATOM     10  C   UNL     1       5.271   2.404   1.753  1.00  0.00     0.146 A 
ATOM     11  O   UNL     1       5.876   1.920   2.832  1.00  0.00    -0.456 OA
ENDROOT
BRANCH   1  12
ATOM     12  C   UNL     1       6.006   0.840   4.998  1.00  0.00     0.021 A 
ATOM     13  C   UNL     1       5.952  -0.507   5.405  1.00  0.00     0.016 A 
ATOM     14  C   UNL     1       6.688  -0.943   6.509  1.00  0.00     0.051 A 
ATOM     15  C   UNL     1       7.482  -0.044   7.231  1.00  0.00     0.157 A 
ATOM     16  C   UNL     1       6.795   1.740   5.737  1.00  0.00     0.062 A 
ATOM     17  C   UNL     1       7.533   1.304   6.844  1.00  0.00     0.158 A 
BRANCH  15  18
ATOM     18  O   UNL     1       8.215  -0.485   8.332  1.00  0.00    -0.504 OA
ATOM     19  H   UNL     1       9.223  -0.397   8.368  1.00  0.00     0.293 HD
ENDBRANCH  15  18
BRANCH  17  20
ATOM     20  O   UNL     1       8.312   2.226   7.543  1.00  0.00    -0.504 OA
ATOM     21  H   UNL     1       8.279   3.219   7.344  1.00  0.00     0.293 HD
ENDBRANCH  17  20
ENDBRANCH   1  12
BRANCH   6  22
ATOM     22  O   UNL     1       1.879   3.000   0.252  1.00  0.00    -0.507 OA
ATOM     23  H   UNL     1       1.338   3.847   0.337  1.00  0.00     0.293 HD
ENDBRANCH   6  22
BRANCH   8  24
ATOM     24  O   UNL     1       6.242   4.036  -1.422  1.00  0.00    -0.508 OA
ATOM     25  H   UNL     1       6.674   3.459  -2.134  1.00  0.00     0.293 HD
ENDBRANCH   8  24
TORSDOF 5
ENDMDL
MODEL 6
REMARK VINA RESULT:    -5.430      4.514      6.606
REMARK INTER + INTRA:          -6.675
REMARK INTER:                  -6.390
REMARK INTRA:                  -0.285
REMARK UNBOUND:                -0.292
REMARK SMILES O=c1cc(-c2ccc(O)c(O)c2)oc2cc(O)cc(O)c12
REMARK SMILES IDX 4 1 3 2 2 3 1 4 21 5 19 6 18 7 16 8 15 9 14 10 13 11 5 12
REMARK SMILES IDX 6 13 7 14 8 15 12 16 10 17 9 18 11 20 20 22 17 24
REMARK H PARENT 9 19 11 21 20 23 17 25
REMARK Flexibility Score: inf
ROOT
ATOM      1  C   UNL     1       1.671   1.750   2.337  1.00  0.00     0.138 A 
ATOM      2  C   UNL     1       2.590   1.075   3.152  1.00  0.00     0.100 A 
ATOM      3  C   UNL     1       3.954   1.147   2.861  1.00  0.00     0.197 A 
ATOM      4  O   UNL     1       4.759   0.582   3.645  1.00  0.00    -0.289 OA
ATOM      5  C   UNL     1       4.394   1.873   1.728  1.00  0.00     0.107 A 
ATOM      6  C   UNL     1       5.755   1.980   1.311  1.00  0.00     0.134 A 
ATOM      7  C   UNL     1       6.083   2.823   0.241  1.00  0.00     0.093 A 
ATOM      8  C   UNL     1       5.097   3.512  -0.464  1.00  0.00     0.123 A 
ATOM      9  C   UNL     1       3.757   3.371  -0.098  1.00  0.00     0.094 A 
ATOM     10  C   UNL     1       3.401   2.566   0.987  1.00  0.00     0.146 A 
ATOM     11  O   UNL     1       2.116   2.469   1.312  1.00  0.00    -0.456 OA
ENDROOT
BRANCH   1  12
ATOM     12  C   UNL     1       0.211   1.707   2.601  1.00  0.00     0.021 A 
ATOM     13  C   UNL     1      -0.484   0.488   2.721  1.00  0.00     0.016 A 
ATOM     14  C   UNL     1      -1.860   0.477   2.959  1.00  0.00     0.051 A 
ATOM     15  C   UNL     1      -2.568   1.680   3.073  1.00  0.00     0.157 A 
ATOM     16  C   UNL     1      -0.510   2.910   2.703  1.00  0.00     0.062 A 
ATOM     17  C   UNL     1      -1.889   2.902   2.942  1.00  0.00     0.158 A 
BRANCH  15  18
ATOM     18  O   UNL     1      -3.941   1.665   3.312  1.00  0.00    -0.504 OA
ATOM     19  H   UNL     1      -4.318   1.720   4.250  1.00  0.00     0.293 HD
ENDBRANCH  15  18
BRANCH  17  20
ATOM     20  O   UNL     1      -2.565   4.117   3.046  1.00  0.00    -0.504 OA
ATOM     21  H   UNL     1      -2.413   4.875   2.391  1.00  0.00     0.293 HD
ENDBRANCH  17  20
ENDBRANCH   1  12
BRANCH   6  22
ATOM     22  O   UNL     1       6.808   1.269   1.892  1.00  0.00    -0.507 OA
ATOM     23  H   UNL     1       7.764   1.292   1.573  1.00  0.00     0.293 HD
ENDBRANCH   6  22
BRANCH   8  24
ATOM     24  O   UNL     1       5.458   4.328  -1.532  1.00  0.00    -0.508 OA
ATOM     25  H   UNL     1       4.766   4.719  -2.159  1.00  0.00     0.293 HD
ENDBRANCH   8  24
TORSDOF 5
ENDMDL
MODEL 7
REMARK VINA RESULT:    -5.392      1.588      2.926
REMARK INTER + INTRA:          -6.630
REMARK INTER:                  -6.316
REMARK INTRA:                  -0.314
REMARK UNBOUND:                -0.292
REMARK SMILES O=c1cc(-c2ccc(O)c(O)c2)oc2cc(O)cc(O)c12
REMARK SMILES IDX 4 1 3 2 2 3 1 4 21 5 19 6 18 7 16 8 15 9 14 10 13 11 5 12
REMARK SMILES IDX 6 13 7 14 8 15 12 16 10 17 9 18 11 20 20 22 17 24
REMARK H PARENT 9 19 11 21 20 23 17 25
REMARK Flexibility Score: inf
ROOT
ATOM      1  C   UNL     1       5.628   0.368   2.540  1.00  0.00     0.138 A 
ATOM      2  C   UNL     1       6.477  -0.630   2.042  1.00  0.00     0.100 A 
ATOM      3  C   UNL     1       6.701  -1.784   2.796  1.00  0.00     0.197 A 
ATOM      4  O   UNL     1       7.418  -2.689   2.296  1.00  0.00    -0.289 OA
ATOM      5  C   UNL     1       6.096  -1.922   4.067  1.00  0.00     0.107 A 
ATOM      6  C   UNL     1       6.285  -3.036   4.940  1.00  0.00     0.134 A 
ATOM      7  C   UNL     1       5.542  -3.117   6.125  1.00  0.00     0.093 A 
ATOM      8  C   UNL     1       4.665  -2.100   6.498  1.00  0.00     0.123 A 
ATOM      9  C   UNL     1       4.512  -0.980   5.677  1.00  0.00     0.094 A 
ATOM     10  C   UNL     1       5.213  -0.886   4.472  1.00  0.00     0.146 A 
ATOM     11  O   UNL     1       5.030   0.189   3.713  1.00  0.00    -0.456 OA
ENDROOT
BRANCH   1  12
ATOM     12  C   UNL     1       5.356   1.615   1.781  1.00  0.00     0.021 A 
ATOM     13  C   UNL     1       5.660   1.729   0.411  1.00  0.00     0.016 A 
ATOM     14  C   UNL     1       5.403   2.918  -0.275  1.00  0.00     0.051 A 
ATOM     15  C   UNL     1       4.846   4.015   0.394  1.00  0.00     0.157 A 
ATOM     16  C   UNL     1       4.810   2.726   2.448  1.00  0.00     0.062 A 
ATOM     17  C   UNL     1       4.550   3.918   1.763  1.00  0.00     0.158 A 
BRANCH  15  18
ATOM     18  O   UNL     1       4.589   5.199  -0.296  1.00  0.00    -0.504 OA
ATOM     19  H   UNL     1       3.704   5.684  -0.207  1.00  0.00     0.293 HD
ENDBRANCH  15  18
BRANCH  17  20
ATOM     20  O   UNL     1       3.997   4.993   2.459  1.00  0.00    -0.504 OA
ATOM     21  H   UNL     1       3.888   4.982   3.466  1.00  0.00     0.293 HD
ENDBRANCH  17  20
ENDBRANCH   1  12
BRANCH   6  22
ATOM     22  O   UNL     1       7.201  -4.066   4.705  1.00  0.00    -0.507 OA
ATOM     23  H   UNL     1       6.996  -5.049   4.792  1.00  0.00     0.293 HD
ENDBRANCH   6  22
BRANCH   8  24
ATOM     24  O   UNL     1       3.954  -2.207   7.691  1.00  0.00    -0.508 OA
ATOM     25  H   UNL     1       3.990  -1.481   8.396  1.00  0.00     0.293 HD
ENDBRANCH   8  24
TORSDOF 5
ENDMDL
MODEL 8
REMARK VINA RESULT:    -5.345      2.307      3.870
REMARK INTER + INTRA:          -6.575
REMARK INTER:                  -6.306
REMARK INTRA:                  -0.269
REMARK UNBOUND:                -0.292
REMARK SMILES O=c1cc(-c2ccc(O)c(O)c2)oc2cc(O)cc(O)c12
REMARK SMILES IDX 4 1 3 2 2 3 1 4 21 5 19 6 18 7 16 8 15 9 14 10 13 11 5 12
REMARK SMILES IDX 6 13 7 14 8 15 12 16 10 17 9 18 11 20 20 22 17 24
REMARK H PARENT 9 19 11 21 20 23 17 25
REMARK Flexibility Score: inf
ROOT
ATOM      1  C   UNL     1       5.295   0.386   3.444  1.00  0.00     0.138 A 
ATOM      2  C   UNL     1       4.929  -0.966   3.403  1.00  0.00     0.100 A 
ATOM      3  C   UNL     1       5.329  -1.822   4.431  1.00  0.00     0.197 A 
ATOM      4  O   UNL     1       4.934  -3.015   4.398  1.00  0.00    -0.289 OA
ATOM      5  C   UNL     1       6.127  -1.324   5.489  1.00  0.00     0.107 A 
ATOM      6  C   UNL     1       6.628  -2.113   6.568  1.00  0.00     0.134 A 
ATOM      7  C   UNL     1       7.310  -1.487   7.621  1.00  0.00     0.093 A 
ATOM      8  C   UNL     1       7.562  -0.116   7.603  1.00  0.00     0.123 A 
ATOM      9  C   UNL     1       7.124   0.656   6.525  1.00  0.00     0.094 A 
ATOM     10  C   UNL     1       6.410   0.067   5.477  1.00  0.00     0.146 A 
ATOM     11  O   UNL     1       5.998   0.838   4.477  1.00  0.00    -0.456 OA
ENDROOT
BRANCH   1  12
ATOM     12  C   UNL     1       4.897   1.338   2.377  1.00  0.00     0.021 A 
ATOM     13  C   UNL     1       3.575   1.811   2.262  1.00  0.00     0.016 A 
ATOM     14  C   UNL     1       3.227   2.699   1.242  1.00  0.00     0.051 A 
ATOM     15  C   UNL     1       4.187   3.124   0.314  1.00  0.00     0.157 A 
ATOM     16  C   UNL     1       5.851   1.759   1.434  1.00  0.00     0.062 A 
ATOM     17  C   UNL     1       5.505   2.649   0.411  1.00  0.00     0.158 A 
BRANCH  15  18
ATOM     18  O   UNL     1       3.835   4.011  -0.701  1.00  0.00    -0.504 OA
ATOM     19  H   UNL     1       4.506   4.315  -1.397  1.00  0.00     0.293 HD
ENDBRANCH  15  18
BRANCH  17  20
ATOM     20  O   UNL     1       6.483   3.051  -0.498  1.00  0.00    -0.504 OA
ATOM     21  H   UNL     1       6.378   2.915  -1.496  1.00  0.00     0.293 HD
ENDBRANCH  17  20
ENDBRANCH   1  12
BRANCH   6  22
ATOM     22  O   UNL     1       6.506  -3.503   6.643  1.00  0.00    -0.507 OA
ATOM     23  H   UNL     1       6.555  -4.129   5.854  1.00  0.00     0.293 HD
ENDBRANCH   6  22
BRANCH   8  24
ATOM     24  O   UNL     1       8.257   0.469   8.658  1.00  0.00    -0.508 OA
ATOM     25  H   UNL     1       9.269   0.508   8.669  1.00  0.00     0.293 HD
ENDBRANCH   8  24
TORSDOF 5
ENDMDL
MODEL 9
REMARK VINA RESULT:    -5.342      8.163      8.892
REMARK INTER + INTRA:          -6.572
REMARK INTER:                  -6.308
REMARK INTRA:                  -0.264
REMARK UNBOUND:                -0.292
REMARK SMILES O=c1cc(-c2ccc(O)c(O)c2)oc2cc(O)cc(O)c12
REMARK SMILES IDX 4 1 3 2 2 3 1 4 21 5 19 6 18 7 16 8 15 9 14 10 13 11 5 12
REMARK SMILES IDX 6 13 7 14 8 15 12 16 10 17 9 18 11 20 20 22 17 24
REMARK H PARENT 9 19 11 21 20 23 17 25
REMARK Flexibility Score: inf
ROOT
ATOM      1  C   UNL     1      -1.328  -0.002   2.657  1.00  0.00     0.138 A 
ATOM      2  C   UNL     1      -2.273   0.664   3.449  1.00  0.00     0.100 A 
ATOM      3  C   UNL     1      -3.594   0.214   3.475  1.00  0.00     0.197 A 
ATOM      4  O   UNL     1      -4.404   0.794   4.243  1.00  0.00    -0.289 OA
ATOM      5  C   UNL     1      -3.976  -0.890   2.676  1.00  0.00     0.107 A 
ATOM      6  C   UNL     1      -5.302  -1.410   2.591  1.00  0.00     0.134 A 
ATOM      7  C   UNL     1      -5.538  -2.580   1.857  1.00  0.00     0.093 A 
ATOM      8  C   UNL     1      -4.511  -3.213   1.158  1.00  0.00     0.123 A 
ATOM      9  C   UNL     1      -3.220  -2.681   1.191  1.00  0.00     0.094 A 
ATOM     10  C   UNL     1      -2.946  -1.535   1.942  1.00  0.00     0.146 A 
ATOM     11  O   UNL     1      -1.702  -1.070   1.959  1.00  0.00    -0.456 OA
ENDROOT
BRANCH   1  12
ATOM     12  C   UNL     1       0.089   0.435   2.592  1.00  0.00     0.021 A 
ATOM     13  C   UNL     1       1.124  -0.320   3.178  1.00  0.00     0.016 A 
ATOM     14  C   UNL     1       2.448   0.121   3.111  1.00  0.00     0.051 A 
ATOM     15  C   UNL     1       2.761   1.324   2.467  1.00  0.00     0.157 A 
ATOM     16  C   UNL     1       0.411   1.648   1.960  1.00  0.00     0.062 A 
ATOM     17  C   UNL     1       1.737   2.092   1.890  1.00  0.00     0.158 A 
BRANCH  15  18
ATOM     18  O   UNL     1       4.084   1.759   2.401  1.00  0.00    -0.504 OA
ATOM     19  H   UNL     1       4.684   1.760   3.217  1.00  0.00     0.293 HD
ENDBRANCH  15  18
BRANCH  17  20
ATOM     20  O   UNL     1       2.015   3.296   1.244  1.00  0.00    -0.504 OA
ATOM     21  H   UNL     1       1.703   3.484   0.299  1.00  0.00     0.293 HD
ENDBRANCH  17  20
ENDBRANCH   1  12
BRANCH   6  22
ATOM     22  O   UNL     1      -6.417  -0.808   3.181  1.00  0.00    -0.507 OA
ATOM     23  H   UNL     1      -6.524   0.183   3.334  1.00  0.00     0.293 HD
ENDBRANCH   6  22
BRANCH   8  24
ATOM     24  O   UNL     1      -4.785  -4.365   0.426  1.00  0.00    -0.508 OA
ATOM     25  H   UNL     1      -4.860  -4.346  -0.584  1.00  0.00     0.293 HD
ENDBRANCH   8  24
TORSDOF 5
ENDMDL
