MODEL 1
REMARK VINA RESULT:    -3.716      0.000      0.000
REMARK INTER + INTRA:          -5.441
REMARK INTER:                  -5.237
REMARK INTRA:                  -0.203
REMARK UNBOUND:                -0.203
REMARK SMILES CC1=CCC(=C(C)C)C(=O)CC(C)=CCC1
REMARK SMILES IDX 12 1 14 2 13 3 15 4 16 5 2 6 1 7 3 8 11 10 9 11 10 12 5 13
REMARK SMILES IDX 6 14 7 15 8 16 4 17
REMARK H PARENT
REMARK Flexibility Score: 60.00
ROOT
ATOM      1  C   UNL     1      19.803  27.749  28.379  1.00  0.00    -0.070 C 
ATOM      2  C   UNL     1      19.663  26.426  28.132  1.00  0.00    -0.027 C 
ATOM      3  C   UNL     1      21.159  28.256  28.800  1.00  0.00     0.039 C 
ENDROOT
BRANCH   2   4
ATOM      4  C   UNL     1      18.422  25.761  27.584  1.00  0.00     0.032 C 
BRANCH   4   5
ATOM      5  C   UNL     1      17.455  25.207  28.641  1.00  0.00     0.034 C 
BRANCH   5   6
ATOM      6  C   UNL     1      16.003  25.572  28.398  1.00  0.00    -0.077 C 
ATOM      7  C   UNL     1      15.237  24.770  27.375  1.00  0.00     0.039 C 
ATOM      8  C   UNL     1      15.360  26.614  28.984  1.00  0.00    -0.023 CG0
ATOM      9  G   UNL     1      15.829  27.488  30.130  1.00  0.00     0.000 G0
ENDBRANCH   5   6
ENDBRANCH   4   5
ENDBRANCH   2   4
BRANCH   1  10
ATOM     10  C   UNL     1      18.652  28.730  28.337  1.00  0.00     0.111 C 
BRANCH  10  11
ATOM     11  C   UNL     1      17.960  28.812  29.674  1.00  0.00     0.163 C 
ATOM     12  O   UNL     1      18.659  28.863  30.722  1.00  0.00    -0.294 OA
BRANCH  11  13
ATOM     13  C   UNL     1      16.478  28.825  29.799  1.00  0.00    -0.002 C 
ATOM     14  C   UNL     1      15.795  30.002  29.762  1.00  0.00    -0.069 C 
ATOM     15  C   UNL     1      16.507  31.295  29.437  1.00  0.00     0.039 C 
ATOM     16  C   UNL     1      14.307  30.061  30.017  1.00  0.00     0.039 C 
BRANCH  13  17
ATOM     17  C   UNL     1      15.806  27.508  30.141  1.00  0.00     0.066 CG0
ATOM     18  G   UNL     1      15.375  26.629  28.983  1.00  0.00     0.000 G0
ENDBRANCH  13  17
ENDBRANCH  11  13
ENDBRANCH  10  11
ENDBRANCH   1  10
TORSDOF 0
ENDMDL
MODEL 2
REMARK VINA RESULT:    -3.693      1.902      2.760
REMARK INTER + INTRA:          -5.407
REMARK INTER:                  -5.315
REMARK INTRA:                  -0.092
REMARK UNBOUND:                -0.203
REMARK SMILES CC1=CCC(=C(C)C)C(=O)CC(C)=CCC1
REMARK SMILES IDX 12 1 14 2 13 3 15 4 16 5 2 6 1 7 3 8 11 10 9 11 10 12 5 13
REMARK SMILES IDX 6 14 7 15 8 16 4 17
REMARK H PARENT
REMARK Flexibility Score: 60.00
ROOT
ATOM      1  C   UNL     1      20.695  30.750  30.171  1.00  0.00    -0.070 C 
ATOM      2  C   UNL     1      21.232  29.553  29.842  1.00  0.00    -0.027 C 
ATOM      3  C   UNL     1      21.432  31.613  31.166  1.00  0.00     0.039 C 
ENDROOT
BRANCH   2   4
ATOM      4  C   UNL     1      20.706  28.617  28.779  1.00  0.00     0.032 C 
BRANCH   4   5
ATOM      5  C   UNL     1      19.995  27.362  29.306  1.00  0.00     0.034 C 
BRANCH   5   6
ATOM      6  C   UNL     1      18.623  27.130  28.702  1.00  0.00    -0.077 C 
ATOM      7  C   UNL     1      18.528  26.224  27.498  1.00  0.00     0.039 C 
ATOM      8  C   UNL     1      17.483  27.736  29.120  1.00  0.00    -0.023 CG0
ATOM      9  G   UNL     1      17.260  28.570  30.366  1.00  0.00     0.000 G0
ENDBRANCH   5   6
ENDBRANCH   4   5
ENDBRANCH   2   4
BRANCH   1  10
ATOM     10  C   UNL     1      19.355  31.232  29.660  1.00  0.00     0.111 C 
BRANCH  10  11
ATOM     11  C   UNL     1      18.250  30.887  30.625  1.00  0.00     0.163 C 
ATOM     12  O   UNL     1      18.318  31.314  31.810  1.00  0.00    -0.294 OA
BRANCH  11  13
ATOM     13  C   UNL     1      17.086  30.050  30.231  1.00  0.00    -0.002 C 
ATOM     14  C   UNL     1      15.899  30.633  29.907  1.00  0.00    -0.069 C 
ATOM     15  C   UNL     1      15.786  32.135  29.789  1.00  0.00     0.039 C 
ATOM     16  C   UNL     1      14.663  29.809  29.630  1.00  0.00     0.039 C 
BRANCH  13  17
ATOM     17  C   UNL     1      17.238  28.548  30.380  1.00  0.00     0.066 CG0
ATOM     18  G   UNL     1      17.494  27.749  29.117  1.00  0.00     0.000 G0
ENDBRANCH  13  17
ENDBRANCH  11  13
ENDBRANCH  10  11
ENDBRANCH   1  10
TORSDOF 0
ENDMDL
MODEL 3
REMARK VINA RESULT:    -3.582      2.937      5.918
REMARK INTER + INTRA:          -5.251
REMARK INTER:                  -5.167
REMARK INTRA:                  -0.084
REMARK UNBOUND:                -0.203
REMARK SMILES CC1=CCC(=C(C)C)C(=O)CC(C)=CCC1
REMARK SMILES IDX 12 1 14 2 13 3 15 4 16 5 2 6 1 7 3 8 11 10 9 11 10 12 5 13
REMARK SMILES IDX 6 14 7 15 8 16 4 17
REMARK H PARENT
REMARK Flexibility Score: 60.00
ROOT
ATOM      1  C   UNL     1      18.577  27.522  28.346  1.00  0.00    -0.070 C 
ATOM      2  C   UNL     1      17.621  27.918  29.217  1.00  0.00    -0.027 C 
ATOM      3  C   UNL     1      18.320  26.288  27.517  1.00  0.00     0.039 C 
ENDROOT
BRANCH   2   4
ATOM      4  C   UNL     1      17.648  29.189  30.033  1.00  0.00     0.032 C 
BRANCH   4   5
ATOM      5  C   UNL     1      18.454  29.113  31.338  1.00  0.00     0.034 C 
BRANCH   5   6
ATOM      6  C   UNL     1      19.421  30.264  31.534  1.00  0.00    -0.077 C 
ATOM      7  C   UNL     1      18.842  31.628  31.827  1.00  0.00     0.039 C 
ATOM      8  C   UNL     1      20.768  30.174  31.394  1.00  0.00    -0.023 CG0
ATOM      9  G   UNL     1      21.619  28.929  31.242  1.00  0.00     0.000 G0
ENDBRANCH   5   6
ENDBRANCH   4   5
ENDBRANCH   2   4
BRANCH   1  10
ATOM     10  C   UNL     1      19.923  28.201  28.221  1.00  0.00     0.111 C 
BRANCH  10  11
ATOM     11  C   UNL     1      20.920  27.614  29.187  1.00  0.00     0.163 C 
ATOM     12  O   UNL     1      20.871  26.379  29.439  1.00  0.00    -0.294 OA
BRANCH  11  13
ATOM     13  C   UNL     1      21.953  28.443  29.862  1.00  0.00    -0.002 C 
ATOM     14  C   UNL     1      23.179  28.608  29.296  1.00  0.00    -0.069 C 
ATOM     15  C   UNL     1      23.462  28.087  27.906  1.00  0.00     0.039 C 
ATOM     16  C   UNL     1      24.292  29.334  30.017  1.00  0.00     0.039 C 
BRANCH  13  17
ATOM     17  C   UNL     1      21.633  28.933  31.263  1.00  0.00     0.066 CG0
ATOM     18  G   UNL     1      20.775  30.176  31.383  1.00  0.00     0.000 G0
ENDBRANCH  13  17
ENDBRANCH  11  13
ENDBRANCH  10  11
ENDBRANCH   1  10
TORSDOF 0
ENDMDL
MODEL 4
REMARK VINA RESULT:    -3.541      2.343      4.607
REMARK INTER + INTRA:          -5.193
REMARK INTER:                  -5.062
REMARK INTRA:                  -0.131
REMARK UNBOUND:                -0.203
REMARK SMILES CC1=CCC(=C(C)C)C(=O)CC(C)=CCC1
REMARK SMILES IDX 12 1 14 2 13 3 15 4 16 5 2 6 1 7 3 8 11 10 9 11 10 12 5 13
REMARK SMILES IDX 6 14 7 15 8 16 4 17
REMARK H PARENT
REMARK Flexibility Score: 60.00
ROOT
ATOM      1  C   UNL     1      20.343  25.311  27.853  1.00  0.00    -0.070 C 
ATOM      2  C   UNL     1      21.601  25.803  27.942  1.00  0.00    -0.027 C 
ATOM      3  C   UNL     1      20.065  24.244  26.824  1.00  0.00     0.039 C 
ENDROOT
BRANCH   2   4
ATOM      4  C   UNL     1      22.092  26.777  28.987  1.00  0.00     0.032 C 
BRANCH   4   5
ATOM      5  C   UNL     1      22.125  28.248  28.547  1.00  0.00     0.034 C 
BRANCH   5   6
ATOM      6  C   UNL     1      21.589  29.214  29.586  1.00  0.00    -0.077 C 
ATOM      7  C   UNL     1      22.529  29.670  30.675  1.00  0.00     0.039 C 
ATOM      8  C   UNL     1      20.303  29.645  29.649  1.00  0.00    -0.023 CG0
ATOM      9  G   UNL     1      19.197  29.464  28.629  1.00  0.00     0.000 G0
ENDBRANCH   5   6
ENDBRANCH   4   5
ENDBRANCH   2   4
BRANCH   1  10
ATOM     10  C   UNL     1      19.185  25.835  28.673  1.00  0.00     0.111 C 
BRANCH  10  11
ATOM     11  C   UNL     1      18.571  27.053  28.030  1.00  0.00     0.163 C 
ATOM     12  O   UNL     1      18.320  27.029  26.795  1.00  0.00    -0.294 OA
BRANCH  11  13
ATOM     13  C   UNL     1      18.261  28.285  28.802  1.00  0.00    -0.002 C 
ATOM     14  C   UNL     1      17.101  28.381  29.507  1.00  0.00    -0.069 C 
ATOM     15  C   UNL     1      16.185  27.188  29.648  1.00  0.00     0.039 C 
ATOM     16  C   UNL     1      16.697  29.665  30.193  1.00  0.00     0.039 C 
BRANCH  13  17
ATOM     17  C   UNL     1      19.200  29.464  28.619  1.00  0.00     0.066 CG0
ATOM     18  G   UNL     1      20.295  29.644  29.651  1.00  0.00     0.000 G0
ENDBRANCH  13  17
ENDBRANCH  11  13
ENDBRANCH  10  11
ENDBRANCH   1  10
TORSDOF 0
ENDMDL
MODEL 5
REMARK VINA RESULT:    -3.500      2.568      4.576
REMARK INTER + INTRA:          -5.136
REMARK INTER:                  -5.487
REMARK INTRA:                   0.351
REMARK UNBOUND:                -0.203
REMARK SMILES CC1=CCC(=C(C)C)C(=O)CC(C)=CCC1
REMARK SMILES IDX 12 1 14 2 13 3 15 4 16 5 2 6 1 7 3 8 11 10 9 11 10 12 5 13
REMARK SMILES IDX 6 14 7 15 8 16 4 17
REMARK H PARENT
REMARK Flexibility Score: 60.00
ROOT
ATOM      1  C   UNL     1      18.379  26.133  27.975  1.00  0.00    -0.070 C 
ATOM      2  C   UNL     1      19.312  25.166  27.818  1.00  0.00    -0.027 C 
ATOM      3  C   UNL     1      16.931  25.721  28.061  1.00  0.00     0.039 C 
ENDROOT
BRANCH   2   4
ATOM      4  C   UNL     1      20.808  25.376  27.838  1.00  0.00     0.032 C 
BRANCH   4   5
ATOM      5  C   UNL     1      21.365  25.993  29.129  1.00  0.00     0.034 C 
BRANCH   5   6
ATOM      6  C   UNL     1      22.151  27.272  28.912  1.00  0.00    -0.077 C 
ATOM      7  C   UNL     1      23.307  27.232  27.943  1.00  0.00     0.039 C 
ATOM      8  C   UNL     1      21.935  28.433  29.581  1.00  0.00    -0.023 CG0
ATOM      9  G   UNL     1      20.779  28.797  30.492  1.00  0.00     0.000 G0
ENDBRANCH   5   6
ENDBRANCH   4   5
ENDBRANCH   2   4
BRANCH   1  10
ATOM     10  C   UNL     1      18.705  27.611  27.983  1.00  0.00     0.111 C 
BRANCH  10  11
ATOM     11  C   UNL     1      18.566  28.189  29.368  1.00  0.00     0.163 C 
ATOM     12  O   UNL     1      17.647  27.763  30.119  1.00  0.00    -0.294 OA
BRANCH  11  13
ATOM     13  C   UNL     1      19.470  29.255  29.877  1.00  0.00    -0.002 C 
ATOM     14  C   UNL     1      19.192  30.565  29.634  1.00  0.00    -0.069 C 
ATOM     15  C   UNL     1      17.888  30.968  28.986  1.00  0.00     0.039 C 
ATOM     16  C   UNL     1      20.155  31.663  30.022  1.00  0.00     0.039 C 
BRANCH  13  17
ATOM     17  C   UNL     1      20.776  28.806  30.507  1.00  0.00     0.066 CG0
ATOM     18  G   UNL     1      21.911  28.450  29.567  1.00  0.00     0.000 G0
ENDBRANCH  13  17
ENDBRANCH  11  13
ENDBRANCH  10  11
ENDBRANCH   1  10
TORSDOF 0
ENDMDL
MODEL 6
REMARK VINA RESULT:    -3.429      2.406      5.237
REMARK INTER + INTRA:          -5.035
REMARK INTER:                  -5.360
REMARK INTRA:                   0.325
REMARK UNBOUND:                -0.203
REMARK SMILES CC1=CCC(=C(C)C)C(=O)CC(C)=CCC1
REMARK SMILES IDX 12 1 14 2 13 3 15 4 16 5 2 6 1 7 3 8 11 10 9 11 10 12 5 13
REMARK SMILES IDX 6 14 7 15 8 16 4 17
REMARK H PARENT
REMARK Flexibility Score: 60.00
ROOT
ATOM      1  C   UNL     1      19.670  32.796  30.007  1.00  0.00    -0.070 C 
ATOM      2  C   UNL     1      18.503  33.378  29.646  1.00  0.00    -0.027 C 
ATOM      3  C   UNL     1      20.530  33.497  31.030  1.00  0.00     0.039 C 
ENDROOT
BRANCH   2   4
ATOM      4  C   UNL     1      17.462  32.767  28.738  1.00  0.00     0.032 C 
BRANCH   4   5
ATOM      5  C   UNL     1      16.114  32.452  29.404  1.00  0.00     0.034 C 
BRANCH   5   6
ATOM      6  C   UNL     1      16.231  31.626  30.671  1.00  0.00    -0.077 C 
ATOM      7  C   UNL     1      15.676  32.211  31.947  1.00  0.00     0.039 C 
ATOM      8  C   UNL     1      16.863  30.427  30.756  1.00  0.00    -0.023 CG0
ATOM      9  G   UNL     1      17.382  29.553  29.632  1.00  0.00     0.000 G0
ENDBRANCH   5   6
ENDBRANCH   4   5
ENDBRANCH   2   4
BRANCH   1  10
ATOM     10  C   UNL     1      20.198  31.526  29.377  1.00  0.00     0.111 C 
BRANCH  10  11
ATOM     11  C   UNL     1      19.740  30.310  30.140  1.00  0.00     0.163 C 
ATOM     12  O   UNL     1      20.132  30.152  31.328  1.00  0.00    -0.294 OA
BRANCH  11  13
ATOM     13  C   UNL     1      18.849  29.284  29.536  1.00  0.00    -0.002 C 
ATOM     14  C   UNL     1      19.375  28.260  28.810  1.00  0.00    -0.069 C 
ATOM     15  C   UNL     1      20.870  28.057  28.735  1.00  0.00     0.039 C 
ATOM     16  C   UNL     1      18.492  27.278  28.075  1.00  0.00     0.039 C 
BRANCH  13  17
ATOM     17  C   UNL     1      17.355  29.536  29.621  1.00  0.00     0.066 CG0
ATOM     18  G   UNL     1      16.865  30.420  30.751  1.00  0.00     0.000 G0
ENDBRANCH  13  17
ENDBRANCH  11  13
ENDBRANCH  10  11
ENDBRANCH   1  10
TORSDOF 0
ENDMDL
MODEL 7
REMARK VINA RESULT:    -3.419      1.419      2.134
REMARK INTER + INTRA:          -5.022
REMARK INTER:                  -5.251
REMARK INTRA:                   0.229
REMARK UNBOUND:                -0.203
REMARK SMILES CC1=CCC(=C(C)C)C(=O)CC(C)=CCC1
REMARK SMILES IDX 12 1 14 2 13 3 15 4 16 5 2 6 1 7 3 8 11 10 9 11 10 12 5 13
REMARK SMILES IDX 6 14 7 15 8 16 4 17
REMARK H PARENT
REMARK Flexibility Score: 60.00
ROOT
ATOM      1  C   UNL     1      17.884  25.928  27.930  1.00  0.00    -0.070 C 
ATOM      2  C   UNL     1      16.906  24.993  27.903  1.00  0.00    -0.027 C 
ATOM      3  C   UNL     1      19.307  25.467  28.128  1.00  0.00     0.039 C 
ENDROOT
BRANCH   2   4
ATOM      4  C   UNL     1      15.451  25.254  27.592  1.00  0.00     0.032 C 
BRANCH   4   5
ATOM      5  C   UNL     1      14.457  24.775  28.661  1.00  0.00     0.034 C 
BRANCH   5   6
ATOM      6  C   UNL     1      14.763  25.281  30.058  1.00  0.00    -0.077 C 
ATOM      7  C   UNL     1      14.990  24.257  31.143  1.00  0.00     0.039 C 
ATOM      8  C   UNL     1      14.777  26.589  30.420  1.00  0.00    -0.023 CG0
ATOM      9  G   UNL     1      14.721  27.815  29.530  1.00  0.00     0.000 G0
ENDBRANCH   5   6
ENDBRANCH   4   5
ENDBRANCH   2   4
BRANCH   1  10
ATOM     10  C   UNL     1      17.618  27.415  27.857  1.00  0.00     0.111 C 
BRANCH  10  11
ATOM     11  C   UNL     1      17.268  27.971  29.214  1.00  0.00     0.163 C 
ATOM     12  O   UNL     1      18.086  27.826  30.162  1.00  0.00    -0.294 OA
BRANCH  11  13
ATOM     13  C   UNL     1      15.985  28.677  29.474  1.00  0.00    -0.002 C 
ATOM     14  C   UNL     1      15.981  30.000  29.792  1.00  0.00    -0.069 C 
ATOM     15  C   UNL     1      17.256  30.810  29.732  1.00  0.00     0.039 C 
ATOM     16  C   UNL     1      14.711  30.715  30.190  1.00  0.00     0.039 C 
BRANCH  13  17
ATOM     17  C   UNL     1      14.732  27.823  29.541  1.00  0.00     0.066 CG0
ATOM     18  G   UNL     1      14.777  26.596  30.430  1.00  0.00     0.000 G0
ENDBRANCH  13  17
ENDBRANCH  11  13
ENDBRANCH  10  11
ENDBRANCH   1  10
TORSDOF 0
ENDMDL
MODEL 8
REMARK VINA RESULT:    -3.291      2.454      4.577
REMARK INTER + INTRA:          -4.841
REMARK INTER:                  -4.698
REMARK INTRA:                  -0.143
REMARK UNBOUND:                -0.203
REMARK SMILES CC1=CCC(=C(C)C)C(=O)CC(C)=CCC1
REMARK SMILES IDX 12 1 14 2 13 3 15 4 16 5 2 6 1 7 3 8 11 10 9 11 10 12 5 13
REMARK SMILES IDX 6 14 7 15 8 16 4 17
REMARK H PARENT
REMARK Flexibility Score: 60.00
ROOT
ATOM      1  C   UNL     1      15.864  27.677  29.707  1.00  0.00    -0.070 C 
ATOM      2  C   UNL     1      16.904  27.203  28.983  1.00  0.00    -0.027 C 
ATOM      3  C   UNL     1      14.479  27.178  29.378  1.00  0.00     0.039 C 
ENDROOT
BRANCH   2   4
ATOM      4  C   UNL     1      18.362  27.491  29.249  1.00  0.00     0.032 C 
BRANCH   4   5
ATOM      5  C   UNL     1      19.003  28.536  28.323  1.00  0.00     0.034 C 
BRANCH   5   6
ATOM      6  C   UNL     1      19.856  29.561  29.046  1.00  0.00    -0.077 C 
ATOM      7  C   UNL     1      21.311  29.231  29.274  1.00  0.00     0.039 C 
ATOM      8  C   UNL     1      19.389  30.724  29.568  1.00  0.00    -0.023 CG0
ATOM      9  G   UNL     1      18.030  31.366  29.374  1.00  0.00     0.000 G0
ENDBRANCH   5   6
ENDBRANCH   4   5
ENDBRANCH   2   4
BRANCH   1  10
ATOM     10  C   UNL     1      16.006  28.744  30.771  1.00  0.00     0.111 C 
BRANCH  10  11
ATOM     11  C   UNL     1      15.951  30.124  30.167  1.00  0.00     0.163 C 
ATOM     12  O   UNL     1      15.000  30.413  29.391  1.00  0.00    -0.294 OA
BRANCH  11  13
ATOM     13  C   UNL     1      16.987  31.153  30.447  1.00  0.00    -0.002 C 
ATOM     14  C   UNL     1      16.886  31.949  31.546  1.00  0.00    -0.069 C 
ATOM     15  C   UNL     1      15.813  31.699  32.581  1.00  0.00     0.039 C 
ATOM     16  C   UNL     1      17.848  33.088  31.789  1.00  0.00     0.039 C 
BRANCH  13  17
ATOM     17  C   UNL     1      18.037  31.381  29.374  1.00  0.00     0.066 CG0
ATOM     18  G   UNL     1      19.386  30.721  29.574  1.00  0.00     0.000 G0
ENDBRANCH  13  17
ENDBRANCH  11  13
ENDBRANCH  10  11
ENDBRANCH   1  10
TORSDOF 0
ENDMDL
MODEL 9
REMARK VINA RESULT:    -3.241      2.965      5.131
REMARK INTER + INTRA:          -4.771
REMARK INTER:                  -5.020
REMARK INTRA:                   0.249
REMARK UNBOUND:                -0.203
REMARK SMILES CC1=CCC(=C(C)C)C(=O)CC(C)=CCC1
REMARK SMILES IDX 12 1 14 2 13 3 15 4 16 5 2 6 1 7 3 8 11 10 9 11 10 12 5 13
REMARK SMILES IDX 6 14 7 15 8 16 4 17
REMARK H PARENT
REMARK Flexibility Score: 60.00
ROOT
ATOM      1  C   UNL     1      19.527  28.251  28.526  1.00  0.00    -0.070 C 
ATOM      2  C   UNL     1      20.780  27.820  28.797  1.00  0.00    -0.027 C 
ATOM      3  C   UNL     1      18.520  27.248  28.021  1.00  0.00     0.039 C 
ENDROOT
BRANCH   2   4
ATOM      4  C   UNL     1      21.878  28.647  29.424  1.00  0.00     0.032 C 
BRANCH   4   5
ATOM      5  C   UNL     1      21.675  28.986  30.908  1.00  0.00     0.034 C 
BRANCH   5   6
ATOM      6  C   UNL     1      21.748  30.469  31.217  1.00  0.00    -0.077 C 
ATOM      7  C   UNL     1      23.068  31.169  31.005  1.00  0.00     0.039 C 
ATOM      8  C   UNL     1      20.730  31.200  31.739  1.00  0.00    -0.023 CG0
ATOM      9  G   UNL     1      19.279  30.801  31.921  1.00  0.00     0.000 G0
ENDBRANCH   5   6
ENDBRANCH   4   5
ENDBRANCH   2   4
BRANCH   1  10
ATOM     10  C   UNL     1      19.106  29.701  28.623  1.00  0.00     0.111 C 
BRANCH  10  11
ATOM     11  C   UNL     1      18.167  29.917  29.783  1.00  0.00     0.163 C 
ATOM     12  O   UNL     1      17.195  29.129  29.936  1.00  0.00    -0.294 OA
BRANCH  11  13
ATOM     13  C   UNL     1      18.342  31.036  30.746  1.00  0.00    -0.002 C 
ATOM     14  C   UNL     1      17.808  32.260  30.483  1.00  0.00    -0.069 C 
ATOM     15  C   UNL     1      16.899  32.463  29.293  1.00  0.00     0.039 C 
ATOM     16  C   UNL     1      18.077  33.449  31.375  1.00  0.00     0.039 C 
BRANCH  13  17
ATOM     17  C   UNL     1      19.275  30.794  31.918  1.00  0.00     0.066 CG0
ATOM     18  G   UNL     1      20.726  31.197  31.743  1.00  0.00     0.000 G0
ENDBRANCH  13  17
ENDBRANCH  11  13
ENDBRANCH  10  11
ENDBRANCH   1  10
TORSDOF 0
ENDMDL
