MODEL 1
REMARK VINA RESULT:    -3.713      0.000      0.000
REMARK INTER + INTRA:          -3.821
REMARK INTER:                  -3.821
REMARK INTRA:                   0.000
REMARK UNBOUND:                 0.000
REMARK SMILES CC1(C)[C@H]2CC[C@]1(C)[C@@H](O)C2
REMARK SMILES IDX 1 1 2 2 4 3 5 4 6 5 7 6 9 7 11 8 8 9 3 10 10 11
REMARK H PARENT 10 12
REMARK Flexibility Score: inf
ROOT
ATOM      1  C   UNL     1     115.765 115.940 119.489  1.00  0.00     0.012 C 
ATOM      2  C   UNL     1     115.786 116.116 117.940  1.00  0.00    -0.025 C 
ATOM      3  C   UNL     1     117.028 115.512 117.265  1.00  0.00    -0.002 C 
ATOM      4  C   UNL     1     116.861 115.923 115.781  1.00  0.00     0.005 C 
ATOM      5  C   UNL     1     116.225 117.324 115.884  1.00  0.00     0.010 C 
ATOM      6  C   UNL     1     116.119 117.536 117.421  1.00  0.00    -0.001 C 
ATOM      7  C   UNL     1     117.578 117.784 117.908  1.00  0.00     0.121 C 
ATOM      8  C   UNL     1     118.195 116.367 117.822  1.00  0.00     0.036 C 
ATOM      9  C   UNL     1     115.126 118.645 117.802  1.00  0.00     0.015 C 
ATOM     10  C   UNL     1     114.437 115.519 117.430  1.00  0.00     0.012 C 
ENDROOT
BRANCH   7  11
ATOM     11  O   UNL     1     117.616 118.291 119.217  1.00  0.00    -0.393 OA
ATOM     12  H   UNL     1     116.783 118.818 119.339  1.00  0.00     0.210 HD
ENDBRANCH   7  11
TORSDOF 1
ENDMDL
MODEL 2
REMARK VINA RESULT:    -3.710      1.498      3.112
REMARK INTER + INTRA:          -3.819
REMARK INTER:                  -3.819
REMARK INTRA:                   0.000
REMARK UNBOUND:                 0.000
REMARK SMILES CC1(C)[C@H]2CC[C@]1(C)[C@@H](O)C2
REMARK SMILES IDX 1 1 2 2 4 3 5 4 6 5 7 6 9 7 11 8 8 9 3 10 10 11
REMARK H PARENT 10 12
REMARK Flexibility Score: inf
ROOT
ATOM      1  C   UNL     1     117.371 117.286 119.472  1.00  0.00     0.012 C 
ATOM      2  C   UNL     1     117.360 117.096 117.925  1.00  0.00    -0.025 C 
ATOM      3  C   UNL     1     116.120 117.690 117.238  1.00  0.00    -0.002 C 
ATOM      4  C   UNL     1     116.296 117.266 115.758  1.00  0.00     0.005 C 
ATOM      5  C   UNL     1     116.937 115.868 115.878  1.00  0.00     0.010 C 
ATOM      6  C   UNL     1     117.034 115.670 117.416  1.00  0.00    -0.001 C 
ATOM      7  C   UNL     1     115.573 115.422 117.898  1.00  0.00     0.121 C 
ATOM      8  C   UNL     1     114.952 116.836 117.796  1.00  0.00     0.036 C 
ATOM      9  C   UNL     1     118.029 114.568 117.814  1.00  0.00     0.015 C 
ATOM     10  C   UNL     1     118.710 117.692 117.418  1.00  0.00     0.012 C 
ENDROOT
BRANCH   7  11
ATOM     11  O   UNL     1     115.530 114.927 119.211  1.00  0.00    -0.393 OA
ATOM     12  H   UNL     1     115.461 115.718 119.808  1.00  0.00     0.210 HD
ENDBRANCH   7  11
TORSDOF 1
ENDMDL
MODEL 3
REMARK VINA RESULT:    -3.706      1.266      2.212
REMARK INTER + INTRA:          -3.815
REMARK INTER:                  -3.815
REMARK INTRA:                   0.000
REMARK UNBOUND:                 0.000
REMARK SMILES CC1(C)[C@H]2CC[C@]1(C)[C@@H](O)C2
REMARK SMILES IDX 1 1 2 2 4 3 5 4 6 5 7 6 9 7 11 8 8 9 3 10 10 11
REMARK H PARENT 10 12
REMARK Flexibility Score: inf
ROOT
ATOM      1  C   UNL     1     115.996 117.382 119.526  1.00  0.00     0.012 C 
ATOM      2  C   UNL     1     116.147 117.377 117.975  1.00  0.00    -0.025 C 
ATOM      3  C   UNL     1     115.534 116.140 117.297  1.00  0.00    -0.002 C 
ATOM      4  C   UNL     1     115.922 116.322 115.808  1.00  0.00     0.005 C 
ATOM      5  C   UNL     1     117.324 116.959 115.896  1.00  0.00     0.010 C 
ATOM      6  C   UNL     1     117.560 117.051 117.430  1.00  0.00    -0.001 C 
ATOM      7  C   UNL     1     117.816 115.587 117.899  1.00  0.00     0.121 C 
ATOM      8  C   UNL     1     116.399 114.969 117.830  1.00  0.00     0.036 C 
ATOM      9  C   UNL     1     118.673 118.041 117.804  1.00  0.00     0.015 C 
ATOM     10  C   UNL     1     115.541 118.730 117.488  1.00  0.00     0.012 C 
ENDROOT
BRANCH   7  11
ATOM     11  O   UNL     1     118.344 115.538 119.200  1.00  0.00    -0.393 OA
ATOM     12  H   UNL     1     118.290 114.589 119.490  1.00  0.00     0.210 HD
ENDBRANCH   7  11
TORSDOF 1
ENDMDL
MODEL 4
REMARK VINA RESULT:    -3.681      1.304      2.261
REMARK INTER + INTRA:          -3.789
REMARK INTER:                  -3.789
REMARK INTRA:                   0.000
REMARK UNBOUND:                 0.000
REMARK SMILES CC1(C)[C@H]2CC[C@]1(C)[C@@H](O)C2
REMARK SMILES IDX 1 1 2 2 4 3 5 4 6 5 7 6 9 7 11 8 8 9 3 10 10 11
REMARK H PARENT 10 12
REMARK Flexibility Score: inf
ROOT
ATOM      1  C   UNL     1     117.029 115.959 119.599  1.00  0.00     0.012 C 
ATOM      2  C   UNL     1     116.957 115.930 118.042  1.00  0.00    -0.025 C 
ATOM      3  C   UNL     1     117.539 117.185 117.372  1.00  0.00    -0.002 C 
ATOM      4  C   UNL     1     117.238 116.957 115.869  1.00  0.00     0.005 C 
ATOM      5  C   UNL     1     115.868 116.250 115.899  1.00  0.00     0.010 C 
ATOM      6  C   UNL     1     115.559 116.173 117.420  1.00  0.00    -0.001 C 
ATOM      7  C   UNL     1     115.204 117.629 117.847  1.00  0.00     0.121 C 
ATOM      8  C   UNL     1     116.589 118.318 117.836  1.00  0.00     0.036 C 
ATOM      9  C   UNL     1     114.480 115.132 117.757  1.00  0.00     0.015 C 
ATOM     10  C   UNL     1     117.655 114.602 117.613  1.00  0.00     0.012 C 
ENDROOT
BRANCH   7  11
ATOM     11  O   UNL     1     114.609 117.673 119.118  1.00  0.00    -0.393 OA
ATOM     12  H   UNL     1     115.113 118.351 119.642  1.00  0.00     0.210 HD
ENDBRANCH   7  11
TORSDOF 1
ENDMDL
MODEL 5
REMARK VINA RESULT:    -3.466      1.399      2.755
REMARK INTER + INTRA:          -3.567
REMARK INTER:                  -3.567
REMARK INTRA:                   0.000
REMARK UNBOUND:                 0.000
REMARK SMILES CC1(C)[C@H]2CC[C@]1(C)[C@@H](O)C2
REMARK SMILES IDX 1 1 2 2 4 3 5 4 6 5 7 6 9 7 11 8 8 9 3 10 10 11
REMARK H PARENT 10 12
REMARK Flexibility Score: inf
ROOT
ATOM      1  C   UNL     1     117.415 115.209 117.003  1.00  0.00     0.012 C 
ATOM      2  C   UNL     1     116.521 116.485 117.066  1.00  0.00    -0.025 C 
ATOM      3  C   UNL     1     117.130 117.627 117.894  1.00  0.00    -0.002 C 
ATOM      4  C   UNL     1     116.013 118.701 117.895  1.00  0.00     0.005 C 
ATOM      5  C   UNL     1     114.725 117.853 117.951  1.00  0.00     0.010 C 
ATOM      6  C   UNL     1     115.277 116.400 117.984  1.00  0.00    -0.001 C 
ATOM      7  C   UNL     1     115.874 116.214 119.412  1.00  0.00     0.121 C 
ATOM      8  C   UNL     1     117.175 117.048 119.332  1.00  0.00     0.036 C 
ATOM      9  C   UNL     1     114.222 115.353 117.596  1.00  0.00     0.015 C 
ATOM     10  C   UNL     1     116.228 116.867 115.581  1.00  0.00     0.012 C 
ENDROOT
BRANCH   7  11
ATOM     11  O   UNL     1     116.136 114.865 119.699  1.00  0.00    -0.393 OA
ATOM     12  H   UNL     1     115.253 114.415 119.770  1.00  0.00     0.210 HD
ENDBRANCH   7  11
TORSDOF 1
ENDMDL
MODEL 6
REMARK VINA RESULT:    -3.456      1.287      3.027
REMARK INTER + INTRA:          -3.557
REMARK INTER:                  -3.557
REMARK INTRA:                   0.000
REMARK UNBOUND:                 0.000
REMARK SMILES CC1(C)[C@H]2CC[C@]1(C)[C@@H](O)C2
REMARK SMILES IDX 1 1 2 2 4 3 5 4 6 5 7 6 9 7 11 8 8 9 3 10 10 11
REMARK H PARENT 10 12
REMARK Flexibility Score: inf
ROOT
ATOM      1  C   UNL     1     118.282 117.528 117.202  1.00  0.00     0.012 C 
ATOM      2  C   UNL     1     116.945 116.726 117.183  1.00  0.00    -0.025 C 
ATOM      3  C   UNL     1     115.812 117.392 117.979  1.00  0.00    -0.002 C 
ATOM      4  C   UNL     1     114.664 116.355 117.900  1.00  0.00     0.005 C 
ATOM      5  C   UNL     1     115.416 115.009 117.953  1.00  0.00     0.010 C 
ATOM      6  C   UNL     1     116.901 115.454 118.066  1.00  0.00    -0.001 C 
ATOM      7  C   UNL     1     117.063 115.998 119.518  1.00  0.00     0.121 C 
ATOM      8  C   UNL     1     116.326 117.357 119.441  1.00  0.00     0.036 C 
ATOM      9  C   UNL     1     117.888 114.338 117.692  1.00  0.00     0.015 C 
ATOM     10  C   UNL     1     116.611 116.502 115.675  1.00  0.00     0.012 C 
ENDROOT
BRANCH   7  11
ATOM     11  O   UNL     1     118.413 116.155 119.871  1.00  0.00    -0.393 OA
ATOM     12  H   UNL     1     118.654 115.365 120.422  1.00  0.00     0.210 HD
ENDBRANCH   7  11
TORSDOF 1
ENDMDL
MODEL 7
REMARK VINA RESULT:    -3.339      1.470      2.523
REMARK INTER + INTRA:          -3.437
REMARK INTER:                  -3.437
REMARK INTRA:                   0.000
REMARK UNBOUND:                 0.000
REMARK SMILES CC1(C)[C@H]2CC[C@]1(C)[C@@H](O)C2
REMARK SMILES IDX 1 1 2 2 4 3 5 4 6 5 7 6 9 7 11 8 8 9 3 10 10 11
REMARK H PARENT 10 12
REMARK Flexibility Score: inf
ROOT
ATOM      1  C   UNL     1     115.424 115.347 118.312  1.00  0.00     0.012 C 
ATOM      2  C   UNL     1     116.876 115.859 118.069  1.00  0.00    -0.025 C 
ATOM      3  C   UNL     1     117.495 116.567 119.284  1.00  0.00    -0.002 C 
ATOM      4  C   UNL     1     118.857 117.072 118.746  1.00  0.00     0.005 C 
ATOM      5  C   UNL     1     118.528 117.452 117.288  1.00  0.00     0.010 C 
ATOM      6  C   UNL     1     117.013 117.123 117.185  1.00  0.00    -0.001 C 
ATOM      7  C   UNL     1     116.289 118.235 118.003  1.00  0.00     0.121 C 
ATOM      8  C   UNL     1     116.607 117.826 119.461  1.00  0.00     0.036 C 
ATOM      9  C   UNL     1     116.529 116.987 115.733  1.00  0.00     0.015 C 
ATOM     10  C   UNL     1     117.685 114.616 117.582  1.00  0.00     0.012 C 
ENDROOT
BRANCH   7  11
ATOM     11  O   UNL     1     114.907 118.253 117.755  1.00  0.00    -0.393 OA
ATOM     12  H   UNL     1     114.776 117.856 116.854  1.00  0.00     0.210 HD
ENDBRANCH   7  11
TORSDOF 1
ENDMDL
MODEL 8
REMARK VINA RESULT:    -3.336      1.080      2.173
REMARK INTER + INTRA:          -3.433
REMARK INTER:                  -3.433
REMARK INTRA:                   0.000
REMARK UNBOUND:                 0.000
REMARK SMILES CC1(C)[C@H]2CC[C@]1(C)[C@@H](O)C2
REMARK SMILES IDX 1 1 2 2 4 3 5 4 6 5 7 6 9 7 11 8 8 9 3 10 10 11
REMARK H PARENT 10 12
REMARK Flexibility Score: inf
ROOT
ATOM      1  C   UNL     1     115.240 117.793 118.235  1.00  0.00     0.012 C 
ATOM      2  C   UNL     1     115.784 116.348 118.022  1.00  0.00    -0.025 C 
ATOM      3  C   UNL     1     116.468 115.755 119.263  1.00  0.00    -0.002 C 
ATOM      4  C   UNL     1     117.011 114.396 118.754  1.00  0.00     0.005 C 
ATOM      5  C   UNL     1     117.427 114.716 117.304  1.00  0.00     0.010 C 
ATOM      6  C   UNL     1     117.075 116.224 117.175  1.00  0.00    -0.001 C 
ATOM      7  C   UNL     1     118.150 116.976 118.016  1.00  0.00     0.121 C 
ATOM      8  C   UNL     1     117.706 116.666 119.466  1.00  0.00     0.036 C 
ATOM      9  C   UNL     1     116.972 116.690 115.715  1.00  0.00     0.015 C 
ATOM     10  C   UNL     1     114.569 115.513 117.509  1.00  0.00     0.012 C 
ENDROOT
BRANCH   7  11
ATOM     11  O   UNL     1     118.152 118.356 117.754  1.00  0.00    -0.393 OA
ATOM     12  H   UNL     1     118.566 118.473 116.859  1.00  0.00     0.210 HD
ENDBRANCH   7  11
TORSDOF 1
ENDMDL
MODEL 9
REMARK VINA RESULT:    -3.117      1.631      3.104
REMARK INTER + INTRA:          -3.208
REMARK INTER:                  -3.208
REMARK INTRA:                   0.000
REMARK UNBOUND:                 0.000
REMARK SMILES CC1(C)[C@H]2CC[C@]1(C)[C@@H](O)C2
REMARK SMILES IDX 1 1 2 2 4 3 5 4 6 5 7 6 9 7 11 8 8 9 3 10 10 11
REMARK H PARENT 10 12
REMARK Flexibility Score: inf
ROOT
ATOM      1  C   UNL     1     114.612 115.492 117.801  1.00  0.00     0.012 C 
ATOM      2  C   UNL     1     115.867 116.150 118.449  1.00  0.00    -0.025 C 
ATOM      3  C   UNL     1     115.855 117.686 118.405  1.00  0.00    -0.002 C 
ATOM      4  C   UNL     1     117.237 118.071 118.989  1.00  0.00     0.005 C 
ATOM      5  C   UNL     1     118.156 116.952 118.456  1.00  0.00     0.010 C 
ATOM      6  C   UNL     1     117.177 116.076 117.625  1.00  0.00    -0.001 C 
ATOM      7  C   UNL     1     116.863 116.904 116.343  1.00  0.00     0.121 C 
ATOM      8  C   UNL     1     115.922 118.005 116.889  1.00  0.00     0.036 C 
ATOM      9  C   UNL     1     117.724 114.667 117.352  1.00  0.00     0.015 C 
ATOM     10  C   UNL     1     115.954 115.560 119.892  1.00  0.00     0.012 C 
ENDROOT
BRANCH   7  11
ATOM     11  O   UNL     1     116.237 116.126 115.355  1.00  0.00    -0.393 OA
ATOM     12  H   UNL     1     116.957 115.811 114.747  1.00  0.00     0.210 HD
ENDBRANCH   7  11
TORSDOF 1
ENDMDL
