MODEL 1
REMARK VINA RESULT:    -5.241      0.000      0.000
REMARK INTER + INTRA:          -7.655
REMARK INTER:                  -7.079
REMARK INTRA:                  -0.575
REMARK UNBOUND:                -0.575
REMARK SMILES CC(=O)CCC=C(C)CCC=C(C)C
REMARK SMILES IDX 7 1 6 2 8 3 9 4 10 5 11 6 13 7 12 8 14 9 5 10 4 11 2 12 3 13
REMARK SMILES IDX 1 14
REMARK H PARENT
REMARK Flexibility Score: inf
ROOT
ATOM      1  C   UNL     1     -26.628  18.639 -32.403  1.00  0.00    -0.077 C 
ATOM      2  C   UNL     1     -25.372  19.053 -32.691  1.00  0.00    -0.028 C 
ATOM      3  C   UNL     1     -27.839  19.221 -33.094  1.00  0.00     0.039 C 
ENDROOT
BRANCH   1   4
ATOM      4  C   UNL     1     -26.821  17.568 -31.352  1.00  0.00     0.034 C 
BRANCH   4   5
ATOM      5  C   UNL     1     -25.488  17.208 -30.686  1.00  0.00     0.032 C 
BRANCH   5   6
ATOM      6  C   UNL     1     -25.491  15.773 -30.223  1.00  0.00    -0.028 C 
ATOM      7  C   UNL     1     -24.666  13.470 -29.991  1.00  0.00     0.039 C 
ATOM      8  C   UNL     1     -24.509  14.883 -30.488  1.00  0.00    -0.080 C 
ATOM      9  C   UNL     1     -23.260  15.271 -31.245  1.00  0.00     0.039 C 
ENDBRANCH   5   6
ENDBRANCH   4   5
ENDBRANCH   1   4
BRANCH   2  10
ATOM     10  C   UNL     1     -25.030  20.079 -33.743  1.00  0.00     0.035 C 
BRANCH  10  11
ATOM     11  C   UNL     1     -23.548  19.980 -34.135  1.00  0.00     0.079 C 
BRANCH  11  12
ATOM     12  C   UNL     1     -22.590  20.526 -33.100  1.00  0.00     0.130 C 
ATOM     13  O   UNL     1     -21.478  20.027 -33.020  1.00  0.00    -0.300 OA
ATOM     14  C   UNL     1     -22.943  21.655 -32.171  1.00  0.00     0.087 C 
ENDBRANCH  11  12
ENDBRANCH  10  11
ENDBRANCH   2  10
TORSDOF 6
ENDMDL
MODEL 2
REMARK VINA RESULT:    -5.060      2.056      5.998
REMARK INTER + INTRA:          -7.410
REMARK INTER:                  -6.709
REMARK INTRA:                  -0.700
REMARK UNBOUND:                -0.575
REMARK SMILES CC(=O)CCC=C(C)CCC=C(C)C
REMARK SMILES IDX 7 1 6 2 8 3 9 4 10 5 11 6 13 7 12 8 14 9 5 10 4 11 2 12 3 13
REMARK SMILES IDX 1 14
REMARK H PARENT
REMARK Flexibility Score: inf
ROOT
ATOM      1  C   UNL     1     -23.840  19.497 -32.767  1.00  0.00    -0.077 C 
ATOM      2  C   UNL     1     -24.648  18.565 -32.209  1.00  0.00    -0.028 C 
ATOM      3  C   UNL     1     -22.764  20.199 -31.972  1.00  0.00     0.039 C 
ENDROOT
BRANCH   1   4
ATOM      4  C   UNL     1     -24.029  19.850 -34.226  1.00  0.00     0.034 C 
BRANCH   4   5
ATOM      5  C   UNL     1     -25.519  19.923 -34.582  1.00  0.00     0.032 C 
BRANCH   5   6
ATOM      6  C   UNL     1     -26.163  21.128 -33.943  1.00  0.00    -0.028 C 
ATOM      7  C   UNL     1     -27.929  22.424 -32.828  1.00  0.00     0.039 C 
ATOM      8  C   UNL     1     -27.400  21.133 -33.399  1.00  0.00    -0.080 C 
ATOM      9  C   UNL     1     -28.250  19.886 -33.330  1.00  0.00     0.039 C 
ENDBRANCH   5   6
ENDBRANCH   4   5
ENDBRANCH   1   4
BRANCH   2  10
ATOM     10  C   UNL     1     -24.544  18.088 -30.782  1.00  0.00     0.035 C 
BRANCH  10  11
ATOM     11  C   UNL     1     -25.606  17.016 -30.491  1.00  0.00     0.079 C 
BRANCH  11  12
ATOM     12  C   UNL     1     -25.080  15.598 -30.497  1.00  0.00     0.130 C 
ATOM     13  O   UNL     1     -23.959  15.397 -30.936  1.00  0.00    -0.300 OA
ATOM     14  C   UNL     1     -25.874  14.428 -29.983  1.00  0.00     0.087 C 
ENDBRANCH  11  12
ENDBRANCH  10  11
ENDBRANCH   2  10
TORSDOF 6
ENDMDL
MODEL 3
REMARK VINA RESULT:    -5.060      2.883      6.892
REMARK INTER + INTRA:          -7.409
REMARK INTER:                  -6.988
REMARK INTRA:                  -0.421
REMARK UNBOUND:                -0.575
REMARK SMILES CC(=O)CCC=C(C)CCC=C(C)C
REMARK SMILES IDX 7 1 6 2 8 3 9 4 10 5 11 6 13 7 12 8 14 9 5 10 4 11 2 12 3 13
REMARK SMILES IDX 1 14
REMARK H PARENT
REMARK Flexibility Score: inf
ROOT
ATOM      1  C   UNL     1     -25.127  15.758 -30.506  1.00  0.00    -0.077 C 
ATOM      2  C   UNL     1     -25.902  14.779 -29.984  1.00  0.00    -0.028 C 
ATOM      3  C   UNL     1     -23.757  15.473 -31.076  1.00  0.00     0.039 C 
ENDROOT
BRANCH   1   4
ATOM      4  C   UNL     1     -25.647  17.179 -30.509  1.00  0.00     0.034 C 
BRANCH   4   5
ATOM      5  C   UNL     1     -24.795  18.070 -31.421  1.00  0.00     0.032 C 
BRANCH   5   6
ATOM      6  C   UNL     1     -25.664  18.818 -32.401  1.00  0.00    -0.028 C 
ATOM      7  C   UNL     1     -26.195  20.415 -34.192  1.00  0.00     0.039 C 
ATOM      8  C   UNL     1     -25.202  19.717 -33.299  1.00  0.00    -0.080 C 
ATOM      9  C   UNL     1     -23.729  20.021 -33.442  1.00  0.00     0.039 C 
ENDBRANCH   5   6
ENDBRANCH   4   5
ENDBRANCH   1   4
BRANCH   2  10
ATOM     10  C   UNL     1     -25.529  13.318 -29.954  1.00  0.00     0.035 C 
BRANCH  10  11
ATOM     11  C   UNL     1     -26.718  12.446 -30.385  1.00  0.00     0.079 C 
BRANCH  11  12
ATOM     12  C   UNL     1     -26.701  12.041 -31.842  1.00  0.00     0.130 C 
ATOM     13  O   UNL     1     -26.312  12.854 -32.666  1.00  0.00    -0.300 OA
ATOM     14  C   UNL     1     -27.138  10.682 -32.319  1.00  0.00     0.087 C 
ENDBRANCH  11  12
ENDBRANCH  10  11
ENDBRANCH   2  10
TORSDOF 6
ENDMDL
MODEL 4
REMARK VINA RESULT:    -4.990      4.664      6.990
REMARK INTER + INTRA:          -7.316
REMARK INTER:                  -6.439
REMARK INTRA:                  -0.877
REMARK UNBOUND:                -0.575
REMARK SMILES CC(=O)CCC=C(C)CCC=C(C)C
REMARK SMILES IDX 7 1 6 2 8 3 9 4 10 5 11 6 13 7 12 8 14 9 5 10 4 11 2 12 3 13
REMARK SMILES IDX 1 14
REMARK H PARENT
REMARK Flexibility Score: inf
ROOT
ATOM      1  C   UNL     1     -25.562  11.817 -28.986  1.00  0.00    -0.077 C 
ATOM      2  C   UNL     1     -26.040  12.991 -29.460  1.00  0.00    -0.028 C 
ATOM      3  C   UNL     1     -24.489  11.040 -29.714  1.00  0.00     0.039 C 
ENDROOT
BRANCH   1   4
ATOM      4  C   UNL     1     -26.126  11.265 -27.696  1.00  0.00     0.034 C 
BRANCH   4   5
ATOM      5  C   UNL     1     -27.656  11.365 -27.681  1.00  0.00     0.032 C 
BRANCH   5   6
ATOM      6  C   UNL     1     -28.255  10.571 -28.815  1.00  0.00    -0.028 C 
ATOM      7  C   UNL     1     -29.743  10.113 -30.717  1.00  0.00     0.039 C 
ATOM      8  C   UNL     1     -29.211  11.035 -29.650  1.00  0.00    -0.080 C 
ATOM      9  C   UNL     1     -29.742  12.446 -29.554  1.00  0.00     0.039 C 
ENDBRANCH   5   6
ENDBRANCH   4   5
ENDBRANCH   1   4
BRANCH   2  10
ATOM     10  C   UNL     1     -25.541  13.676 -30.708  1.00  0.00     0.035 C 
BRANCH  10  11
ATOM     11  C   UNL     1     -24.554  14.798 -30.352  1.00  0.00     0.079 C 
BRANCH  11  12
ATOM     12  C   UNL     1     -23.197  14.667 -31.007  1.00  0.00     0.130 C 
ATOM     13  O   UNL     1     -23.068  15.060 -32.156  1.00  0.00    -0.300 OA
ATOM     14  C   UNL     1     -22.002  14.081 -30.306  1.00  0.00     0.087 C 
ENDBRANCH  11  12
ENDBRANCH  10  11
ENDBRANCH   2  10
TORSDOF 6
ENDMDL
MODEL 5
REMARK VINA RESULT:    -4.988      9.360     10.680
REMARK INTER + INTRA:          -7.313
REMARK INTER:                  -6.065
REMARK INTRA:                  -1.248
REMARK UNBOUND:                -0.575
REMARK SMILES CC(=O)CCC=C(C)CCC=C(C)C
REMARK SMILES IDX 7 1 6 2 8 3 9 4 10 5 11 6 13 7 12 8 14 9 5 10 4 11 2 12 3 13
REMARK SMILES IDX 1 14
REMARK H PARENT
REMARK Flexibility Score: inf
ROOT
ATOM      1  C   UNL     1     -17.694  13.014 -29.918  1.00  0.00    -0.077 C 
ATOM      2  C   UNL     1     -17.458  13.021 -31.250  1.00  0.00    -0.028 C 
ATOM      3  C   UNL     1     -16.955  13.931 -28.972  1.00  0.00     0.039 C 
ENDROOT
BRANCH   1   4
ATOM      4  C   UNL     1     -18.722  12.053 -29.362  1.00  0.00     0.034 C 
BRANCH   4   5
ATOM      5  C   UNL     1     -18.207  10.610 -29.417  1.00  0.00     0.032 C 
BRANCH   5   6
ATOM      6  C   UNL     1     -17.275  10.330 -28.265  1.00  0.00    -0.028 C 
ATOM      7  C   UNL     1     -15.135   9.876 -27.145  1.00  0.00     0.039 C 
ATOM      8  C   UNL     1     -15.936  10.192 -28.382  1.00  0.00    -0.080 C 
ATOM      9  C   UNL     1     -15.226  10.365 -29.704  1.00  0.00     0.039 C 
ENDBRANCH   5   6
ENDBRANCH   4   5
ENDBRANCH   1   4
BRANCH   2  10
ATOM     10  C   UNL     1     -16.494  13.952 -31.943  1.00  0.00     0.035 C 
BRANCH  10  11
ATOM     11  C   UNL     1     -15.252  13.186 -32.423  1.00  0.00     0.079 C 
BRANCH  11  12
ATOM     12  C   UNL     1     -13.970  13.569 -31.717  1.00  0.00     0.130 C 
ATOM     13  O   UNL     1     -13.056  12.760 -31.698  1.00  0.00    -0.300 OA
ATOM     14  C   UNL     1     -13.772  14.899 -31.044  1.00  0.00     0.087 C 
ENDBRANCH  11  12
ENDBRANCH  10  11
ENDBRANCH   2  10
TORSDOF 6
ENDMDL
MODEL 6
REMARK VINA RESULT:    -4.962      4.493      6.820
REMARK INTER + INTRA:          -7.277
REMARK INTER:                  -6.479
REMARK INTRA:                  -0.799
REMARK UNBOUND:                -0.575
REMARK SMILES CC(=O)CCC=C(C)CCC=C(C)C
REMARK SMILES IDX 7 1 6 2 8 3 9 4 10 5 11 6 13 7 12 8 14 9 5 10 4 11 2 12 3 13
REMARK SMILES IDX 1 14
REMARK H PARENT
REMARK Flexibility Score: inf
ROOT
ATOM      1  C   UNL     1     -27.318  12.383 -29.295  1.00  0.00    -0.077 C 
ATOM      2  C   UNL     1     -26.568  13.216 -30.053  1.00  0.00    -0.028 C 
ATOM      3  C   UNL     1     -26.773  11.732 -28.046  1.00  0.00     0.039 C 
ENDROOT
BRANCH   1   4
ATOM      4  C   UNL     1     -28.740  12.089 -29.720  1.00  0.00     0.034 C 
BRANCH   4   5
ATOM      5  C   UNL     1     -28.910  10.606 -30.070  1.00  0.00     0.032 C 
BRANCH   5   6
ATOM      6  C   UNL     1     -29.061  10.422 -31.560  1.00  0.00    -0.028 C 
ATOM      7  C   UNL     1     -28.337  10.016 -33.873  1.00  0.00     0.039 C 
ATOM      8  C   UNL     1     -28.042  10.135 -32.400  1.00  0.00    -0.080 C 
ATOM      9  C   UNL     1     -26.633   9.912 -31.903  1.00  0.00     0.039 C 
ENDBRANCH   5   6
ENDBRANCH   4   5
ENDBRANCH   1   4
BRANCH   2  10
ATOM     10  C   UNL     1     -25.154  13.629 -29.727  1.00  0.00     0.035 C 
BRANCH  10  11
ATOM     11  C   UNL     1     -24.710  14.796 -30.621  1.00  0.00     0.079 C 
BRANCH  11  12
ATOM     12  C   UNL     1     -23.215  14.893 -30.828  1.00  0.00     0.130 C 
ATOM     13  O   UNL     1     -22.774  15.865 -31.420  1.00  0.00    -0.300 OA
ATOM     14  C   UNL     1     -22.251  13.849 -30.334  1.00  0.00     0.087 C 
ENDBRANCH  11  12
ENDBRANCH  10  11
ENDBRANCH   2  10
TORSDOF 6
ENDMDL
MODEL 7
REMARK VINA RESULT:    -4.870      9.553     11.951
REMARK INTER + INTRA:          -7.153
REMARK INTER:                  -5.736
REMARK INTRA:                  -1.417
REMARK UNBOUND:                -0.575
REMARK SMILES CC(=O)CCC=C(C)CCC=C(C)C
REMARK SMILES IDX 7 1 6 2 8 3 9 4 10 5 11 6 13 7 12 8 14 9 5 10 4 11 2 12 3 13
REMARK SMILES IDX 1 14
REMARK H PARENT
REMARK Flexibility Score: inf
ROOT
ATOM      1  C   UNL     1     -17.235  12.497 -29.689  1.00  0.00    -0.077 C 
ATOM      2  C   UNL     1     -16.998  11.193 -29.418  1.00  0.00    -0.028 C 
ATOM      3  C   UNL     1     -17.030  13.578 -28.654  1.00  0.00     0.039 C 
ENDROOT
BRANCH   1   4
ATOM      4  C   UNL     1     -17.729  12.879 -31.067  1.00  0.00     0.034 C 
BRANCH   4   5
ATOM      5  C   UNL     1     -16.858  13.987 -31.671  1.00  0.00     0.032 C 
BRANCH   5   6
ATOM      6  C   UNL     1     -15.456  13.490 -31.920  1.00  0.00    -0.028 C 
ATOM      7  C   UNL     1     -12.999  13.523 -31.852  1.00  0.00     0.039 C 
ATOM      8  C   UNL     1     -14.337  14.119 -31.496  1.00  0.00    -0.080 C 
ATOM      9  C   UNL     1     -14.393  15.381 -30.667  1.00  0.00     0.039 C 
ENDBRANCH   5   6
ENDBRANCH   4   5
ENDBRANCH   1   4
BRANCH   2  10
ATOM     10  C   UNL     1     -16.465  10.675 -28.104  1.00  0.00     0.035 C 
BRANCH  10  11
ATOM     11  C   UNL     1     -15.088  10.024 -28.297  1.00  0.00     0.079 C 
BRANCH  11  12
ATOM     12  C   UNL     1     -14.066  10.911 -28.973  1.00  0.00     0.130 C 
ATOM     13  O   UNL     1     -13.634  10.571 -30.063  1.00  0.00    -0.300 OA
ATOM     14  C   UNL     1     -13.562  12.191 -28.364  1.00  0.00     0.087 C 
ENDBRANCH  11  12
ENDBRANCH  10  11
ENDBRANCH   2  10
TORSDOF 6
ENDMDL
MODEL 8
REMARK VINA RESULT:    -4.790      8.793     11.476
REMARK INTER + INTRA:          -7.046
REMARK INTER:                  -5.840
REMARK INTRA:                  -1.206
REMARK UNBOUND:                -0.575
REMARK SMILES CC(=O)CCC=C(C)CCC=C(C)C
REMARK SMILES IDX 7 1 6 2 8 3 9 4 10 5 11 6 13 7 12 8 14 9 5 10 4 11 2 12 3 13
REMARK SMILES IDX 1 14
REMARK H PARENT
REMARK Flexibility Score: inf
ROOT
ATOM      1  C   UNL     1     -14.300  11.319 -29.216  1.00  0.00    -0.077 C 
ATOM      2  C   UNL     1     -14.190  11.744 -30.496  1.00  0.00    -0.028 C 
ATOM      3  C   UNL     1     -13.543  11.980 -28.087  1.00  0.00     0.039 C 
ENDROOT
BRANCH   1   4
ATOM      4  C   UNL     1     -15.200  10.141 -28.911  1.00  0.00     0.034 C 
BRANCH   4   5
ATOM      5  C   UNL     1     -16.337  10.553 -27.967  1.00  0.00     0.032 C 
BRANCH   5   6
ATOM      6  C   UNL     1     -17.585  10.886 -28.747  1.00  0.00    -0.028 C 
ATOM      7  C   UNL     1     -19.300  12.322 -29.764  1.00  0.00     0.039 C 
ATOM      8  C   UNL     1     -18.012  12.143 -29.003  1.00  0.00    -0.080 C 
ATOM      9  C   UNL     1     -17.228  13.359 -28.568  1.00  0.00     0.039 C 
ENDBRANCH   5   6
ENDBRANCH   4   5
ENDBRANCH   1   4
BRANCH   2  10
ATOM     10  C   UNL     1     -13.365  12.927 -30.936  1.00  0.00     0.035 C 
BRANCH  10  11
ATOM     11  C   UNL     1     -14.271  14.069 -31.421  1.00  0.00     0.079 C 
BRANCH  11  12
ATOM     12  C   UNL     1     -15.331  13.648 -32.414  1.00  0.00     0.130 C 
ATOM     13  O   UNL     1     -14.972  13.244 -33.509  1.00  0.00    -0.300 OA
ATOM     14  C   UNL     1     -16.804  13.701 -32.112  1.00  0.00     0.087 C 
ENDBRANCH  11  12
ENDBRANCH  10  11
ENDBRANCH   2  10
TORSDOF 6
ENDMDL
MODEL 9
REMARK VINA RESULT:    -4.789     10.008     11.783
REMARK INTER + INTRA:          -7.044
REMARK INTER:                  -6.018
REMARK INTRA:                  -1.026
REMARK UNBOUND:                -0.575
REMARK SMILES CC(=O)CCC=C(C)CCC=C(C)C
REMARK SMILES IDX 7 1 6 2 8 3 9 4 10 5 11 6 13 7 12 8 14 9 5 10 4 11 2 12 3 13
REMARK SMILES IDX 1 14
REMARK H PARENT
REMARK Flexibility Score: inf
ROOT
ATOM      1  C   UNL     1     -15.770  14.362 -30.667  1.00  0.00    -0.077 C 
ATOM      2  C   UNL     1     -14.492  14.804 -30.722  1.00  0.00    -0.028 C 
ATOM      3  C   UNL     1     -16.494  13.859 -31.894  1.00  0.00     0.039 C 
ENDROOT
BRANCH   1   4
ATOM      4  C   UNL     1     -16.495  14.383 -29.339  1.00  0.00     0.034 C 
BRANCH   4   5
ATOM      5  C   UNL     1     -16.809  12.959 -28.866  1.00  0.00     0.032 C 
BRANCH   5   6
ATOM      6  C   UNL     1     -15.611  12.343 -28.188  1.00  0.00    -0.028 C 
ATOM      7  C   UNL     1     -13.706  10.815 -27.912  1.00  0.00     0.039 C 
ATOM      8  C   UNL     1     -14.853  11.360 -28.723  1.00  0.00    -0.080 C 
ATOM      9  C   UNL     1     -15.112  10.813 -30.107  1.00  0.00     0.039 C 
ENDBRANCH   5   6
ENDBRANCH   4   5
ENDBRANCH   1   4
BRANCH   2  10
ATOM     10  C   UNL     1     -13.639  14.801 -31.966  1.00  0.00     0.035 C 
BRANCH  10  11
ATOM     11  C   UNL     1     -12.587  13.684 -31.898  1.00  0.00     0.079 C 
BRANCH  11  12
ATOM     12  C   UNL     1     -11.591  13.692 -33.037  1.00  0.00     0.130 C 
ATOM     13  O   UNL     1     -11.751  12.900 -33.952  1.00  0.00    -0.300 OA
ATOM     14  C   UNL     1     -10.419  14.633 -33.093  1.00  0.00     0.087 C 
ENDBRANCH  11  12
ENDBRANCH  10  11
ENDBRANCH   2  10
TORSDOF 6
ENDMDL
