MODEL 1
REMARK VINA RESULT:    -6.890      0.000      0.000
REMARK INTER + INTRA:          -8.395
REMARK INTER:                  -8.098
REMARK INTRA:                  -0.297
REMARK UNBOUND:                -0.297
REMARK SMILES Oc1ccc(-c2[o+]c3cc(O)cc(O)c3cc2O)cc1
REMARK SMILES IDX 6 1 7 2 8 3 9 4 10 5 12 6 13 7 15 8 16 9 17 10 5 11 4 12
REMARK SMILES IDX 3 13 2 14 19 15 20 16 1 17 18 19 11 21 14 23
REMARK H PARENT 1 18 18 20 11 22 14 24
REMARK Flexibility Score: inf
ROOT
ATOM      1  C   UNL     1     -21.796  14.573 -39.648  1.00  0.00     0.401 A 
ATOM      2  O   UNL     1     -22.863  14.702 -38.863  1.00  0.00    -0.202 OA
ATOM      3  C   UNL     1     -23.769  15.662 -39.016  1.00  0.00     0.368 A 
ATOM      4  C   UNL     1     -24.859  15.715 -38.143  1.00  0.00     0.162 A 
ATOM      5  C   UNL     1     -25.826  16.710 -38.281  1.00  0.00     0.128 A 
ATOM      6  C   UNL     1     -25.707  17.660 -39.301  1.00  0.00     0.093 A 
ATOM      7  C   UNL     1     -24.625  17.630 -40.189  1.00  0.00     0.136 A 
ATOM      8  C   UNL     1     -23.637  16.621 -40.050  1.00  0.00     0.125 A 
ATOM      9  C   UNL     1     -22.513  16.521 -40.885  1.00  0.00     0.078 A 
ATOM     10  C   UNL     1     -21.578  15.501 -40.683  1.00  0.00     0.223 A 
ENDROOT
BRANCH   1  11
ATOM     11  C   UNL     1     -20.863  13.454 -39.383  1.00  0.00     0.084 A 
ATOM     12  C   UNL     1     -20.870  12.290 -40.172  1.00  0.00     0.022 A 
ATOM     13  C   UNL     1     -19.994  11.237 -39.888  1.00  0.00     0.047 A 
ATOM     14  C   UNL     1     -19.113  11.329 -38.803  1.00  0.00     0.115 A 
ATOM     15  C   UNL     1     -19.990  13.528 -38.284  1.00  0.00     0.022 A 
ATOM     16  C   UNL     1     -19.115  12.474 -38.002  1.00  0.00     0.047 A 
BRANCH  14  17
ATOM     17  O   UNL     1     -18.236  10.287 -38.510  1.00  0.00    -0.508 OA
ATOM     18  H   UNL     1     -18.036  10.017 -37.554  1.00  0.00     0.293 HD
ENDBRANCH  14  17
ENDBRANCH   1  11
BRANCH  10  19
ATOM     19  O   UNL     1     -20.435  15.430 -41.481  1.00  0.00    -0.500 OA
ATOM     20  H   UNL     1     -20.484  15.514 -42.489  1.00  0.00     0.294 HD
ENDBRANCH  10  19
BRANCH   5  21
ATOM     21  O   UNL     1     -26.905  16.745 -37.400  1.00  0.00    -0.507 OA
ATOM     22  H   UNL     1     -27.700  16.126 -37.510  1.00  0.00     0.293 HD
ENDBRANCH   5  21
BRANCH   7  23
ATOM     23  O   UNL     1     -24.580  18.613 -41.182  1.00  0.00    -0.507 OA
ATOM     24  H   UNL     1     -24.824  19.582 -41.037  1.00  0.00     0.293 HD
ENDBRANCH   7  23
TORSDOF 5
ENDMDL
MODEL 2
REMARK VINA RESULT:    -6.564      4.617      6.503
REMARK INTER + INTRA:          -8.012
REMARK INTER:                  -7.711
REMARK INTRA:                  -0.302
REMARK UNBOUND:                -0.297
REMARK SMILES Oc1ccc(-c2[o+]c3cc(O)cc(O)c3cc2O)cc1
REMARK SMILES IDX 6 1 7 2 8 3 9 4 10 5 12 6 13 7 15 8 16 9 17 10 5 11 4 12
REMARK SMILES IDX 3 13 2 14 19 15 20 16 1 17 18 19 11 21 14 23
REMARK H PARENT 1 18 18 20 11 22 14 24
REMARK Flexibility Score: inf
ROOT
ATOM      1  C   UNL     1     -23.673  17.864 -38.188  1.00  0.00     0.401 A 
ATOM      2  O   UNL     1     -24.723  17.059 -38.053  1.00  0.00    -0.202 OA
ATOM      3  C   UNL     1     -24.929  16.301 -36.981  1.00  0.00     0.368 A 
ATOM      4  C   UNL     1     -26.065  15.488 -36.929  1.00  0.00     0.162 A 
ATOM      5  C   UNL     1     -26.307  14.684 -35.816  1.00  0.00     0.128 A 
ATOM      6  C   UNL     1     -25.409  14.691 -34.743  1.00  0.00     0.093 A 
ATOM      7  C   UNL     1     -24.264  15.496 -34.769  1.00  0.00     0.136 A 
ATOM      8  C   UNL     1     -24.012  16.313 -35.901  1.00  0.00     0.125 A 
ATOM      9  C   UNL     1     -22.884  17.142 -36.021  1.00  0.00     0.078 A 
ATOM     10  C   UNL     1     -22.701  17.916 -37.170  1.00  0.00     0.223 A 
ENDROOT
BRANCH   1  11
ATOM     11  C   UNL     1     -23.561  18.668 -39.426  1.00  0.00     0.084 A 
ATOM     12  C   UNL     1     -23.013  18.129 -40.604  1.00  0.00     0.022 A 
ATOM     13  C   UNL     1     -22.898  18.916 -41.754  1.00  0.00     0.047 A 
ATOM     14  C   UNL     1     -23.315  20.253 -41.737  1.00  0.00     0.115 A 
ATOM     15  C   UNL     1     -23.957  20.016 -39.412  1.00  0.00     0.022 A 
ATOM     16  C   UNL     1     -23.841  20.800 -40.564  1.00  0.00     0.047 A 
BRANCH  14  17
ATOM     17  O   UNL     1     -23.205  21.047 -42.877  1.00  0.00    -0.508 OA
ATOM     18  H   UNL     1     -22.411  20.968 -43.502  1.00  0.00     0.293 HD
ENDBRANCH  14  17
ENDBRANCH   1  11
BRANCH  10  19
ATOM     19  O   UNL     1     -21.556  18.700 -37.311  1.00  0.00    -0.500 OA
ATOM     20  H   UNL     1     -20.886  18.535 -38.052  1.00  0.00     0.294 HD
ENDBRANCH  10  19
BRANCH   5  21
ATOM     21  O   UNL     1     -27.446  13.881 -35.784  1.00  0.00    -0.507 OA
ATOM     22  H   UNL     1     -27.648  13.219 -36.524  1.00  0.00     0.293 HD
ENDBRANCH   5  21
BRANCH   7  23
ATOM     23  O   UNL     1     -23.419  15.449 -33.656  1.00  0.00    -0.507 OA
ATOM     24  H   UNL     1     -22.458  15.760 -33.657  1.00  0.00     0.293 HD
ENDBRANCH   7  23
TORSDOF 5
ENDMDL
MODEL 3
REMARK VINA RESULT:    -6.563      4.487      6.972
REMARK INTER + INTRA:          -8.011
REMARK INTER:                  -7.780
REMARK INTRA:                  -0.232
REMARK UNBOUND:                -0.297
REMARK SMILES Oc1ccc(-c2[o+]c3cc(O)cc(O)c3cc2O)cc1
REMARK SMILES IDX 6 1 7 2 8 3 9 4 10 5 12 6 13 7 15 8 16 9 17 10 5 11 4 12
REMARK SMILES IDX 3 13 2 14 19 15 20 16 1 17 18 19 11 21 14 23
REMARK H PARENT 1 18 18 20 11 22 14 24
REMARK Flexibility Score: inf
ROOT
ATOM      1  C   UNL     1     -24.229  18.366 -38.753  1.00  0.00     0.401 A 
ATOM      2  O   UNL     1     -23.426  17.935 -37.784  1.00  0.00    -0.202 OA
ATOM      3  C   UNL     1     -23.792  17.028 -36.883  1.00  0.00     0.368 A 
ATOM      4  C   UNL     1     -22.876  16.635 -35.903  1.00  0.00     0.162 A 
ATOM      5  C   UNL     1     -23.232  15.685 -34.946  1.00  0.00     0.128 A 
ATOM      6  C   UNL     1     -24.512  15.120 -34.967  1.00  0.00     0.093 A 
ATOM      7  C   UNL     1     -25.448  15.497 -35.938  1.00  0.00     0.136 A 
ATOM      8  C   UNL     1     -25.091  16.465 -36.912  1.00  0.00     0.125 A 
ATOM      9  C   UNL     1     -25.967  16.913 -37.914  1.00  0.00     0.078 A 
ATOM     10  C   UNL     1     -25.545  17.875 -38.837  1.00  0.00     0.223 A 
ENDROOT
BRANCH   1  11
ATOM     11  C   UNL     1     -23.701  19.371 -39.704  1.00  0.00     0.084 A 
ATOM     12  C   UNL     1     -23.501  20.710 -39.322  1.00  0.00     0.022 A 
ATOM     13  C   UNL     1     -23.023  21.645 -40.245  1.00  0.00     0.047 A 
ATOM     14  C   UNL     1     -22.751  21.257 -41.563  1.00  0.00     0.115 A 
ATOM     15  C   UNL     1     -23.445  18.996 -41.034  1.00  0.00     0.022 A 
ATOM     16  C   UNL     1     -22.966  19.933 -41.955  1.00  0.00     0.047 A 
BRANCH  14  17
ATOM     17  O   UNL     1     -22.274  22.179 -42.492  1.00  0.00    -0.508 OA
ATOM     18  H   UNL     1     -22.674  22.250 -43.420  1.00  0.00     0.293 HD
ENDBRANCH  14  17
ENDBRANCH   1  11
BRANCH  10  19
ATOM     19  O   UNL     1     -26.431  18.356 -39.801  1.00  0.00    -0.500 OA
ATOM     20  H   UNL     1     -26.887  19.255 -39.702  1.00  0.00     0.294 HD
ENDBRANCH  10  19
BRANCH   5  21
ATOM     21  O   UNL     1     -22.305  15.306 -33.977  1.00  0.00    -0.507 OA
ATOM     22  H   UNL     1     -21.331  15.579 -34.039  1.00  0.00     0.293 HD
ENDBRANCH   5  21
BRANCH   7  23
ATOM     23  O   UNL     1     -26.704  14.884 -35.894  1.00  0.00    -0.507 OA
ATOM     24  H   UNL     1     -26.889  13.940 -36.202  1.00  0.00     0.293 HD
ENDBRANCH   7  23
TORSDOF 5
ENDMDL
MODEL 4
REMARK VINA RESULT:    -6.548      1.225      2.818
REMARK INTER + INTRA:          -7.993
REMARK INTER:                  -7.678
REMARK INTRA:                  -0.315
REMARK UNBOUND:                -0.297
REMARK SMILES Oc1ccc(-c2[o+]c3cc(O)cc(O)c3cc2O)cc1
REMARK SMILES IDX 6 1 7 2 8 3 9 4 10 5 12 6 13 7 15 8 16 9 17 10 5 11 4 12
REMARK SMILES IDX 3 13 2 14 19 15 20 16 1 17 18 19 11 21 14 23
REMARK H PARENT 1 18 18 20 11 22 14 24
REMARK Flexibility Score: inf
ROOT
ATOM      1  C   UNL     1     -22.116  14.652 -39.482  1.00  0.00     0.401 A 
ATOM      2  O   UNL     1     -21.842  15.654 -40.315  1.00  0.00    -0.202 OA
ATOM      3  C   UNL     1     -22.676  16.665 -40.538  1.00  0.00     0.368 A 
ATOM      4  C   UNL     1     -22.298  17.673 -41.429  1.00  0.00     0.162 A 
ATOM      5  C   UNL     1     -23.152  18.747 -41.683  1.00  0.00     0.128 A 
ATOM      6  C   UNL     1     -24.393  18.816 -41.039  1.00  0.00     0.093 A 
ATOM      7  C   UNL     1     -24.795  17.819 -40.143  1.00  0.00     0.136 A 
ATOM      8  C   UNL     1     -23.931  16.724 -39.885  1.00  0.00     0.125 A 
ATOM      9  C   UNL     1     -24.255  15.672 -39.012  1.00  0.00     0.078 A 
ATOM     10  C   UNL     1     -23.353  14.623 -38.812  1.00  0.00     0.223 A 
ENDROOT
BRANCH   1  11
ATOM     11  C   UNL     1     -21.100  13.589 -39.309  1.00  0.00     0.084 A 
ATOM     12  C   UNL     1     -21.052  12.472 -40.162  1.00  0.00     0.022 A 
ATOM     13  C   UNL     1     -20.097  11.471 -39.963  1.00  0.00     0.047 A 
ATOM     14  C   UNL     1     -19.188  11.566 -38.902  1.00  0.00     0.115 A 
ATOM     15  C   UNL     1     -20.197  13.666 -38.234  1.00  0.00     0.022 A 
ATOM     16  C   UNL     1     -19.243  12.663 -38.038  1.00  0.00     0.047 A 
BRANCH  14  17
ATOM     17  O   UNL     1     -18.232  10.574 -38.694  1.00  0.00    -0.508 OA
ATOM     18  H   UNL     1     -18.481   9.672 -38.303  1.00  0.00     0.293 HD
ENDBRANCH  14  17
ENDBRANCH   1  11
BRANCH  10  19
ATOM     19  O   UNL     1     -23.695  13.554 -37.985  1.00  0.00    -0.500 OA
ATOM     20  H   UNL     1     -23.063  13.208 -37.272  1.00  0.00     0.294 HD
ENDBRANCH  10  19
BRANCH   5  21
ATOM     21  O   UNL     1     -22.757  19.742 -42.574  1.00  0.00    -0.507 OA
ATOM     22  H   UNL     1     -23.062  20.703 -42.465  1.00  0.00     0.293 HD
ENDBRANCH   5  21
BRANCH   7  23
ATOM     23  O   UNL     1     -26.048  17.963 -39.539  1.00  0.00    -0.507 OA
ATOM     24  H   UNL     1     -26.918  17.660 -39.953  1.00  0.00     0.293 HD
ENDBRANCH   7  23
TORSDOF 5
ENDMDL
MODEL 5
REMARK VINA RESULT:    -6.487      1.835      2.100
REMARK INTER + INTRA:          -7.922
REMARK INTER:                  -7.608
REMARK INTRA:                  -0.314
REMARK UNBOUND:                -0.297
REMARK SMILES Oc1ccc(-c2[o+]c3cc(O)cc(O)c3cc2O)cc1
REMARK SMILES IDX 6 1 7 2 8 3 9 4 10 5 12 6 13 7 15 8 16 9 17 10 5 11 4 12
REMARK SMILES IDX 3 13 2 14 19 15 20 16 1 17 18 19 11 21 14 23
REMARK H PARENT 1 18 18 20 11 22 14 24
REMARK Flexibility Score: inf
ROOT
ATOM      1  C   UNL     1     -22.063  15.154 -40.127  1.00  0.00     0.401 A 
ATOM      2  O   UNL     1     -22.824  15.977 -39.410  1.00  0.00    -0.202 OA
ATOM      3  C   UNL     1     -23.180  17.189 -39.823  1.00  0.00     0.368 A 
ATOM      4  C   UNL     1     -23.986  17.980 -39.000  1.00  0.00     0.162 A 
ATOM      5  C   UNL     1     -24.375  19.255 -39.408  1.00  0.00     0.128 A 
ATOM      6  C   UNL     1     -23.959  19.745 -40.652  1.00  0.00     0.093 A 
ATOM      7  C   UNL     1     -23.152  18.973 -41.495  1.00  0.00     0.136 A 
ATOM      8  C   UNL     1     -22.750  17.677 -41.081  1.00  0.00     0.125 A 
ATOM      9  C   UNL     1     -21.932  16.838 -41.855  1.00  0.00     0.078 A 
ATOM     10  C   UNL     1     -21.574  15.573 -41.378  1.00  0.00     0.223 A 
ENDROOT
BRANCH   1  11
ATOM     11  C   UNL     1     -21.745  13.823 -39.561  1.00  0.00     0.084 A 
ATOM     12  C   UNL     1     -22.611  12.728 -39.731  1.00  0.00     0.022 A 
ATOM     13  C   UNL     1     -22.299  11.487 -39.168  1.00  0.00     0.047 A 
ATOM     14  C   UNL     1     -21.126  11.328 -38.418  1.00  0.00     0.115 A 
ATOM     15  C   UNL     1     -20.581  13.660 -38.790  1.00  0.00     0.022 A 
ATOM     16  C   UNL     1     -20.272  12.418 -38.229  1.00  0.00     0.047 A 
BRANCH  14  17
ATOM     17  O   UNL     1     -20.805  10.096 -37.853  1.00  0.00    -0.508 OA
ATOM     18  H   UNL     1     -20.071  10.008 -37.159  1.00  0.00     0.293 HD
ENDBRANCH  14  17
ENDBRANCH   1  11
BRANCH  10  19
ATOM     19  O   UNL     1     -20.720  14.760 -42.124  1.00  0.00    -0.500 OA
ATOM     20  H   UNL     1     -20.565  14.917 -43.112  1.00  0.00     0.294 HD
ENDBRANCH  10  19
BRANCH   5  21
ATOM     21  O   UNL     1     -25.179  20.028 -38.573  1.00  0.00    -0.507 OA
ATOM     22  H   UNL     1     -25.085  19.992 -37.565  1.00  0.00     0.293 HD
ENDBRANCH   5  21
BRANCH   7  23
ATOM     23  O   UNL     1     -22.781  19.534 -42.722  1.00  0.00    -0.507 OA
ATOM     24  H   UNL     1     -22.862  19.063 -43.611  1.00  0.00     0.293 HD
ENDBRANCH   7  23
TORSDOF 5
ENDMDL
MODEL 6
REMARK VINA RESULT:    -6.477      2.807      5.993
REMARK INTER + INTRA:          -7.910
REMARK INTER:                  -7.621
REMARK INTRA:                  -0.289
REMARK UNBOUND:                -0.297
REMARK SMILES Oc1ccc(-c2[o+]c3cc(O)cc(O)c3cc2O)cc1
REMARK SMILES IDX 6 1 7 2 8 3 9 4 10 5 12 6 13 7 15 8 16 9 17 10 5 11 4 12
REMARK SMILES IDX 3 13 2 14 19 15 20 16 1 17 18 19 11 21 14 23
REMARK H PARENT 1 18 18 20 11 22 14 24
REMARK Flexibility Score: inf
ROOT
ATOM      1  C   UNL     1     -24.989  16.037 -37.313  1.00  0.00     0.401 A 
ATOM      2  O   UNL     1     -23.879  15.612 -37.910  1.00  0.00    -0.202 OA
ATOM      3  C   UNL     1     -23.408  16.140 -39.036  1.00  0.00     0.368 A 
ATOM      4  C   UNL     1     -22.231  15.627 -39.587  1.00  0.00     0.162 A 
ATOM      5  C   UNL     1     -21.713  16.162 -40.767  1.00  0.00     0.128 A 
ATOM      6  C   UNL     1     -22.374  17.220 -41.400  1.00  0.00     0.093 A 
ATOM      7  C   UNL     1     -23.554  17.752 -40.868  1.00  0.00     0.136 A 
ATOM      8  C   UNL     1     -24.086  17.208 -39.671  1.00  0.00     0.125 A 
ATOM      9  C   UNL     1     -25.271  17.669 -39.073  1.00  0.00     0.078 A 
ATOM     10  C   UNL     1     -25.736  17.079 -37.893  1.00  0.00     0.223 A 
ENDROOT
BRANCH   1  11
ATOM     11  C   UNL     1     -25.405  15.375 -36.055  1.00  0.00     0.084 A 
ATOM     12  C   UNL     1     -24.799  15.688 -34.825  1.00  0.00     0.022 A 
ATOM     13  C   UNL     1     -25.194  15.033 -33.655  1.00  0.00     0.047 A 
ATOM     14  C   UNL     1     -26.188  14.047 -33.702  1.00  0.00     0.115 A 
ATOM     15  C   UNL     1     -26.387  14.370 -36.096  1.00  0.00     0.022 A 
ATOM     16  C   UNL     1     -26.780  13.717 -34.924  1.00  0.00     0.047 A 
BRANCH  14  17
ATOM     17  O   UNL     1     -26.589  13.387 -32.543  1.00  0.00    -0.508 OA
ATOM     18  H   UNL     1     -26.248  13.666 -31.630  1.00  0.00     0.293 HD
ENDBRANCH  14  17
ENDBRANCH   1  11
BRANCH  10  19
ATOM     19  O   UNL     1     -26.938  17.502 -37.326  1.00  0.00    -0.500 OA
ATOM     20  H   UNL     1     -27.751  16.899 -37.290  1.00  0.00     0.294 HD
ENDBRANCH  10  19
BRANCH   5  21
ATOM     21  O   UNL     1     -20.538  15.637 -41.301  1.00  0.00    -0.507 OA
ATOM     22  H   UNL     1     -19.896  16.210 -41.836  1.00  0.00     0.293 HD
ENDBRANCH   5  21
BRANCH   7  23
ATOM     23  O   UNL     1     -24.152  18.810 -41.560  1.00  0.00    -0.507 OA
ATOM     24  H   UNL     1     -24.118  18.928 -42.562  1.00  0.00     0.293 HD
ENDBRANCH   7  23
TORSDOF 5
ENDMDL
MODEL 7
REMARK VINA RESULT:    -6.464      4.646      6.203
REMARK INTER + INTRA:          -7.894
REMARK INTER:                  -7.593
REMARK INTRA:                  -0.301
REMARK UNBOUND:                -0.297
REMARK SMILES Oc1ccc(-c2[o+]c3cc(O)cc(O)c3cc2O)cc1
REMARK SMILES IDX 6 1 7 2 8 3 9 4 10 5 12 6 13 7 15 8 16 9 17 10 5 11 4 12
REMARK SMILES IDX 3 13 2 14 19 15 20 16 1 17 18 19 11 21 14 23
REMARK H PARENT 1 18 18 20 11 22 14 24
REMARK Flexibility Score: inf
ROOT
ATOM      1  C   UNL     1     -24.081  18.101 -38.149  1.00  0.00     0.401 A 
ATOM      2  O   UNL     1     -23.397  19.231 -37.988  1.00  0.00    -0.202 OA
ATOM      3  C   UNL     1     -22.975  19.979 -39.003  1.00  0.00     0.368 A 
ATOM      4  C   UNL     1     -22.266  21.153 -38.733  1.00  0.00     0.162 A 
ATOM      5  C   UNL     1     -21.812  21.959 -39.778  1.00  0.00     0.128 A 
ATOM      6  C   UNL     1     -22.071  21.592 -41.103  1.00  0.00     0.093 A 
ATOM      7  C   UNL     1     -22.779  20.421 -41.400  1.00  0.00     0.136 A 
ATOM      8  C   UNL     1     -23.239  19.597 -40.340  1.00  0.00     0.125 A 
ATOM      9  C   UNL     1     -23.945  18.400 -40.543  1.00  0.00     0.078 A 
ATOM     10  C   UNL     1     -24.363  17.638 -39.448  1.00  0.00     0.223 A 
ENDROOT
BRANCH   1  11
ATOM     11  C   UNL     1     -24.506  17.362 -36.939  1.00  0.00     0.084 A 
ATOM     12  C   UNL     1     -25.826  17.435 -36.459  1.00  0.00     0.022 A 
ATOM     13  C   UNL     1     -26.197  16.745 -35.301  1.00  0.00     0.047 A 
ATOM     14  C   UNL     1     -25.251  15.986 -34.600  1.00  0.00     0.115 A 
ATOM     15  C   UNL     1     -23.559  16.614 -36.218  1.00  0.00     0.022 A 
ATOM     16  C   UNL     1     -23.933  15.925 -35.061  1.00  0.00     0.047 A 
BRANCH  14  17
ATOM     17  O   UNL     1     -25.609  15.294 -33.446  1.00  0.00    -0.508 OA
ATOM     18  H   UNL     1     -25.880  15.782 -32.599  1.00  0.00     0.293 HD
ENDBRANCH  14  17
ENDBRANCH   1  11
BRANCH  10  19
ATOM     19  O   UNL     1     -25.020  16.424 -39.650  1.00  0.00    -0.500 OA
ATOM     20  H   UNL     1     -25.785  16.336 -40.308  1.00  0.00     0.294 HD
ENDBRANCH  10  19
BRANCH   5  21
ATOM     21  O   UNL     1     -21.107  23.125 -39.488  1.00  0.00    -0.507 OA
ATOM     22  H   UNL     1     -20.191  23.097 -39.057  1.00  0.00     0.293 HD
ENDBRANCH   5  21
BRANCH   7  23
ATOM     23  O   UNL     1     -22.998  20.126 -42.749  1.00  0.00    -0.507 OA
ATOM     24  H   UNL     1     -23.909  20.094 -43.185  1.00  0.00     0.293 HD
ENDBRANCH   7  23
TORSDOF 5
ENDMDL
MODEL 8
REMARK VINA RESULT:    -6.400      4.251      6.968
REMARK INTER + INTRA:          -7.819
REMARK INTER:                  -7.501
REMARK INTRA:                  -0.318
REMARK UNBOUND:                -0.297
REMARK SMILES Oc1ccc(-c2[o+]c3cc(O)cc(O)c3cc2O)cc1
REMARK SMILES IDX 6 1 7 2 8 3 9 4 10 5 12 6 13 7 15 8 16 9 17 10 5 11 4 12
REMARK SMILES IDX 3 13 2 14 19 15 20 16 1 17 18 19 11 21 14 23
REMARK H PARENT 1 18 18 20 11 22 14 24
REMARK Flexibility Score: inf
ROOT
ATOM      1  C   UNL     1     -18.209  12.399 -35.346  1.00  0.00     0.401 A 
ATOM      2  O   UNL     1     -19.513  12.653 -35.428  1.00  0.00    -0.202 OA
ATOM      3  C   UNL     1     -20.251  12.346 -36.490  1.00  0.00     0.368 A 
ATOM      4  C   UNL     1     -21.615  12.650 -36.480  1.00  0.00     0.162 A 
ATOM      5  C   UNL     1     -22.415  12.339 -37.580  1.00  0.00     0.128 A 
ATOM      6  C   UNL     1     -21.849  11.717 -38.698  1.00  0.00     0.093 A 
ATOM      7  C   UNL     1     -20.486  11.402 -38.733  1.00  0.00     0.136 A 
ATOM      8  C   UNL     1     -19.668  11.720 -37.618  1.00  0.00     0.125 A 
ATOM      9  C   UNL     1     -18.290  11.453 -37.569  1.00  0.00     0.078 A 
ATOM     10  C   UNL     1     -17.548  11.800 -36.436  1.00  0.00     0.223 A 
ENDROOT
BRANCH   1  11
ATOM     11  C   UNL     1     -17.498  12.778 -34.104  1.00  0.00     0.084 A 
ATOM     12  C   UNL     1     -16.888  14.037 -33.963  1.00  0.00     0.022 A 
ATOM     13  C   UNL     1     -16.203  14.363 -32.788  1.00  0.00     0.047 A 
ATOM     14  C   UNL     1     -16.107  13.430 -31.748  1.00  0.00     0.115 A 
ATOM     15  C   UNL     1     -17.379  11.841 -33.064  1.00  0.00     0.022 A 
ATOM     16  C   UNL     1     -16.694  12.170 -31.890  1.00  0.00     0.047 A 
BRANCH  14  17
ATOM     17  O   UNL     1     -15.427  13.743 -30.573  1.00  0.00    -0.508 OA
ATOM     18  H   UNL     1     -15.524  13.176 -29.738  1.00  0.00     0.293 HD
ENDBRANCH  14  17
ENDBRANCH   1  11
BRANCH  10  19
ATOM     19  O   UNL     1     -16.171  11.581 -36.407  1.00  0.00    -0.500 OA
ATOM     20  H   UNL     1     -15.575  11.840 -37.184  1.00  0.00     0.294 HD
ENDBRANCH  10  19
BRANCH   5  21
ATOM     21  O   UNL     1     -23.773  12.650 -37.551  1.00  0.00    -0.507 OA
ATOM     22  H   UNL     1     -24.476  11.980 -37.839  1.00  0.00     0.293 HD
ENDBRANCH   5  21
BRANCH   7  23
ATOM     23  O   UNL     1     -19.998  10.778 -39.886  1.00  0.00    -0.507 OA
ATOM     24  H   UNL     1     -20.028   9.782 -40.051  1.00  0.00     0.293 HD
ENDBRANCH   7  23
TORSDOF 5
ENDMDL
MODEL 9
REMARK VINA RESULT:    -6.381      4.435      7.045
REMARK INTER + INTRA:          -7.798
REMARK INTER:                  -7.569
REMARK INTRA:                  -0.229
REMARK UNBOUND:                -0.297
REMARK SMILES Oc1ccc(-c2[o+]c3cc(O)cc(O)c3cc2O)cc1
REMARK SMILES IDX 6 1 7 2 8 3 9 4 10 5 12 6 13 7 15 8 16 9 17 10 5 11 4 12
REMARK SMILES IDX 3 13 2 14 19 15 20 16 1 17 18 19 11 21 14 23
REMARK H PARENT 1 18 18 20 11 22 14 24
REMARK Flexibility Score: inf
ROOT
ATOM      1  C   UNL     1     -19.595  12.492 -35.180  1.00  0.00     0.401 A 
ATOM      2  O   UNL     1     -19.038  12.269 -36.368  1.00  0.00    -0.202 OA
ATOM      3  C   UNL     1     -19.741  12.052 -37.475  1.00  0.00     0.368 A 
ATOM      4  C   UNL     1     -19.064  11.830 -38.677  1.00  0.00     0.162 A 
ATOM      5  C   UNL     1     -19.776  11.601 -39.855  1.00  0.00     0.128 A 
ATOM      6  C   UNL     1     -21.175  11.595 -39.833  1.00  0.00     0.093 A 
ATOM      7  C   UNL     1     -21.876  11.815 -38.642  1.00  0.00     0.136 A 
ATOM      8  C   UNL     1     -21.156  12.045 -37.441  1.00  0.00     0.125 A 
ATOM      9  C   UNL     1     -21.775  12.261 -36.199  1.00  0.00     0.078 A 
ATOM     10  C   UNL     1     -20.997  12.476 -35.056  1.00  0.00     0.223 A 
ENDROOT
BRANCH   1  11
ATOM     11  C   UNL     1     -18.705  12.732 -34.022  1.00  0.00     0.084 A 
ATOM     12  C   UNL     1     -17.955  11.692 -33.444  1.00  0.00     0.022 A 
ATOM     13  C   UNL     1     -17.138  11.940 -32.337  1.00  0.00     0.047 A 
ATOM     14  C   UNL     1     -17.071  13.226 -31.786  1.00  0.00     0.115 A 
ATOM     15  C   UNL     1     -18.646  14.015 -33.451  1.00  0.00     0.022 A 
ATOM     16  C   UNL     1     -17.828  14.260 -32.344  1.00  0.00     0.047 A 
BRANCH  14  17
ATOM     17  O   UNL     1     -16.260  13.486 -30.683  1.00  0.00    -0.508 OA
ATOM     18  H   UNL     1     -15.334  13.081 -30.600  1.00  0.00     0.293 HD
ENDBRANCH  14  17
ENDBRANCH   1  11
BRANCH  10  19
ATOM     19  O   UNL     1     -21.610  12.641 -33.814  1.00  0.00    -0.500 OA
ATOM     20  H   UNL     1     -22.617  12.621 -33.710  1.00  0.00     0.294 HD
ENDBRANCH  10  19
BRANCH   5  21
ATOM     21  O   UNL     1     -19.083  11.382 -41.044  1.00  0.00    -0.507 OA
ATOM     22  H   UNL     1     -19.563  11.327 -41.935  1.00  0.00     0.293 HD
ENDBRANCH   5  21
BRANCH   7  23
ATOM     23  O   UNL     1     -23.273  11.796 -38.704  1.00  0.00    -0.507 OA
ATOM     24  H   UNL     1     -23.804  11.540 -39.525  1.00  0.00     0.293 HD
ENDBRANCH   7  23
TORSDOF 5
ENDMDL
