MODEL 1
REMARK VINA RESULT:    -6.332      0.000      0.000
REMARK INTER + INTRA:          -7.015
REMARK INTER:                  -6.888
REMARK INTRA:                  -0.127
REMARK UNBOUND:                -0.127
REMARK SMILES Cc1ccc(C(C)C)cc1O
REMARK SMILES IDX 1 1 2 2 10 3 9 4 5 5 4 6 3 7 11 8 6 10 7 11 8 12
REMARK H PARENT 11 9
REMARK Flexibility Score: inf
ROOT
ATOM      1  C   UNL     1     -10.070   3.150  -9.306  1.00  0.00     0.048 C 
ATOM      2  C   UNL     1     -11.283   2.273  -9.444  1.00  0.00    -0.009 A 
ATOM      3  C   UNL     1     -12.570   2.814  -9.283  1.00  0.00     0.118 A 
ATOM      4  C   UNL     1     -13.697   1.989  -9.413  1.00  0.00     0.050 A 
ATOM      5  C   UNL     1     -13.556   0.622  -9.706  1.00  0.00    -0.042 A 
ATOM      6  C   UNL     1     -12.264   0.090  -9.866  1.00  0.00     0.004 A 
ATOM      7  C   UNL     1     -11.140   0.908  -9.735  1.00  0.00     0.007 A 
ENDROOT
BRANCH   3   8
ATOM      8  O   UNL     1     -12.726   4.169  -8.993  1.00  0.00    -0.508 OA
ATOM      9  H   UNL     1     -12.412   4.565  -8.116  1.00  0.00     0.293 HD
ENDBRANCH   3   8
BRANCH   5  10
ATOM     10  C   UNL     1     -14.787  -0.255  -9.844  1.00  0.00     0.013 C 
ATOM     11  C   UNL     1     -14.399  -1.728 -10.017  1.00  0.00     0.012 C 
ATOM     12  C   UNL     1     -15.733  -0.070  -8.651  1.00  0.00     0.012 C 
ENDBRANCH   5  10
TORSDOF 2
ENDMDL
MODEL 2
REMARK VINA RESULT:    -5.432      2.290      4.898
REMARK INTER + INTRA:          -6.035
REMARK INTER:                  -5.909
REMARK INTRA:                  -0.126
REMARK UNBOUND:                -0.127
REMARK SMILES Cc1ccc(C(C)C)cc1O
REMARK SMILES IDX 1 1 2 2 10 3 9 4 5 5 4 6 3 7 11 8 6 10 7 11 8 12
REMARK H PARENT 11 9
REMARK Flexibility Score: inf
ROOT
ATOM      1  C   UNL     1     -16.120  -2.388  -8.902  1.00  0.00     0.048 C 
ATOM      2  C   UNL     1     -15.297  -1.146  -9.095  1.00  0.00    -0.009 A 
ATOM      3  C   UNL     1     -14.031  -1.222  -9.701  1.00  0.00     0.118 A 
ATOM      4  C   UNL     1     -13.268  -0.059  -9.878  1.00  0.00     0.050 A 
ATOM      5  C   UNL     1     -13.756   1.190  -9.456  1.00  0.00    -0.042 A 
ATOM      6  C   UNL     1     -15.024   1.257  -8.851  1.00  0.00     0.004 A 
ATOM      7  C   UNL     1     -15.785   0.100  -8.673  1.00  0.00     0.007 A 
ENDROOT
BRANCH   3   8
ATOM      8  O   UNL     1     -13.533  -2.454 -10.125  1.00  0.00    -0.508 OA
ATOM      9  H   UNL     1     -12.609  -2.543 -10.531  1.00  0.00     0.293 HD
ENDBRANCH   3   8
BRANCH   5  10
ATOM     10  C   UNL     1     -12.917   2.439  -9.656  1.00  0.00     0.013 C 
ATOM     11  C   UNL     1     -13.262   3.509  -8.614  1.00  0.00     0.012 C 
ATOM     12  C   UNL     1     -11.419   2.108  -9.632  1.00  0.00     0.012 C 
ENDBRANCH   5  10
TORSDOF 2
ENDMDL
MODEL 3
REMARK VINA RESULT:    -4.991     16.626     17.199
REMARK INTER + INTRA:          -5.556
REMARK INTER:                  -5.430
REMARK INTRA:                  -0.126
REMARK UNBOUND:                -0.127
REMARK SMILES Cc1ccc(C(C)C)cc1O
REMARK SMILES IDX 1 1 2 2 10 3 9 4 5 5 4 6 3 7 11 8 6 10 7 11 8 12
REMARK H PARENT 11 9
REMARK Flexibility Score: inf
ROOT
ATOM      1  C   UNL     1     -11.643   2.807  10.125  1.00  0.00     0.048 C 
ATOM      2  C   UNL     1     -11.995   3.425   8.801  1.00  0.00    -0.009 A 
ATOM      3  C   UNL     1     -11.483   4.686   8.451  1.00  0.00     0.118 A 
ATOM      4  C   UNL     1     -11.816   5.258   7.214  1.00  0.00     0.050 A 
ATOM      5  C   UNL     1     -12.659   4.582   6.315  1.00  0.00    -0.042 A 
ATOM      6  C   UNL     1     -13.167   3.320   6.675  1.00  0.00     0.004 A 
ATOM      7  C   UNL     1     -12.838   2.749   7.906  1.00  0.00     0.007 A 
ENDROOT
BRANCH   3   8
ATOM      8  O   UNL     1     -10.645   5.369   9.332  1.00  0.00    -0.508 OA
ATOM      9  H   UNL     1     -10.775   5.320  10.335  1.00  0.00     0.293 HD
ENDBRANCH   3   8
BRANCH   5  10
ATOM     10  C   UNL     1     -13.008   5.215   4.981  1.00  0.00     0.013 C 
ATOM     11  C   UNL     1     -13.210   4.148   3.898  1.00  0.00     0.012 C 
ATOM     12  C   UNL     1     -14.243   6.117   5.104  1.00  0.00     0.012 C 
ENDBRANCH   5  10
TORSDOF 2
ENDMDL
MODEL 4
REMARK VINA RESULT:    -4.923     16.532     17.178
REMARK INTER + INTRA:          -5.482
REMARK INTER:                  -5.355
REMARK INTRA:                  -0.127
REMARK UNBOUND:                -0.127
REMARK SMILES Cc1ccc(C(C)C)cc1O
REMARK SMILES IDX 1 1 2 2 10 3 9 4 5 5 4 6 3 7 11 8 6 10 7 11 8 12
REMARK H PARENT 11 9
REMARK Flexibility Score: inf
ROOT
ATOM      1  C   UNL     1     -12.754   3.767   3.715  1.00  0.00     0.048 C 
ATOM      2  C   UNL     1     -12.421   3.794   5.180  1.00  0.00    -0.009 A 
ATOM      3  C   UNL     1     -11.941   2.637   5.818  1.00  0.00     0.118 A 
ATOM      4  C   UNL     1     -11.633   2.669   7.186  1.00  0.00     0.050 A 
ATOM      5  C   UNL     1     -11.797   3.849   7.931  1.00  0.00    -0.042 A 
ATOM      6  C   UNL     1     -12.277   5.002   7.284  1.00  0.00     0.004 A 
ATOM      7  C   UNL     1     -12.587   4.973   5.922  1.00  0.00     0.007 A 
ENDROOT
BRANCH   3   8
ATOM      8  O   UNL     1     -11.773   1.459   5.092  1.00  0.00    -0.508 OA
ATOM      9  H   UNL     1     -11.928   1.423   4.092  1.00  0.00     0.293 HD
ENDBRANCH   3   8
BRANCH   5  10
ATOM     10  C   UNL     1     -11.457   3.866   9.410  1.00  0.00     0.013 C 
ATOM     11  C   UNL     1     -11.929   5.167  10.071  1.00  0.00     0.012 C 
ATOM     12  C   UNL     1     -12.041   2.641  10.125  1.00  0.00     0.012 C 
ENDBRANCH   5  10
TORSDOF 2
ENDMDL
MODEL 5
REMARK VINA RESULT:    -4.899     16.586     17.478
REMARK INTER + INTRA:          -5.456
REMARK INTER:                  -5.329
REMARK INTRA:                  -0.126
REMARK UNBOUND:                -0.127
REMARK SMILES Cc1ccc(C(C)C)cc1O
REMARK SMILES IDX 1 1 2 2 10 3 9 4 5 5 4 6 3 7 11 8 6 10 7 11 8 12
REMARK H PARENT 11 9
REMARK Flexibility Score: inf
ROOT
ATOM      1  C   UNL     1     -12.208   2.986  10.094  1.00  0.00     0.048 C 
ATOM      2  C   UNL     1     -11.784   3.670   8.825  1.00  0.00    -0.009 A 
ATOM      3  C   UNL     1     -12.266   3.222   7.583  1.00  0.00     0.118 A 
ATOM      4  C   UNL     1     -11.866   3.865   6.403  1.00  0.00     0.050 A 
ATOM      5  C   UNL     1     -10.986   4.959   6.445  1.00  0.00    -0.042 A 
ATOM      6  C   UNL     1     -10.509   5.402   7.693  1.00  0.00     0.004 A 
ATOM      7  C   UNL     1     -10.904   4.763   8.869  1.00  0.00     0.007 A 
ENDROOT
BRANCH   3   8
ATOM      8  O   UNL     1     -13.141   2.137   7.525  1.00  0.00    -0.508 OA
ATOM      9  H   UNL     1     -13.690   1.941   6.696  1.00  0.00     0.293 HD
ENDBRANCH   3   8
BRANCH   5  10
ATOM     10  C   UNL     1     -10.564   5.644   5.158  1.00  0.00     0.013 C 
ATOM     11  C   UNL     1      -9.754   6.914   5.447  1.00  0.00     0.012 C 
ATOM     12  C   UNL     1      -9.781   4.685   4.254  1.00  0.00     0.012 C 
ENDBRANCH   5  10
TORSDOF 2
ENDMDL
MODEL 6
REMARK VINA RESULT:    -4.874     16.733     17.596
REMARK INTER + INTRA:          -5.428
REMARK INTER:                  -5.306
REMARK INTRA:                  -0.122
REMARK UNBOUND:                -0.127
REMARK SMILES Cc1ccc(C(C)C)cc1O
REMARK SMILES IDX 1 1 2 2 10 3 9 4 5 5 4 6 3 7 11 8 6 10 7 11 8 12
REMARK H PARENT 11 9
REMARK Flexibility Score: inf
ROOT
ATOM      1  C   UNL     1     -12.351   2.335   9.699  1.00  0.00     0.048 C 
ATOM      2  C   UNL     1     -11.883   3.194   8.559  1.00  0.00    -0.009 A 
ATOM      3  C   UNL     1     -11.243   4.420   8.812  1.00  0.00     0.118 A 
ATOM      4  C   UNL     1     -10.808   5.217   7.742  1.00  0.00     0.050 A 
ATOM      5  C   UNL     1     -11.004   4.803   6.414  1.00  0.00    -0.042 A 
ATOM      6  C   UNL     1     -11.645   3.575   6.170  1.00  0.00     0.004 A 
ATOM      7  C   UNL     1     -12.080   2.780   7.233  1.00  0.00     0.007 A 
ENDROOT
BRANCH   3   8
ATOM      8  O   UNL     1     -11.041   4.844  10.125  1.00  0.00    -0.508 OA
ATOM      9  H   UNL     1     -11.656   5.516  10.567  1.00  0.00     0.293 HD
ENDBRANCH   3   8
BRANCH   5  10
ATOM     10  C   UNL     1     -10.527   5.678   5.269  1.00  0.00     0.013 C 
ATOM     11  C   UNL     1      -9.703   6.863   5.785  1.00  0.00     0.012 C 
ATOM     12  C   UNL     1      -9.733   4.860   4.243  1.00  0.00     0.012 C 
ENDBRANCH   5  10
TORSDOF 2
ENDMDL
MODEL 7
REMARK VINA RESULT:    -4.586     16.319     16.964
REMARK INTER + INTRA:          -5.115
REMARK INTER:                  -4.990
REMARK INTRA:                  -0.126
REMARK UNBOUND:                -0.127
REMARK SMILES Cc1ccc(C(C)C)cc1O
REMARK SMILES IDX 1 1 2 2 10 3 9 4 5 5 4 6 3 7 11 8 6 10 7 11 8 12
REMARK H PARENT 11 9
REMARK Flexibility Score: inf
ROOT
ATOM      1  C   UNL     1     -12.921   4.079   3.613  1.00  0.00     0.048 C 
ATOM      2  C   UNL     1     -12.532   3.930   5.057  1.00  0.00    -0.009 A 
ATOM      3  C   UNL     1     -11.209   4.179   5.463  1.00  0.00     0.118 A 
ATOM      4  C   UNL     1     -10.853   4.038   6.812  1.00  0.00     0.050 A 
ATOM      5  C   UNL     1     -11.806   3.651   7.770  1.00  0.00    -0.042 A 
ATOM      6  C   UNL     1     -13.127   3.405   7.354  1.00  0.00     0.004 A 
ATOM      7  C   UNL     1     -13.485   3.543   6.011  1.00  0.00     0.007 A 
ENDROOT
BRANCH   3   8
ATOM      8  O   UNL     1     -10.252   4.564   4.525  1.00  0.00    -0.508 OA
ATOM      9  H   UNL     1      -9.964   5.530   4.425  1.00  0.00     0.293 HD
ENDBRANCH   3   8
BRANCH   5  10
ATOM     10  C   UNL     1     -11.403   3.504   9.225  1.00  0.00     0.013 C 
ATOM     11  C   UNL     1     -11.578   4.825   9.983  1.00  0.00     0.012 C 
ATOM     12  C   UNL     1     -12.184   2.371   9.903  1.00  0.00     0.012 C 
ENDBRANCH   5  10
TORSDOF 2
ENDMDL
MODEL 8
REMARK VINA RESULT:    -4.473     16.524     17.108
REMARK INTER + INTRA:          -4.992
REMARK INTER:                  -4.866
REMARK INTRA:                  -0.126
REMARK UNBOUND:                -0.127
REMARK SMILES Cc1ccc(C(C)C)cc1O
REMARK SMILES IDX 1 1 2 2 10 3 9 4 5 5 4 6 3 7 11 8 6 10 7 11 8 12
REMARK H PARENT 11 9
REMARK Flexibility Score: inf
ROOT
ATOM      1  C   UNL     1     -10.917   4.123  10.109  1.00  0.00     0.048 C 
ATOM      2  C   UNL     1     -11.595   4.153   8.768  1.00  0.00    -0.009 A 
ATOM      3  C   UNL     1     -12.308   3.032   8.309  1.00  0.00     0.118 A 
ATOM      4  C   UNL     1     -12.937   3.067   7.056  1.00  0.00     0.050 A 
ATOM      5  C   UNL     1     -12.865   4.216   6.249  1.00  0.00    -0.042 A 
ATOM      6  C   UNL     1     -12.150   5.333   6.717  1.00  0.00     0.004 A 
ATOM      7  C   UNL     1     -11.521   5.300   7.963  1.00  0.00     0.007 A 
ENDROOT
BRANCH   3   8
ATOM      8  O   UNL     1     -12.388   1.885   9.098  1.00  0.00    -0.508 OA
ATOM      9  H   UNL     1     -13.145   1.744   9.756  1.00  0.00     0.293 HD
ENDBRANCH   3   8
BRANCH   5  10
ATOM     10  C   UNL     1     -13.553   4.237   4.897  1.00  0.00     0.013 C 
ATOM     11  C   UNL     1     -14.213   5.595   4.633  1.00  0.00     0.012 C 
ATOM     12  C   UNL     1     -12.574   3.872   3.774  1.00  0.00     0.012 C 
ENDBRANCH   5  10
TORSDOF 2
ENDMDL
MODEL 9
REMARK VINA RESULT:    -4.396     15.464     16.450
REMARK INTER + INTRA:          -4.908
REMARK INTER:                  -4.783
REMARK INTRA:                  -0.125
REMARK UNBOUND:                -0.127
REMARK SMILES Cc1ccc(C(C)C)cc1O
REMARK SMILES IDX 1 1 2 2 10 3 9 4 5 5 4 6 3 7 11 8 6 10 7 11 8 12
REMARK H PARENT 11 9
REMARK Flexibility Score: inf
ROOT
ATOM      1  C   UNL     1     -10.777  10.757   4.919  1.00  0.00     0.048 C 
ATOM      2  C   UNL     1     -10.677   9.274   5.139  1.00  0.00    -0.009 A 
ATOM      3  C   UNL     1      -9.470   8.600   4.882  1.00  0.00     0.118 A 
ATOM      4  C   UNL     1      -9.383   7.216   5.090  1.00  0.00     0.050 A 
ATOM      5  C   UNL     1     -10.492   6.489   5.556  1.00  0.00    -0.042 A 
ATOM      6  C   UNL     1     -11.695   7.172   5.812  1.00  0.00     0.004 A 
ATOM      7  C   UNL     1     -11.785   8.550   5.605  1.00  0.00     0.007 A 
ENDROOT
BRANCH   3   8
ATOM      8  O   UNL     1      -8.361   9.307   4.419  1.00  0.00    -0.508 OA
ATOM      9  H   UNL     1      -8.382  10.313   4.303  1.00  0.00     0.293 HD
ENDBRANCH   3   8
BRANCH   5  10
ATOM     10  C   UNL     1     -10.380   4.992   5.776  1.00  0.00     0.013 C 
ATOM     11  C   UNL     1     -10.707   4.621   7.228  1.00  0.00     0.012 C 
ATOM     12  C   UNL     1     -11.272   4.221   4.796  1.00  0.00     0.012 C 
ENDBRANCH   5  10
TORSDOF 2
ENDMDL
