MODEL 1
REMARK VINA RESULT:    -4.270      0.000      0.000
REMARK INTER + INTRA:          -5.217
REMARK INTER:                  -5.144
REMARK INTRA:                  -0.073
REMARK UNBOUND:                -0.073
REMARK SMILES CC[C@H](C)[C@H]([NH3+])C(=O)[O-]
REMARK SMILES IDX 3 1 4 2 5 3 6 4 7 8 8 9 9 10 2 11 1 12
REMARK H PARENT 6 5 6 6 6 7
REMARK Flexibility Score: inf
ROOT
ATOM      1  C   UNL     1      10.723 -15.588 -21.798  1.00  0.00     0.050 C 
ATOM      2  C   UNL     1      10.124 -17.001 -21.908  1.00  0.00     0.014 C 
ENDROOT
BRANCH   1   3
ATOM      3  C   UNL     1       9.880 -14.705 -20.817  1.00  0.00     0.230 C 
BRANCH   3   4
ATOM      4  N   UNL     1       9.394 -13.464 -21.441  1.00  0.00    -0.350 N 
ATOM      5  H   UNL     1       9.318 -12.691 -20.741  1.00  0.00     0.345 HD
ATOM      6  H   UNL     1       8.449 -13.630 -21.856  1.00  0.00     0.345 HD
ATOM      7  H   UNL     1      10.031 -13.169 -22.214  1.00  0.00     0.345 HD
ENDBRANCH   3   4
BRANCH   3   8
ATOM      8  C   UNL     1      10.624 -14.418 -19.533  1.00  0.00     0.099 C 
ATOM      9  O   UNL     1      10.793 -13.227 -19.159  1.00  0.00    -0.544 OA
ATOM     10  O   UNL     1      11.157 -15.451 -18.768  1.00  0.00    -0.544 OA
ENDBRANCH   3   8
ENDBRANCH   1   3
BRANCH   1  11
ATOM     11  C   UNL     1      10.914 -15.000 -23.221  1.00  0.00     0.006 C 
ATOM     12  C   UNL     1      10.889 -16.052 -24.329  1.00  0.00     0.004 C 
ENDBRANCH   1  11
TORSDOF 4
ENDMDL
MODEL 2
REMARK VINA RESULT:    -4.200      0.359      1.136
REMARK INTER + INTRA:          -5.132
REMARK INTER:                  -5.047
REMARK INTRA:                  -0.086
REMARK UNBOUND:                -0.073
REMARK SMILES CC[C@H](C)[C@H]([NH3+])C(=O)[O-]
REMARK SMILES IDX 3 1 4 2 5 3 6 4 7 8 8 9 9 10 2 11 1 12
REMARK H PARENT 6 5 6 6 6 7
REMARK Flexibility Score: inf
ROOT
ATOM      1  C   UNL     1      10.607 -15.986 -21.669  1.00  0.00     0.050 C 
ATOM      2  C   UNL     1       9.754 -17.215 -22.026  1.00  0.00     0.014 C 
ENDROOT
BRANCH   1   3
ATOM      3  C   UNL     1       9.815 -15.017 -20.728  1.00  0.00     0.230 C 
BRANCH   3   4
ATOM      4  N   UNL     1       9.282 -13.841 -21.435  1.00  0.00    -0.350 N 
ATOM      5  H   UNL     1       9.453 -13.907 -22.464  1.00  0.00     0.345 HD
ATOM      6  H   UNL     1       9.748 -12.978 -21.076  1.00  0.00     0.345 HD
ATOM      7  H   UNL     1       8.256 -13.743 -21.262  1.00  0.00     0.345 HD
ENDBRANCH   3   4
BRANCH   3   8
ATOM      8  C   UNL     1      10.630 -14.607 -19.522  1.00  0.00     0.099 C 
ATOM      9  O   UNL     1      11.155 -15.489 -18.791  1.00  0.00    -0.544 OA
ATOM     10  O   UNL     1      10.786 -13.266 -19.186  1.00  0.00    -0.544 OA
ENDBRANCH   3   8
ENDBRANCH   1   3
BRANCH   1  11
ATOM     11  C   UNL     1      11.150 -15.344 -22.974  1.00  0.00     0.006 C 
ATOM     12  C   UNL     1      10.458 -15.846 -24.240  1.00  0.00     0.004 C 
ENDBRANCH   1  11
TORSDOF 4
ENDMDL
MODEL 3
REMARK VINA RESULT:    -4.123      2.610      3.578
REMARK INTER + INTRA:          -5.039
REMARK INTER:                  -4.931
REMARK INTRA:                  -0.109
REMARK UNBOUND:                -0.073
REMARK SMILES CC[C@H](C)[C@H]([NH3+])C(=O)[O-]
REMARK SMILES IDX 3 1 4 2 5 3 6 4 7 8 8 9 9 10 2 11 1 12
REMARK H PARENT 6 5 6 6 6 7
REMARK Flexibility Score: inf
ROOT
ATOM      1  C   UNL     1       9.607 -14.762 -21.660  1.00  0.00     0.050 C 
ATOM      2  C   UNL     1       9.926 -16.262 -21.776  1.00  0.00     0.014 C 
ENDROOT
BRANCH   1   3
ATOM      3  C   UNL     1      10.327 -13.955 -22.792  1.00  0.00     0.230 C 
BRANCH   3   4
ATOM      4  N   UNL     1      11.792 -14.098 -22.752  1.00  0.00    -0.350 N 
ATOM      5  H   UNL     1      12.072 -15.095 -22.615  1.00  0.00     0.345 HD
ATOM      6  H   UNL     1      12.175 -13.533 -21.960  1.00  0.00     0.345 HD
ATOM      7  H   UNL     1      12.219 -13.737 -23.635  1.00  0.00     0.345 HD
ENDBRANCH   3   4
BRANCH   3   8
ATOM      8  C   UNL     1       9.919 -12.499 -22.796  1.00  0.00     0.099 C 
ATOM      9  O   UNL     1       8.780 -12.168 -23.220  1.00  0.00    -0.544 OA
ATOM     10  O   UNL     1      10.797 -11.508 -22.366  1.00  0.00    -0.544 OA
ENDBRANCH   3   8
ENDBRANCH   1   3
BRANCH   1  11
ATOM     11  C   UNL     1       9.904 -14.285 -20.214  1.00  0.00     0.006 C 
ATOM     12  C   UNL     1      10.888 -15.180 -19.462  1.00  0.00     0.004 C 
ENDBRANCH   1  11
TORSDOF 4
ENDMDL
MODEL 4
REMARK VINA RESULT:    -3.936      1.631      2.079
REMARK INTER + INTRA:          -4.814
REMARK INTER:                  -4.751
REMARK INTRA:                  -0.063
REMARK UNBOUND:                -0.073
REMARK SMILES CC[C@H](C)[C@H]([NH3+])C(=O)[O-]
REMARK SMILES IDX 3 1 4 2 5 3 6 4 7 8 8 9 9 10 2 11 1 12
REMARK H PARENT 6 5 6 6 6 7
REMARK Flexibility Score: inf
ROOT
ATOM      1  C   UNL     1       9.528 -15.413 -21.857  1.00  0.00     0.050 C 
ATOM      2  C   UNL     1       8.385 -15.388 -22.886  1.00  0.00     0.014 C 
ENDROOT
BRANCH   1   3
ATOM      3  C   UNL     1      10.313 -14.058 -21.869  1.00  0.00     0.230 C 
BRANCH   3   4
ATOM      4  N   UNL     1      11.667 -14.187 -22.431  1.00  0.00    -0.350 N 
ATOM      5  H   UNL     1      11.794 -13.568 -23.264  1.00  0.00     0.345 HD
ATOM      6  H   UNL     1      11.828 -15.177 -22.726  1.00  0.00     0.345 HD
ATOM      7  H   UNL     1      12.386 -13.950 -21.712  1.00  0.00     0.345 HD
ENDBRANCH   3   4
BRANCH   3   8
ATOM      8  C   UNL     1      10.347 -13.411 -20.502  1.00  0.00     0.099 C 
ATOM      9  O   UNL     1      10.062 -12.191 -20.379  1.00  0.00    -0.544 OA
ATOM     10  O   UNL     1      10.721 -14.138 -19.376  1.00  0.00    -0.544 OA
ENDBRANCH   3   8
ENDBRANCH   1   3
BRANCH   1  11
ATOM     11  C   UNL     1      10.393 -16.682 -22.082  1.00  0.00     0.006 C 
ATOM     12  C   UNL     1       9.596 -17.985 -22.037  1.00  0.00     0.004 C 
ENDBRANCH   1  11
TORSDOF 4
ENDMDL
MODEL 5
REMARK VINA RESULT:    -3.912      2.276      2.942
REMARK INTER + INTRA:          -4.785
REMARK INTER:                  -4.696
REMARK INTRA:                  -0.089
REMARK UNBOUND:                -0.073
REMARK SMILES CC[C@H](C)[C@H]([NH3+])C(=O)[O-]
REMARK SMILES IDX 3 1 4 2 5 3 6 4 7 8 8 9 9 10 2 11 1 12
REMARK H PARENT 6 5 6 6 6 7
REMARK Flexibility Score: inf
ROOT
ATOM      1  C   UNL     1       9.388 -15.110 -22.112  1.00  0.00     0.050 C 
ATOM      2  C   UNL     1       8.507 -15.784 -23.176  1.00  0.00     0.014 C 
ENDROOT
BRANCH   1   3
ATOM      3  C   UNL     1      10.291 -14.006 -22.760  1.00  0.00     0.230 C 
BRANCH   3   4
ATOM      4  N   UNL     1      11.726 -14.323 -22.681  1.00  0.00    -0.350 N 
ATOM      5  H   UNL     1      12.298 -13.632 -23.218  1.00  0.00     0.345 HD
ATOM      6  H   UNL     1      11.895 -15.275 -23.079  1.00  0.00     0.345 HD
ATOM      7  H   UNL     1      12.044 -14.334 -21.686  1.00  0.00     0.345 HD
ENDBRANCH   3   4
BRANCH   3   8
ATOM      8  C   UNL     1      10.001 -12.634 -22.194  1.00  0.00     0.099 C 
ATOM      9  O   UNL     1       9.739 -11.678 -22.971  1.00  0.00    -0.544 OA
ATOM     10  O   UNL     1      10.050 -12.401 -20.824  1.00  0.00    -0.544 OA
ENDBRANCH   3   8
ENDBRANCH   1   3
BRANCH   1  11
ATOM     11  C   UNL     1      10.148 -16.200 -21.310  1.00  0.00     0.006 C 
ATOM     12  C   UNL     1      10.057 -17.594 -21.929  1.00  0.00     0.004 C 
ENDBRANCH   1  11
TORSDOF 4
ENDMDL
MODEL 6
REMARK VINA RESULT:    -3.906      1.597      2.076
REMARK INTER + INTRA:          -4.778
REMARK INTER:                  -4.656
REMARK INTRA:                  -0.121
REMARK UNBOUND:                -0.073
REMARK SMILES CC[C@H](C)[C@H]([NH3+])C(=O)[O-]
REMARK SMILES IDX 3 1 4 2 5 3 6 4 7 8 8 9 9 10 2 11 1 12
REMARK H PARENT 6 5 6 6 6 7
REMARK Flexibility Score: inf
ROOT
ATOM      1  C   UNL     1      10.773 -14.309 -22.843  1.00  0.00     0.050 C 
ATOM      2  C   UNL     1      11.425 -15.596 -23.378  1.00  0.00     0.014 C 
ENDROOT
BRANCH   1   3
ATOM      3  C   UNL     1       9.928 -14.609 -21.559  1.00  0.00     0.230 C 
BRANCH   3   4
ATOM      4  N   UNL     1       8.485 -14.700 -21.834  1.00  0.00    -0.350 N 
ATOM      5  H   UNL     1       7.925 -14.238 -21.082  1.00  0.00     0.345 HD
ATOM      6  H   UNL     1       8.203 -15.705 -21.887  1.00  0.00     0.345 HD
ATOM      7  H   UNL     1       8.259 -14.259 -22.753  1.00  0.00     0.345 HD
ENDBRANCH   3   4
BRANCH   3   8
ATOM      8  C   UNL     1      10.214 -13.621 -20.450  1.00  0.00     0.099 C 
ATOM      9  O   UNL     1       9.970 -12.398 -20.623  1.00  0.00    -0.544 OA
ATOM     10  O   UNL     1      10.774 -14.039 -19.248  1.00  0.00    -0.544 OA
ENDBRANCH   3   8
ENDBRANCH   1   3
BRANCH   1  11
ATOM     11  C   UNL     1      10.003 -13.609 -23.994  1.00  0.00     0.006 C 
ATOM     12  C   UNL     1      10.184 -12.091 -24.020  1.00  0.00     0.004 C 
ENDBRANCH   1  11
TORSDOF 4
ENDMDL
MODEL 7
REMARK VINA RESULT:    -3.834      1.986      2.501
REMARK INTER + INTRA:          -4.692
REMARK INTER:                  -4.629
REMARK INTRA:                  -0.063
REMARK UNBOUND:                -0.073
REMARK SMILES CC[C@H](C)[C@H]([NH3+])C(=O)[O-]
REMARK SMILES IDX 3 1 4 2 5 3 6 4 7 8 8 9 9 10 2 11 1 12
REMARK H PARENT 6 5 6 6 6 7
REMARK Flexibility Score: inf
ROOT
ATOM      1  C   UNL     1      10.240 -13.856 -22.250  1.00  0.00     0.050 C 
ATOM      2  C   UNL     1       8.936 -14.198 -22.989  1.00  0.00     0.014 C 
ENDROOT
BRANCH   1   3
ATOM      3  C   UNL     1      10.031 -13.923 -20.699  1.00  0.00     0.230 C 
BRANCH   3   4
ATOM      4  N   UNL     1      10.543 -12.732 -20.002  1.00  0.00    -0.350 N 
ATOM      5  H   UNL     1       9.769 -12.193 -19.552  1.00  0.00     0.345 HD
ATOM      6  H   UNL     1      11.027 -12.108 -20.688  1.00  0.00     0.345 HD
ATOM      7  H   UNL     1      11.242 -13.005 -19.276  1.00  0.00     0.345 HD
ENDBRANCH   3   4
BRANCH   3   8
ATOM      8  C   UNL     1      10.600 -15.192 -20.106  1.00  0.00     0.099 C 
ATOM      9  O   UNL     1      10.638 -16.245 -20.796  1.00  0.00    -0.544 OA
ATOM     10  O   UNL     1      11.055 -15.226 -18.792  1.00  0.00    -0.544 OA
ENDBRANCH   3   8
ENDBRANCH   1   3
BRANCH   1  11
ATOM     11  C   UNL     1      10.795 -12.510 -22.786  1.00  0.00     0.006 C 
ATOM     12  C   UNL     1       9.921 -11.871 -23.865  1.00  0.00     0.004 C 
ENDBRANCH   1  11
TORSDOF 4
ENDMDL
MODEL 8
REMARK VINA RESULT:    -3.826      1.598      1.942
REMARK INTER + INTRA:          -4.682
REMARK INTER:                  -4.583
REMARK INTRA:                  -0.098
REMARK UNBOUND:                -0.073
REMARK SMILES CC[C@H](C)[C@H]([NH3+])C(=O)[O-]
REMARK SMILES IDX 3 1 4 2 5 3 6 4 7 8 8 9 9 10 2 11 1 12
REMARK H PARENT 6 5 6 6 6 7
REMARK Flexibility Score: inf
ROOT
ATOM      1  C   UNL     1       9.922 -14.657 -22.226  1.00  0.00     0.050 C 
ATOM      2  C   UNL     1      10.956 -14.025 -23.172  1.00  0.00     0.014 C 
ENDROOT
BRANCH   1   3
ATOM      3  C   UNL     1      10.633 -15.496 -21.110  1.00  0.00     0.230 C 
BRANCH   3   4
ATOM      4  N   UNL     1      10.049 -16.837 -20.945  1.00  0.00    -0.350 N 
ATOM      5  H   UNL     1       9.681 -16.974 -19.976  1.00  0.00     0.345 HD
ATOM      6  H   UNL     1      10.782 -17.560 -21.127  1.00  0.00     0.345 HD
ATOM      7  H   UNL     1       9.278 -16.987 -21.632  1.00  0.00     0.345 HD
ENDBRANCH   3   4
BRANCH   3   8
ATOM      8  C   UNL     1      10.686 -14.755 -19.793  1.00  0.00     0.099 C 
ATOM      9  O   UNL     1      10.308 -13.555 -19.732  1.00  0.00    -0.544 OA
ATOM     10  O   UNL     1      11.179 -15.370 -18.646  1.00  0.00    -0.544 OA
ENDBRANCH   3   8
ENDBRANCH   1   3
BRANCH   1  11
ATOM     11  C   UNL     1       8.865 -15.427 -23.061  1.00  0.00     0.006 C 
ATOM     12  C   UNL     1       9.337 -15.781 -24.472  1.00  0.00     0.004 C 
ENDBRANCH   1  11
TORSDOF 4
ENDMDL
MODEL 9
REMARK VINA RESULT:    -3.572      2.429      3.082
REMARK INTER + INTRA:          -4.376
REMARK INTER:                  -4.232
REMARK INTRA:                  -0.144
REMARK UNBOUND:                -0.073
REMARK SMILES CC[C@H](C)[C@H]([NH3+])C(=O)[O-]
REMARK SMILES IDX 3 1 4 2 5 3 6 4 7 8 8 9 9 10 2 11 1 12
REMARK H PARENT 6 5 6 6 6 7
REMARK Flexibility Score: inf
ROOT
ATOM      1  C   UNL     1      10.632 -15.064 -21.365  1.00  0.00     0.050 C 
ATOM      2  C   UNL     1      10.749 -15.050 -19.831  1.00  0.00     0.014 C 
ENDROOT
BRANCH   1   3
ATOM      3  C   UNL     1       9.488 -14.106 -21.841  1.00  0.00     0.230 C 
BRANCH   3   4
ATOM      4  N   UNL     1       8.330 -14.829 -22.391  1.00  0.00    -0.350 N 
ATOM      5  H   UNL     1       7.991 -15.564 -21.729  1.00  0.00     0.345 HD
ATOM      6  H   UNL     1       8.603 -15.291 -23.289  1.00  0.00     0.345 HD
ATOM      7  H   UNL     1       7.550 -14.167 -22.600  1.00  0.00     0.345 HD
ENDBRANCH   3   4
BRANCH   3   8
ATOM      8  C   UNL     1       9.992 -13.061 -22.810  1.00  0.00     0.099 C 
ATOM      9  O   UNL     1      10.316 -13.395 -23.981  1.00  0.00    -0.544 OA
ATOM     10  O   UNL     1      10.136 -11.733 -22.420  1.00  0.00    -0.544 OA
ENDBRANCH   3   8
ENDBRANCH   1   3
BRANCH   1  11
ATOM     11  C   UNL     1      10.516 -16.531 -21.856  1.00  0.00     0.006 C 
ATOM     12  C   UNL     1      11.245 -16.798 -23.172  1.00  0.00     0.004 C 
ENDBRANCH   1  11
TORSDOF 4
ENDMDL
