MODEL 1
REMARK VINA RESULT:    -6.752      0.000      0.000
REMARK INTER + INTRA:          -8.239
REMARK INTER:                  -7.936
REMARK INTRA:                  -0.302
REMARK UNBOUND:                -0.302
REMARK SMILES O=c1cc(-c2ccc(O)c(O)c2)oc2cc(O)cc(O)c12
REMARK SMILES IDX 4 1 3 2 2 3 1 4 21 5 19 6 18 7 16 8 15 9 14 10 13 11 5 12
REMARK SMILES IDX 6 13 7 14 8 15 12 16 10 17 9 18 11 20 20 22 17 24
REMARK H PARENT 9 19 11 21 20 23 17 25
REMARK Flexibility Score: inf
ROOT
ATOM      1  C   UNL     1       9.077  -7.316  -9.200  1.00  0.00     0.138 A 
ATOM      2  C   UNL     1       8.002  -7.502 -10.080  1.00  0.00     0.100 A 
ATOM      3  C   UNL     1       8.235  -8.014 -11.358  1.00  0.00     0.197 A 
ATOM      4  O   UNL     1       7.259  -8.111 -12.146  1.00  0.00    -0.289 OA
ATOM      5  C   UNL     1       9.549  -8.370 -11.743  1.00  0.00     0.107 A 
ATOM      6  C   UNL     1       9.900  -8.939 -13.004  1.00  0.00     0.134 A 
ATOM      7  C   UNL     1      11.250  -9.143 -13.317  1.00  0.00     0.093 A 
ATOM      8  C   UNL     1      12.256  -8.856 -12.392  1.00  0.00     0.123 A 
ATOM      9  C   UNL     1      11.919  -8.351 -11.138  1.00  0.00     0.094 A 
ATOM     10  C   UNL     1      10.585  -8.104 -10.808  1.00  0.00     0.146 A 
ATOM     11  O   UNL     1      10.308  -7.608  -9.606  1.00  0.00    -0.456 OA
ENDROOT
BRANCH   1  12
ATOM     12  C   UNL     1       8.886  -6.776  -7.830  1.00  0.00     0.021 A 
ATOM     13  C   UNL     1       7.755  -7.104  -7.058  1.00  0.00     0.016 A 
ATOM     14  C   UNL     1       7.606  -6.591  -5.767  1.00  0.00     0.051 A 
ATOM     15  C   UNL     1       8.582  -5.748  -5.224  1.00  0.00     0.157 A 
ATOM     16  C   UNL     1       9.868  -5.941  -7.272  1.00  0.00     0.062 A 
ATOM     17  C   UNL     1       9.720  -5.424  -5.980  1.00  0.00     0.158 A 
BRANCH  15  18
ATOM     18  O   UNL     1       8.428  -5.235  -3.937  1.00  0.00    -0.504 OA
ATOM     19  H   UNL     1       9.077  -4.557  -3.554  1.00  0.00     0.293 HD
ENDBRANCH  15  18
BRANCH  17  20
ATOM     20  O   UNL     1      10.713  -4.589  -5.467  1.00  0.00    -0.504 OA
ATOM     21  H   UNL     1      11.479  -4.945  -4.908  1.00  0.00     0.293 HD
ENDBRANCH  17  20
ENDBRANCH   1  12
BRANCH   6  22
ATOM     22  O   UNL     1       8.968  -9.341 -13.966  1.00  0.00    -0.507 OA
ATOM     23  H   UNL     1       8.991 -10.219 -14.459  1.00  0.00     0.293 HD
ENDBRANCH   6  22
BRANCH   8  24
ATOM     24  O   UNL     1      13.595  -9.077 -12.707  1.00  0.00    -0.508 OA
ATOM     25  H   UNL     1      14.007 -10.000 -12.649  1.00  0.00     0.293 HD
ENDBRANCH   8  24
TORSDOF 5
ENDMDL
MODEL 2
REMARK VINA RESULT:    -6.392      2.483      6.647
REMARK INTER + INTRA:          -7.815
REMARK INTER:                  -7.497
REMARK INTRA:                  -0.319
REMARK UNBOUND:                -0.302
REMARK SMILES O=c1cc(-c2ccc(O)c(O)c2)oc2cc(O)cc(O)c12
REMARK SMILES IDX 4 1 3 2 2 3 1 4 21 5 19 6 18 7 16 8 15 9 14 10 13 11 5 12
REMARK SMILES IDX 6 13 7 14 8 15 12 16 10 17 9 18 11 20 20 22 17 24
REMARK H PARENT 9 19 11 21 20 23 17 25
REMARK Flexibility Score: inf
ROOT
ATOM      1  C   UNL     1      10.903  -7.152  -9.133  1.00  0.00     0.138 A 
ATOM      2  C   UNL     1      10.212  -8.371  -9.156  1.00  0.00     0.100 A 
ATOM      3  C   UNL     1       9.190  -8.604  -8.234  1.00  0.00     0.197 A 
ATOM      4  O   UNL     1       8.632  -9.731  -8.239  1.00  0.00    -0.289 OA
ATOM      5  C   UNL     1       8.838  -7.595  -7.306  1.00  0.00     0.107 A 
ATOM      6  C   UNL     1       7.786  -7.704  -6.348  1.00  0.00     0.134 A 
ATOM      7  C   UNL     1       7.606  -6.686  -5.403  1.00  0.00     0.093 A 
ATOM      8  C   UNL     1       8.399  -5.537  -5.422  1.00  0.00     0.123 A 
ATOM      9  C   UNL     1       9.393  -5.397  -6.387  1.00  0.00     0.094 A 
ATOM     10  C   UNL     1       9.621  -6.410  -7.321  1.00  0.00     0.146 A 
ATOM     11  O   UNL     1      10.589  -6.243  -8.217  1.00  0.00    -0.456 OA
ENDROOT
BRANCH   1  12
ATOM     12  C   UNL     1      11.998  -6.852 -10.091  1.00  0.00     0.021 A 
ATOM     13  C   UNL     1      12.355  -7.754 -11.111  1.00  0.00     0.016 A 
ATOM     14  C   UNL     1      13.382  -7.442 -12.006  1.00  0.00     0.051 A 
ATOM     15  C   UNL     1      14.065  -6.224 -11.902  1.00  0.00     0.157 A 
ATOM     16  C   UNL     1      12.679  -5.626 -10.002  1.00  0.00     0.062 A 
ATOM     17  C   UNL     1      13.709  -5.311 -10.896  1.00  0.00     0.158 A 
BRANCH  15  18
ATOM     18  O   UNL     1      15.090  -5.917 -12.795  1.00  0.00    -0.504 OA
ATOM     19  H   UNL     1      16.046  -6.208 -12.626  1.00  0.00     0.293 HD
ENDBRANCH  15  18
BRANCH  17  20
ATOM     20  O   UNL     1      14.367  -4.088 -10.767  1.00  0.00    -0.504 OA
ATOM     21  H   UNL     1      13.881  -3.242 -10.496  1.00  0.00     0.293 HD
ENDBRANCH  17  20
ENDBRANCH   1  12
BRANCH   6  22
ATOM     22  O   UNL     1       6.884  -8.770  -6.297  1.00  0.00    -0.507 OA
ATOM     23  H   UNL     1       6.895  -9.503  -5.606  1.00  0.00     0.293 HD
ENDBRANCH   6  22
BRANCH   8  24
ATOM     24  O   UNL     1       8.202  -4.522  -4.487  1.00  0.00    -0.508 OA
ATOM     25  H   UNL     1       7.535  -3.777  -4.648  1.00  0.00     0.293 HD
ENDBRANCH   8  24
TORSDOF 5
ENDMDL
MODEL 3
REMARK VINA RESULT:    -5.956     14.132     17.094
REMARK INTER + INTRA:          -7.303
REMARK INTER:                  -7.025
REMARK INTRA:                  -0.277
REMARK UNBOUND:                -0.302
REMARK SMILES O=c1cc(-c2ccc(O)c(O)c2)oc2cc(O)cc(O)c12
REMARK SMILES IDX 4 1 3 2 2 3 1 4 21 5 19 6 18 7 16 8 15 9 14 10 13 11 5 12
REMARK SMILES IDX 6 13 7 14 8 15 12 16 10 17 9 18 11 20 20 22 17 24
REMARK H PARENT 9 19 11 21 20 23 17 25
REMARK Flexibility Score: inf
ROOT
ATOM      1  C   UNL     1      20.488   0.532 -17.157  1.00  0.00     0.138 A 
ATOM      2  C   UNL     1      19.252   0.569 -16.497  1.00  0.00     0.100 A 
ATOM      3  C   UNL     1      19.192   0.975 -15.163  1.00  0.00     0.197 A 
ATOM      4  O   UNL     1      18.078   0.939 -14.580  1.00  0.00    -0.289 OA
ATOM      5  C   UNL     1      20.375   1.376 -14.497  1.00  0.00     0.107 A 
ATOM      6  C   UNL     1      20.430   1.848 -13.151  1.00  0.00     0.134 A 
ATOM      7  C   UNL     1      21.673   2.107 -12.561  1.00  0.00     0.093 A 
ATOM      8  C   UNL     1      22.858   1.969 -13.287  1.00  0.00     0.123 A 
ATOM      9  C   UNL     1      22.811   1.561 -14.617  1.00  0.00     0.094 A 
ATOM     10  C   UNL     1      21.590   1.262 -15.224  1.00  0.00     0.146 A 
ATOM     11  O   UNL     1      21.590   0.862 -16.492  1.00  0.00    -0.456 OA
ENDROOT
BRANCH   1  12
ATOM     12  C   UNL     1      20.608   0.109 -18.575  1.00  0.00     0.021 A 
ATOM     13  C   UNL     1      20.198  -1.168 -19.003  1.00  0.00     0.016 A 
ATOM     14  C   UNL     1      20.312  -1.535 -20.346  1.00  0.00     0.051 A 
ATOM     15  C   UNL     1      20.831  -0.635 -21.285  1.00  0.00     0.157 A 
ATOM     16  C   UNL     1      21.114   1.012 -19.526  1.00  0.00     0.062 A 
ATOM     17  C   UNL     1      21.231   0.646 -20.871  1.00  0.00     0.158 A 
BRANCH  15  18
ATOM     18  O   UNL     1      20.945  -1.006 -22.623  1.00  0.00    -0.504 OA
ATOM     19  H   UNL     1      20.159  -0.947 -23.260  1.00  0.00     0.293 HD
ENDBRANCH  15  18
BRANCH  17  20
ATOM     20  O   UNL     1      21.749   1.568 -21.781  1.00  0.00    -0.504 OA
ATOM     21  H   UNL     1      21.986   2.515 -21.512  1.00  0.00     0.293 HD
ENDBRANCH  17  20
ENDBRANCH   1  12
BRANCH   6  22
ATOM     22  O   UNL     1      19.301   2.101 -12.366  1.00  0.00    -0.507 OA
ATOM     23  H   UNL     1      19.086   1.636 -11.498  1.00  0.00     0.293 HD
ENDBRANCH   6  22
BRANCH   8  24
ATOM     24  O   UNL     1      24.090   2.243 -12.695  1.00  0.00    -0.508 OA
ATOM     25  H   UNL     1      24.915   2.427 -13.252  1.00  0.00     0.293 HD
ENDBRANCH   8  24
TORSDOF 5
ENDMDL
MODEL 4
REMARK VINA RESULT:    -5.942     10.798     14.024
REMARK INTER + INTRA:          -7.286
REMARK INTER:                  -7.022
REMARK INTRA:                  -0.264
REMARK UNBOUND:                -0.302
REMARK SMILES O=c1cc(-c2ccc(O)c(O)c2)oc2cc(O)cc(O)c12
REMARK SMILES IDX 4 1 3 2 2 3 1 4 21 5 19 6 18 7 16 8 15 9 14 10 13 11 5 12
REMARK SMILES IDX 6 13 7 14 8 15 12 16 10 17 9 18 11 20 20 22 17 24
REMARK H PARENT 9 19 11 21 20 23 17 25
REMARK Flexibility Score: inf
ROOT
ATOM      1  C   UNL     1      18.439  -1.152 -16.765  1.00  0.00     0.138 A 
ATOM      2  C   UNL     1      17.749  -0.324 -15.869  1.00  0.00     0.100 A 
ATOM      3  C   UNL     1      17.033  -0.892 -14.814  1.00  0.00     0.197 A 
ATOM      4  O   UNL     1      16.374  -0.127 -14.064  1.00  0.00    -0.289 OA
ATOM      5  C   UNL     1      17.036  -2.296 -14.638  1.00  0.00     0.107 A 
ATOM      6  C   UNL     1      16.377  -2.984 -13.576  1.00  0.00     0.134 A 
ATOM      7  C   UNL     1      16.352  -4.384 -13.570  1.00  0.00     0.093 A 
ATOM      8  C   UNL     1      17.014  -5.120 -14.555  1.00  0.00     0.123 A 
ATOM      9  C   UNL     1      17.706  -4.458 -15.566  1.00  0.00     0.094 A 
ATOM     10  C   UNL     1      17.720  -3.063 -15.619  1.00  0.00     0.146 A 
ATOM     11  O   UNL     1      18.381  -2.470 -16.609  1.00  0.00    -0.456 OA
ENDROOT
BRANCH   1  12
ATOM     12  C   UNL     1      19.217  -0.600 -17.903  1.00  0.00     0.021 A 
ATOM     13  C   UNL     1      18.809  -0.788 -19.237  1.00  0.00     0.016 A 
ATOM     14  C   UNL     1      19.554  -0.248 -20.289  1.00  0.00     0.051 A 
ATOM     15  C   UNL     1      20.714   0.491 -20.028  1.00  0.00     0.157 A 
ATOM     16  C   UNL     1      20.375   0.155 -17.649  1.00  0.00     0.062 A 
ATOM     17  C   UNL     1      21.124   0.695 -18.700  1.00  0.00     0.158 A 
BRANCH  15  18
ATOM     18  O   UNL     1      21.456   1.026 -21.079  1.00  0.00    -0.504 OA
ATOM     19  H   UNL     1      21.276   1.956 -21.438  1.00  0.00     0.293 HD
ENDBRANCH  15  18
BRANCH  17  20
ATOM     20  O   UNL     1      22.273   1.429 -18.405  1.00  0.00    -0.504 OA
ATOM     21  H   UNL     1      23.130   1.322 -18.934  1.00  0.00     0.293 HD
ENDBRANCH  17  20
ENDBRANCH   1  12
BRANCH   6  22
ATOM     22  O   UNL     1      15.758  -2.344 -12.498  1.00  0.00    -0.507 OA
ATOM     23  H   UNL     1      16.127  -1.540 -12.014  1.00  0.00     0.293 HD
ENDBRANCH   6  22
BRANCH   8  24
ATOM     24  O   UNL     1      16.996  -6.514 -14.533  1.00  0.00    -0.508 OA
ATOM     25  H   UNL     1      16.862  -7.027 -13.671  1.00  0.00     0.293 HD
ENDBRANCH   8  24
TORSDOF 5
ENDMDL
MODEL 5
REMARK VINA RESULT:    -5.922     13.294     14.596
REMARK INTER + INTRA:          -7.263
REMARK INTER:                  -6.990
REMARK INTRA:                  -0.274
REMARK UNBOUND:                -0.302
REMARK SMILES O=c1cc(-c2ccc(O)c(O)c2)oc2cc(O)cc(O)c12
REMARK SMILES IDX 4 1 3 2 2 3 1 4 21 5 19 6 18 7 16 8 15 9 14 10 13 11 5 12
REMARK SMILES IDX 6 13 7 14 8 15 12 16 10 17 9 18 11 20 20 22 17 24
REMARK H PARENT 9 19 11 21 20 23 17 25
REMARK Flexibility Score: inf
ROOT
ATOM      1  C   UNL     1       5.106   5.876  -9.996  1.00  0.00     0.138 A 
ATOM      2  C   UNL     1       5.157   7.268  -9.833  1.00  0.00     0.100 A 
ATOM      3  C   UNL     1       4.935   8.101 -10.931  1.00  0.00     0.197 A 
ATOM      4  O   UNL     1       5.049   9.343 -10.767  1.00  0.00    -0.289 OA
ATOM      5  C   UNL     1       4.628   7.535 -12.192  1.00  0.00     0.107 A 
ATOM      6  C   UNL     1       4.343   8.286 -13.372  1.00  0.00     0.134 A 
ATOM      7  C   UNL     1       4.168   7.617 -14.590  1.00  0.00     0.093 A 
ATOM      8  C   UNL     1       4.207   6.222 -14.658  1.00  0.00     0.123 A 
ATOM      9  C   UNL     1       4.432   5.479 -13.502  1.00  0.00     0.094 A 
ATOM     10  C   UNL     1       4.645   6.117 -12.278  1.00  0.00     0.146 A 
ATOM     11  O   UNL     1       4.870   5.371 -11.202  1.00  0.00    -0.456 OA
ENDROOT
BRANCH   1  12
ATOM     12  C   UNL     1       5.333   4.945  -8.862  1.00  0.00     0.021 A 
ATOM     13  C   UNL     1       4.407   4.823  -7.809  1.00  0.00     0.016 A 
ATOM     14  C   UNL     1       4.641   3.931  -6.760  1.00  0.00     0.051 A 
ATOM     15  C   UNL     1       5.798   3.142  -6.746  1.00  0.00     0.157 A 
ATOM     16  C   UNL     1       6.485   4.140  -8.848  1.00  0.00     0.062 A 
ATOM     17  C   UNL     1       6.723   3.247  -7.798  1.00  0.00     0.158 A 
BRANCH  15  18
ATOM     18  O   UNL     1       6.029   2.255  -5.696  1.00  0.00    -0.504 OA
ATOM     19  H   UNL     1       5.960   2.547  -4.729  1.00  0.00     0.293 HD
ENDBRANCH  15  18
BRANCH  17  20
ATOM     20  O   UNL     1       7.883   2.473  -7.816  1.00  0.00    -0.504 OA
ATOM     21  H   UNL     1       8.071   1.803  -8.552  1.00  0.00     0.293 HD
ENDBRANCH  17  20
ENDBRANCH   1  12
BRANCH   6  22
ATOM     22  O   UNL     1       4.197   9.676 -13.396  1.00  0.00    -0.507 OA
ATOM     23  H   UNL     1       3.446  10.185 -12.958  1.00  0.00     0.293 HD
ENDBRANCH   6  22
BRANCH   8  24
ATOM     24  O   UNL     1       4.017   5.565 -15.872  1.00  0.00    -0.508 OA
ATOM     25  H   UNL     1       3.624   4.632 -15.913  1.00  0.00     0.293 HD
ENDBRANCH   8  24
TORSDOF 5
ENDMDL
MODEL 6
REMARK VINA RESULT:    -5.840     10.415     13.554
REMARK INTER + INTRA:          -7.166
REMARK INTER:                  -6.886
REMARK INTRA:                  -0.280
REMARK UNBOUND:                -0.302
REMARK SMILES O=c1cc(-c2ccc(O)c(O)c2)oc2cc(O)cc(O)c12
REMARK SMILES IDX 4 1 3 2 2 3 1 4 21 5 19 6 18 7 16 8 15 9 14 10 13 11 5 12
REMARK SMILES IDX 6 13 7 14 8 15 12 16 10 17 9 18 11 20 20 22 17 24
REMARK H PARENT 9 19 11 21 20 23 17 25
REMARK Flexibility Score: inf
ROOT
ATOM      1  C   UNL     1      18.025  -0.737 -15.809  1.00  0.00     0.138 A 
ATOM      2  C   UNL     1      17.516   0.200 -14.899  1.00  0.00     0.100 A 
ATOM      3  C   UNL     1      16.696  -0.228 -13.853  1.00  0.00     0.197 A 
ATOM      4  O   UNL     1      16.205   0.643 -13.090  1.00  0.00    -0.289 OA
ATOM      5  C   UNL     1      16.413  -1.605 -13.700  1.00  0.00     0.107 A 
ATOM      6  C   UNL     1      15.625  -2.162 -12.649  1.00  0.00     0.134 A 
ATOM      7  C   UNL     1      15.315  -3.527 -12.667  1.00  0.00     0.093 A 
ATOM      8  C   UNL     1      15.816  -4.367 -13.664  1.00  0.00     0.123 A 
ATOM      9  C   UNL     1      16.631  -3.844 -14.664  1.00  0.00     0.094 A 
ATOM     10  C   UNL     1      16.930  -2.479 -14.694  1.00  0.00     0.146 A 
ATOM     11  O   UNL     1      17.699  -2.018 -15.675  1.00  0.00    -0.456 OA
ENDROOT
BRANCH   1  12
ATOM     12  C   UNL     1      18.902  -0.337 -16.938  1.00  0.00     0.021 A 
ATOM     13  C   UNL     1      20.133   0.313 -16.725  1.00  0.00     0.016 A 
ATOM     14  C   UNL     1      20.943   0.669 -17.806  1.00  0.00     0.051 A 
ATOM     15  C   UNL     1      20.543   0.378 -19.116  1.00  0.00     0.157 A 
ATOM     16  C   UNL     1      18.514  -0.638 -18.256  1.00  0.00     0.062 A 
ATOM     17  C   UNL     1      19.323  -0.281 -19.340  1.00  0.00     0.158 A 
BRANCH  15  18
ATOM     18  O   UNL     1      21.353   0.736 -20.192  1.00  0.00    -0.504 OA
ATOM     19  H   UNL     1      22.249   1.188 -20.055  1.00  0.00     0.293 HD
ENDBRANCH  15  18
BRANCH  17  20
ATOM     20  O   UNL     1      18.897  -0.588 -20.633  1.00  0.00    -0.504 OA
ATOM     21  H   UNL     1      18.319  -1.396 -20.831  1.00  0.00     0.293 HD
ENDBRANCH  17  20
ENDBRANCH   1  12
BRANCH   6  22
ATOM     22  O   UNL     1      15.146  -1.427 -11.560  1.00  0.00    -0.507 OA
ATOM     23  H   UNL     1      15.027  -0.426 -11.547  1.00  0.00     0.293 HD
ENDBRANCH   6  22
BRANCH   8  24
ATOM     24  O   UNL     1      15.515  -5.728 -13.665  1.00  0.00    -0.508 OA
ATOM     25  H   UNL     1      16.225  -6.427 -13.847  1.00  0.00     0.293 HD
ENDBRANCH   8  24
TORSDOF 5
ENDMDL
MODEL 7
REMARK VINA RESULT:    -5.785      7.397      8.868
REMARK INTER + INTRA:          -7.102
REMARK INTER:                  -6.818
REMARK INTRA:                  -0.284
REMARK UNBOUND:                -0.302
REMARK SMILES O=c1cc(-c2ccc(O)c(O)c2)oc2cc(O)cc(O)c12
REMARK SMILES IDX 4 1 3 2 2 3 1 4 21 5 19 6 18 7 16 8 15 9 14 10 13 11 5 12
REMARK SMILES IDX 6 13 7 14 8 15 12 16 10 17 9 18 11 20 20 22 17 24
REMARK H PARENT 9 19 11 21 20 23 17 25
REMARK Flexibility Score: inf
ROOT
ATOM      1  C   UNL     1      16.948  -3.843 -11.650  1.00  0.00     0.138 A 
ATOM      2  C   UNL     1      15.931  -4.790 -11.459  1.00  0.00     0.100 A 
ATOM      3  C   UNL     1      15.562  -5.629 -12.512  1.00  0.00     0.197 A 
ATOM      4  O   UNL     1      14.605  -6.425 -12.329  1.00  0.00    -0.289 OA
ATOM      5  C   UNL     1      16.238  -5.540 -13.752  1.00  0.00     0.107 A 
ATOM      6  C   UNL     1      15.975  -6.371 -14.882  1.00  0.00     0.134 A 
ATOM      7  C   UNL     1      16.627  -6.114 -16.094  1.00  0.00     0.093 A 
ATOM      8  C   UNL     1      17.577  -5.095 -16.200  1.00  0.00     0.123 A 
ATOM      9  C   UNL     1      17.879  -4.313 -15.088  1.00  0.00     0.094 A 
ATOM     10  C   UNL     1      17.221  -4.522 -13.874  1.00  0.00     0.146 A 
ATOM     11  O   UNL     1      17.529  -3.744 -12.841  1.00  0.00    -0.456 OA
ENDROOT
BRANCH   1  12
ATOM     12  C   UNL     1      17.380  -2.927 -10.565  1.00  0.00     0.021 A 
ATOM     13  C   UNL     1      17.798  -1.610 -10.832  1.00  0.00     0.016 A 
ATOM     14  C   UNL     1      18.190  -0.765  -9.790  1.00  0.00     0.051 A 
ATOM     15  C   UNL     1      18.166  -1.218  -8.465  1.00  0.00     0.157 A 
ATOM     16  C   UNL     1      17.346  -3.370  -9.231  1.00  0.00     0.062 A 
ATOM     17  C   UNL     1      17.739  -2.527  -8.186  1.00  0.00     0.158 A 
BRANCH  15  18
ATOM     18  O   UNL     1      18.560  -0.374  -7.428  1.00  0.00    -0.504 OA
ATOM     19  H   UNL     1      18.667   0.624  -7.568  1.00  0.00     0.293 HD
ENDBRANCH  15  18
BRANCH  17  20
ATOM     20  O   UNL     1      17.701  -3.008  -6.877  1.00  0.00    -0.504 OA
ATOM     21  H   UNL     1      17.068  -2.628  -6.182  1.00  0.00     0.293 HD
ENDBRANCH  17  20
ENDBRANCH   1  12
BRANCH   6  22
ATOM     22  O   UNL     1      15.110  -7.469 -14.859  1.00  0.00    -0.507 OA
ATOM     23  H   UNL     1      14.340  -7.609 -15.495  1.00  0.00     0.293 HD
ENDBRANCH   6  22
BRANCH   8  24
ATOM     24  O   UNL     1      18.232  -4.856 -17.407  1.00  0.00    -0.508 OA
ATOM     25  H   UNL     1      18.389  -3.914 -17.746  1.00  0.00     0.293 HD
ENDBRANCH   8  24
TORSDOF 5
ENDMDL
MODEL 8
REMARK VINA RESULT:    -5.649     11.437     13.467
REMARK INTER + INTRA:          -6.942
REMARK INTER:                  -6.678
REMARK INTRA:                  -0.264
REMARK UNBOUND:                -0.302
REMARK SMILES O=c1cc(-c2ccc(O)c(O)c2)oc2cc(O)cc(O)c12
REMARK SMILES IDX 4 1 3 2 2 3 1 4 21 5 19 6 18 7 16 8 15 9 14 10 13 11 5 12
REMARK SMILES IDX 6 13 7 14 8 15 12 16 10 17 9 18 11 20 20 22 17 24
REMARK H PARENT 9 19 11 21 20 23 17 25
REMARK Flexibility Score: inf
ROOT
ATOM      1  C   UNL     1      18.073  -0.235 -15.616  1.00  0.00     0.138 A 
ATOM      2  C   UNL     1      19.181   0.475 -15.133  1.00  0.00     0.100 A 
ATOM      3  C   UNL     1      20.228   0.793 -15.998  1.00  0.00     0.197 A 
ATOM      4  O   UNL     1      21.236   1.376 -15.521  1.00  0.00    -0.289 OA
ATOM      5  C   UNL     1      20.149   0.426 -17.362  1.00  0.00     0.107 A 
ATOM      6  C   UNL     1      21.137   0.733 -18.345  1.00  0.00     0.134 A 
ATOM      7  C   UNL     1      21.007   0.217 -19.640  1.00  0.00     0.093 A 
ATOM      8  C   UNL     1      19.893  -0.544 -20.003  1.00  0.00     0.123 A 
ATOM      9  C   UNL     1      18.897  -0.804 -19.066  1.00  0.00     0.094 A 
ATOM     10  C   UNL     1      19.015  -0.333 -17.756  1.00  0.00     0.146 A 
ATOM     11  O   UNL     1      18.048  -0.616 -16.889  1.00  0.00    -0.456 OA
ENDROOT
BRANCH   1  12
ATOM     12  C   UNL     1      16.931  -0.599 -14.739  1.00  0.00     0.021 A 
ATOM     13  C   UNL     1      15.833   0.264 -14.559  1.00  0.00     0.016 A 
ATOM     14  C   UNL     1      14.767  -0.109 -13.737  1.00  0.00     0.051 A 
ATOM     15  C   UNL     1      14.774  -1.349 -13.086  1.00  0.00     0.157 A 
ATOM     16  C   UNL     1      16.924  -1.848 -14.094  1.00  0.00     0.062 A 
ATOM     17  C   UNL     1      15.858  -2.222 -13.268  1.00  0.00     0.158 A 
BRANCH  15  18
ATOM     18  O   UNL     1      13.710  -1.716 -12.264  1.00  0.00    -0.504 OA
ATOM     19  H   UNL     1      13.410  -2.680 -12.183  1.00  0.00     0.293 HD
ENDBRANCH  15  18
BRANCH  17  20
ATOM     20  O   UNL     1      15.895  -3.466 -12.637  1.00  0.00    -0.504 OA
ATOM     21  H   UNL     1      15.256  -4.213 -12.882  1.00  0.00     0.293 HD
ENDBRANCH  17  20
ENDBRANCH   1  12
BRANCH   6  22
ATOM     22  O   UNL     1      22.244   1.555 -18.109  1.00  0.00    -0.507 OA
ATOM     23  H   UNL     1      22.431   2.036 -17.244  1.00  0.00     0.293 HD
ENDBRANCH   6  22
BRANCH   8  24
ATOM     24  O   UNL     1      19.764  -1.041 -21.299  1.00  0.00    -0.508 OA
ATOM     25  H   UNL     1      20.222  -1.898 -21.585  1.00  0.00     0.293 HD
ENDBRANCH   8  24
TORSDOF 5
ENDMDL
MODEL 9
REMARK VINA RESULT:    -5.181      2.271      6.673
REMARK INTER + INTRA:          -6.392
REMARK INTER:                  -6.122
REMARK INTRA:                  -0.270
REMARK UNBOUND:                -0.302
REMARK SMILES O=c1cc(-c2ccc(O)c(O)c2)oc2cc(O)cc(O)c12
REMARK SMILES IDX 4 1 3 2 2 3 1 4 21 5 19 6 18 7 16 8 15 9 14 10 13 11 5 12
REMARK SMILES IDX 6 13 7 14 8 15 12 16 10 17 9 18 11 20 20 22 17 24
REMARK H PARENT 9 19 11 21 20 23 17 25
REMARK Flexibility Score: inf
ROOT
ATOM      1  C   UNL     1      10.453  -7.271 -10.197  1.00  0.00     0.138 A 
ATOM      2  C   UNL     1       9.700  -6.310 -10.887  1.00  0.00     0.100 A 
ATOM      3  C   UNL     1       8.682  -5.624 -10.224  1.00  0.00     0.197 A 
ATOM      4  O   UNL     1       7.984  -4.813 -10.886  1.00  0.00    -0.289 OA
ATOM      5  C   UNL     1       8.439  -5.879  -8.854  1.00  0.00     0.107 A 
ATOM      6  C   UNL     1       7.456  -5.210  -8.064  1.00  0.00     0.134 A 
ATOM      7  C   UNL     1       7.226  -5.629  -6.748  1.00  0.00     0.093 A 
ATOM      8  C   UNL     1       7.987  -6.650  -6.173  1.00  0.00     0.123 A 
ATOM      9  C   UNL     1       8.985  -7.273  -6.918  1.00  0.00     0.094 A 
ATOM     10  C   UNL     1       9.215  -6.902  -8.245  1.00  0.00     0.146 A 
ATOM     11  O   UNL     1      10.168  -7.531  -8.926  1.00  0.00    -0.456 OA
ENDROOT
BRANCH   1  12
ATOM     12  C   UNL     1      11.548  -8.029 -10.854  1.00  0.00     0.021 A 
ATOM     13  C   UNL     1      11.576  -9.437 -10.854  1.00  0.00     0.016 A 
ATOM     14  C   UNL     1      12.613 -10.125 -11.489  1.00  0.00     0.051 A 
ATOM     15  C   UNL     1      13.635  -9.422 -12.139  1.00  0.00     0.157 A 
ATOM     16  C   UNL     1      12.570  -7.331 -11.520  1.00  0.00     0.062 A 
ATOM     17  C   UNL     1      13.611  -8.018 -12.156  1.00  0.00     0.158 A 
BRANCH  15  18
ATOM     18  O   UNL     1      14.669 -10.112 -12.769  1.00  0.00    -0.504 OA
ATOM     19  H   UNL     1      15.483  -9.631 -13.134  1.00  0.00     0.293 HD
ENDBRANCH  15  18
BRANCH  17  20
ATOM     20  O   UNL     1      14.611  -7.288 -12.797  1.00  0.00    -0.504 OA
ATOM     21  H   UNL     1      14.403  -6.489 -13.383  1.00  0.00     0.293 HD
ENDBRANCH  17  20
ENDBRANCH   1  12
BRANCH   6  22
ATOM     22  O   UNL     1       6.701  -4.123  -8.514  1.00  0.00    -0.507 OA
ATOM     23  H   UNL     1       6.535  -3.279  -7.988  1.00  0.00     0.293 HD
ENDBRANCH   6  22
BRANCH   8  24
ATOM     24  O   UNL     1       7.762  -7.050  -4.857  1.00  0.00    -0.508 OA
ATOM     25  H   UNL     1       6.913  -6.798  -4.366  1.00  0.00     0.293 HD
ENDBRANCH   8  24
TORSDOF 5
ENDMDL
