MODEL 1
REMARK VINA RESULT:    -4.781      0.000      0.000
REMARK INTER + INTRA:          -7.991
REMARK INTER:                  -7.296
REMARK INTRA:                  -0.695
REMARK UNBOUND:                -0.695
REMARK SMILES CCCCCCCCCC=CC(=O)[O-]
REMARK SMILES IDX 7 1 8 2 9 3 10 4 11 5 12 6 13 7 14 8 6 9 5 10 4 11 3 12 2 13
REMARK SMILES IDX 1 14
REMARK H PARENT
REMARK Flexibility Score: inf
ROOT
ATOM      1  C   UNL     1     -18.806 -24.115  12.078  1.00  0.00     0.000 C 
ENDROOT
BRANCH   1   2
ATOM      2  C   UNL     1     -17.882 -24.974  12.964  1.00  0.00     0.004 C 
BRANCH   2   3
ATOM      3  C   UNL     1     -18.426 -25.239  14.378  1.00  0.00     0.027 C 
BRANCH   3   4
ATOM      4  C   UNL     1     -17.535 -26.145  15.180  1.00  0.00    -0.025 C 
ATOM      5  C   UNL     1     -16.318 -25.760  15.574  1.00  0.00     0.020 C 
BRANCH   5   6
ATOM      6  C   UNL     1     -15.439 -26.636  16.363  1.00  0.00     0.064 C 
ATOM      7  O   UNL     1     -15.764 -27.837  16.550  1.00  0.00    -0.545 OA
ATOM      8  O   UNL     1     -14.252 -26.157  16.907  1.00  0.00    -0.545 OA
ENDBRANCH   5   6
ENDBRANCH   3   4
ENDBRANCH   2   3
ENDBRANCH   1   2
BRANCH   1   9
ATOM      9  C   UNL     1     -19.858 -23.285  12.841  1.00  0.00     0.000 C 
BRANCH   9  10
ATOM     10  C   UNL     1     -19.948 -21.804  12.430  1.00  0.00     0.000 C 
BRANCH  10  11
ATOM     11  C   UNL     1     -18.922 -21.422  11.350  1.00  0.00    -0.000 C 
BRANCH  11  12
ATOM     12  C   UNL     1     -19.587 -20.950  10.047  1.00  0.00    -0.000 C 
BRANCH  12  13
ATOM     13  C   UNL     1     -19.938 -22.111   9.105  1.00  0.00    -0.003 C 
ATOM     14  C   UNL     1     -21.450 -22.286   8.990  1.00  0.00     0.004 C 
ENDBRANCH  12  13
ENDBRANCH  11  12
ENDBRANCH  10  11
ENDBRANCH   9  10
ENDBRANCH   1   9
TORSDOF 9
ENDMDL
MODEL 2
REMARK VINA RESULT:    -4.752     10.527     11.992
REMARK INTER + INTRA:          -7.947
REMARK INTER:                  -6.633
REMARK INTRA:                  -1.314
REMARK UNBOUND:                -0.695
REMARK SMILES CCCCCCCCCC=CC(=O)[O-]
REMARK SMILES IDX 7 1 8 2 9 3 10 4 11 5 12 6 13 7 14 8 6 9 5 10 4 11 3 12 2 13
REMARK SMILES IDX 1 14
REMARK H PARENT
REMARK Flexibility Score: inf
ROOT
ATOM      1  C   UNL     1     -31.121 -23.076  14.430  1.00  0.00     0.000 C 
ENDROOT
BRANCH   1   2
ATOM      2  C   UNL     1     -30.408 -24.408  14.124  1.00  0.00     0.004 C 
BRANCH   2   3
ATOM      3  C   UNL     1     -28.974 -24.251  13.592  1.00  0.00     0.027 C 
BRANCH   3   4
ATOM      4  C   UNL     1     -27.935 -24.461  14.658  1.00  0.00    -0.025 C 
ATOM      5  C   UNL     1     -27.960 -25.531  15.458  1.00  0.00     0.020 C 
BRANCH   5   6
ATOM      6  C   UNL     1     -26.947 -25.750  16.501  1.00  0.00     0.064 C 
ATOM      7  O   UNL     1     -27.306 -26.134  17.645  1.00  0.00    -0.545 OA
ATOM      8  O   UNL     1     -25.597 -25.538  16.244  1.00  0.00    -0.545 OA
ENDBRANCH   5   6
ENDBRANCH   3   4
ENDBRANCH   2   3
ENDBRANCH   1   2
BRANCH   1   9
ATOM      9  C   UNL     1     -31.451 -22.836  15.917  1.00  0.00     0.000 C 
BRANCH   9  10
ATOM     10  C   UNL     1     -30.956 -23.929  16.882  1.00  0.00     0.000 C 
BRANCH  10  11
ATOM     11  C   UNL     1     -29.928 -23.405  17.899  1.00  0.00    -0.000 C 
BRANCH  11  12
ATOM     12  C   UNL     1     -29.210 -22.136  17.412  1.00  0.00    -0.000 C 
BRANCH  12  13
ATOM     13  C   UNL     1     -29.403 -20.945  18.362  1.00  0.00    -0.003 C 
ATOM     14  C   UNL     1     -30.000 -19.748  17.627  1.00  0.00     0.004 C 
ENDBRANCH  12  13
ENDBRANCH  11  12
ENDBRANCH  10  11
ENDBRANCH   9  10
ENDBRANCH   1   9
TORSDOF 9
ENDMDL
MODEL 3
REMARK VINA RESULT:    -4.738      3.939      6.069
REMARK INTER + INTRA:          -7.926
REMARK INTER:                  -6.635
REMARK INTRA:                  -1.291
REMARK UNBOUND:                -0.695
REMARK SMILES CCCCCCCCCC=CC(=O)[O-]
REMARK SMILES IDX 7 1 8 2 9 3 10 4 11 5 12 6 13 7 14 8 6 9 5 10 4 11 3 12 2 13
REMARK SMILES IDX 1 14
REMARK H PARENT
REMARK Flexibility Score: inf
ROOT
ATOM      1  C   UNL     1     -19.114 -25.652  15.263  1.00  0.00     0.000 C 
ENDROOT
BRANCH   1   2
ATOM      2  C   UNL     1     -19.463 -24.230  14.782  1.00  0.00     0.004 C 
BRANCH   2   3
ATOM      3  C   UNL     1     -19.935 -24.153  13.320  1.00  0.00     0.027 C 
BRANCH   3   4
ATOM      4  C   UNL     1     -19.981 -22.744  12.800  1.00  0.00    -0.025 C 
ATOM      5  C   UNL     1     -19.258 -22.365  11.742  1.00  0.00     0.020 C 
BRANCH   5   6
ATOM      6  C   UNL     1     -19.297 -20.991  11.221  1.00  0.00     0.064 C 
ATOM      7  O   UNL     1     -19.078 -20.025  11.998  1.00  0.00    -0.545 OA
ATOM      8  O   UNL     1     -19.574 -20.740   9.881  1.00  0.00    -0.545 OA
ENDBRANCH   5   6
ENDBRANCH   3   4
ENDBRANCH   2   3
ENDBRANCH   1   2
BRANCH   1   9
ATOM      9  C   UNL     1     -17.607 -25.977  15.306  1.00  0.00     0.000 C 
BRANCH   9  10
ATOM     10  C   UNL     1     -17.040 -26.618  14.026  1.00  0.00     0.000 C 
BRANCH  10  11
ATOM     11  C   UNL     1     -16.132 -25.663  13.232  1.00  0.00    -0.000 C 
BRANCH  11  12
ATOM     12  C   UNL     1     -16.736 -25.268  11.875  1.00  0.00    -0.000 C 
BRANCH  12  13
ATOM     13  C   UNL     1     -17.749 -26.299  11.354  1.00  0.00    -0.003 C 
ATOM     14  C   UNL     1     -18.552 -25.737  10.185  1.00  0.00     0.004 C 
ENDBRANCH  12  13
ENDBRANCH  11  12
ENDBRANCH  10  11
ENDBRANCH   9  10
ENDBRANCH   1   9
TORSDOF 9
ENDMDL
MODEL 4
REMARK VINA RESULT:    -4.726      1.261      2.539
REMARK INTER + INTRA:          -7.908
REMARK INTER:                  -6.999
REMARK INTRA:                  -0.909
REMARK UNBOUND:                -0.695
REMARK SMILES CCCCCCCCCC=CC(=O)[O-]
REMARK SMILES IDX 7 1 8 2 9 3 10 4 11 5 12 6 13 7 14 8 6 9 5 10 4 11 3 12 2 13
REMARK SMILES IDX 1 14
REMARK H PARENT
REMARK Flexibility Score: inf
ROOT
ATOM      1  C   UNL     1     -19.888 -22.229  12.443  1.00  0.00     0.000 C 
ENDROOT
BRANCH   1   2
ATOM      2  C   UNL     1     -19.617 -23.746  12.500  1.00  0.00     0.004 C 
BRANCH   2   3
ATOM      3  C   UNL     1     -18.381 -24.199  11.706  1.00  0.00     0.027 C 
BRANCH   3   4
ATOM      4  C   UNL     1     -17.431 -25.019  12.533  1.00  0.00    -0.025 C 
ATOM      5  C   UNL     1     -17.772 -25.479  13.740  1.00  0.00     0.020 C 
BRANCH   5   6
ATOM      6  C   UNL     1     -16.853 -26.285  14.557  1.00  0.00     0.064 C 
ATOM      7  O   UNL     1     -15.735 -25.810  14.887  1.00  0.00    -0.545 OA
ATOM      8  O   UNL     1     -17.200 -27.567  14.970  1.00  0.00    -0.545 OA
ENDBRANCH   5   6
ENDBRANCH   3   4
ENDBRANCH   2   3
ENDBRANCH   1   2
BRANCH   1   9
ATOM      9  C   UNL     1     -18.909 -21.422  11.567  1.00  0.00     0.000 C 
BRANCH   9  10
ATOM     10  C   UNL     1     -19.520 -20.813  10.292  1.00  0.00     0.000 C 
BRANCH  10  11
ATOM     11  C   UNL     1     -20.061 -21.877   9.323  1.00  0.00    -0.000 C 
BRANCH  11  12
ATOM     12  C   UNL     1     -21.322 -21.410   8.578  1.00  0.00    -0.000 C 
BRANCH  12  13
ATOM     13  C   UNL     1     -22.413 -22.490   8.524  1.00  0.00    -0.003 C 
ATOM     14  C   UNL     1     -22.251 -23.492   9.664  1.00  0.00     0.004 C 
ENDBRANCH  12  13
ENDBRANCH  11  12
ENDBRANCH  10  11
ENDBRANCH   9  10
ENDBRANCH   1   9
TORSDOF 9
ENDMDL
MODEL 5
REMARK VINA RESULT:    -4.686     11.028     12.813
REMARK INTER + INTRA:          -7.847
REMARK INTER:                  -7.397
REMARK INTRA:                  -0.450
REMARK UNBOUND:                -0.695
REMARK SMILES CCCCCCCCCC=CC(=O)[O-]
REMARK SMILES IDX 7 1 8 2 9 3 10 4 11 5 12 6 13 7 14 8 6 9 5 10 4 11 3 12 2 13
REMARK SMILES IDX 1 14
REMARK H PARENT
REMARK Flexibility Score: inf
ROOT
ATOM      1  C   UNL     1     -24.945 -27.629   4.671  1.00  0.00     0.000 C 
ENDROOT
BRANCH   1   2
ATOM      2  C   UNL     1     -23.560 -26.966   4.806  1.00  0.00     0.004 C 
BRANCH   2   3
ATOM      3  C   UNL     1     -23.272 -25.880   3.755  1.00  0.00     0.027 C 
BRANCH   3   4
ATOM      4  C   UNL     1     -22.210 -26.291   2.775  1.00  0.00    -0.025 C 
ATOM      5  C   UNL     1     -22.012 -25.620   1.636  1.00  0.00     0.020 C 
BRANCH   5   6
ATOM      6  C   UNL     1     -20.974 -26.009   0.671  1.00  0.00     0.064 C 
ATOM      7  O   UNL     1     -21.303 -26.324  -0.503  1.00  0.00    -0.545 OA
ATOM      8  O   UNL     1     -19.631 -26.036   1.034  1.00  0.00    -0.545 OA
ENDBRANCH   5   6
ENDBRANCH   3   4
ENDBRANCH   2   3
ENDBRANCH   1   2
BRANCH   1   9
ATOM      9  C   UNL     1     -24.978 -29.143   4.967  1.00  0.00     0.000 C 
BRANCH   9  10
ATOM     10  C   UNL     1     -25.580 -29.531   6.330  1.00  0.00     0.000 C 
BRANCH  10  11
ATOM     11  C   UNL     1     -27.098 -29.293   6.400  1.00  0.00    -0.000 C 
BRANCH  11  12
ATOM     12  C   UNL     1     -27.555 -28.803   7.782  1.00  0.00    -0.000 C 
BRANCH  12  13
ATOM     13  C   UNL     1     -26.425 -28.130   8.576  1.00  0.00    -0.003 C 
ATOM     14  C   UNL     1     -26.984 -27.280   9.713  1.00  0.00     0.004 C 
ENDBRANCH  12  13
ENDBRANCH  11  12
ENDBRANCH  10  11
ENDBRANCH   9  10
ENDBRANCH   1   9
TORSDOF 9
ENDMDL
MODEL 6
REMARK VINA RESULT:    -4.668      9.080     10.218
REMARK INTER + INTRA:          -7.819
REMARK INTER:                  -7.361
REMARK INTRA:                  -0.457
REMARK UNBOUND:                -0.695
REMARK SMILES CCCCCCCCCC=CC(=O)[O-]
REMARK SMILES IDX 7 1 8 2 9 3 10 4 11 5 12 6 13 7 14 8 6 9 5 10 4 11 3 12 2 13
REMARK SMILES IDX 1 14
REMARK H PARENT
REMARK Flexibility Score: inf
ROOT
ATOM      1  C   UNL     1     -28.220 -25.236  15.213  1.00  0.00     0.000 C 
ENDROOT
BRANCH   1   2
ATOM      2  C   UNL     1     -27.002 -25.612  16.081  1.00  0.00     0.004 C 
BRANCH   2   3
ATOM      3  C   UNL     1     -25.704 -24.879  15.703  1.00  0.00     0.027 C 
BRANCH   3   4
ATOM      4  C   UNL     1     -24.505 -25.413  16.435  1.00  0.00    -0.025 C 
ATOM      5  C   UNL     1     -24.622 -26.355  17.374  1.00  0.00     0.020 C 
BRANCH   5   6
ATOM      6  C   UNL     1     -23.456 -26.889  18.094  1.00  0.00     0.064 C 
ATOM      7  O   UNL     1     -23.629 -27.592  19.124  1.00  0.00    -0.545 OA
ATOM      8  O   UNL     1     -22.162 -26.628  17.655  1.00  0.00    -0.545 OA
ENDBRANCH   5   6
ENDBRANCH   3   4
ENDBRANCH   2   3
ENDBRANCH   1   2
BRANCH   1   9
ATOM      9  C   UNL     1     -28.839 -23.856  15.517  1.00  0.00     0.000 C 
BRANCH   9  10
ATOM     10  C   UNL     1     -30.136 -23.889  16.345  1.00  0.00     0.000 C 
BRANCH  10  11
ATOM     11  C   UNL     1     -29.883 -23.737  17.855  1.00  0.00    -0.000 C 
BRANCH  11  12
ATOM     12  C   UNL     1     -30.238 -22.334  18.373  1.00  0.00    -0.000 C 
BRANCH  12  13
ATOM     13  C   UNL     1     -29.183 -21.280  18.002  1.00  0.00    -0.003 C 
ATOM     14  C   UNL     1     -29.625 -19.886  18.434  1.00  0.00     0.004 C 
ENDBRANCH  12  13
ENDBRANCH  11  12
ENDBRANCH  10  11
ENDBRANCH   9  10
ENDBRANCH   1   9
TORSDOF 9
ENDMDL
MODEL 7
REMARK VINA RESULT:    -4.642      3.187      4.081
REMARK INTER + INTRA:          -7.778
REMARK INTER:                  -6.722
REMARK INTRA:                  -1.056
REMARK UNBOUND:                -0.695
REMARK SMILES CCCCCCCCCC=CC(=O)[O-]
REMARK SMILES IDX 7 1 8 2 9 3 10 4 11 5 12 6 13 7 14 8 6 9 5 10 4 11 3 12 2 13
REMARK SMILES IDX 1 14
REMARK H PARENT
REMARK Flexibility Score: inf
ROOT
ATOM      1  C   UNL     1     -19.021 -24.495  14.693  1.00  0.00     0.000 C 
ENDROOT
BRANCH   1   2
ATOM      2  C   UNL     1     -18.268 -25.827  14.502  1.00  0.00     0.004 C 
BRANCH   2   3
ATOM      3  C   UNL     1     -16.815 -25.671  14.023  1.00  0.00     0.027 C 
BRANCH   3   4
ATOM      4  C   UNL     1     -16.715 -25.443  12.540  1.00  0.00    -0.025 C 
ATOM      5  C   UNL     1     -17.436 -26.161  11.673  1.00  0.00     0.020 C 
BRANCH   5   6
ATOM      6  C   UNL     1     -17.350 -25.945  10.221  1.00  0.00     0.064 C 
ATOM      7  O   UNL     1     -18.395 -25.683   9.570  1.00  0.00    -0.545 OA
ATOM      8  O   UNL     1     -16.132 -26.027   9.555  1.00  0.00    -0.545 OA
ENDBRANCH   5   6
ENDBRANCH   3   4
ENDBRANCH   2   3
ENDBRANCH   1   2
BRANCH   1   9
ATOM      9  C   UNL     1     -20.472 -24.482  14.170  1.00  0.00     0.000 C 
BRANCH   9  10
ATOM     10  C   UNL     1     -20.717 -23.590  12.940  1.00  0.00     0.000 C 
BRANCH  10  11
ATOM     11  C   UNL     1     -19.499 -22.723  12.580  1.00  0.00    -0.000 C 
BRANCH  11  12
ATOM     12  C   UNL     1     -19.301 -22.586  11.062  1.00  0.00    -0.000 C 
BRANCH  12  13
ATOM     13  C   UNL     1     -19.237 -21.122  10.602  1.00  0.00    -0.003 C 
ATOM     14  C   UNL     1     -19.332 -20.169  11.790  1.00  0.00     0.004 C 
ENDBRANCH  12  13
ENDBRANCH  11  12
ENDBRANCH  10  11
ENDBRANCH   9  10
ENDBRANCH   1   9
TORSDOF 9
ENDMDL
MODEL 8
REMARK VINA RESULT:    -4.591      4.225      5.427
REMARK INTER + INTRA:          -7.702
REMARK INTER:                  -6.957
REMARK INTRA:                  -0.745
REMARK UNBOUND:                -0.695
REMARK SMILES CCCCCCCCCC=CC(=O)[O-]
REMARK SMILES IDX 7 1 8 2 9 3 10 4 11 5 12 6 13 7 14 8 6 9 5 10 4 11 3 12 2 13
REMARK SMILES IDX 1 14
REMARK H PARENT
REMARK Flexibility Score: inf
ROOT
ATOM      1  C   UNL     1     -16.881 -25.773  14.119  1.00  0.00     0.000 C 
ENDROOT
BRANCH   1   2
ATOM      2  C   UNL     1     -16.430 -25.347  12.707  1.00  0.00     0.004 C 
BRANCH   2   3
ATOM      3  C   UNL     1     -16.973 -26.233  11.574  1.00  0.00     0.027 C 
BRANCH   3   4
ATOM      4  C   UNL     1     -16.149 -26.140  10.321  1.00  0.00    -0.025 C 
ATOM      5  C   UNL     1     -16.508 -26.771   9.199  1.00  0.00     0.020 C 
BRANCH   5   6
ATOM      6  C   UNL     1     -15.713 -26.684   7.965  1.00  0.00     0.064 C 
ATOM      7  O   UNL     1     -15.753 -27.626   7.132  1.00  0.00    -0.545 OA
ATOM      8  O   UNL     1     -14.914 -25.576   7.704  1.00  0.00    -0.545 OA
ENDBRANCH   5   6
ENDBRANCH   3   4
ENDBRANCH   2   3
ENDBRANCH   1   2
BRANCH   1   9
ATOM      9  C   UNL     1     -18.406 -25.912  14.305  1.00  0.00     0.000 C 
BRANCH   9  10
ATOM     10  C   UNL     1     -19.143 -24.608  14.658  1.00  0.00     0.000 C 
BRANCH  10  11
ATOM     11  C   UNL     1     -20.383 -24.368  13.781  1.00  0.00    -0.000 C 
BRANCH  11  12
ATOM     12  C   UNL     1     -20.342 -23.011  13.061  1.00  0.00    -0.000 C 
BRANCH  12  13
ATOM     13  C   UNL     1     -19.402 -23.012  11.846  1.00  0.00    -0.003 C 
ATOM     14  C   UNL     1     -18.998 -21.592  11.462  1.00  0.00     0.004 C 
ENDBRANCH  12  13
ENDBRANCH  11  12
ENDBRANCH  10  11
ENDBRANCH   9  10
ENDBRANCH   1   9
TORSDOF 9
ENDMDL
MODEL 9
REMARK VINA RESULT:    -4.591     11.779     13.290
REMARK INTER + INTRA:          -7.701
REMARK INTER:                  -7.039
REMARK INTRA:                  -0.662
REMARK UNBOUND:                -0.695
REMARK SMILES CCCCCCCCCC=CC(=O)[O-]
REMARK SMILES IDX 7 1 8 2 9 3 10 4 11 5 12 6 13 7 14 8 6 9 5 10 4 11 3 12 2 13
REMARK SMILES IDX 1 14
REMARK H PARENT
REMARK Flexibility Score: inf
ROOT
ATOM      1  C   UNL     1     -22.996 -28.842   3.227  1.00  0.00     0.000 C 
ENDROOT
BRANCH   1   2
ATOM      2  C   UNL     1     -21.806 -29.377   4.049  1.00  0.00     0.004 C 
BRANCH   2   3
ATOM      3  C   UNL     1     -21.974 -30.824   4.541  1.00  0.00     0.027 C 
BRANCH   3   4
ATOM      4  C   UNL     1     -21.696 -31.836   3.464  1.00  0.00    -0.025 C 
ATOM      5  C   UNL     1     -22.509 -32.877   3.256  1.00  0.00     0.020 C 
BRANCH   5   6
ATOM      6  C   UNL     1     -22.251 -33.871   2.204  1.00  0.00     0.064 C 
ATOM      7  O   UNL     1     -21.429 -33.607   1.288  1.00  0.00    -0.545 OA
ATOM      8  O   UNL     1     -22.901 -35.100   2.205  1.00  0.00    -0.545 OA
ENDBRANCH   5   6
ENDBRANCH   3   4
ENDBRANCH   2   3
ENDBRANCH   1   2
BRANCH   1   9
ATOM      9  C   UNL     1     -24.386 -29.294   3.719  1.00  0.00     0.000 C 
BRANCH   9  10
ATOM     10  C   UNL     1     -24.947 -28.502   4.914  1.00  0.00     0.000 C 
BRANCH  10  11
ATOM     11  C   UNL     1     -25.345 -29.404   6.093  1.00  0.00    -0.000 C 
BRANCH  11  12
ATOM     12  C   UNL     1     -26.862 -29.418   6.340  1.00  0.00    -0.000 C 
BRANCH  12  13
ATOM     13  C   UNL     1     -27.237 -28.947   7.753  1.00  0.00    -0.003 C 
ATOM     14  C   UNL     1     -26.009 -28.888   8.656  1.00  0.00     0.004 C 
ENDBRANCH  12  13
ENDBRANCH  11  12
ENDBRANCH  10  11
ENDBRANCH   9  10
ENDBRANCH   1   9
TORSDOF 9
ENDMDL
