MODEL 1
REMARK VINA RESULT:    -4.704      0.000      0.000
REMARK INTER + INTRA:          -4.704
REMARK INTER:                  -4.704
REMARK INTRA:                   0.000
REMARK UNBOUND:                 0.000
REMARK SMILES O=c1ccc2ccc3occc3c2o1
REMARK SMILES IDX 6 1 7 2 8 3 12 4 11 5 10 6 9 7 13 8 5 9 4 10 3 11 2 12 1 13
REMARK SMILES IDX 14 14
REMARK H PARENT
REMARK Flexibility Score: inf
ROOT
ATOM      1  C   UNL     1      68.726  39.628  21.277  1.00  0.00     0.016 A 
ATOM      2  C   UNL     1      70.081  39.787  21.626  1.00  0.00     0.048 A 
ATOM      3  C   UNL     1      70.997  38.852  21.146  1.00  0.00     0.137 A 
ATOM      4  C   UNL     1      70.612  37.802  20.357  1.00  0.00     0.064 A 
ATOM      5  C   UNL     1      71.748  37.082  20.065  1.00  0.00     0.054 A 
ATOM      6  C   UNL     1      72.771  37.766  20.715  1.00  0.00     0.196 A 
ATOM      7  O   UNL     1      72.291  38.819  21.352  1.00  0.00    -0.464 OA
ATOM      8  C   UNL     1      69.282  37.609  19.990  1.00  0.00     0.149 A 
ATOM      9  C   UNL     1      68.323  38.543  20.460  1.00  0.00     0.018 A 
ATOM     10  C   UNL     1      66.987  38.355  20.095  1.00  0.00     0.019 A 
ATOM     11  C   UNL     1      66.644  37.268  19.289  1.00  0.00     0.094 A 
ATOM     12  C   UNL     1      67.647  36.389  18.863  1.00  0.00     0.336 A 
ATOM     13  O   UNL     1      67.354  35.405  18.136  1.00  0.00    -0.246 OA
ATOM     14  O   UNL     1      68.914  36.586  19.222  1.00  0.00    -0.422 OA
ENDROOT
TORSDOF 0
ENDMDL
MODEL 2
REMARK VINA RESULT:    -4.646      3.870      5.434
REMARK INTER + INTRA:          -4.646
REMARK INTER:                  -4.646
REMARK INTRA:                   0.000
REMARK UNBOUND:                 0.000
REMARK SMILES O=c1ccc2ccc3occc3c2o1
REMARK SMILES IDX 6 1 7 2 8 3 12 4 11 5 10 6 9 7 13 8 5 9 4 10 3 11 2 12 1 13
REMARK SMILES IDX 14 14
REMARK H PARENT
REMARK Flexibility Score: inf
ROOT
ATOM      1  C   UNL     1      74.204  39.934  21.985  1.00  0.00     0.016 A 
ATOM      2  C   UNL     1      75.113  40.956  21.653  1.00  0.00     0.048 A 
ATOM      3  C   UNL     1      75.531  41.056  20.326  1.00  0.00     0.137 A 
ATOM      4  C   UNL     1      75.084  40.196  19.360  1.00  0.00     0.064 A 
ATOM      5  C   UNL     1      75.686  40.571  18.181  1.00  0.00     0.054 A 
ATOM      6  C   UNL     1      76.479  41.661  18.524  1.00  0.00     0.196 A 
ATOM      7  O   UNL     1      76.365  41.927  19.813  1.00  0.00    -0.464 OA
ATOM      8  C   UNL     1      74.184  39.172  19.649  1.00  0.00     0.149 A 
ATOM      9  C   UNL     1      73.737  39.042  20.988  1.00  0.00     0.018 A 
ATOM     10  C   UNL     1      72.835  38.016  21.284  1.00  0.00     0.019 A 
ATOM     11  C   UNL     1      72.407  37.165  20.264  1.00  0.00     0.094 A 
ATOM     12  C   UNL     1      72.894  37.357  18.965  1.00  0.00     0.336 A 
ATOM     13  O   UNL     1      72.517  36.598  18.034  1.00  0.00    -0.246 OA
ATOM     14  O   UNL     1      73.753  38.340  18.704  1.00  0.00    -0.422 OA
ENDROOT
TORSDOF 0
ENDMDL
MODEL 3
REMARK VINA RESULT:    -4.636      1.529      4.829
REMARK INTER + INTRA:          -4.636
REMARK INTER:                  -4.636
REMARK INTRA:                   0.000
REMARK UNBOUND:                 0.000
REMARK SMILES O=c1ccc2ccc3occc3c2o1
REMARK SMILES IDX 6 1 7 2 8 3 12 4 11 5 10 6 9 7 13 8 5 9 4 10 3 11 2 12 1 13
REMARK SMILES IDX 14 14
REMARK H PARENT
REMARK Flexibility Score: inf
ROOT
ATOM      1  C   UNL     1      71.295  36.806  19.354  1.00  0.00     0.016 A 
ATOM      2  C   UNL     1      70.240  36.175  18.667  1.00  0.00     0.048 A 
ATOM      3  C   UNL     1      68.937  36.586  18.945  1.00  0.00     0.137 A 
ATOM      4  C   UNL     1      68.668  37.571  19.856  1.00  0.00     0.064 A 
ATOM      5  C   UNL     1      67.301  37.726  19.887  1.00  0.00     0.054 A 
ATOM      6  C   UNL     1      66.823  36.798  18.968  1.00  0.00     0.196 A 
ATOM      7  O   UNL     1      67.825  36.132  18.421  1.00  0.00    -0.464 OA
ATOM      8  C   UNL     1      69.683  38.219  20.557  1.00  0.00     0.149 A 
ATOM      9  C   UNL     1      71.022  37.827  20.297  1.00  0.00     0.018 A 
ATOM     10  C   UNL     1      72.044  38.473  20.997  1.00  0.00     0.019 A 
ATOM     11  C   UNL     1      71.720  39.473  21.916  1.00  0.00     0.094 A 
ATOM     12  C   UNL     1      70.374  39.805  22.118  1.00  0.00     0.336 A 
ATOM     13  O   UNL     1      70.066  40.704  22.943  1.00  0.00    -0.246 OA
ATOM     14  O   UNL     1      69.415  39.177  21.441  1.00  0.00    -0.422 OA
ENDROOT
TORSDOF 0
ENDMDL
MODEL 4
REMARK VINA RESULT:    -4.635      2.074      5.460
REMARK INTER + INTRA:          -4.635
REMARK INTER:                  -4.635
REMARK INTRA:                   0.000
REMARK UNBOUND:                 0.000
REMARK SMILES O=c1ccc2ccc3occc3c2o1
REMARK SMILES IDX 6 1 7 2 8 3 12 4 11 5 10 6 9 7 13 8 5 9 4 10 3 11 2 12 1 13
REMARK SMILES IDX 14 14
REMARK H PARENT
REMARK Flexibility Score: inf
ROOT
ATOM      1  C   UNL     1      71.511  37.399  19.285  1.00  0.00     0.016 A 
ATOM      2  C   UNL     1      70.124  37.586  19.431  1.00  0.00     0.048 A 
ATOM      3  C   UNL     1      69.681  38.465  20.420  1.00  0.00     0.137 A 
ATOM      4  C   UNL     1      70.553  39.136  21.234  1.00  0.00     0.064 A 
ATOM      5  C   UNL     1      69.793  39.907  22.085  1.00  0.00     0.054 A 
ATOM      6  C   UNL     1      68.478  39.643  21.716  1.00  0.00     0.196 A 
ATOM      7  O   UNL     1      68.443  38.777  20.718  1.00  0.00    -0.464 OA
ATOM      8  C   UNL     1      71.932  38.978  21.121  1.00  0.00     0.149 A 
ATOM      9  C   UNL     1      72.418  38.092  20.125  1.00  0.00     0.018 A 
ATOM     10  C   UNL     1      73.800  37.929  20.007  1.00  0.00     0.019 A 
ATOM     11  C   UNL     1      74.649  38.635  20.861  1.00  0.00     0.094 A 
ATOM     12  C   UNL     1      74.094  39.492  21.820  1.00  0.00     0.336 A 
ATOM     13  O   UNL     1      74.846  40.136  22.597  1.00  0.00    -0.246 OA
ATOM     14  O   UNL     1      72.774  39.633  21.916  1.00  0.00    -0.422 OA
ENDROOT
TORSDOF 0
ENDMDL
MODEL 5
REMARK VINA RESULT:    -4.620      2.560      4.096
REMARK INTER + INTRA:          -4.620
REMARK INTER:                  -4.620
REMARK INTRA:                   0.000
REMARK UNBOUND:                 0.000
REMARK SMILES O=c1ccc2ccc3occc3c2o1
REMARK SMILES IDX 6 1 7 2 8 3 12 4 11 5 10 6 9 7 13 8 5 9 4 10 3 11 2 12 1 13
REMARK SMILES IDX 14 14
REMARK H PARENT
REMARK Flexibility Score: inf
ROOT
ATOM      1  C   UNL     1      74.151  37.986  18.209  1.00  0.00     0.016 A 
ATOM      2  C   UNL     1      74.985  38.764  19.034  1.00  0.00     0.048 A 
ATOM      3  C   UNL     1      74.517  39.105  20.303  1.00  0.00     0.137 A 
ATOM      4  C   UNL     1      73.287  38.706  20.752  1.00  0.00     0.064 A 
ATOM      5  C   UNL     1      73.144  39.208  22.026  1.00  0.00     0.054 A 
ATOM      6  C   UNL     1      74.329  39.895  22.266  1.00  0.00     0.196 A 
ATOM      7  O   UNL     1      75.130  39.815  21.218  1.00  0.00    -0.464 OA
ATOM      8  C   UNL     1      72.433  37.936  19.966  1.00  0.00     0.149 A 
ATOM      9  C   UNL     1      72.877  37.570  18.669  1.00  0.00     0.018 A 
ATOM     10  C   UNL     1      72.025  36.798  17.875  1.00  0.00     0.019 A 
ATOM     11  C   UNL     1      70.780  36.415  18.378  1.00  0.00     0.094 A 
ATOM     12  C   UNL     1      70.412  36.816  19.668  1.00  0.00     0.336 A 
ATOM     13  O   UNL     1      69.293  36.479  20.136  1.00  0.00    -0.246 OA
ATOM     14  O   UNL     1      71.239  37.551  20.408  1.00  0.00    -0.422 OA
ENDROOT
TORSDOF 0
ENDMDL
MODEL 6
REMARK VINA RESULT:    -4.603      1.303      2.663
REMARK INTER + INTRA:          -4.603
REMARK INTER:                  -4.603
REMARK INTRA:                   0.000
REMARK UNBOUND:                 0.000
REMARK SMILES O=c1ccc2ccc3occc3c2o1
REMARK SMILES IDX 6 1 7 2 8 3 12 4 11 5 10 6 9 7 13 8 5 9 4 10 3 11 2 12 1 13
REMARK SMILES IDX 14 14
REMARK H PARENT
REMARK Flexibility Score: inf
ROOT
ATOM      1  C   UNL     1      71.506  37.360  19.965  1.00  0.00     0.016 A 
ATOM      2  C   UNL     1      72.022  38.317  20.860  1.00  0.00     0.048 A 
ATOM      3  C   UNL     1      71.125  39.184  21.483  1.00  0.00     0.137 A 
ATOM      4  C   UNL     1      69.779  39.125  21.245  1.00  0.00     0.064 A 
ATOM      5  C   UNL     1      69.193  40.108  22.010  1.00  0.00     0.054 A 
ATOM      6  C   UNL     1      70.255  40.711  22.676  1.00  0.00     0.196 A 
ATOM      7  O   UNL     1      71.397  40.137  22.341  1.00  0.00    -0.464 OA
ATOM      8  C   UNL     1      69.229  38.194  20.366  1.00  0.00     0.149 A 
ATOM      9  C   UNL     1      70.113  37.295  19.716  1.00  0.00     0.018 A 
ATOM     10  C   UNL     1      69.568  36.359  18.833  1.00  0.00     0.019 A 
ATOM     11  C   UNL     1      68.188  36.338  18.623  1.00  0.00     0.094 A 
ATOM     12  C   UNL     1      67.380  37.258  19.303  1.00  0.00     0.336 A 
ATOM     13  O   UNL     1      66.134  37.251  19.124  1.00  0.00    -0.246 OA
ATOM     14  O   UNL     1      67.919  38.142  20.139  1.00  0.00    -0.422 OA
ENDROOT
TORSDOF 0
ENDMDL
MODEL 7
REMARK VINA RESULT:    -4.565      4.092      6.655
REMARK INTER + INTRA:          -4.565
REMARK INTER:                  -4.565
REMARK INTRA:                   0.000
REMARK UNBOUND:                 0.000
REMARK SMILES O=c1ccc2ccc3occc3c2o1
REMARK SMILES IDX 6 1 7 2 8 3 12 4 11 5 10 6 9 7 13 8 5 9 4 10 3 11 2 12 1 13
REMARK SMILES IDX 14 14
REMARK H PARENT
REMARK Flexibility Score: inf
ROOT
ATOM      1  C   UNL     1      73.453  39.142  21.824  1.00  0.00     0.016 A 
ATOM      2  C   UNL     1      72.786  38.047  21.243  1.00  0.00     0.048 A 
ATOM      3  C   UNL     1      73.034  37.766  19.900  1.00  0.00     0.137 A 
ATOM      4  C   UNL     1      73.895  38.520  19.150  1.00  0.00     0.064 A 
ATOM      5  C   UNL     1      73.905  37.977  17.885  1.00  0.00     0.054 A 
ATOM      6  C   UNL     1      73.026  36.902  17.959  1.00  0.00     0.196 A 
ATOM      7  O   UNL     1      72.521  36.801  19.176  1.00  0.00    -0.464 OA
ATOM      8  C   UNL     1      74.573  39.612  19.688  1.00  0.00     0.149 A 
ATOM      9  C   UNL     1      74.346  39.926  21.052  1.00  0.00     0.018 A 
ATOM     10  C   UNL     1      75.024  41.019  21.598  1.00  0.00     0.019 A 
ATOM     11  C   UNL     1      75.892  41.758  20.792  1.00  0.00     0.094 A 
ATOM     12  C   UNL     1      76.065  41.386  19.453  1.00  0.00     0.336 A 
ATOM     13  O   UNL     1      76.845  42.042  18.714  1.00  0.00    -0.246 OA
ATOM     14  O   UNL     1      75.410  40.341  18.953  1.00  0.00    -0.422 OA
ENDROOT
TORSDOF 0
ENDMDL
MODEL 8
REMARK VINA RESULT:    -4.476      1.620      4.123
REMARK INTER + INTRA:          -4.476
REMARK INTER:                  -4.476
REMARK INTRA:                   0.000
REMARK UNBOUND:                 0.000
REMARK SMILES O=c1ccc2ccc3occc3c2o1
REMARK SMILES IDX 6 1 7 2 8 3 12 4 11 5 10 6 9 7 13 8 5 9 4 10 3 11 2 12 1 13
REMARK SMILES IDX 14 14
REMARK H PARENT
REMARK Flexibility Score: inf
ROOT
ATOM      1  C   UNL     1      69.822  39.299  21.231  1.00  0.00     0.016 A 
ATOM      2  C   UNL     1      68.420  39.180  21.191  1.00  0.00     0.048 A 
ATOM      3  C   UNL     1      67.864  38.260  20.303  1.00  0.00     0.137 A 
ATOM      4  C   UNL     1      68.641  37.484  19.485  1.00  0.00     0.064 A 
ATOM      5  C   UNL     1      67.785  36.698  18.747  1.00  0.00     0.054 A 
ATOM      6  C   UNL     1      66.515  37.062  19.181  1.00  0.00     0.196 A 
ATOM      7  O   UNL     1      66.594  37.997  20.111  1.00  0.00    -0.464 OA
ATOM      8  C   UNL     1      70.031  37.572  19.494  1.00  0.00     0.149 A 
ATOM      9  C   UNL     1      70.630  38.498  20.387  1.00  0.00     0.018 A 
ATOM     10  C   UNL     1      72.025  38.591  20.401  1.00  0.00     0.019 A 
ATOM     11  C   UNL     1      72.774  37.779  19.548  1.00  0.00     0.094 A 
ATOM     12  C   UNL     1      72.110  36.888  18.695  1.00  0.00     0.336 A 
ATOM     13  O   UNL     1      72.772  36.150  17.920  1.00  0.00    -0.246 OA
ATOM     14  O   UNL     1      70.781  36.816  18.697  1.00  0.00    -0.422 OA
ENDROOT
TORSDOF 0
ENDMDL
MODEL 9
REMARK VINA RESULT:    -4.470      1.255      4.419
REMARK INTER + INTRA:          -4.470
REMARK INTER:                  -4.470
REMARK INTRA:                   0.000
REMARK UNBOUND:                 0.000
REMARK SMILES O=c1ccc2ccc3occc3c2o1
REMARK SMILES IDX 6 1 7 2 8 3 12 4 11 5 10 6 9 7 13 8 5 9 4 10 3 11 2 12 1 13
REMARK SMILES IDX 14 14
REMARK H PARENT
REMARK Flexibility Score: inf
ROOT
ATOM      1  C   UNL     1      69.116  39.903  21.799  1.00  0.00     0.016 A 
ATOM      2  C   UNL     1      68.040  39.277  21.144  1.00  0.00     0.048 A 
ATOM      3  C   UNL     1      68.317  38.180  20.328  1.00  0.00     0.137 A 
ATOM      4  C   UNL     1      69.591  37.710  20.156  1.00  0.00     0.064 A 
ATOM      5  C   UNL     1      69.508  36.634  19.301  1.00  0.00     0.054 A 
ATOM      6  C   UNL     1      68.154  36.524  19.008  1.00  0.00     0.196 A 
ATOM      7  O   UNL     1      67.467  37.461  19.636  1.00  0.00    -0.464 OA
ATOM      8  C   UNL     1      70.683  38.303  20.787  1.00  0.00     0.149 A 
ATOM      9  C   UNL     1      70.437  39.420  21.624  1.00  0.00     0.018 A 
ATOM     10  C   UNL     1      71.528  40.019  22.259  1.00  0.00     0.019 A 
ATOM     11  C   UNL     1      72.809  39.504  22.052  1.00  0.00     0.094 A 
ATOM     12  C   UNL     1      72.971  38.396  21.211  1.00  0.00     0.336 A 
ATOM     13  O   UNL     1      74.120  37.920  21.014  1.00  0.00    -0.246 OA
ATOM     14  O   UNL     1      71.919  37.841  20.615  1.00  0.00    -0.422 OA
ENDROOT
TORSDOF 0
ENDMDL
