MODEL 1
REMARK VINA RESULT:    -3.440      0.000      0.000
REMARK INTER + INTRA:          -4.757
REMARK INTER:                  -4.445
REMARK INTRA:                  -0.311
REMARK UNBOUND:                -0.311
REMARK SMILES CCCCCCC(C)=O
REMARK SMILES IDX 4 1 3 2 2 3 1 4 5 5 6 6 7 7 9 8 8 9
REMARK H PARENT
REMARK Flexibility Score: inf
ROOT
ATOM      1  C   UNL     1       8.932  -3.933  -0.322  1.00  0.00     0.000 C 
ENDROOT
BRANCH   1   2
ATOM      2  C   UNL     1       7.904  -2.964   0.291  1.00  0.00    -0.000 C 
BRANCH   2   3
ATOM      3  C   UNL     1       8.143  -2.669   1.788  1.00  0.00    -0.003 C 
ATOM      4  C   UNL     1       6.883  -2.171   2.496  1.00  0.00     0.004 C 
ENDBRANCH   2   3
ENDBRANCH   1   2
BRANCH   1   5
ATOM      5  C   UNL     1       8.374  -5.320  -0.695  1.00  0.00     0.008 C 
BRANCH   5   6
ATOM      6  C   UNL     1       8.076  -6.225   0.513  1.00  0.00     0.075 C 
BRANCH   6   7
ATOM      7  C   UNL     1       6.609  -6.553   0.625  1.00  0.00     0.129 C 
ATOM      8  O   UNL     1       5.844  -5.732   1.110  1.00  0.00    -0.300 OA
ATOM      9  C   UNL     1       6.064  -7.866   0.147  1.00  0.00     0.087 C 
ENDBRANCH   6   7
ENDBRANCH   5   6
ENDBRANCH   1   5
TORSDOF 5
ENDMDL
MODEL 2
REMARK VINA RESULT:    -3.360     13.502     15.139
REMARK INTER + INTRA:          -4.654
REMARK INTER:                  -4.356
REMARK INTRA:                  -0.297
REMARK UNBOUND:                -0.311
REMARK SMILES CCCCCCC(C)=O
REMARK SMILES IDX 4 1 3 2 2 3 1 4 5 5 6 6 7 7 9 8 8 9
REMARK H PARENT
REMARK Flexibility Score: inf
ROOT
ATOM      1  C   UNL     1       0.038   6.751   4.854  1.00  0.00     0.000 C 
ENDROOT
BRANCH   1   2
ATOM      2  C   UNL     1      -0.355   7.522   3.580  1.00  0.00    -0.000 C 
BRANCH   2   3
ATOM      3  C   UNL     1      -1.132   6.671   2.553  1.00  0.00    -0.003 C 
ATOM      4  C   UNL     1      -0.656   5.219   2.512  1.00  0.00     0.004 C 
ENDBRANCH   2   3
ENDBRANCH   1   2
BRANCH   1   5
ATOM      5  C   UNL     1       1.494   6.954   5.312  1.00  0.00     0.008 C 
BRANCH   5   6
ATOM      6  C   UNL     1       1.812   8.380   5.793  1.00  0.00     0.075 C 
BRANCH   6   7
ATOM      7  C   UNL     1       2.841   9.054   4.922  1.00  0.00     0.129 C 
ATOM      8  O   UNL     1       4.022   8.774   5.058  1.00  0.00    -0.300 OA
ATOM      9  C   UNL     1       2.444  10.061   3.882  1.00  0.00     0.087 C 
ENDBRANCH   6   7
ENDBRANCH   5   6
ENDBRANCH   1   5
TORSDOF 5
ENDMDL
MODEL 3
REMARK VINA RESULT:    -3.341     13.086     14.880
REMARK INTER + INTRA:          -4.628
REMARK INTER:                  -4.261
REMARK INTRA:                  -0.368
REMARK UNBOUND:                -0.311
REMARK SMILES CCCCCCC(C)=O
REMARK SMILES IDX 4 1 3 2 2 3 1 4 5 5 6 6 7 7 9 8 8 9
REMARK H PARENT
REMARK Flexibility Score: inf
ROOT
ATOM      1  C   UNL     1       0.217   9.343   3.148  1.00  0.00     0.000 C 
ENDROOT
BRANCH   1   2
ATOM      2  C   UNL     1       1.501   9.650   3.941  1.00  0.00    -0.000 C 
BRANCH   2   3
ATOM      3  C   UNL     1       1.513   9.050   5.363  1.00  0.00    -0.003 C 
ATOM      4  C   UNL     1       2.638   8.034   5.563  1.00  0.00     0.004 C 
ENDBRANCH   2   3
ENDBRANCH   1   2
BRANCH   1   5
ATOM      5  C   UNL     1      -0.830   8.505   3.907  1.00  0.00     0.008 C 
BRANCH   5   6
ATOM      6  C   UNL     1      -1.403   7.329   3.098  1.00  0.00     0.075 C 
BRANCH   6   7
ATOM      7  C   UNL     1      -0.616   6.061   3.310  1.00  0.00     0.129 C 
ATOM      8  O   UNL     1       0.055   5.930   4.323  1.00  0.00    -0.300 OA
ATOM      9  C   UNL     1      -0.643   4.948   2.303  1.00  0.00     0.087 C 
ENDBRANCH   6   7
ENDBRANCH   5   6
ENDBRANCH   1   5
TORSDOF 5
ENDMDL
MODEL 4
REMARK VINA RESULT:    -3.279      1.410      2.042
REMARK INTER + INTRA:          -4.549
REMARK INTER:                  -4.232
REMARK INTRA:                  -0.316
REMARK UNBOUND:                -0.311
REMARK SMILES CCCCCCC(C)=O
REMARK SMILES IDX 4 1 3 2 2 3 1 4 5 5 6 6 7 7 9 8 8 9
REMARK H PARENT
REMARK Flexibility Score: inf
ROOT
ATOM      1  C   UNL     1       7.514  -2.730   1.350  1.00  0.00     0.000 C 
ENDROOT
BRANCH   1   2
ATOM      2  C   UNL     1       8.459  -2.797   0.135  1.00  0.00    -0.000 C 
BRANCH   2   3
ATOM      3  C   UNL     1       9.844  -2.162   0.389  1.00  0.00    -0.003 C 
ATOM      4  C   UNL     1      10.204  -2.111   1.873  1.00  0.00     0.004 C 
ENDBRANCH   2   3
ENDBRANCH   1   2
BRANCH   1   5
ATOM      5  C   UNL     1       6.879  -4.073   1.753  1.00  0.00     0.008 C 
BRANCH   5   6
ATOM      6  C   UNL     1       7.671  -5.309   1.293  1.00  0.00     0.075 C 
BRANCH   6   7
ATOM      7  C   UNL     1       6.786  -6.337   0.636  1.00  0.00     0.129 C 
ATOM      8  O   UNL     1       5.627  -6.457   1.004  1.00  0.00    -0.300 OA
ATOM      9  C   UNL     1       7.296  -7.214  -0.469  1.00  0.00     0.087 C 
ENDBRANCH   6   7
ENDBRANCH   5   6
ENDBRANCH   1   5
TORSDOF 5
ENDMDL
MODEL 5
REMARK VINA RESULT:    -3.257      1.057      1.501
REMARK INTER + INTRA:          -4.520
REMARK INTER:                  -4.213
REMARK INTRA:                  -0.307
REMARK UNBOUND:                -0.311
REMARK SMILES CCCCCCC(C)=O
REMARK SMILES IDX 4 1 3 2 2 3 1 4 5 5 6 6 7 7 9 8 8 9
REMARK H PARENT
REMARK Flexibility Score: inf
ROOT
ATOM      1  C   UNL     1       7.889  -2.845   0.707  1.00  0.00     0.000 C 
ENDROOT
BRANCH   1   2
ATOM      2  C   UNL     1       6.900  -2.783   1.886  1.00  0.00    -0.000 C 
BRANCH   2   3
ATOM      3  C   UNL     1       7.185  -1.634   2.877  1.00  0.00    -0.003 C 
ATOM      4  C   UNL     1       8.627  -1.639   3.384  1.00  0.00     0.004 C 
ENDBRANCH   2   3
ENDBRANCH   1   2
BRANCH   1   5
ATOM      5  C   UNL     1       8.307  -4.265   0.283  1.00  0.00     0.008 C 
BRANCH   5   6
ATOM      6  C   UNL     1       7.865  -5.370   1.257  1.00  0.00     0.075 C 
BRANCH   6   7
ATOM      7  C   UNL     1       6.861  -6.306   0.635  1.00  0.00     0.129 C 
ATOM      8  O   UNL     1       5.707  -6.303   1.034  1.00  0.00    -0.300 OA
ATOM      9  C   UNL     1       7.247  -7.238  -0.475  1.00  0.00     0.087 C 
ENDBRANCH   6   7
ENDBRANCH   5   6
ENDBRANCH   1   5
TORSDOF 5
ENDMDL
MODEL 6
REMARK VINA RESULT:    -3.237     13.633     16.119
REMARK INTER + INTRA:          -4.494
REMARK INTER:                  -4.076
REMARK INTRA:                  -0.419
REMARK UNBOUND:                -0.311
REMARK SMILES CCCCCCC(C)=O
REMARK SMILES IDX 4 1 3 2 2 3 1 4 5 5 6 6 7 7 9 8 8 9
REMARK H PARENT
REMARK Flexibility Score: inf
ROOT
ATOM      1  C   UNL     1      -0.361   6.532   5.693  1.00  0.00     0.000 C 
ENDROOT
BRANCH   1   2
ATOM      2  C   UNL     1       0.169   6.666   4.253  1.00  0.00    -0.000 C 
BRANCH   2   3
ATOM      3  C   UNL     1      -0.897   6.396   3.170  1.00  0.00    -0.003 C 
ATOM      4  C   UNL     1      -0.662   5.080   2.428  1.00  0.00     0.004 C 
ENDBRANCH   2   3
ENDBRANCH   1   2
BRANCH   1   5
ATOM      5  C   UNL     1      -0.705   7.864   6.385  1.00  0.00     0.008 C 
BRANCH   5   6
ATOM      6  C   UNL     1      -2.172   7.983   6.831  1.00  0.00     0.075 C 
BRANCH   6   7
ATOM      7  C   UNL     1      -3.116   8.061   5.659  1.00  0.00     0.129 C 
ATOM      8  O   UNL     1      -4.005   7.232   5.546  1.00  0.00    -0.300 OA
ATOM      9  C   UNL     1      -2.991   9.143   4.627  1.00  0.00     0.087 C 
ENDBRANCH   6   7
ENDBRANCH   5   6
ENDBRANCH   1   5
TORSDOF 5
ENDMDL
MODEL 7
REMARK VINA RESULT:    -3.223     13.336     14.341
REMARK INTER + INTRA:          -4.476
REMARK INTER:                  -4.116
REMARK INTRA:                  -0.360
REMARK UNBOUND:                -0.311
REMARK SMILES CCCCCCC(C)=O
REMARK SMILES IDX 4 1 3 2 2 3 1 4 5 5 6 6 7 7 9 8 8 9
REMARK H PARENT
REMARK Flexibility Score: inf
ROOT
ATOM      1  C   UNL     1      -6.619  -7.382   5.358  1.00  0.00     0.000 C 
ENDROOT
BRANCH   1   2
ATOM      2  C   UNL     1      -5.200  -7.813   4.939  1.00  0.00    -0.000 C 
BRANCH   2   3
ATOM      3  C   UNL     1      -4.389  -8.471   6.075  1.00  0.00    -0.003 C 
ATOM      4  C   UNL     1      -3.884  -7.455   7.100  1.00  0.00     0.004 C 
ENDBRANCH   2   3
ENDBRANCH   1   2
BRANCH   1   5
ATOM      5  C   UNL     1      -6.807  -5.866   5.548  1.00  0.00     0.008 C 
BRANCH   5   6
ATOM      6  C   UNL     1      -5.884  -5.000   4.674  1.00  0.00     0.075 C 
BRANCH   6   7
ATOM      7  C   UNL     1      -5.147  -3.963   5.482  1.00  0.00     0.129 C 
ATOM      8  O   UNL     1      -3.977  -4.151   5.780  1.00  0.00    -0.300 OA
ATOM      9  C   UNL     1      -5.819  -2.697   5.925  1.00  0.00     0.087 C 
ENDBRANCH   6   7
ENDBRANCH   5   6
ENDBRANCH   1   5
TORSDOF 5
ENDMDL
MODEL 8
REMARK VINA RESULT:    -3.201     13.764     15.662
REMARK INTER + INTRA:          -4.448
REMARK INTER:                  -4.038
REMARK INTRA:                  -0.411
REMARK UNBOUND:                -0.311
REMARK SMILES CCCCCCC(C)=O
REMARK SMILES IDX 4 1 3 2 2 3 1 4 5 5 6 6 7 7 9 8 8 9
REMARK H PARENT
REMARK Flexibility Score: inf
ROOT
ATOM      1  C   UNL     1      -0.461   8.308   6.278  1.00  0.00     0.000 C 
ENDROOT
BRANCH   1   2
ATOM      2  C   UNL     1      -1.819   9.012   6.092  1.00  0.00    -0.000 C 
BRANCH   2   3
ATOM      3  C   UNL     1      -3.010   8.231   6.687  1.00  0.00    -0.003 C 
ATOM      4  C   UNL     1      -3.983   7.738   5.616  1.00  0.00     0.004 C 
ENDBRANCH   2   3
ENDBRANCH   1   2
BRANCH   1   5
ATOM      5  C   UNL     1      -0.436   6.825   5.865  1.00  0.00     0.008 C 
BRANCH   5   6
ATOM      6  C   UNL     1       0.502   6.514   4.686  1.00  0.00     0.075 C 
BRANCH   6   7
ATOM      7  C   UNL     1      -0.259   6.152   3.437  1.00  0.00     0.129 C 
ATOM      8  O   UNL     1      -0.054   5.076   2.897  1.00  0.00    -0.300 OA
ATOM      9  C   UNL     1      -1.274   7.085   2.844  1.00  0.00     0.087 C 
ENDBRANCH   6   7
ENDBRANCH   5   6
ENDBRANCH   1   5
TORSDOF 5
ENDMDL
MODEL 9
REMARK VINA RESULT:    -3.191     13.725     15.723
REMARK INTER + INTRA:          -4.435
REMARK INTER:                  -4.068
REMARK INTRA:                  -0.367
REMARK UNBOUND:                -0.311
REMARK SMILES CCCCCCC(C)=O
REMARK SMILES IDX 4 1 3 2 2 3 1 4 5 5 6 6 7 7 9 8 8 9
REMARK H PARENT
REMARK Flexibility Score: inf
ROOT
ATOM      1  C   UNL     1       0.598   6.716   4.987  1.00  0.00     0.000 C 
ENDROOT
BRANCH   1   2
ATOM      2  C   UNL     1      -0.858   6.558   4.509  1.00  0.00    -0.000 C 
BRANCH   2   3
ATOM      3  C   UNL     1      -1.006   6.497   2.974  1.00  0.00    -0.003 C 
ATOM      4  C   UNL     1      -0.679   5.115   2.407  1.00  0.00     0.004 C 
ENDBRANCH   2   3
ENDBRANCH   1   2
BRANCH   1   5
ATOM      5  C   UNL     1       0.954   8.110   5.535  1.00  0.00     0.008 C 
BRANCH   5   6
ATOM      6  C   UNL     1       1.631   9.037   4.511  1.00  0.00     0.075 C 
BRANCH   6   7
ATOM      7  C   UNL     1       0.632   9.887   3.770  1.00  0.00     0.129 C 
ATOM      8  O   UNL     1      -0.468  10.091   4.261  1.00  0.00    -0.300 OA
ATOM      9  C   UNL     1       0.961  10.497   2.440  1.00  0.00     0.087 C 
ENDBRANCH   6   7
ENDBRANCH   5   6
ENDBRANCH   1   5
TORSDOF 5
ENDMDL
