MODEL 1
REMARK VINA RESULT:    -6.372      0.000      0.000
REMARK INTER + INTRA:          -7.599
REMARK INTER:                  -7.304
REMARK INTRA:                  -0.295
REMARK UNBOUND:                -0.295
REMARK SMILES O=C1C[C@H](c2ccc(O)cc2)Oc2cc(O)cc(O)c21
REMARK SMILES IDX 3 1 4 2 12 3 13 4 14 5 15 6 17 7 18 8 20 9 2 10 1 11 5 12
REMARK SMILES IDX 6 13 11 14 7 15 10 16 8 17 9 18 19 20 16 22
REMARK H PARENT 9 19 19 21 16 23
REMARK Flexibility Score: inf
ROOT
ATOM      1  C   UNL     1      14.182 -21.216  13.334  1.00  0.00     0.131 C 
ATOM      2  C   UNL     1      15.474 -20.642  12.739  1.00  0.00     0.211 C 
ATOM      3  O   UNL     1      15.442 -19.216  12.783  1.00  0.00    -0.484 OA
ATOM      4  C   UNL     1      14.308 -18.493  12.395  1.00  0.00     0.138 A 
ATOM      5  C   UNL     1      14.433 -17.123  12.152  1.00  0.00     0.093 A 
ATOM      6  C   UNL     1      13.330 -16.378  11.739  1.00  0.00     0.123 A 
ATOM      7  C   UNL     1      12.097 -17.010  11.553  1.00  0.00     0.093 A 
ATOM      8  C   UNL     1      11.949 -18.383  11.784  1.00  0.00     0.133 A 
ATOM      9  C   UNL     1      13.057 -19.138  12.263  1.00  0.00     0.102 A 
ATOM     10  C   UNL     1      12.979 -20.557  12.718  1.00  0.00     0.174 C 
ATOM     11  O   UNL     1      11.896 -21.197  12.707  1.00  0.00    -0.294 OA
ENDROOT
BRANCH   2  12
ATOM     12  C   UNL     1      16.682 -21.157  13.484  1.00  0.00    -0.007 A 
ATOM     13  C   UNL     1      16.520 -21.977  14.613  1.00  0.00     0.011 A 
ATOM     14  C   UNL     1      17.979 -20.779  13.092  1.00  0.00     0.011 A 
ATOM     15  C   UNL     1      17.635 -22.431  15.323  1.00  0.00     0.046 A 
ATOM     16  C   UNL     1      19.092 -21.235  13.804  1.00  0.00     0.046 A 
ATOM     17  C   UNL     1      18.925 -22.062  14.918  1.00  0.00     0.115 A 
BRANCH  17  18
ATOM     18  O   UNL     1      20.045 -22.509  15.617  1.00  0.00    -0.508 OA
ATOM     19  H   UNL     1      20.202 -23.495  15.789  1.00  0.00     0.293 HD
ENDBRANCH  17  18
ENDBRANCH   2  12
BRANCH   8  20
ATOM     20  O   UNL     1      10.696 -18.938  11.509  1.00  0.00    -0.507 OA
ATOM     21  H   UNL     1       9.817 -18.533  11.791  1.00  0.00     0.293 HD
ENDBRANCH   8  20
BRANCH   6  22
ATOM     22  O   UNL     1      13.473 -15.012  11.506  1.00  0.00    -0.508 OA
ATOM     23  H   UNL     1      13.994 -14.418  12.140  1.00  0.00     0.293 HD
ENDBRANCH   6  22
TORSDOF 4
ENDMDL
MODEL 2
REMARK VINA RESULT:    -6.100     17.125     18.375
REMARK INTER + INTRA:          -7.287
REMARK INTER:                  -7.003
REMARK INTRA:                  -0.284
REMARK UNBOUND:                -0.295
REMARK SMILES O=C1C[C@H](c2ccc(O)cc2)Oc2cc(O)cc(O)c21
REMARK SMILES IDX 3 1 4 2 12 3 13 4 14 5 15 6 17 7 18 8 20 9 2 10 1 11 5 12
REMARK SMILES IDX 6 13 11 14 7 15 10 16 8 17 9 18 19 20 16 22
REMARK H PARENT 9 19 19 21 16 23
REMARK Flexibility Score: inf
ROOT
ATOM      1  C   UNL     1      22.602  -7.228  24.834  1.00  0.00     0.131 C 
ATOM      2  C   UNL     1      21.264  -7.897  24.495  1.00  0.00     0.211 C 
ATOM      3  O   UNL     1      20.454  -7.010  23.725  1.00  0.00    -0.484 OA
ATOM      4  C   UNL     1      20.304  -5.663  24.071  1.00  0.00     0.138 A 
ATOM      5  C   UNL     1      19.267  -4.929  23.491  1.00  0.00     0.093 A 
ATOM      6  C   UNL     1      19.073  -3.593  23.832  1.00  0.00     0.123 A 
ATOM      7  C   UNL     1      19.911  -2.989  24.773  1.00  0.00     0.093 A 
ATOM      8  C   UNL     1      20.953  -3.705  25.374  1.00  0.00     0.133 A 
ATOM      9  C   UNL     1      21.193  -5.054  24.986  1.00  0.00     0.102 A 
ATOM     10  C   UNL     1      22.375  -5.859  25.414  1.00  0.00     0.174 C 
ATOM     11  O   UNL     1      23.262  -5.383  26.169  1.00  0.00    -0.294 OA
ENDROOT
BRANCH   2  12
ATOM     12  C   UNL     1      21.485  -9.186  23.740  1.00  0.00    -0.007 A 
ATOM     13  C   UNL     1      22.447  -9.250  22.718  1.00  0.00     0.011 A 
ATOM     14  C   UNL     1      20.695 -10.318  24.010  1.00  0.00     0.011 A 
ATOM     15  C   UNL     1      22.634 -10.433  21.996  1.00  0.00     0.046 A 
ATOM     16  C   UNL     1      20.885 -11.499  23.286  1.00  0.00     0.046 A 
ATOM     17  C   UNL     1      21.853 -11.560  22.280  1.00  0.00     0.115 A 
BRANCH  17  18
ATOM     18  O   UNL     1      22.031 -12.745  21.568  1.00  0.00    -0.508 OA
ATOM     19  H   UNL     1      22.574 -12.772  20.714  1.00  0.00     0.293 HD
ENDBRANCH  17  18
ENDBRANCH   2  12
BRANCH   8  20
ATOM     20  O   UNL     1      21.698  -3.037  26.351  1.00  0.00    -0.507 OA
ATOM     21  H   UNL     1      21.800  -2.037  26.406  1.00  0.00     0.293 HD
ENDBRANCH   8  20
BRANCH   6  22
ATOM     22  O   UNL     1      18.036  -2.875  23.238  1.00  0.00    -0.508 OA
ATOM     23  H   UNL     1      17.164  -2.704  23.725  1.00  0.00     0.293 HD
ENDBRANCH   6  22
TORSDOF 4
ENDMDL
MODEL 3
REMARK VINA RESULT:    -5.986      2.165      3.656
REMARK INTER + INTRA:          -7.156
REMARK INTER:                  -6.849
REMARK INTRA:                  -0.307
REMARK UNBOUND:                -0.295
REMARK SMILES O=C1C[C@H](c2ccc(O)cc2)Oc2cc(O)cc(O)c21
REMARK SMILES IDX 3 1 4 2 12 3 13 4 14 5 15 6 17 7 18 8 20 9 2 10 1 11 5 12
REMARK SMILES IDX 6 13 11 14 7 15 10 16 8 17 9 18 19 20 16 22
REMARK H PARENT 9 19 19 21 16 23
REMARK Flexibility Score: inf
ROOT
ATOM      1  C   UNL     1      14.792 -18.068  11.964  1.00  0.00     0.131 C 
ATOM      2  C   UNL     1      14.809 -19.486  12.548  1.00  0.00     0.211 C 
ATOM      3  O   UNL     1      13.638 -20.196  12.147  1.00  0.00    -0.484 OA
ATOM      4  C   UNL     1      12.368 -19.612  12.201  1.00  0.00     0.138 A 
ATOM      5  C   UNL     1      11.243 -20.435  12.108  1.00  0.00     0.093 A 
ATOM      6  C   UNL     1       9.964 -19.889  12.185  1.00  0.00     0.123 A 
ATOM      7  C   UNL     1       9.807 -18.513  12.372  1.00  0.00     0.093 A 
ATOM      8  C   UNL     1      10.919 -17.668  12.475  1.00  0.00     0.133 A 
ATOM      9  C   UNL     1      12.228 -18.212  12.338  1.00  0.00     0.102 A 
ATOM     10  C   UNL     1      13.475 -17.397  12.245  1.00  0.00     0.174 C 
ATOM     11  O   UNL     1      13.450 -16.140  12.284  1.00  0.00    -0.294 OA
ENDROOT
BRANCH   2  12
ATOM     12  C   UNL     1      16.046 -20.232  12.109  1.00  0.00    -0.007 A 
ATOM     13  C   UNL     1      17.304 -19.882  12.627  1.00  0.00     0.011 A 
ATOM     14  C   UNL     1      15.962 -21.246  11.137  1.00  0.00     0.011 A 
ATOM     15  C   UNL     1      18.455 -20.550  12.200  1.00  0.00     0.046 A 
ATOM     16  C   UNL     1      17.116 -21.912  10.712  1.00  0.00     0.046 A 
ATOM     17  C   UNL     1      18.363 -21.568  11.242  1.00  0.00     0.115 A 
BRANCH  17  18
ATOM     18  O   UNL     1      19.504 -22.242  10.809  1.00  0.00    -0.508 OA
ATOM     19  H   UNL     1      20.421 -22.017  11.174  1.00  0.00     0.293 HD
ENDBRANCH  17  18
ENDBRANCH   2  12
BRANCH   8  20
ATOM     20  O   UNL     1      10.665 -16.317  12.726  1.00  0.00    -0.507 OA
ATOM     21  H   UNL     1      10.531 -15.618  12.012  1.00  0.00     0.293 HD
ENDBRANCH   8  20
BRANCH   6  22
ATOM     22  O   UNL     1       8.853 -20.725  12.085  1.00  0.00    -0.508 OA
ATOM     23  H   UNL     1       8.202 -20.834  12.853  1.00  0.00     0.293 HD
ENDBRANCH   6  22
TORSDOF 4
ENDMDL
MODEL 4
REMARK VINA RESULT:    -5.894      3.046      4.553
REMARK INTER + INTRA:          -7.050
REMARK INTER:                  -6.739
REMARK INTRA:                  -0.311
REMARK UNBOUND:                -0.295
REMARK SMILES O=C1C[C@H](c2ccc(O)cc2)Oc2cc(O)cc(O)c21
REMARK SMILES IDX 3 1 4 2 12 3 13 4 14 5 15 6 17 7 18 8 20 9 2 10 1 11 5 12
REMARK SMILES IDX 6 13 11 14 7 15 10 16 8 17 9 18 19 20 16 22
REMARK H PARENT 9 19 19 21 16 23
REMARK Flexibility Score: inf
ROOT
ATOM      1  C   UNL     1      14.560 -21.468  11.856  1.00  0.00     0.131 C 
ATOM      2  C   UNL     1      15.739 -21.366  12.833  1.00  0.00     0.211 C 
ATOM      3  O   UNL     1      15.481 -22.150  13.996  1.00  0.00    -0.484 OA
ATOM      4  C   UNL     1      14.243 -22.114  14.648  1.00  0.00     0.138 A 
ATOM      5  C   UNL     1      14.147 -22.637  15.940  1.00  0.00     0.093 A 
ATOM      6  C   UNL     1      12.936 -22.594  16.628  1.00  0.00     0.123 A 
ATOM      7  C   UNL     1      11.818 -22.008  16.028  1.00  0.00     0.093 A 
ATOM      8  C   UNL     1      11.891 -21.472  14.736  1.00  0.00     0.133 A 
ATOM      9  C   UNL     1      13.110 -21.566  14.006  1.00  0.00     0.102 A 
ATOM     10  C   UNL     1      13.262 -21.199  12.567  1.00  0.00     0.174 C 
ATOM     11  O   UNL     1      12.294 -20.771  11.887  1.00  0.00    -0.294 OA
ENDROOT
BRANCH   2  12
ATOM     12  C   UNL     1      17.020 -21.819  12.175  1.00  0.00    -0.007 A 
ATOM     13  C   UNL     1      18.020 -22.449  12.935  1.00  0.00     0.011 A 
ATOM     14  C   UNL     1      17.253 -21.567  10.811  1.00  0.00     0.011 A 
ATOM     15  C   UNL     1      19.221 -22.843  12.337  1.00  0.00     0.046 A 
ATOM     16  C   UNL     1      18.455 -21.962  10.216  1.00  0.00     0.046 A 
ATOM     17  C   UNL     1      19.440 -22.601  10.974  1.00  0.00     0.115 A 
BRANCH  17  18
ATOM     18  O   UNL     1      20.632 -22.989  10.366  1.00  0.00    -0.508 OA
ATOM     19  H   UNL     1      20.644 -23.654   9.603  1.00  0.00     0.293 HD
ENDBRANCH  17  18
ENDBRANCH   2  12
BRANCH   8  20
ATOM     20  O   UNL     1      10.740 -20.850  14.245  1.00  0.00    -0.507 OA
ATOM     21  H   UNL     1      10.719 -20.235  13.447  1.00  0.00     0.293 HD
ENDBRANCH   8  20
BRANCH   6  22
ATOM     22  O   UNL     1      12.857 -23.125  17.914  1.00  0.00    -0.508 OA
ATOM     23  H   UNL     1      12.992 -24.114  18.088  1.00  0.00     0.293 HD
ENDBRANCH   6  22
TORSDOF 4
ENDMDL
MODEL 5
REMARK VINA RESULT:    -5.517      3.078      6.394
REMARK INTER + INTRA:          -6.619
REMARK INTER:                  -6.306
REMARK INTRA:                  -0.312
REMARK UNBOUND:                -0.295
REMARK SMILES O=C1C[C@H](c2ccc(O)cc2)Oc2cc(O)cc(O)c21
REMARK SMILES IDX 3 1 4 2 12 3 13 4 14 5 15 6 17 7 18 8 20 9 2 10 1 11 5 12
REMARK SMILES IDX 6 13 11 14 7 15 10 16 8 17 9 18 19 20 16 22
REMARK H PARENT 9 19 19 21 16 23
REMARK Flexibility Score: inf
ROOT
ATOM      1  C   UNL     1      12.994 -20.722  11.912  1.00  0.00     0.131 C 
ATOM      2  C   UNL     1      11.660 -20.024  12.209  1.00  0.00     0.211 C 
ATOM      3  O   UNL     1      11.671 -18.700  11.679  1.00  0.00    -0.484 OA
ATOM      4  C   UNL     1      12.768 -17.848  11.848  1.00  0.00     0.138 A 
ATOM      5  C   UNL     1      12.606 -16.483  11.599  1.00  0.00     0.093 A 
ATOM      6  C   UNL     1      13.671 -15.603  11.782  1.00  0.00     0.123 A 
ATOM      7  C   UNL     1      14.901 -16.088  12.234  1.00  0.00     0.093 A 
ATOM      8  C   UNL     1      15.086 -17.451  12.496  1.00  0.00     0.133 A 
ATOM      9  C   UNL     1      14.020 -18.363  12.254  1.00  0.00     0.102 A 
ATOM     10  C   UNL     1      14.148 -19.849  12.320  1.00  0.00     0.174 C 
ATOM     11  O   UNL     1      15.240 -20.407  12.603  1.00  0.00    -0.294 OA
ENDROOT
BRANCH   2  12
ATOM     12  C   UNL     1      10.505 -20.806  11.631  1.00  0.00    -0.007 A 
ATOM     13  C   UNL     1      10.646 -22.178  11.359  1.00  0.00     0.011 A 
ATOM     14  C   UNL     1       9.298 -20.163  11.306  1.00  0.00     0.011 A 
ATOM     15  C   UNL     1       9.589 -22.899  10.795  1.00  0.00     0.046 A 
ATOM     16  C   UNL     1       8.243 -20.888  10.742  1.00  0.00     0.046 A 
ATOM     17  C   UNL     1       8.384 -22.254  10.487  1.00  0.00     0.115 A 
BRANCH  17  18
ATOM     18  O   UNL     1       7.323 -22.963   9.926  1.00  0.00    -0.508 OA
ATOM     19  H   UNL     1       7.270 -23.972   9.987  1.00  0.00     0.293 HD
ENDBRANCH  17  18
ENDBRANCH   2  12
BRANCH   8  20
ATOM     20  O   UNL     1      16.330 -17.833  13.006  1.00  0.00    -0.507 OA
ATOM     21  H   UNL     1      16.519 -18.716  13.451  1.00  0.00     0.293 HD
ENDBRANCH   8  20
BRANCH   6  22
ATOM     22  O   UNL     1      13.492 -14.245  11.523  1.00  0.00    -0.508 OA
ATOM     23  H   UNL     1      14.245 -13.671  11.165  1.00  0.00     0.293 HD
ENDBRANCH   6  22
TORSDOF 4
ENDMDL
MODEL 6
REMARK VINA RESULT:    -5.436      2.019      2.568
REMARK INTER + INTRA:          -6.525
REMARK INTER:                  -6.235
REMARK INTRA:                  -0.290
REMARK UNBOUND:                -0.295
REMARK SMILES O=C1C[C@H](c2ccc(O)cc2)Oc2cc(O)cc(O)c21
REMARK SMILES IDX 3 1 4 2 12 3 13 4 14 5 15 6 17 7 18 8 20 9 2 10 1 11 5 12
REMARK SMILES IDX 6 13 11 14 7 15 10 16 8 17 9 18 19 20 16 22
REMARK H PARENT 9 19 19 21 16 23
REMARK Flexibility Score: inf
ROOT
ATOM      1  C   UNL     1      13.559 -21.573  12.535  1.00  0.00     0.131 C 
ATOM      2  C   UNL     1      14.242 -20.660  11.508  1.00  0.00     0.211 C 
ATOM      3  O   UNL     1      13.948 -19.294  11.795  1.00  0.00    -0.484 OA
ATOM      4  C   UNL     1      12.652 -18.869  12.107  1.00  0.00     0.138 A 
ATOM      5  C   UNL     1      12.360 -17.504  12.062  1.00  0.00     0.093 A 
ATOM      6  C   UNL     1      11.074 -17.049  12.342  1.00  0.00     0.123 A 
ATOM      7  C   UNL     1      10.066 -17.967  12.653  1.00  0.00     0.093 A 
ATOM      8  C   UNL     1      10.332 -19.341  12.698  1.00  0.00     0.133 A 
ATOM      9  C   UNL     1      11.659 -19.807  12.471  1.00  0.00     0.102 A 
ATOM     10  C   UNL     1      12.104 -21.218  12.670  1.00  0.00     0.174 C 
ATOM     11  O   UNL     1      11.312 -22.113  13.062  1.00  0.00    -0.294 OA
ENDROOT
BRANCH   2  12
ATOM     12  C   UNL     1      15.736 -20.880  11.505  1.00  0.00    -0.007 A 
ATOM     13  C   UNL     1      16.343 -21.594  10.458  1.00  0.00     0.011 A 
ATOM     14  C   UNL     1      16.529 -20.425  12.574  1.00  0.00     0.011 A 
ATOM     15  C   UNL     1      17.721 -21.826  10.466  1.00  0.00     0.046 A 
ATOM     16  C   UNL     1      17.907 -20.660  12.579  1.00  0.00     0.046 A 
ATOM     17  C   UNL     1      18.507 -21.358  11.527  1.00  0.00     0.115 A 
BRANCH  17  18
ATOM     18  O   UNL     1      19.882 -21.583  11.546  1.00  0.00    -0.508 OA
ATOM     19  H   UNL     1      20.351 -22.057  10.784  1.00  0.00     0.293 HD
ENDBRANCH  17  18
ENDBRANCH   2  12
BRANCH   8  20
ATOM     20  O   UNL     1       9.249 -20.186  12.953  1.00  0.00    -0.507 OA
ATOM     21  H   UNL     1       8.317 -19.871  13.170  1.00  0.00     0.293 HD
ENDBRANCH   8  20
BRANCH   6  22
ATOM     22  O   UNL     1      10.802 -15.683  12.297  1.00  0.00    -0.508 OA
ATOM     23  H   UNL     1       9.856 -15.329  12.364  1.00  0.00     0.293 HD
ENDBRANCH   6  22
TORSDOF 4
ENDMDL
MODEL 7
REMARK VINA RESULT:    -5.417      2.882      3.718
REMARK INTER + INTRA:          -6.504
REMARK INTER:                  -6.192
REMARK INTRA:                  -0.312
REMARK UNBOUND:                -0.295
REMARK SMILES O=C1C[C@H](c2ccc(O)cc2)Oc2cc(O)cc(O)c21
REMARK SMILES IDX 3 1 4 2 12 3 13 4 14 5 15 6 17 7 18 8 20 9 2 10 1 11 5 12
REMARK SMILES IDX 6 13 11 14 7 15 10 16 8 17 9 18 19 20 16 22
REMARK H PARENT 9 19 19 21 16 23
REMARK Flexibility Score: inf
ROOT
ATOM      1  C   UNL     1      14.984 -22.152  14.433  1.00  0.00     0.131 C 
ATOM      2  C   UNL     1      14.953 -22.380  12.916  1.00  0.00     0.211 C 
ATOM      3  O   UNL     1      14.101 -21.421  12.294  1.00  0.00    -0.484 OA
ATOM      4  C   UNL     1      12.839 -21.111  12.813  1.00  0.00     0.138 A 
ATOM      5  C   UNL     1      11.929 -20.422  12.007  1.00  0.00     0.093 A 
ATOM      6  C   UNL     1      10.655 -20.120  12.483  1.00  0.00     0.123 A 
ATOM      7  C   UNL     1      10.281 -20.524  13.767  1.00  0.00     0.093 A 
ATOM      8  C   UNL     1      11.173 -21.221  14.592  1.00  0.00     0.133 A 
ATOM      9  C   UNL     1      12.496 -21.480  14.133  1.00  0.00     0.102 A 
ATOM     10  C   UNL     1      13.587 -22.047  14.979  1.00  0.00     0.174 C 
ATOM     11  O   UNL     1      13.402 -22.342  16.188  1.00  0.00    -0.294 OA
ENDROOT
BRANCH   2  12
ATOM     12  C   UNL     1      16.343 -22.297  12.333  1.00  0.00    -0.007 A 
ATOM     13  C   UNL     1      16.540 -21.752  11.052  1.00  0.00     0.011 A 
ATOM     14  C   UNL     1      17.447 -22.811  13.036  1.00  0.00     0.011 A 
ATOM     15  C   UNL     1      17.822 -21.700  10.496  1.00  0.00     0.046 A 
ATOM     16  C   UNL     1      18.727 -22.758  12.476  1.00  0.00     0.046 A 
ATOM     17  C   UNL     1      18.918 -22.203  11.208  1.00  0.00     0.115 A 
BRANCH  17  18
ATOM     18  O   UNL     1      20.201 -22.156  10.664  1.00  0.00    -0.508 OA
ATOM     19  H   UNL     1      20.350 -22.157   9.663  1.00  0.00     0.293 HD
ENDBRANCH  17  18
ENDBRANCH   2  12
BRANCH   8  20
ATOM     20  O   UNL     1      10.689 -21.639  15.834  1.00  0.00    -0.507 OA
ATOM     21  H   UNL     1      10.332 -22.561  16.028  1.00  0.00     0.293 HD
ENDBRANCH   8  20
BRANCH   6  22
ATOM     22  O   UNL     1       9.763 -19.427  11.666  1.00  0.00    -0.508 OA
ATOM     23  H   UNL     1       9.966 -18.493  11.333  1.00  0.00     0.293 HD
ENDBRANCH   6  22
TORSDOF 4
ENDMDL
MODEL 8
REMARK VINA RESULT:    -5.411      2.405      7.252
REMARK INTER + INTRA:          -6.497
REMARK INTER:                  -6.218
REMARK INTRA:                  -0.279
REMARK UNBOUND:                -0.295
REMARK SMILES O=C1C[C@H](c2ccc(O)cc2)Oc2cc(O)cc(O)c21
REMARK SMILES IDX 3 1 4 2 12 3 13 4 14 5 15 6 17 7 18 8 20 9 2 10 1 11 5 12
REMARK SMILES IDX 6 13 11 14 7 15 10 16 8 17 9 18 19 20 16 22
REMARK H PARENT 9 19 19 21 16 23
REMARK Flexibility Score: inf
ROOT
ATOM      1  C   UNL     1      12.750 -18.270  11.999  1.00  0.00     0.131 C 
ATOM      2  C   UNL     1      12.409 -19.624  11.364  1.00  0.00     0.211 C 
ATOM      3  O   UNL     1      12.983 -20.682  12.130  1.00  0.00    -0.484 OA
ATOM      4  C   UNL     1      14.303 -20.626  12.589  1.00  0.00     0.138 A 
ATOM      5  C   UNL     1      14.910 -21.799  13.044  1.00  0.00     0.093 A 
ATOM      6  C   UNL     1      16.231 -21.784  13.484  1.00  0.00     0.123 A 
ATOM      7  C   UNL     1      16.958 -20.590  13.453  1.00  0.00     0.093 A 
ATOM      8  C   UNL     1      16.375 -19.403  12.995  1.00  0.00     0.133 A 
ATOM      9  C   UNL     1      15.007 -19.400  12.600  1.00  0.00     0.102 A 
ATOM     10  C   UNL     1      14.226 -18.171  12.270  1.00  0.00     0.174 C 
ATOM     11  O   UNL     1      14.741 -17.025  12.321  1.00  0.00    -0.294 OA
ENDROOT
BRANCH   2  12
ATOM     12  C   UNL     1      10.913 -19.808  11.264  1.00  0.00    -0.007 A 
ATOM     13  C   UNL     1      10.361 -20.542  10.201  1.00  0.00     0.011 A 
ATOM     14  C   UNL     1      10.054 -19.203  12.199  1.00  0.00     0.011 A 
ATOM     15  C   UNL     1       8.976 -20.689  10.087  1.00  0.00     0.046 A 
ATOM     16  C   UNL     1       8.668 -19.352  12.082  1.00  0.00     0.046 A 
ATOM     17  C   UNL     1       8.126 -20.095  11.030  1.00  0.00     0.115 A 
BRANCH  17  18
ATOM     18  O   UNL     1       6.743 -20.235  10.928  1.00  0.00    -0.508 OA
ATOM     19  H   UNL     1       6.299 -21.144  10.976  1.00  0.00     0.293 HD
ENDBRANCH  17  18
ENDBRANCH   2  12
BRANCH   8  20
ATOM     20  O   UNL     1      17.198 -18.275  12.941  1.00  0.00    -0.507 OA
ATOM     21  H   UNL     1      17.694 -17.890  13.729  1.00  0.00     0.293 HD
ENDBRANCH   8  20
BRANCH   6  22
ATOM     22  O   UNL     1      16.818 -22.963  13.939  1.00  0.00    -0.508 OA
ATOM     23  H   UNL     1      17.679 -23.315  13.538  1.00  0.00     0.293 HD
ENDBRANCH   6  22
TORSDOF 4
ENDMDL
MODEL 9
REMARK VINA RESULT:    -4.024      3.161      6.642
REMARK INTER + INTRA:          -4.907
REMARK INTER:                  -4.624
REMARK INTRA:                  -0.283
REMARK UNBOUND:                -0.295
REMARK SMILES O=C1C[C@H](c2ccc(O)cc2)Oc2cc(O)cc(O)c21
REMARK SMILES IDX 3 1 4 2 12 3 13 4 14 5 15 6 17 7 18 8 20 9 2 10 1 11 5 12
REMARK SMILES IDX 6 13 11 14 7 15 10 16 8 17 9 18 19 20 16 22
REMARK H PARENT 9 19 19 21 16 23
REMARK Flexibility Score: inf
ROOT
ATOM      1  C   UNL     1      14.879 -22.313  14.994  1.00  0.00     0.131 C 
ATOM      2  C   UNL     1      14.051 -21.451  14.033  1.00  0.00     0.211 C 
ATOM      3  O   UNL     1      14.473 -21.672  12.689  1.00  0.00    -0.484 OA
ATOM      4  C   UNL     1      15.828 -21.709  12.339  1.00  0.00     0.138 A 
ATOM      5  C   UNL     1      16.179 -21.605  10.992  1.00  0.00     0.093 A 
ATOM      6  C   UNL     1      17.519 -21.613  10.611  1.00  0.00     0.123 A 
ATOM      7  C   UNL     1      18.516 -21.708  11.586  1.00  0.00     0.093 A 
ATOM      8  C   UNL     1      18.189 -21.807  12.944  1.00  0.00     0.133 A 
ATOM      9  C   UNL     1      16.821 -21.859  13.334  1.00  0.00     0.102 A 
ATOM     10  C   UNL     1      16.348 -22.145  14.721  1.00  0.00     0.174 C 
ATOM     11  O   UNL     1      17.153 -22.364  15.662  1.00  0.00    -0.294 OA
ENDROOT
BRANCH   2  12
ATOM     12  C   UNL     1      12.579 -21.756  14.172  1.00  0.00    -0.007 A 
ATOM     13  C   UNL     1      11.622 -20.900  13.600  1.00  0.00     0.011 A 
ATOM     14  C   UNL     1      12.145 -22.865  14.920  1.00  0.00     0.011 A 
ATOM     15  C   UNL     1      10.258 -21.163  13.752  1.00  0.00     0.046 A 
ATOM     16  C   UNL     1      10.779 -23.125  15.070  1.00  0.00     0.046 A 
ATOM     17  C   UNL     1       9.834 -22.277  14.487  1.00  0.00     0.115 A 
BRANCH  17  18
ATOM     18  O   UNL     1       8.476 -22.550  14.645  1.00  0.00    -0.508 OA
ATOM     19  H   UNL     1       8.017 -22.448  15.542  1.00  0.00     0.293 HD
ENDBRANCH  17  18
ENDBRANCH   2  12
BRANCH   8  20
ATOM     20  O   UNL     1      19.253 -21.832  13.849  1.00  0.00    -0.507 OA
ATOM     21  H   UNL     1      20.226 -21.863  13.588  1.00  0.00     0.293 HD
ENDBRANCH   8  20
BRANCH   6  22
ATOM     22  O   UNL     1      17.851 -21.513   9.261  1.00  0.00    -0.508 OA
ATOM     23  H   UNL     1      17.475 -22.156   8.575  1.00  0.00     0.293 HD
ENDBRANCH   6  22
TORSDOF 4
ENDMDL
