MODEL 1
REMARK VINA RESULT:    18.997      0.000      0.000
REMARK INTER + INTRA:          27.170
REMARK INTER:                  25.660
REMARK INTRA:                   1.510
REMARK UNBOUND:                 1.510
REMARK SMILES CC[C@@H](CC[C@H](C)[C@@H]1CC[C@@H]2[C@@H]3CC(=O)C4=CC(=O)CC[C@@]4(C)[C@H]3CC[C@@]21C)C(C)C
REMARK SMILES IDX 4 1 3 2 2 3 1 4 29 5 30 6 31 7 5 8 6 9 7 10 8 11 9 12 27 13
REMARK SMILES IDX 10 14 11 15 26 16 28 17 12 18 25 19 24 20 13 21 22 22 14 23
REMARK SMILES IDX 16 24 21 25 23 26 15 27 17 28 20 29 18 30 19 31
REMARK H PARENT
REMARK Flexibility Score: inf
ROOT
ATOM      1  C   UNL     1       8.542  30.917 -23.942  1.00  0.00     0.004 C 
ENDROOT
BRANCH   1   2
ATOM      2  C   UNL     1       7.609  31.690 -24.918  1.00  0.00    -0.009 C 
BRANCH   2   3
ATOM      3  C   UNL     1       6.452  32.372 -24.135  1.00  0.00     0.000 C 
ATOM      4  C   UNL     1       5.789  33.531 -24.881  1.00  0.00     0.004 C 
ENDBRANCH   2   3
BRANCH   2   5
ATOM      5  C   UNL     1       7.103  30.787 -26.095  1.00  0.00    -0.014 C 
ATOM      6  C   UNL     1       7.802  29.417 -26.125  1.00  0.00     0.007 C 
ATOM      7  C   UNL     1       5.576  30.603 -26.117  1.00  0.00     0.007 C 
ENDBRANCH   2   5
ENDBRANCH   1   2
BRANCH   1   8
ATOM      8  C   UNL     1       9.989  30.782 -24.462  1.00  0.00     0.004 C 
BRANCH   8   9
ATOM      9  C   UNL     1      11.059  31.339 -23.484  1.00  0.00    -0.011 C 
ATOM     10  C   UNL     1      12.341  30.480 -23.517  1.00  0.00     0.008 C 
BRANCH   9  11
ATOM     11  C   UNL     1      10.556  31.494 -21.992  1.00  0.00    -0.002 C 
ATOM     12  C   UNL     1       9.135  32.037 -21.754  1.00  0.00     0.005 C 
ATOM     13  C   UNL     1      11.457  32.335 -21.046  1.00  0.00    -0.026 C 
ATOM     14  C   UNL     1       9.132  32.593 -20.328  1.00  0.00     0.005 C 
ATOM     15  C   UNL     1      10.568  32.436 -19.787  1.00  0.00    -0.001 C 
ATOM     16  C   UNL     1      11.733  33.759 -21.622  1.00  0.00     0.007 C 
ATOM     17  C   UNL     1      12.778  31.588 -20.745  1.00  0.00     0.012 C 
ATOM     18  C   UNL     1      11.019  33.501 -18.738  1.00  0.00     0.004 C 
ATOM     19  C   UNL     1      12.290  34.724 -20.574  1.00  0.00     0.005 C 
ATOM     20  C   UNL     1      11.355  34.884 -19.351  1.00  0.00     0.003 C 
ATOM     21  C   UNL     1       9.946  33.658 -17.642  1.00  0.00     0.085 C 
ATOM     22  C   UNL     1      11.889  35.938 -18.270  1.00  0.00    -0.000 C 
ATOM     23  C   UNL     1      10.374  34.619 -16.586  1.00  0.00     0.159 C 
ATOM     24  C   UNL     1      11.487  35.560 -16.831  1.00  0.00     0.005 C 
ATOM     25  C   UNL     1      13.447  36.088 -18.304  1.00  0.00     0.020 C 
ATOM     26  C   UNL     1      11.238  37.307 -18.591  1.00  0.00     0.017 C 
ATOM     27  O   UNL     1       9.761  34.622 -15.483  1.00  0.00    -0.295 OA
ATOM     28  C   UNL     1      12.145  36.068 -15.770  1.00  0.00     0.055 C 
ATOM     29  C   UNL     1      13.993  37.080 -17.265  1.00  0.00     0.081 C 
ATOM     30  C   UNL     1      13.365  36.873 -15.921  1.00  0.00     0.156 C 
ATOM     31  O   UNL     1      13.887  37.403 -14.905  1.00  0.00    -0.295 OA
ENDBRANCH   9  11
ENDBRANCH   8   9
ENDBRANCH   1   8
TORSDOF 6
ENDMDL
MODEL 2
REMARK VINA RESULT:    19.108      4.517      8.638
REMARK INTER + INTRA:          27.320
REMARK INTER:                  26.174
REMARK INTRA:                   1.146
REMARK UNBOUND:                 1.510
REMARK SMILES CC[C@@H](CC[C@H](C)[C@@H]1CC[C@@H]2[C@@H]3CC(=O)C4=CC(=O)CC[C@@]4(C)[C@H]3CC[C@@]21C)C(C)C
REMARK SMILES IDX 4 1 3 2 2 3 1 4 29 5 30 6 31 7 5 8 6 9 7 10 8 11 9 12 27 13
REMARK SMILES IDX 10 14 11 15 26 16 28 17 12 18 25 19 24 20 13 21 22 22 14 23
REMARK SMILES IDX 16 24 21 25 23 26 15 27 17 28 20 29 18 30 19 31
REMARK H PARENT
REMARK Flexibility Score: inf
ROOT
ATOM      1  C   UNL     1       2.755  36.116 -24.804  1.00  0.00     0.004 C 
ENDROOT
BRANCH   1   2
ATOM      2  C   UNL     1       1.483  36.743 -24.164  1.00  0.00    -0.009 C 
BRANCH   2   3
ATOM      3  C   UNL     1       1.033  37.995 -24.970  1.00  0.00     0.000 C 
ATOM      4  C   UNL     1       1.818  39.266 -24.643  1.00  0.00     0.004 C 
ENDBRANCH   2   3
BRANCH   2   5
ATOM      5  C   UNL     1       1.669  37.034 -22.635  1.00  0.00    -0.014 C 
ATOM      6  C   UNL     1       3.147  36.997 -22.208  1.00  0.00     0.007 C 
ATOM      7  C   UNL     1       1.018  38.349 -22.175  1.00  0.00     0.007 C 
ENDBRANCH   2   5
ENDBRANCH   1   2
BRANCH   1   8
ATOM      8  C   UNL     1       2.435  35.056 -25.880  1.00  0.00     0.004 C 
BRANCH   8   9
ATOM      9  C   UNL     1       2.468  33.598 -25.348  1.00  0.00    -0.011 C 
ATOM     10  C   UNL     1       2.555  33.571 -23.808  1.00  0.00     0.008 C 
BRANCH   9  11
ATOM     11  C   UNL     1       3.621  32.708 -25.966  1.00  0.00    -0.002 C 
ATOM     12  C   UNL     1       3.409  31.184 -26.034  1.00  0.00     0.005 C 
ATOM     13  C   UNL     1       5.032  32.876 -25.339  1.00  0.00    -0.026 C 
ATOM     14  C   UNL     1       4.809  30.570 -26.125  1.00  0.00     0.005 C 
ATOM     15  C   UNL     1       5.812  31.737 -26.030  1.00  0.00    -0.001 C 
ATOM     16  C   UNL     1       5.011  32.650 -23.795  1.00  0.00     0.007 C 
ATOM     17  C   UNL     1       5.624  34.261 -25.693  1.00  0.00     0.012 C 
ATOM     18  C   UNL     1       7.195  31.393 -25.391  1.00  0.00     0.004 C 
ATOM     19  C   UNL     1       6.409  32.442 -23.208  1.00  0.00     0.005 C 
ATOM     20  C   UNL     1       7.155  31.247 -23.849  1.00  0.00     0.003 C 
ATOM     21  C   UNL     1       7.773  30.113 -26.026  1.00  0.00     0.085 C 
ATOM     22  C   UNL     1       8.595  30.971 -23.206  1.00  0.00    -0.000 C 
ATOM     23  C   UNL     1       9.125  29.792 -25.486  1.00  0.00     0.159 C 
ATOM     24  C   UNL     1       9.600  30.412 -24.231  1.00  0.00     0.005 C 
ATOM     25  C   UNL     1       9.223  32.261 -22.579  1.00  0.00     0.020 C 
ATOM     26  C   UNL     1       8.416  29.902 -22.098  1.00  0.00     0.017 C 
ATOM     27  O   UNL     1       9.851  28.974 -26.114  1.00  0.00    -0.295 OA
ATOM     28  C   UNL     1      10.928  30.484 -24.012  1.00  0.00     0.055 C 
ATOM     29  C   UNL     1      10.616  32.033 -21.969  1.00  0.00     0.081 C 
ATOM     30  C   UNL     1      11.493  31.230 -22.879  1.00  0.00     0.156 C 
ATOM     31  O   UNL     1      12.733  31.187 -22.666  1.00  0.00    -0.295 OA
ENDBRANCH   9  11
ENDBRANCH   8   9
ENDBRANCH   1   8
TORSDOF 6
ENDMDL
