MODEL 1
REMARK VINA RESULT:    -3.781      0.000      0.000
REMARK INTER + INTRA:          -3.781
REMARK INTER:                  -3.781
REMARK INTRA:                   0.000
REMARK UNBOUND:                 0.000
REMARK SMILES O=c1ccc2ccccc2o1
REMARK SMILES IDX 7 1 8 2 9 3 10 4 5 5 6 6 4 7 3 8 2 9 1 10 11 11
REMARK H PARENT
REMARK Flexibility Score: inf
ROOT
ATOM      1  C   UNL     1       8.304   8.271   1.174  1.00  0.00     0.001 A 
ATOM      2  C   UNL     1       9.590   7.838   0.835  1.00  0.00     0.004 A 
ATOM      3  C   UNL     1      10.094   8.067  -0.449  1.00  0.00     0.048 A 
ATOM      4  C   UNL     1       9.311   8.730  -1.400  1.00  0.00     0.138 A 
ATOM      5  C   UNL     1       8.012   9.168  -1.058  1.00  0.00     0.018 A 
ATOM      6  C   UNL     1       7.513   8.935   0.231  1.00  0.00     0.012 A 
ATOM      7  C   UNL     1       7.252   9.828  -2.029  1.00  0.00     0.019 A 
ATOM      8  C   UNL     1       7.795  10.035  -3.297  1.00  0.00     0.094 A 
ATOM      9  C   UNL     1       9.089   9.575  -3.565  1.00  0.00     0.336 A 
ATOM     10  O   UNL     1       9.595   9.752  -4.704  1.00  0.00    -0.246 OA
ATOM     11  O   UNL     1       9.790   8.949  -2.623  1.00  0.00    -0.423 OA
ENDROOT
TORSDOF 0
ENDMDL
MODEL 2
REMARK VINA RESULT:    -3.732     17.129     18.553
REMARK INTER + INTRA:          -3.732
REMARK INTER:                  -3.732
REMARK INTRA:                   0.000
REMARK UNBOUND:                 0.000
REMARK SMILES O=c1ccc2ccccc2o1
REMARK SMILES IDX 7 1 8 2 9 3 10 4 5 5 6 6 4 7 3 8 2 9 1 10 11 11
REMARK H PARENT
REMARK Flexibility Score: inf
ROOT
ATOM      1  C   UNL     1      -8.030   9.546 -10.452  1.00  0.00     0.001 A 
ATOM      2  C   UNL     1      -6.737   9.251 -10.007  1.00  0.00     0.004 A 
ATOM      3  C   UNL     1      -6.538   8.703  -8.736  1.00  0.00     0.048 A 
ATOM      4  C   UNL     1      -7.633   8.447  -7.904  1.00  0.00     0.138 A 
ATOM      5  C   UNL     1      -8.940   8.744  -8.353  1.00  0.00     0.018 A 
ATOM      6  C   UNL     1      -9.132   9.293  -9.628  1.00  0.00     0.012 A 
ATOM      7  C   UNL     1     -10.015   8.478  -7.500  1.00  0.00     0.019 A 
ATOM      8  C   UNL     1      -9.770   7.930  -6.241  1.00  0.00     0.094 A 
ATOM      9  C   UNL     1      -8.449   7.661  -5.863  1.00  0.00     0.336 A 
ATOM     10  O   UNL     1      -8.208   7.167  -4.731  1.00  0.00    -0.246 OA
ATOM     11  O   UNL     1      -7.443   7.925  -6.694  1.00  0.00    -0.423 OA
ENDROOT
TORSDOF 0
ENDMDL
MODEL 3
REMARK VINA RESULT:    -3.643     24.426     25.207
REMARK INTER + INTRA:          -3.643
REMARK INTER:                  -3.643
REMARK INTRA:                   0.000
REMARK UNBOUND:                 0.000
REMARK SMILES O=c1ccc2ccccc2o1
REMARK SMILES IDX 7 1 8 2 9 3 10 4 5 5 6 6 4 7 3 8 2 9 1 10 11 11
REMARK H PARENT
REMARK Flexibility Score: inf
ROOT
ATOM      1  C   UNL     1      -6.704  -3.372 -13.732  1.00  0.00     0.001 A 
ATOM      2  C   UNL     1      -5.626  -4.172 -14.125  1.00  0.00     0.004 A 
ATOM      3  C   UNL     1      -5.686  -5.560 -13.966  1.00  0.00     0.048 A 
ATOM      4  C   UNL     1      -6.826  -6.153 -13.412  1.00  0.00     0.138 A 
ATOM      5  C   UNL     1      -7.915  -5.345 -13.016  1.00  0.00     0.018 A 
ATOM      6  C   UNL     1      -7.848  -3.954 -13.178  1.00  0.00     0.012 A 
ATOM      7  C   UNL     1      -9.041  -5.965 -12.466  1.00  0.00     0.019 A 
ATOM      8  C   UNL     1      -9.057  -7.353 -12.326  1.00  0.00     0.094 A 
ATOM      9  C   UNL     1      -7.943  -8.090 -12.741  1.00  0.00     0.336 A 
ATOM     10  O   UNL     1      -7.939  -9.343 -12.623  1.00  0.00    -0.246 OA
ATOM     11  O   UNL     1      -6.883  -7.475 -13.261  1.00  0.00    -0.423 OA
ENDROOT
TORSDOF 0
ENDMDL
MODEL 4
REMARK VINA RESULT:    -3.454     17.475     18.487
REMARK INTER + INTRA:          -3.454
REMARK INTER:                  -3.454
REMARK INTRA:                   0.000
REMARK UNBOUND:                 0.000
REMARK SMILES O=c1ccc2ccccc2o1
REMARK SMILES IDX 7 1 8 2 9 3 10 4 5 5 6 6 4 7 3 8 2 9 1 10 11 11
REMARK H PARENT
REMARK Flexibility Score: inf
ROOT
ATOM      1  C   UNL     1      -8.638   7.609  -5.842  1.00  0.00     0.001 A 
ATOM      2  C   UNL     1      -9.891   8.031  -6.298  1.00  0.00     0.004 A 
ATOM      3  C   UNL     1     -10.018   8.628  -7.556  1.00  0.00     0.048 A 
ATOM      4  C   UNL     1      -8.890   8.806  -8.364  1.00  0.00     0.138 A 
ATOM      5  C   UNL     1      -7.624   8.379  -7.905  1.00  0.00     0.018 A 
ATOM      6  C   UNL     1      -7.503   7.781  -6.643  1.00  0.00     0.012 A 
ATOM      7  C   UNL     1      -6.514   8.570  -8.734  1.00  0.00     0.019 A 
ATOM      8  C   UNL     1      -6.688   9.170  -9.981  1.00  0.00     0.094 A 
ATOM      9  C   UNL     1      -7.972   9.567 -10.371  1.00  0.00     0.336 A 
ATOM     10  O   UNL     1      -8.148  10.110 -11.492  1.00  0.00    -0.246 OA
ATOM     11  O   UNL     1      -9.011   9.374  -9.562  1.00  0.00    -0.423 OA
ENDROOT
TORSDOF 0
ENDMDL
MODEL 5
REMARK VINA RESULT:    -3.410     17.119     18.312
REMARK INTER + INTRA:          -3.410
REMARK INTER:                  -3.410
REMARK INTRA:                   0.000
REMARK UNBOUND:                 0.000
REMARK SMILES O=c1ccc2ccccc2o1
REMARK SMILES IDX 7 1 8 2 9 3 10 4 5 5 6 6 4 7 3 8 2 9 1 10 11 11
REMARK H PARENT
REMARK Flexibility Score: inf
ROOT
ATOM      1  C   UNL     1      -9.642   7.776  -7.066  1.00  0.00     0.001 A 
ATOM      2  C   UNL     1      -8.348   7.751  -6.538  1.00  0.00     0.004 A 
ATOM      3  C   UNL     1      -7.272   8.234  -7.289  1.00  0.00     0.048 A 
ATOM      4  C   UNL     1      -7.488   8.746  -8.574  1.00  0.00     0.138 A 
ATOM      5  C   UNL     1      -8.796   8.772  -9.107  1.00  0.00     0.018 A 
ATOM      6  C   UNL     1      -9.870   8.285  -8.349  1.00  0.00     0.012 A 
ATOM      7  C   UNL     1      -8.982   9.289 -10.393  1.00  0.00     0.019 A 
ATOM      8  C   UNL     1      -7.880   9.760 -11.106  1.00  0.00     0.094 A 
ATOM      9  C   UNL     1      -6.613   9.704 -10.514  1.00  0.00     0.336 A 
ATOM     10  O   UNL     1      -5.607  10.125 -11.142  1.00  0.00    -0.246 OA
ATOM     11  O   UNL     1      -6.464   9.207  -9.288  1.00  0.00    -0.423 OA
ENDROOT
TORSDOF 0
ENDMDL
MODEL 6
REMARK VINA RESULT:    -3.298     23.473     24.330
REMARK INTER + INTRA:          -3.298
REMARK INTER:                  -3.298
REMARK INTRA:                   0.000
REMARK UNBOUND:                 0.000
REMARK SMILES O=c1ccc2ccccc2o1
REMARK SMILES IDX 7 1 8 2 9 3 10 4 5 5 6 6 4 7 3 8 2 9 1 10 11 11
REMARK H PARENT
REMARK Flexibility Score: inf
ROOT
ATOM      1  C   UNL     1      -6.425  -6.097 -13.701  1.00  0.00     0.001 A 
ATOM      2  C   UNL     1      -5.614  -5.038 -14.124  1.00  0.00     0.004 A 
ATOM      3  C   UNL     1      -6.108  -3.730 -14.124  1.00  0.00     0.048 A 
ATOM      4  C   UNL     1      -7.417  -3.476 -13.700  1.00  0.00     0.138 A 
ATOM      5  C   UNL     1      -8.236  -4.544 -13.272  1.00  0.00     0.018 A 
ATOM      6  C   UNL     1      -7.735  -5.853 -13.275  1.00  0.00     0.012 A 
ATOM      7  C   UNL     1      -9.540  -4.260 -12.854  1.00  0.00     0.019 A 
ATOM      8  C   UNL     1      -9.991  -2.940 -12.870  1.00  0.00     0.094 A 
ATOM      9  C   UNL     1      -9.123  -1.932 -13.306  1.00  0.00     0.336 A 
ATOM     10  O   UNL     1      -9.512  -0.735 -13.328  1.00  0.00    -0.246 OA
ATOM     11  O   UNL     1      -7.887  -2.230 -13.699  1.00  0.00    -0.423 OA
ENDROOT
TORSDOF 0
ENDMDL
MODEL 7
REMARK VINA RESULT:    -3.254     23.463     24.091
REMARK INTER + INTRA:          -3.254
REMARK INTER:                  -3.254
REMARK INTRA:                   0.000
REMARK UNBOUND:                 0.000
REMARK SMILES O=c1ccc2ccccc2o1
REMARK SMILES IDX 7 1 8 2 9 3 10 4 5 5 6 6 4 7 3 8 2 9 1 10 11 11
REMARK H PARENT
REMARK Flexibility Score: inf
ROOT
ATOM      1  C   UNL     1      -9.805  -3.717   4.302  1.00  0.00     0.001 A 
ATOM      2  C   UNL     1      -8.975  -4.351   5.233  1.00  0.00     0.004 A 
ATOM      3  C   UNL     1      -8.460  -5.624   4.965  1.00  0.00     0.048 A 
ATOM      4  C   UNL     1      -8.775  -6.268   3.763  1.00  0.00     0.138 A 
ATOM      5  C   UNL     1      -9.612  -5.627   2.822  1.00  0.00     0.018 A 
ATOM      6  C   UNL     1     -10.125  -4.352   3.097  1.00  0.00     0.012 A 
ATOM      7  C   UNL     1      -9.909  -6.295   1.630  1.00  0.00     0.019 A 
ATOM      8  C   UNL     1      -9.373  -7.563   1.405  1.00  0.00     0.094 A 
ATOM      9  C   UNL     1      -8.550  -8.135   2.381  1.00  0.00     0.336 A 
ATOM     10  O   UNL     1      -8.058  -9.279   2.196  1.00  0.00    -0.246 OA
ATOM     11  O   UNL     1      -8.284  -7.479   3.508  1.00  0.00    -0.423 OA
ENDROOT
TORSDOF 0
ENDMDL
MODEL 8
REMARK VINA RESULT:    -3.237     24.060     24.648
REMARK INTER + INTRA:          -3.237
REMARK INTER:                  -3.237
REMARK INTRA:                   0.000
REMARK UNBOUND:                 0.000
REMARK SMILES O=c1ccc2ccccc2o1
REMARK SMILES IDX 7 1 8 2 9 3 10 4 5 5 6 6 4 7 3 8 2 9 1 10 11 11
REMARK H PARENT
REMARK Flexibility Score: inf
ROOT
ATOM      1  C   UNL     1     -10.125  -5.514   1.617  1.00  0.00     0.001 A 
ATOM      2  C   UNL     1     -10.014  -4.998   2.912  1.00  0.00     0.004 A 
ATOM      3  C   UNL     1      -9.322  -5.710   3.897  1.00  0.00     0.048 A 
ATOM      4  C   UNL     1      -8.736  -6.943   3.588  1.00  0.00     0.138 A 
ATOM      5  C   UNL     1      -8.846  -7.464   2.279  1.00  0.00     0.018 A 
ATOM      6  C   UNL     1      -9.543  -6.745   1.297  1.00  0.00     0.012 A 
ATOM      7  C   UNL     1      -8.251  -8.698   2.000  1.00  0.00     0.019 A 
ATOM      8  C   UNL     1      -7.570  -9.373   3.012  1.00  0.00     0.094 A 
ATOM      9  C   UNL     1      -7.500  -8.796   4.285  1.00  0.00     0.336 A 
ATOM     10  O   UNL     1      -6.889  -9.391   5.211  1.00  0.00    -0.246 OA
ATOM     11  O   UNL     1      -8.076  -7.620   4.525  1.00  0.00    -0.423 OA
ENDROOT
TORSDOF 0
ENDMDL
MODEL 9
REMARK VINA RESULT:    -2.705     24.043     24.778
REMARK INTER + INTRA:          -2.705
REMARK INTER:                  -2.705
REMARK INTRA:                   0.000
REMARK UNBOUND:                 0.000
REMARK SMILES O=c1ccc2ccccc2o1
REMARK SMILES IDX 7 1 8 2 9 3 10 4 5 5 6 6 4 7 3 8 2 9 1 10 11 11
REMARK H PARENT
REMARK Flexibility Score: inf
ROOT
ATOM      1  C   UNL     1      -8.675  -1.865 -13.791  1.00  0.00     0.001 A 
ATOM      2  C   UNL     1      -9.715  -2.531 -13.134  1.00  0.00     0.004 A 
ATOM      3  C   UNL     1      -9.587  -3.885 -12.808  1.00  0.00     0.048 A 
ATOM      4  C   UNL     1      -8.417  -4.578 -13.138  1.00  0.00     0.138 A 
ATOM      5  C   UNL     1      -7.367  -3.905 -13.801  1.00  0.00     0.018 A 
ATOM      6  C   UNL     1      -7.501  -2.548 -14.125  1.00  0.00     0.012 A 
ATOM      7  C   UNL     1      -6.210  -4.623 -14.118  1.00  0.00     0.019 A 
ATOM      8  C   UNL     1      -6.126  -5.972 -13.774  1.00  0.00     0.094 A 
ATOM      9  C   UNL     1      -7.205  -6.573 -13.117  1.00  0.00     0.336 A 
ATOM     10  O   UNL     1      -7.148  -7.789 -12.798  1.00  0.00    -0.246 OA
ATOM     11  O   UNL     1      -8.296  -5.867 -12.827  1.00  0.00    -0.423 OA
ENDROOT
TORSDOF 0
ENDMDL
