MODEL 1
REMARK VINA RESULT:    -4.160      0.000      0.000
REMARK INTER + INTRA:          -4.568
REMARK INTER:                  -4.525
REMARK INTRA:                  -0.043
REMARK UNBOUND:                -0.043
REMARK SMILES COc1cc2ccc(=O)oc2cc1O
REMARK SMILES IDX 3 1 13 2 12 3 11 4 5 5 4 6 6 7 7 8 8 9 9 10 10 11 2 12 1 13
REMARK SMILES IDX 14 14
REMARK H PARENT 14 15
REMARK Flexibility Score: inf
ROOT
ATOM      1  C   UNL     1      11.356  42.063 153.401  1.00  0.00     0.161 A 
ATOM      2  C   UNL     1      10.092  41.559 153.765  1.00  0.00     0.161 A 
ATOM      3  C   UNL     1       9.532  40.485 153.063  1.00  0.00     0.098 A 
ATOM      4  C   UNL     1      10.220  39.901 151.996  1.00  0.00     0.142 A 
ATOM      5  C   UNL     1      11.486  40.398 151.624  1.00  0.00     0.022 A 
ATOM      6  C   UNL     1      12.050  41.473 152.324  1.00  0.00     0.062 A 
ATOM      7  C   UNL     1      12.150  39.792 150.552  1.00  0.00     0.019 A 
ATOM      8  C   UNL     1      11.547  38.725 149.888  1.00  0.00     0.094 A 
ATOM      9  C   UNL     1      10.289  38.286 150.313  1.00  0.00     0.336 A 
ATOM     10  O   UNL     1       9.727  37.324 149.726  1.00  0.00    -0.246 OA
ATOM     11  O   UNL     1       9.679  38.880 151.336  1.00  0.00    -0.423 OA
ENDROOT
BRANCH   1  12
ATOM     12  O   UNL     1      11.888  43.141 154.125  1.00  0.00    -0.493 OA
ATOM     13  C   UNL     1      13.094  43.823 153.792  1.00  0.00     0.278 C 
ENDBRANCH   1  12
BRANCH   2  14
ATOM     14  O   UNL     1       9.374  42.115 154.824  1.00  0.00    -0.504 OA
ATOM     15  H   UNL     1       9.675  42.027 155.787  1.00  0.00     0.293 HD
ENDBRANCH   2  14
TORSDOF 2
ENDMDL
MODEL 2
REMARK VINA RESULT:    -4.100      1.811      2.781
REMARK INTER + INTRA:          -4.503
REMARK INTER:                  -4.456
REMARK INTRA:                  -0.047
REMARK UNBOUND:                -0.043
REMARK SMILES COc1cc2ccc(=O)oc2cc1O
REMARK SMILES IDX 3 1 13 2 12 3 11 4 5 5 4 6 6 7 7 8 8 9 9 10 10 11 2 12 1 13
REMARK SMILES IDX 14 14
REMARK H PARENT 14 15
REMARK Flexibility Score: inf
ROOT
ATOM      1  C   UNL     1      10.711  42.753 154.070  1.00  0.00     0.161 A 
ATOM      2  C   UNL     1      11.740  43.400 153.360  1.00  0.00     0.161 A 
ATOM      3  C   UNL     1      12.288  42.809 152.216  1.00  0.00     0.098 A 
ATOM      4  C   UNL     1      11.820  41.571 151.766  1.00  0.00     0.142 A 
ATOM      5  C   UNL     1      10.789  40.915 152.469  1.00  0.00     0.022 A 
ATOM      6  C   UNL     1      10.238  41.504 153.616  1.00  0.00     0.062 A 
ATOM      7  C   UNL     1      10.341  39.678 151.994  1.00  0.00     0.019 A 
ATOM      8  C   UNL     1      10.921  39.133 150.850  1.00  0.00     0.094 A 
ATOM      9  C   UNL     1      11.940  39.842 150.203  1.00  0.00     0.336 A 
ATOM     10  O   UNL     1      12.477  39.368 149.168  1.00  0.00    -0.246 OA
ATOM     11  O   UNL     1      12.346  41.017 150.676  1.00  0.00    -0.423 OA
ENDROOT
BRANCH   1  12
ATOM     12  O   UNL     1      10.184  43.374 155.213  1.00  0.00    -0.493 OA
ATOM     13  C   UNL     1       9.745  42.684 156.380  1.00  0.00     0.278 C 
ENDBRANCH   1  12
BRANCH   2  14
ATOM     14  O   UNL     1      12.235  44.636 153.778  1.00  0.00    -0.504 OA
ATOM     15  H   UNL     1      11.659  45.313 154.263  1.00  0.00     0.293 HD
ENDBRANCH   2  14
TORSDOF 2
ENDMDL
MODEL 3
REMARK VINA RESULT:    -4.070      1.291      4.786
REMARK INTER + INTRA:          -4.470
REMARK INTER:                  -4.408
REMARK INTRA:                  -0.062
REMARK UNBOUND:                -0.043
REMARK SMILES COc1cc2ccc(=O)oc2cc1O
REMARK SMILES IDX 3 1 13 2 12 3 11 4 5 5 4 6 6 7 7 8 8 9 9 10 10 11 2 12 1 13
REMARK SMILES IDX 14 14
REMARK H PARENT 14 15
REMARK Flexibility Score: inf
ROOT
ATOM      1  C   UNL     1      11.435  39.823 150.729  1.00  0.00     0.161 A 
ATOM      2  C   UNL     1      10.163  39.376 151.135  1.00  0.00     0.161 A 
ATOM      3  C   UNL     1       9.542  39.936 152.257  1.00  0.00     0.098 A 
ATOM      4  C   UNL     1      10.176  40.945 152.986  1.00  0.00     0.142 A 
ATOM      5  C   UNL     1      11.449  41.401 152.588  1.00  0.00     0.022 A 
ATOM      6  C   UNL     1      12.075  40.843 151.465  1.00  0.00     0.062 A 
ATOM      7  C   UNL     1      12.059  42.413 153.338  1.00  0.00     0.019 A 
ATOM      8  C   UNL     1      11.396  42.936 154.448  1.00  0.00     0.094 A 
ATOM      9  C   UNL     1      10.134  42.434 154.783  1.00  0.00     0.336 A 
ATOM     10  O   UNL     1       9.519  42.893 155.780  1.00  0.00    -0.246 OA
ATOM     11  O   UNL     1       9.577  41.472 154.052  1.00  0.00    -0.423 OA
ENDROOT
BRANCH   1  12
ATOM     12  O   UNL     1      12.029  39.240 149.599  1.00  0.00    -0.493 OA
ATOM     13  C   UNL     1      12.946  38.151 149.638  1.00  0.00     0.278 C 
ENDBRANCH   1  12
BRANCH   2  14
ATOM     14  O   UNL     1       9.498  38.369 150.433  1.00  0.00    -0.504 OA
ATOM     15  H   UNL     1       9.887  37.441 150.321  1.00  0.00     0.293 HD
ENDBRANCH   2  14
TORSDOF 2
ENDMDL
MODEL 4
REMARK VINA RESULT:    -3.910     13.617     14.189
REMARK INTER + INTRA:          -4.296
REMARK INTER:                  -4.232
REMARK INTRA:                  -0.064
REMARK UNBOUND:                -0.043
REMARK SMILES COc1cc2ccc(=O)oc2cc1O
REMARK SMILES IDX 3 1 13 2 12 3 11 4 5 5 4 6 6 7 7 8 8 9 9 10 10 11 2 12 1 13
REMARK SMILES IDX 14 14
REMARK H PARENT 14 15
REMARK Flexibility Score: inf
ROOT
ATOM      1  C   UNL     1      11.110  36.532 138.884  1.00  0.00     0.161 A 
ATOM      2  C   UNL     1       9.744  36.208 139.003  1.00  0.00     0.161 A 
ATOM      3  C   UNL     1       8.776  37.219 138.994  1.00  0.00     0.098 A 
ATOM      4  C   UNL     1       9.153  38.558 138.867  1.00  0.00     0.142 A 
ATOM      5  C   UNL     1      10.517  38.893 138.745  1.00  0.00     0.022 A 
ATOM      6  C   UNL     1      11.490  37.884 138.754  1.00  0.00     0.062 A 
ATOM      7  C   UNL     1      10.864  40.242 138.618  1.00  0.00     0.019 A 
ATOM      8  C   UNL     1       9.859  41.209 138.615  1.00  0.00     0.094 A 
ATOM      9  C   UNL     1       8.526  40.803 138.739  1.00  0.00     0.336 A 
ATOM     10  O   UNL     1       7.605  41.660 138.739  1.00  0.00    -0.246 OA
ATOM     11  O   UNL     1       8.225  39.513 138.858  1.00  0.00    -0.423 OA
ENDROOT
BRANCH   1  12
ATOM     12  O   UNL     1      12.054  35.493 138.896  1.00  0.00    -0.493 OA
ATOM     13  C   UNL     1      12.901  35.184 139.999  1.00  0.00     0.278 C 
ENDBRANCH   1  12
BRANCH   2  14
ATOM     14  O   UNL     1       9.328  34.883 139.134  1.00  0.00    -0.504 OA
ATOM     15  H   UNL     1       8.365  34.635 139.327  1.00  0.00     0.293 HD
ENDBRANCH   2  14
TORSDOF 2
ENDMDL
MODEL 5
REMARK VINA RESULT:    -3.884      1.456      5.406
REMARK INTER + INTRA:          -4.268
REMARK INTER:                  -4.207
REMARK INTRA:                  -0.061
REMARK UNBOUND:                -0.043
REMARK SMILES COc1cc2ccc(=O)oc2cc1O
REMARK SMILES IDX 3 1 13 2 12 3 11 4 5 5 4 6 6 7 7 8 8 9 9 10 10 11 2 12 1 13
REMARK SMILES IDX 14 14
REMARK H PARENT 14 15
REMARK Flexibility Score: inf
ROOT
ATOM      1  C   UNL     1      10.625  39.242 150.795  1.00  0.00     0.161 A 
ATOM      2  C   UNL     1      11.647  39.922 150.106  1.00  0.00     0.161 A 
ATOM      3  C   UNL     1      12.200  41.092 150.639  1.00  0.00     0.098 A 
ATOM      4  C   UNL     1      11.745  41.597 151.859  1.00  0.00     0.142 A 
ATOM      5  C   UNL     1      10.723  40.924 152.558  1.00  0.00     0.022 A 
ATOM      6  C   UNL     1      10.166  39.752 152.028  1.00  0.00     0.062 A 
ATOM      7  C   UNL     1      10.288  41.454 153.778  1.00  0.00     0.019 A 
ATOM      8  C   UNL     1      10.873  42.622 154.264  1.00  0.00     0.094 A 
ATOM      9  C   UNL     1      11.884  43.236 153.516  1.00  0.00     0.336 A 
ATOM     10  O   UNL     1      12.424  44.292 153.937  1.00  0.00    -0.246 OA
ATOM     11  O   UNL     1      12.278  42.711 152.359  1.00  0.00    -0.423 OA
ENDROOT
BRANCH   1  12
ATOM     12  O   UNL     1      10.093  38.071 150.233  1.00  0.00    -0.493 OA
ATOM     13  C   UNL     1       8.758  37.938 149.753  1.00  0.00     0.278 C 
ENDBRANCH   1  12
BRANCH   2  14
ATOM     14  O   UNL     1      12.128  39.450 148.884  1.00  0.00    -0.504 OA
ATOM     15  H   UNL     1      12.116  38.466 148.643  1.00  0.00     0.293 HD
ENDBRANCH   2  14
TORSDOF 2
ENDMDL
MODEL 6
REMARK VINA RESULT:    -3.805      1.535      2.221
REMARK INTER + INTRA:          -4.182
REMARK INTER:                  -4.119
REMARK INTRA:                  -0.063
REMARK UNBOUND:                -0.043
REMARK SMILES COc1cc2ccc(=O)oc2cc1O
REMARK SMILES IDX 3 1 13 2 12 3 11 4 5 5 4 6 6 7 7 8 8 9 9 10 10 11 2 12 1 13
REMARK SMILES IDX 14 14
REMARK H PARENT 14 15
REMARK Flexibility Score: inf
ROOT
ATOM      1  C   UNL     1       9.090  42.185 154.118  1.00  0.00     0.161 A 
ATOM      2  C   UNL     1       8.007  41.421 153.644  1.00  0.00     0.161 A 
ATOM      3  C   UNL     1       8.207  40.445 152.660  1.00  0.00     0.098 A 
ATOM      4  C   UNL     1       9.484  40.218 152.139  1.00  0.00     0.142 A 
ATOM      5  C   UNL     1      10.576  40.977 152.608  1.00  0.00     0.022 A 
ATOM      6  C   UNL     1      10.379  41.955 153.592  1.00  0.00     0.062 A 
ATOM      7  C   UNL     1      11.842  40.726 152.067  1.00  0.00     0.019 A 
ATOM      8  C   UNL     1      11.986  39.743 151.090  1.00  0.00     0.094 A 
ATOM      9  C   UNL     1      10.857  39.029 150.674  1.00  0.00     0.336 A 
ATOM     10  O   UNL     1      10.966  38.137 149.793  1.00  0.00    -0.246 OA
ATOM     11  O   UNL     1       9.665  39.288 151.205  1.00  0.00    -0.423 OA
ENDROOT
BRANCH   1  12
ATOM     12  O   UNL     1       8.854  43.155 155.104  1.00  0.00    -0.493 OA
ATOM     13  C   UNL     1       9.269  43.045 156.463  1.00  0.00     0.278 C 
ENDBRANCH   1  12
BRANCH   2  14
ATOM     14  O   UNL     1       6.717  41.619 154.138  1.00  0.00    -0.504 OA
ATOM     15  H   UNL     1       6.416  42.506 154.523  1.00  0.00     0.293 HD
ENDBRANCH   2  14
TORSDOF 2
ENDMDL
