MODEL 1
REMARK VINA RESULT:    -4.091      0.000      0.000
REMARK INTER + INTRA:          -6.932
REMARK INTER:                  -6.482
REMARK INTRA:                  -0.449
REMARK UNBOUND:                -0.449
REMARK SMILES CCCCCCCCCCCC(=O)[O-]
REMARK SMILES IDX 7 1 8 2 9 3 10 4 11 5 12 6 13 7 14 8 6 9 5 10 4 11 3 12 2 13
REMARK SMILES IDX 1 14
REMARK H PARENT
REMARK Flexibility Score: inf
ROOT
ATOM      1  C   UNL     1       0.084   9.116   8.975  1.00  0.00     0.000 C 
ENDROOT
BRANCH   1   2
ATOM      2  C   UNL     1      -0.655  10.049   8.002  1.00  0.00     0.000 C 
BRANCH   2   3
ATOM      3  C   UNL     1      -2.181   9.880   8.066  1.00  0.00     0.000 C 
BRANCH   3   4
ATOM      4  C   UNL     1      -2.786   9.429   6.727  1.00  0.00     0.006 C 
BRANCH   4   5
ATOM      5  C   UNL     1      -2.358   7.997   6.387  1.00  0.00     0.053 C 
BRANCH   5   6
ATOM      6  C   UNL     1      -2.422   7.767   4.910  1.00  0.00     0.041 C 
ATOM      7  O   UNL     1      -1.655   6.929   4.365  1.00  0.00    -0.550 OA
ATOM      8  O   UNL     1      -3.293   8.514   4.126  1.00  0.00    -0.550 OA
ENDBRANCH   5   6
ENDBRANCH   4   5
ENDBRANCH   3   4
ENDBRANCH   2   3
ENDBRANCH   1   2
BRANCH   1   9
ATOM      9  C   UNL     1       1.489   9.630   9.333  1.00  0.00     0.000 C 
BRANCH   9  10
ATOM     10  C   UNL     1       2.485   9.482   8.170  1.00  0.00    -0.000 C 
BRANCH  10  11
ATOM     11  C   UNL     1       3.320   8.193   8.259  1.00  0.00    -0.000 C 
BRANCH  11  12
ATOM     12  C   UNL     1       4.113   7.834   6.985  1.00  0.00    -0.000 C 
BRANCH  12  13
ATOM     13  C   UNL     1       5.582   8.291   6.982  1.00  0.00    -0.003 C 
ATOM     14  C   UNL     1       6.161   8.444   8.388  1.00  0.00     0.004 C 
ENDBRANCH  12  13
ENDBRANCH  11  12
ENDBRANCH  10  11
ENDBRANCH   9  10
ENDBRANCH   1   9
TORSDOF 10
ENDMDL
MODEL 2
REMARK VINA RESULT:    -4.000      1.288      1.880
REMARK INTER + INTRA:          -6.788
REMARK INTER:                  -6.302
REMARK INTRA:                  -0.486
REMARK UNBOUND:                -0.449
REMARK SMILES CCCCCCCCCCCC(=O)[O-]
REMARK SMILES IDX 7 1 8 2 9 3 10 4 11 5 12 6 13 7 14 8 6 9 5 10 4 11 3 12 2 13
REMARK SMILES IDX 1 14
REMARK H PARENT
REMARK Flexibility Score: inf
ROOT
ATOM      1  C   UNL     1      -0.425   9.407   7.909  1.00  0.00     0.000 C 
ENDROOT
BRANCH   1   2
ATOM      2  C   UNL     1      -1.901   9.838   7.866  1.00  0.00     0.000 C 
BRANCH   2   3
ATOM      3  C   UNL     1      -2.714   9.058   6.821  1.00  0.00     0.000 C 
BRANCH   3   4
ATOM      4  C   UNL     1      -1.902   7.938   6.152  1.00  0.00     0.006 C 
BRANCH   4   5
ATOM      5  C   UNL     1      -2.721   7.247   5.057  1.00  0.00     0.053 C 
BRANCH   5   6
ATOM      6  C   UNL     1      -3.073   5.851   5.467  1.00  0.00     0.041 C 
ATOM      7  O   UNL     1      -2.969   4.904   4.644  1.00  0.00    -0.550 OA
ATOM      8  O   UNL     1      -3.564   5.604   6.743  1.00  0.00    -0.550 OA
ENDBRANCH   5   6
ENDBRANCH   4   5
ENDBRANCH   3   4
ENDBRANCH   2   3
ENDBRANCH   1   2
BRANCH   1   9
ATOM      9  C   UNL     1       0.079   9.173   9.343  1.00  0.00     0.000 C 
BRANCH   9  10
ATOM     10  C   UNL     1       1.592   9.412   9.483  1.00  0.00    -0.000 C 
BRANCH  10  11
ATOM     11  C   UNL     1       2.363   9.144   8.177  1.00  0.00    -0.000 C 
BRANCH  11  12
ATOM     12  C   UNL     1       3.459   8.063   8.271  1.00  0.00    -0.000 C 
BRANCH  12  13
ATOM     13  C   UNL     1       4.276   7.851   6.985  1.00  0.00    -0.003 C 
ATOM     14  C   UNL     1       5.730   8.303   7.122  1.00  0.00     0.004 C 
ENDBRANCH  12  13
ENDBRANCH  11  12
ENDBRANCH  10  11
ENDBRANCH   9  10
ENDBRANCH   1   9
TORSDOF 10
ENDMDL
MODEL 3
REMARK VINA RESULT:    -3.890     13.591     14.986
REMARK INTER + INTRA:          -6.614
REMARK INTER:                  -5.963
REMARK INTRA:                  -0.651
REMARK UNBOUND:                -0.449
REMARK SMILES CCCCCCCCCCCC(=O)[O-]
REMARK SMILES IDX 7 1 8 2 9 3 10 4 11 5 12 6 13 7 14 8 6 9 5 10 4 11 3 12 2 13
REMARK SMILES IDX 1 14
REMARK H PARENT
REMARK Flexibility Score: inf
ROOT
ATOM      1  C   UNL     1       5.279  -6.001   8.495  1.00  0.00     0.000 C 
ENDROOT
BRANCH   1   2
ATOM      2  C   UNL     1       4.974  -7.209   7.593  1.00  0.00     0.000 C 
BRANCH   2   3
ATOM      3  C   UNL     1       3.698  -7.954   8.015  1.00  0.00     0.000 C 
BRANCH   3   4
ATOM      4  C   UNL     1       2.643  -7.022   8.632  1.00  0.00     0.006 C 
BRANCH   4   5
ATOM      5  C   UNL     1       1.478  -6.796   7.663  1.00  0.00     0.053 C 
BRANCH   5   6
ATOM      6  C   UNL     1       1.263  -5.333   7.434  1.00  0.00     0.041 C 
ATOM      7  O   UNL     1       2.201  -4.516   7.633  1.00  0.00    -0.550 OA
ATOM      8  O   UNL     1       0.013  -4.866   7.048  1.00  0.00    -0.550 OA
ENDBRANCH   5   6
ENDBRANCH   4   5
ENDBRANCH   3   4
ENDBRANCH   2   3
ENDBRANCH   1   2
BRANCH   1   9
ATOM      9  C   UNL     1       6.149  -6.376   9.706  1.00  0.00     0.000 C 
BRANCH   9  10
ATOM     10  C   UNL     1       7.317  -5.398   9.920  1.00  0.00    -0.000 C 
BRANCH  10  11
ATOM     11  C   UNL     1       7.916  -4.886   8.597  1.00  0.00    -0.000 C 
BRANCH  11  12
ATOM     12  C   UNL     1       8.906  -3.711   8.737  1.00  0.00    -0.000 C 
BRANCH  12  13
ATOM     13  C   UNL     1       8.651  -2.783   9.937  1.00  0.00    -0.003 C 
ATOM     14  C   UNL     1       8.584  -1.308   9.545  1.00  0.00     0.004 C 
ENDBRANCH  12  13
ENDBRANCH  11  12
ENDBRANCH  10  11
ENDBRANCH   9  10
ENDBRANCH   1   9
TORSDOF 10
ENDMDL
MODEL 4
REMARK VINA RESULT:    -3.771     13.777     15.058
REMARK INTER + INTRA:          -6.425
REMARK INTER:                  -6.032
REMARK INTRA:                  -0.393
REMARK UNBOUND:                -0.449
REMARK SMILES CCCCCCCCCCCC(=O)[O-]
REMARK SMILES IDX 7 1 8 2 9 3 10 4 11 5 12 6 13 7 14 8 6 9 5 10 4 11 3 12 2 13
REMARK SMILES IDX 1 14
REMARK H PARENT
REMARK Flexibility Score: inf
ROOT
ATOM      1  C   UNL     1       3.827  -7.573   7.776  1.00  0.00     0.000 C 
ENDROOT
BRANCH   1   2
ATOM      2  C   UNL     1       3.547  -7.153   9.228  1.00  0.00     0.000 C 
BRANCH   2   3
ATOM      3  C   UNL     1       3.631  -5.631   9.429  1.00  0.00     0.000 C 
BRANCH   3   4
ATOM      4  C   UNL     1       2.295  -4.921   9.158  1.00  0.00     0.006 C 
BRANCH   4   5
ATOM      5  C   UNL     1       2.023  -4.823   7.653  1.00  0.00     0.053 C 
BRANCH   5   6
ATOM      6  C   UNL     1       0.690  -5.418   7.322  1.00  0.00     0.041 C 
ATOM      7  O   UNL     1       0.513  -6.662   7.407  1.00  0.00    -0.550 OA
ATOM      8  O   UNL     1      -0.341  -4.605   6.869  1.00  0.00    -0.550 OA
ENDBRANCH   5   6
ENDBRANCH   4   5
ENDBRANCH   3   4
ENDBRANCH   2   3
ENDBRANCH   1   2
BRANCH   1   9
ATOM      9  C   UNL     1       5.331  -7.709   7.482  1.00  0.00     0.000 C 
BRANCH   9  10
ATOM     10  C   UNL     1       5.943  -6.410   6.930  1.00  0.00    -0.000 C 
BRANCH  10  11
ATOM     11  C   UNL     1       6.795  -5.661   7.971  1.00  0.00    -0.000 C 
BRANCH  11  12
ATOM     12  C   UNL     1       8.062  -4.979   7.415  1.00  0.00    -0.000 C 
BRANCH  12  13
ATOM     13  C   UNL     1       9.072  -4.517   8.478  1.00  0.00    -0.003 C 
ATOM     14  C   UNL     1       8.677  -3.197   9.141  1.00  0.00     0.004 C 
ENDBRANCH  12  13
ENDBRANCH  11  12
ENDBRANCH  10  11
ENDBRANCH   9  10
ENDBRANCH   1   9
TORSDOF 10
ENDMDL
MODEL 5
REMARK VINA RESULT:    -3.657      4.610      6.276
REMARK INTER + INTRA:          -6.244
REMARK INTER:                  -5.574
REMARK INTRA:                  -0.670
REMARK UNBOUND:                -0.449
REMARK SMILES CCCCCCCCCCCC(=O)[O-]
REMARK SMILES IDX 7 1 8 2 9 3 10 4 11 5 12 6 13 7 14 8 6 9 5 10 4 11 3 12 2 13
REMARK SMILES IDX 1 14
REMARK H PARENT
REMARK Flexibility Score: inf
ROOT
ATOM      1  C   UNL     1      -1.546   9.244   8.241  1.00  0.00     0.000 C 
ENDROOT
BRANCH   1   2
ATOM      2  C   UNL     1      -2.866  10.025   8.367  1.00  0.00     0.000 C 
BRANCH   2   3
ATOM      3  C   UNL     1      -3.661   9.640   9.624  1.00  0.00     0.000 C 
BRANCH   3   4
ATOM      4  C   UNL     1      -4.783   8.632   9.332  1.00  0.00     0.006 C 
BRANCH   4   5
ATOM      5  C   UNL     1      -6.156   9.308   9.390  1.00  0.00     0.053 C 
BRANCH   5   6
ATOM      6  C   UNL     1      -7.245   8.283   9.444  1.00  0.00     0.041 C 
ATOM      7  O   UNL     1      -6.959   7.055   9.443  1.00  0.00    -0.550 OA
ATOM      8  O   UNL     1      -8.576   8.680   9.444  1.00  0.00    -0.550 OA
ENDBRANCH   5   6
ENDBRANCH   4   5
ENDBRANCH   3   4
ENDBRANCH   2   3
ENDBRANCH   1   2
BRANCH   1   9
ATOM      9  C   UNL     1      -1.464   8.433   6.937  1.00  0.00     0.000 C 
BRANCH   9  10
ATOM     10  C   UNL     1      -2.729   8.574   6.073  1.00  0.00    -0.000 C 
BRANCH  10  11
ATOM     11  C   UNL     1      -2.614   7.845   4.723  1.00  0.00    -0.000 C 
BRANCH  11  12
ATOM     12  C   UNL     1      -2.207   6.360   4.811  1.00  0.00    -0.000 C 
BRANCH  12  13
ATOM     13  C   UNL     1      -3.379   5.365   4.855  1.00  0.00    -0.003 C 
ATOM     14  C   UNL     1      -3.303   4.407   6.044  1.00  0.00     0.004 C 
ENDBRANCH  12  13
ENDBRANCH  11  12
ENDBRANCH  10  11
ENDBRANCH   9  10
ENDBRANCH   1   9
TORSDOF 10
ENDMDL
MODEL 6
REMARK VINA RESULT:    -3.652     12.870     14.608
REMARK INTER + INTRA:          -6.236
REMARK INTER:                  -5.706
REMARK INTRA:                  -0.530
REMARK UNBOUND:                -0.449
REMARK SMILES CCCCCCCCCCCC(=O)[O-]
REMARK SMILES IDX 7 1 8 2 9 3 10 4 11 5 12 6 13 7 14 8 6 9 5 10 4 11 3 12 2 13
REMARK SMILES IDX 1 14
REMARK H PARENT
REMARK Flexibility Score: inf
ROOT
ATOM      1  C   UNL     1       6.848  -5.658   7.320  1.00  0.00     0.000 C 
ENDROOT
BRANCH   1   2
ATOM      2  C   UNL     1       5.504  -6.394   7.453  1.00  0.00     0.000 C 
BRANCH   2   3
ATOM      3  C   UNL     1       5.188  -6.787   8.905  1.00  0.00     0.000 C 
BRANCH   3   4
ATOM      4  C   UNL     1       3.817  -6.274   9.373  1.00  0.00     0.006 C 
BRANCH   4   5
ATOM      5  C   UNL     1       3.285  -5.191   8.429  1.00  0.00     0.053 C 
BRANCH   5   6
ATOM      6  C   UNL     1       2.010  -5.636   7.785  1.00  0.00     0.041 C 
ATOM      7  O   UNL     1       1.228  -4.789   7.276  1.00  0.00    -0.550 OA
ATOM      8  O   UNL     1       1.660  -6.980   7.792  1.00  0.00    -0.550 OA
ENDBRANCH   5   6
ENDBRANCH   4   5
ENDBRANCH   3   4
ENDBRANCH   2   3
ENDBRANCH   1   2
BRANCH   1   9
ATOM      9  C   UNL     1       7.471  -5.318   8.684  1.00  0.00     0.000 C 
BRANCH   9  10
ATOM     10  C   UNL     1       8.677  -4.371   8.562  1.00  0.00    -0.000 C 
BRANCH  10  11
ATOM     11  C   UNL     1       8.642  -3.223   9.588  1.00  0.00    -0.000 C 
BRANCH  11  12
ATOM     12  C   UNL     1       8.412  -1.818   8.993  1.00  0.00    -0.000 C 
BRANCH  12  13
ATOM     13  C   UNL     1       8.603  -0.655   9.981  1.00  0.00    -0.003 C 
ATOM     14  C   UNL     1       7.525   0.421   9.849  1.00  0.00     0.004 C 
ENDBRANCH  12  13
ENDBRANCH  11  12
ENDBRANCH  10  11
ENDBRANCH   9  10
ENDBRANCH   1   9
TORSDOF 10
ENDMDL
MODEL 7
REMARK VINA RESULT:    -3.554     14.578     15.792
REMARK INTER + INTRA:          -6.081
REMARK INTER:                  -4.914
REMARK INTRA:                  -1.167
REMARK UNBOUND:                -0.449
REMARK SMILES CCCCCCCCCCCC(=O)[O-]
REMARK SMILES IDX 7 1 8 2 9 3 10 4 11 5 12 6 13 7 14 8 6 9 5 10 4 11 3 12 2 13
REMARK SMILES IDX 1 14
REMARK H PARENT
REMARK Flexibility Score: inf
ROOT
ATOM      1  C   UNL     1       5.328  -5.435   9.991  1.00  0.00     0.000 C 
ENDROOT
BRANCH   1   2
ATOM      2  C   UNL     1       3.865  -5.910   9.959  1.00  0.00     0.000 C 
BRANCH   2   3
ATOM      3  C   UNL     1       2.918  -4.864   9.350  1.00  0.00     0.000 C 
BRANCH   3   4
ATOM      4  C   UNL     1       2.477  -5.222   7.922  1.00  0.00     0.006 C 
BRANCH   4   5
ATOM      5  C   UNL     1       1.242  -6.127   7.941  1.00  0.00     0.053 C 
BRANCH   5   6
ATOM      6  C   UNL     1       0.106  -5.481   7.211  1.00  0.00     0.041 C 
ATOM      7  O   UNL     1       0.143  -4.250   6.946  1.00  0.00    -0.550 OA
ATOM      8  O   UNL     1      -1.015  -6.226   6.869  1.00  0.00    -0.550 OA
ENDBRANCH   5   6
ENDBRANCH   4   5
ENDBRANCH   3   4
ENDBRANCH   2   3
ENDBRANCH   1   2
BRANCH   1   9
ATOM      9  C   UNL     1       6.247  -6.298   9.110  1.00  0.00     0.000 C 
BRANCH   9  10
ATOM     10  C   UNL     1       5.877  -6.221   7.619  1.00  0.00    -0.000 C 
BRANCH  10  11
ATOM     11  C   UNL     1       5.612  -7.604   6.997  1.00  0.00    -0.000 C 
BRANCH  11  12
ATOM     12  C   UNL     1       4.482  -8.417   7.660  1.00  0.00    -0.000 C 
BRANCH  12  13
ATOM     13  C   UNL     1       4.927  -9.734   8.319  1.00  0.00    -0.003 C 
ATOM     14  C   UNL     1       4.796  -9.712   9.842  1.00  0.00     0.004 C 
ENDBRANCH  12  13
ENDBRANCH  11  12
ENDBRANCH  10  11
ENDBRANCH   9  10
ENDBRANCH   1   9
TORSDOF 10
ENDMDL
MODEL 8
REMARK VINA RESULT:    -2.129      3.071      6.518
REMARK INTER + INTRA:          -3.824
REMARK INTER:                  -3.372
REMARK INTRA:                  -0.451
REMARK UNBOUND:                -0.449
REMARK SMILES CCCCCCCCCCCC(=O)[O-]
REMARK SMILES IDX 7 1 8 2 9 3 10 4 11 5 12 6 13 7 14 8 6 9 5 10 4 11 3 12 2 13
REMARK SMILES IDX 1 14
REMARK H PARENT
REMARK Flexibility Score: inf
ROOT
ATOM      1  C   UNL     1      -0.704   9.219   8.276  1.00  0.00     0.000 C 
ENDROOT
BRANCH   1   2
ATOM      2  C   UNL     1       0.617   9.955   8.557  1.00  0.00     0.000 C 
BRANCH   2   3
ATOM      3  C   UNL     1       1.559   9.151   9.468  1.00  0.00     0.000 C 
BRANCH   3   4
ATOM      4  C   UNL     1       3.010   9.141   8.962  1.00  0.00     0.006 C 
BRANCH   4   5
ATOM      5  C   UNL     1       3.150   8.260   7.717  1.00  0.00     0.053 C 
BRANCH   5   6
ATOM      6  C   UNL     1       4.593   8.051   7.382  1.00  0.00     0.041 C 
ATOM      7  O   UNL     1       4.932   7.736   6.210  1.00  0.00    -0.550 OA
ATOM      8  O   UNL     1       5.560   8.154   8.374  1.00  0.00    -0.550 OA
ENDBRANCH   5   6
ENDBRANCH   4   5
ENDBRANCH   3   4
ENDBRANCH   2   3
ENDBRANCH   1   2
BRANCH   1   9
ATOM      9  C   UNL     1      -1.752  10.125   7.609  1.00  0.00     0.000 C 
BRANCH   9  10
ATOM     10  C   UNL     1      -2.772   9.332   6.774  1.00  0.00    -0.000 C 
BRANCH  10  11
ATOM     11  C   UNL     1      -2.279   7.918   6.414  1.00  0.00    -0.000 C 
BRANCH  11  12
ATOM     12  C   UNL     1      -2.359   7.557   4.917  1.00  0.00    -0.000 C 
BRANCH  12  13
ATOM     13  C   UNL     1      -2.417   6.050   4.613  1.00  0.00    -0.003 C 
ATOM     14  C   UNL     1      -3.238   5.267   5.637  1.00  0.00     0.004 C 
ENDBRANCH  12  13
ENDBRANCH  11  12
ENDBRANCH  10  11
ENDBRANCH   9  10
ENDBRANCH   1   9
TORSDOF 10
ENDMDL
