MODEL 1
REMARK VINA RESULT:    -3.814      0.000      0.000
REMARK INTER + INTRA:         -11.729
REMARK INTER:                  -9.612
REMARK INTRA:                  -2.117
REMARK UNBOUND:                -2.117
REMARK SMILES CCCCCCCCCCCCCCCCCCCCCCCCCCCC(=O)[O-]
REMARK SMILES IDX 15 1 16 2 17 3 18 4 19 5 20 6 21 7 22 8 23 9 24 10 25 11
REMARK SMILES IDX 26 12 27 13 28 14 29 15 30 16 14 17 13 18 12 19 11 20 10 21
REMARK SMILES IDX 9 22 8 23 7 24 6 25 5 26 4 27 3 28 2 29 1 30
REMARK H PARENT
REMARK Flexibility Score: inf
ROOT
ATOM      1  C   UNL     1     -42.969  27.661   1.075  1.00  0.00     0.000 C 
ENDROOT
BRANCH   1   2
ATOM      2  C   UNL     1     -43.709  28.348   2.239  1.00  0.00     0.000 C 
BRANCH   2   3
ATOM      3  C   UNL     1     -43.126  29.709   2.670  1.00  0.00     0.000 C 
BRANCH   3   4
ATOM      4  C   UNL     1     -42.307  29.688   3.974  1.00  0.00     0.000 C 
BRANCH   4   5
ATOM      5  C   UNL     1     -43.133  29.626   5.273  1.00  0.00     0.000 C 
BRANCH   5   6
ATOM      6  C   UNL     1     -43.199  28.225   5.917  1.00  0.00     0.000 C 
BRANCH   6   7
ATOM      7  C   UNL     1     -42.433  28.137   7.249  1.00  0.00     0.000 C 
BRANCH   7   8
ATOM      8  C   UNL     1     -42.692  29.345   8.165  1.00  0.00     0.000 C 
BRANCH   8   9
ATOM      9  C   UNL     1     -43.972  29.213   9.022  1.00  0.00     0.000 C 
BRANCH   9  10
ATOM     10  C   UNL     1     -44.564  27.789   9.061  1.00  0.00     0.000 C 
BRANCH  10  11
ATOM     11  C   UNL     1     -46.054  27.677   8.667  1.00  0.00     0.000 C 
BRANCH  11  12
ATOM     12  C   UNL     1     -46.327  27.087   7.269  1.00  0.00     0.006 C 
BRANCH  12  13
ATOM     13  C   UNL     1     -47.125  28.013   6.335  1.00  0.00     0.053 C 
BRANCH  13  14
ATOM     14  C   UNL     1     -46.562  28.029   4.949  1.00  0.00     0.041 C 
ATOM     15  O   UNL     1     -46.119  26.968   4.432  1.00  0.00    -0.550 OA
ATOM     16  O   UNL     1     -46.497  29.220   4.236  1.00  0.00    -0.550 OA
ENDBRANCH  13  14
ENDBRANCH  12  13
ENDBRANCH  11  12
ENDBRANCH  10  11
ENDBRANCH   9  10
ENDBRANCH   8   9
ENDBRANCH   7   8
ENDBRANCH   6   7
ENDBRANCH   5   6
ENDBRANCH   4   5
ENDBRANCH   3   4
ENDBRANCH   2   3
ENDBRANCH   1   2
BRANCH   1  17
ATOM     17  C   UNL     1     -42.699  28.564  -0.145  1.00  0.00     0.000 C 
BRANCH  17  18
ATOM     18  C   UNL     1     -43.452  29.910  -0.144  1.00  0.00     0.000 C 
BRANCH  18  19
ATOM     19  C   UNL     1     -44.801  29.901  -0.888  1.00  0.00     0.000 C 
BRANCH  19  20
ATOM     20  C   UNL     1     -45.967  29.427  -0.004  1.00  0.00     0.000 C 
BRANCH  20  21
ATOM     21  C   UNL     1     -46.794  28.310  -0.659  1.00  0.00     0.000 C 
BRANCH  21  22
ATOM     22  C   UNL     1     -46.170  26.920  -0.457  1.00  0.00    -0.000 C 
BRANCH  22  23
ATOM     23  C   UNL     1     -45.518  26.378  -1.739  1.00  0.00    -0.000 C 
BRANCH  23  24
ATOM     24  C   UNL     1     -46.098  27.018  -3.011  1.00  0.00    -0.000 C 
BRANCH  24  25
ATOM     25  C   UNL     1     -46.300  26.003  -4.150  1.00  0.00    -0.000 C 
BRANCH  25  26
ATOM     26  C   UNL     1     -46.888  26.626  -5.434  1.00  0.00    -0.000 C 
BRANCH  26  27
ATOM     27  C   UNL     1     -45.883  26.618  -6.599  1.00  0.00    -0.000 C 
BRANCH  27  28
ATOM     28  C   UNL     1     -46.479  27.173  -7.905  1.00  0.00    -0.000 C 
BRANCH  28  29
ATOM     29  C   UNL     1     -46.256  28.679  -8.128  1.00  0.00    -0.003 C 
ATOM     30  C   UNL     1     -45.191  29.267  -7.201  1.00  0.00     0.004 C 
ENDBRANCH  28  29
ENDBRANCH  27  28
ENDBRANCH  26  27
ENDBRANCH  25  26
ENDBRANCH  24  25
ENDBRANCH  23  24
ENDBRANCH  22  23
ENDBRANCH  21  22
ENDBRANCH  20  21
ENDBRANCH  19  20
ENDBRANCH  18  19
ENDBRANCH  17  18
ENDBRANCH   1  17
TORSDOF 26
ENDMDL
MODEL 2
REMARK VINA RESULT:    -2.605      3.429     11.304
REMARK INTER + INTRA:          -8.681
REMARK INTER:                  -7.697
REMARK INTRA:                  -0.984
REMARK UNBOUND:                -2.117
REMARK SMILES CCCCCCCCCCCCCCCCCCCCCCCCCCCC(=O)[O-]
REMARK SMILES IDX 15 1 16 2 17 3 18 4 19 5 20 6 21 7 22 8 23 9 24 10 25 11
REMARK SMILES IDX 26 12 27 13 28 14 29 15 30 16 14 17 13 18 12 19 11 20 10 21
REMARK SMILES IDX 9 22 8 23 7 24 6 25 5 26 4 27 3 28 2 29 1 30
REMARK H PARENT
REMARK Flexibility Score: inf
ROOT
ATOM      1  C   UNL     1     -43.382  26.891   1.906  1.00  0.00     0.000 C 
ENDROOT
BRANCH   1   2
ATOM      2  C   UNL     1     -42.924  27.300   0.492  1.00  0.00     0.000 C 
BRANCH   2   3
ATOM      3  C   UNL     1     -42.646  28.806   0.308  1.00  0.00     0.000 C 
BRANCH   3   4
ATOM      4  C   UNL     1     -43.608  29.538  -0.645  1.00  0.00     0.000 C 
BRANCH   4   5
ATOM      5  C   UNL     1     -45.100  29.185  -0.480  1.00  0.00     0.000 C 
BRANCH   5   6
ATOM      6  C   UNL     1     -45.695  28.377  -1.652  1.00  0.00     0.000 C 
BRANCH   6   7
ATOM      7  C   UNL     1     -46.360  29.265  -2.719  1.00  0.00     0.000 C 
BRANCH   7   8
ATOM      8  C   UNL     1     -46.405  28.598  -4.104  1.00  0.00     0.000 C 
BRANCH   8   9
ATOM      9  C   UNL     1     -46.480  29.604  -5.276  1.00  0.00     0.000 C 
BRANCH   9  10
ATOM     10  C   UNL     1     -45.290  29.524  -6.256  1.00  0.00     0.000 C 
BRANCH  10  11
ATOM     11  C   UNL     1     -45.664  29.314  -7.740  1.00  0.00     0.000 C 
BRANCH  11  12
ATOM     12  C   UNL     1     -47.079  28.758  -7.995  1.00  0.00     0.006 C 
BRANCH  12  13
ATOM     13  C   UNL     1     -47.113  27.470  -8.835  1.00  0.00     0.053 C 
BRANCH  13  14
ATOM     14  C   UNL     1     -46.950  26.246  -7.990  1.00  0.00     0.041 C 
ATOM     15  O   UNL     1     -46.925  26.341  -6.734  1.00  0.00    -0.550 OA
ATOM     16  O   UNL     1     -46.795  25.000  -8.588  1.00  0.00    -0.550 OA
ENDBRANCH  13  14
ENDBRANCH  12  13
ENDBRANCH  11  12
ENDBRANCH  10  11
ENDBRANCH   9  10
ENDBRANCH   8   9
ENDBRANCH   7   8
ENDBRANCH   6   7
ENDBRANCH   5   6
ENDBRANCH   4   5
ENDBRANCH   3   4
ENDBRANCH   2   3
ENDBRANCH   1   2
BRANCH   1  17
ATOM     17  C   UNL     1     -44.749  27.460   2.335  1.00  0.00     0.000 C 
BRANCH  17  18
ATOM     18  C   UNL     1     -45.001  27.480   3.857  1.00  0.00     0.000 C 
BRANCH  18  19
ATOM     19  C   UNL     1     -45.952  28.590   4.344  1.00  0.00     0.000 C 
BRANCH  19  20
ATOM     20  C   UNL     1     -45.244  29.943   4.529  1.00  0.00     0.000 C 
BRANCH  20  21
ATOM     21  C   UNL     1     -43.983  30.078   3.662  1.00  0.00     0.000 C 
BRANCH  21  22
ATOM     22  C   UNL     1     -42.780  29.323   4.251  1.00  0.00    -0.000 C 
BRANCH  22  23
ATOM     23  C   UNL     1     -42.534  29.670   5.727  1.00  0.00    -0.000 C 
BRANCH  23  24
ATOM     24  C   UNL     1     -42.611  28.438   6.644  1.00  0.00    -0.000 C 
BRANCH  24  25
ATOM     25  C   UNL     1     -42.796  28.809   8.126  1.00  0.00    -0.000 C 
BRANCH  25  26
ATOM     26  C   UNL     1     -43.633  30.088   8.342  1.00  0.00    -0.000 C 
BRANCH  26  27
ATOM     27  C   UNL     1     -45.018  29.998   7.677  1.00  0.00    -0.000 C 
BRANCH  27  28
ATOM     28  C   UNL     1     -46.170  29.990   8.698  1.00  0.00    -0.000 C 
BRANCH  28  29
ATOM     29  C   UNL     1     -47.121  28.785   8.590  1.00  0.00    -0.003 C 
ATOM     30  C   UNL     1     -46.386  27.467   8.346  1.00  0.00     0.004 C 
ENDBRANCH  28  29
ENDBRANCH  27  28
ENDBRANCH  26  27
ENDBRANCH  25  26
ENDBRANCH  24  25
ENDBRANCH  23  24
ENDBRANCH  22  23
ENDBRANCH  21  22
ENDBRANCH  20  21
ENDBRANCH  19  20
ENDBRANCH  18  19
ENDBRANCH  17  18
ENDBRANCH   1  17
TORSDOF 26
ENDMDL
MODEL 3
REMARK VINA RESULT:    -2.340      1.767      2.737
REMARK INTER + INTRA:          -8.013
REMARK INTER:                  -7.122
REMARK INTRA:                  -0.891
REMARK UNBOUND:                -2.117
REMARK SMILES CCCCCCCCCCCCCCCCCCCCCCCCCCCC(=O)[O-]
REMARK SMILES IDX 15 1 16 2 17 3 18 4 19 5 20 6 21 7 22 8 23 9 24 10 25 11
REMARK SMILES IDX 26 12 27 13 28 14 29 15 30 16 14 17 13 18 12 19 11 20 10 21
REMARK SMILES IDX 9 22 8 23 7 24 6 25 5 26 4 27 3 28 2 29 1 30
REMARK H PARENT
REMARK Flexibility Score: inf
ROOT
ATOM      1  C   UNL     1     -42.388  28.345   0.636  1.00  0.00     0.000 C 
ENDROOT
BRANCH   1   2
ATOM      2  C   UNL     1     -43.038  28.603   2.009  1.00  0.00     0.000 C 
BRANCH   2   3
ATOM      3  C   UNL     1     -42.674  29.954   2.658  1.00  0.00     0.000 C 
BRANCH   3   4
ATOM      4  C   UNL     1     -42.600  29.943   4.196  1.00  0.00     0.000 C 
BRANCH   4   5
ATOM      5  C   UNL     1     -43.470  28.879   4.894  1.00  0.00     0.000 C 
BRANCH   5   6
ATOM      6  C   UNL     1     -44.922  28.807   4.377  1.00  0.00     0.000 C 
BRANCH   6   7
ATOM      7  C   UNL     1     -45.714  30.103   4.627  1.00  0.00     0.000 C 
BRANCH   7   8
ATOM      8  C   UNL     1     -47.020  29.862   5.403  1.00  0.00     0.000 C 
BRANCH   8   9
ATOM      9  C   UNL     1     -47.082  28.486   6.104  1.00  0.00     0.000 C 
BRANCH   9  10
ATOM     10  C   UNL     1     -47.111  28.561   7.645  1.00  0.00     0.000 C 
BRANCH  10  11
ATOM     11  C   UNL     1     -45.729  28.607   8.334  1.00  0.00     0.000 C 
BRANCH  11  12
ATOM     12  C   UNL     1     -45.188  30.017   8.642  1.00  0.00     0.006 C 
BRANCH  12  13
ATOM     13  C   UNL     1     -43.728  30.045   9.124  1.00  0.00     0.053 C 
BRANCH  13  14
ATOM     14  C   UNL     1     -42.874  29.063   8.385  1.00  0.00     0.041 C 
ATOM     15  O   UNL     1     -43.059  27.826   8.534  1.00  0.00    -0.550 OA
ATOM     16  O   UNL     1     -41.854  29.511   7.554  1.00  0.00    -0.550 OA
ENDBRANCH  13  14
ENDBRANCH  12  13
ENDBRANCH  11  12
ENDBRANCH  10  11
ENDBRANCH   9  10
ENDBRANCH   8   9
ENDBRANCH   7   8
ENDBRANCH   6   7
ENDBRANCH   5   6
ENDBRANCH   4   5
ENDBRANCH   3   4
ENDBRANCH   2   3
ENDBRANCH   1   2
BRANCH   1  17
ATOM     17  C   UNL     1     -42.641  29.441  -0.419  1.00  0.00     0.000 C 
BRANCH  17  18
ATOM     18  C   UNL     1     -44.094  29.540  -0.926  1.00  0.00     0.000 C 
BRANCH  18  19
ATOM     19  C   UNL     1     -45.135  29.898   0.150  1.00  0.00     0.000 C 
BRANCH  19  20
ATOM     20  C   UNL     1     -46.151  28.769   0.398  1.00  0.00     0.000 C 
BRANCH  20  21
ATOM     21  C   UNL     1     -46.644  28.118  -0.903  1.00  0.00     0.000 C 
BRANCH  21  22
ATOM     22  C   UNL     1     -45.879  26.828  -1.243  1.00  0.00    -0.000 C 
BRANCH  22  23
ATOM     23  C   UNL     1     -45.211  26.889  -2.625  1.00  0.00    -0.000 C 
BRANCH  23  24
ATOM     24  C   UNL     1     -45.626  25.720  -3.532  1.00  0.00    -0.000 C 
BRANCH  24  25
ATOM     25  C   UNL     1     -47.059  25.866  -4.075  1.00  0.00    -0.000 C 
BRANCH  25  26
ATOM     26  C   UNL     1     -47.125  26.521  -5.471  1.00  0.00    -0.000 C 
BRANCH  26  27
ATOM     27  C   UNL     1     -45.730  26.867  -6.020  1.00  0.00    -0.000 C 
BRANCH  27  28
ATOM     28  C   UNL     1     -45.772  27.931  -7.131  1.00  0.00    -0.000 C 
BRANCH  28  29
ATOM     29  C   UNL     1     -45.198  29.302  -6.735  1.00  0.00    -0.003 C 
ATOM     30  C   UNL     1     -45.858  29.886  -5.485  1.00  0.00     0.004 C 
ENDBRANCH  28  29
ENDBRANCH  27  28
ENDBRANCH  26  27
ENDBRANCH  25  26
ENDBRANCH  24  25
ENDBRANCH  23  24
ENDBRANCH  22  23
ENDBRANCH  21  22
ENDBRANCH  20  21
ENDBRANCH  19  20
ENDBRANCH  18  19
ENDBRANCH  17  18
ENDBRANCH   1  17
TORSDOF 26
ENDMDL
MODEL 4
REMARK VINA RESULT:    -2.115      3.581     10.682
REMARK INTER + INTRA:          -7.448
REMARK INTER:                  -6.010
REMARK INTRA:                  -1.438
REMARK UNBOUND:                -2.117
REMARK SMILES CCCCCCCCCCCCCCCCCCCCCCCCCCCC(=O)[O-]
REMARK SMILES IDX 15 1 16 2 17 3 18 4 19 5 20 6 21 7 22 8 23 9 24 10 25 11
REMARK SMILES IDX 26 12 27 13 28 14 29 15 30 16 14 17 13 18 12 19 11 20 10 21
REMARK SMILES IDX 9 22 8 23 7 24 6 25 5 26 4 27 3 28 2 29 1 30
REMARK H PARENT
REMARK Flexibility Score: inf
ROOT
ATOM      1  C   UNL     1     -42.563  27.633   1.181  1.00  0.00     0.000 C 
ENDROOT
BRANCH   1   2
ATOM      2  C   UNL     1     -43.718  26.708   1.612  1.00  0.00     0.000 C 
BRANCH   2   3
ATOM      3  C   UNL     1     -45.130  27.233   1.283  1.00  0.00     0.000 C 
BRANCH   3   4
ATOM      4  C   UNL     1     -45.195  28.269   0.145  1.00  0.00     0.000 C 
BRANCH   4   5
ATOM      5  C   UNL     1     -46.610  28.755  -0.227  1.00  0.00     0.000 C 
BRANCH   5   6
ATOM      6  C   UNL     1     -46.645  30.125  -0.937  1.00  0.00     0.000 C 
BRANCH   6   7
ATOM      7  C   UNL     1     -47.125  30.034  -2.396  1.00  0.00     0.000 C 
BRANCH   7   8
ATOM      8  C   UNL     1     -46.007  29.617  -3.366  1.00  0.00     0.000 C 
BRANCH   8   9
ATOM      9  C   UNL     1     -45.857  28.086  -3.521  1.00  0.00     0.000 C 
BRANCH   9  10
ATOM     10  C   UNL     1     -46.977  27.421  -4.349  1.00  0.00     0.000 C 
BRANCH  10  11
ATOM     11  C   UNL     1     -46.502  26.414  -5.421  1.00  0.00     0.000 C 
BRANCH  11  12
ATOM     12  C   UNL     1     -46.511  26.937  -6.871  1.00  0.00     0.006 C 
BRANCH  12  13
ATOM     13  C   UNL     1     -46.969  28.398  -7.017  1.00  0.00     0.053 C 
BRANCH  13  14
ATOM     14  C   UNL     1     -46.058  29.183  -7.909  1.00  0.00     0.041 C 
ATOM     15  O   UNL     1     -44.878  29.434  -7.546  1.00  0.00    -0.550 OA
ATOM     16  O   UNL     1     -46.521  29.665  -9.128  1.00  0.00    -0.550 OA
ENDBRANCH  13  14
ENDBRANCH  12  13
ENDBRANCH  11  12
ENDBRANCH  10  11
ENDBRANCH   9  10
ENDBRANCH   8   9
ENDBRANCH   7   8
ENDBRANCH   6   7
ENDBRANCH   5   6
ENDBRANCH   4   5
ENDBRANCH   3   4
ENDBRANCH   2   3
ENDBRANCH   1   2
BRANCH   1  17
ATOM     17  C   UNL     1     -42.881  29.140   1.238  1.00  0.00     0.000 C 
BRANCH  17  18
ATOM     18  C   UNL     1     -42.893  29.754   2.654  1.00  0.00     0.000 C 
BRANCH  18  19
ATOM     19  C   UNL     1     -44.111  29.375   3.516  1.00  0.00     0.000 C 
BRANCH  19  20
ATOM     20  C   UNL     1     -45.392  30.119   3.101  1.00  0.00     0.000 C 
BRANCH  20  21
ATOM     21  C   UNL     1     -46.666  29.465   3.657  1.00  0.00     0.000 C 
BRANCH  21  22
ATOM     22  C   UNL     1     -47.032  29.985   5.056  1.00  0.00    -0.000 C 
BRANCH  22  23
ATOM     23  C   UNL     1     -46.367  29.171   6.177  1.00  0.00    -0.000 C 
BRANCH  23  24
ATOM     24  C   UNL     1     -46.886  29.553   7.572  1.00  0.00    -0.000 C 
BRANCH  24  25
ATOM     25  C   UNL     1     -45.805  29.443   8.662  1.00  0.00    -0.000 C 
BRANCH  25  26
ATOM     26  C   UNL     1     -44.474  30.123   8.280  1.00  0.00    -0.000 C 
BRANCH  26  27
ATOM     27  C   UNL     1     -43.260  29.209   8.525  1.00  0.00    -0.000 C 
BRANCH  27  28
ATOM     28  C   UNL     1     -42.900  28.354   7.297  1.00  0.00    -0.000 C 
BRANCH  28  29
ATOM     29  C   UNL     1     -43.521  26.946   7.285  1.00  0.00    -0.003 C 
ATOM     30  C   UNL     1     -44.176  26.595   5.948  1.00  0.00     0.004 C 
ENDBRANCH  28  29
ENDBRANCH  27  28
ENDBRANCH  26  27
ENDBRANCH  25  26
ENDBRANCH  24  25
ENDBRANCH  23  24
ENDBRANCH  22  23
ENDBRANCH  21  22
ENDBRANCH  20  21
ENDBRANCH  19  20
ENDBRANCH  18  19
ENDBRANCH  17  18
ENDBRANCH   1  17
TORSDOF 26
ENDMDL
MODEL 5
REMARK VINA RESULT:    -2.029      1.757      2.867
REMARK INTER + INTRA:          -7.229
REMARK INTER:                  -4.575
REMARK INTRA:                  -2.655
REMARK UNBOUND:                -2.117
REMARK SMILES CCCCCCCCCCCCCCCCCCCCCCCCCCCC(=O)[O-]
REMARK SMILES IDX 15 1 16 2 17 3 18 4 19 5 20 6 21 7 22 8 23 9 24 10 25 11
REMARK SMILES IDX 26 12 27 13 28 14 29 15 30 16 14 17 13 18 12 19 11 20 10 21
REMARK SMILES IDX 9 22 8 23 7 24 6 25 5 26 4 27 3 28 2 29 1 30
REMARK H PARENT
REMARK Flexibility Score: inf
ROOT
ATOM      1  C   UNL     1     -43.267  27.030   2.721  1.00  0.00     0.000 C 
ENDROOT
BRANCH   1   2
ATOM      2  C   UNL     1     -44.219  26.336   3.715  1.00  0.00     0.000 C 
BRANCH   2   3
ATOM      3  C   UNL     1     -44.090  26.806   5.177  1.00  0.00     0.000 C 
BRANCH   3   4
ATOM      4  C   UNL     1     -42.708  26.585   5.818  1.00  0.00     0.000 C 
BRANCH   4   5
ATOM      5  C   UNL     1     -42.539  27.151   7.241  1.00  0.00     0.000 C 
BRANCH   5   6
ATOM      6  C   UNL     1     -43.116  28.569   7.434  1.00  0.00     0.000 C 
BRANCH   6   7
ATOM      7  C   UNL     1     -43.883  28.732   8.758  1.00  0.00     0.000 C 
BRANCH   7   8
ATOM      8  C   UNL     1     -44.834  29.941   8.750  1.00  0.00     0.000 C 
BRANCH   8   9
ATOM      9  C   UNL     1     -46.305  29.577   9.056  1.00  0.00     0.000 C 
BRANCH   9  10
ATOM     10  C   UNL     1     -47.125  29.158   7.818  1.00  0.00     0.000 C 
BRANCH  10  11
ATOM     11  C   UNL     1     -47.048  30.121   6.613  1.00  0.00     0.000 C 
BRANCH  11  12
ATOM     12  C   UNL     1     -46.074  29.704   5.493  1.00  0.00     0.006 C 
BRANCH  12  13
ATOM     13  C   UNL     1     -46.532  30.091   4.077  1.00  0.00     0.053 C 
BRANCH  13  14
ATOM     14  C   UNL     1     -45.409  30.027   3.088  1.00  0.00     0.041 C 
ATOM     15  O   UNL     1     -45.652  29.856   1.864  1.00  0.00    -0.550 OA
ATOM     16  O   UNL     1     -44.092  30.125   3.521  1.00  0.00    -0.550 OA
ENDBRANCH  13  14
ENDBRANCH  12  13
ENDBRANCH  11  12
ENDBRANCH  10  11
ENDBRANCH   9  10
ENDBRANCH   8   9
ENDBRANCH   7   8
ENDBRANCH   6   7
ENDBRANCH   5   6
ENDBRANCH   4   5
ENDBRANCH   3   4
ENDBRANCH   2   3
ENDBRANCH   1   2
BRANCH   1  17
ATOM     17  C   UNL     1     -43.522  26.699   1.237  1.00  0.00     0.000 C 
BRANCH  17  18
ATOM     18  C   UNL     1     -43.401  27.893   0.268  1.00  0.00     0.000 C 
BRANCH  18  19
ATOM     19  C   UNL     1     -44.503  27.975  -0.804  1.00  0.00     0.000 C 
BRANCH  19  20
ATOM     20  C   UNL     1     -45.782  27.219  -0.404  1.00  0.00     0.000 C 
BRANCH  20  21
ATOM     21  C   UNL     1     -47.052  27.836  -1.010  1.00  0.00     0.000 C 
BRANCH  21  22
ATOM     22  C   UNL     1     -46.779  29.182  -1.703  1.00  0.00    -0.000 C 
BRANCH  22  23
ATOM     23  C   UNL     1     -47.065  29.133  -3.212  1.00  0.00    -0.000 C 
BRANCH  23  24
ATOM     24  C   UNL     1     -46.111  30.025  -4.022  1.00  0.00    -0.000 C 
BRANCH  24  25
ATOM     25  C   UNL     1     -46.394  29.981  -5.534  1.00  0.00    -0.000 C 
BRANCH  25  26
ATOM     26  C   UNL     1     -45.196  29.483  -6.370  1.00  0.00    -0.000 C 
BRANCH  26  27
ATOM     27  C   UNL     1     -45.613  28.439  -7.421  1.00  0.00    -0.000 C 
BRANCH  27  28
ATOM     28  C   UNL     1     -46.853  27.630  -6.999  1.00  0.00    -0.000 C 
BRANCH  28  29
ATOM     29  C   UNL     1     -46.547  26.261  -6.366  1.00  0.00    -0.003 C 
ATOM     30  C   UNL     1     -46.198  26.358  -4.880  1.00  0.00     0.004 C 
ENDBRANCH  28  29
ENDBRANCH  27  28
ENDBRANCH  26  27
ENDBRANCH  25  26
ENDBRANCH  24  25
ENDBRANCH  23  24
ENDBRANCH  22  23
ENDBRANCH  21  22
ENDBRANCH  20  21
ENDBRANCH  19  20
ENDBRANCH  18  19
ENDBRANCH  17  18
ENDBRANCH   1  17
TORSDOF 26
ENDMDL
MODEL 6
REMARK VINA RESULT:    -1.983      3.448     10.799
REMARK INTER + INTRA:          -7.114
REMARK INTER:                  -6.941
REMARK INTRA:                  -0.173
REMARK UNBOUND:                -2.117
REMARK SMILES CCCCCCCCCCCCCCCCCCCCCCCCCCCC(=O)[O-]
REMARK SMILES IDX 15 1 16 2 17 3 18 4 19 5 20 6 21 7 22 8 23 9 24 10 25 11
REMARK SMILES IDX 26 12 27 13 28 14 29 15 30 16 14 17 13 18 12 19 11 20 10 21
REMARK SMILES IDX 9 22 8 23 7 24 6 25 5 26 4 27 3 28 2 29 1 30
REMARK H PARENT
REMARK Flexibility Score: inf
ROOT
ATOM      1  C   UNL     1     -43.870  27.612   1.482  1.00  0.00     0.000 C 
ENDROOT
BRANCH   1   2
ATOM      2  C   UNL     1     -42.925  28.579   0.742  1.00  0.00     0.000 C 
BRANCH   2   3
ATOM      3  C   UNL     1     -43.451  29.095  -0.612  1.00  0.00     0.000 C 
BRANCH   3   4
ATOM      4  C   UNL     1     -44.966  28.935  -0.830  1.00  0.00     0.000 C 
BRANCH   4   5
ATOM      5  C   UNL     1     -45.529  27.525  -0.563  1.00  0.00     0.000 C 
BRANCH   5   6
ATOM      6  C   UNL     1     -45.013  26.441  -1.533  1.00  0.00     0.000 C 
BRANCH   6   7
ATOM      7  C   UNL     1     -46.142  25.583  -2.131  1.00  0.00     0.000 C 
BRANCH   7   8
ATOM      8  C   UNL     1     -47.075  26.384  -3.054  1.00  0.00     0.000 C 
BRANCH   8   9
ATOM      9  C   UNL     1     -46.841  26.116  -4.559  1.00  0.00     0.000 C 
BRANCH   9  10
ATOM     10  C   UNL     1     -46.465  27.371  -5.375  1.00  0.00     0.000 C 
BRANCH  10  11
ATOM     11  C   UNL     1     -46.324  28.676  -4.560  1.00  0.00     0.000 C 
BRANCH  11  12
ATOM     12  C   UNL     1     -46.456  29.980  -5.371  1.00  0.00     0.006 C 
BRANCH  12  13
ATOM     13  C   UNL     1     -45.454  30.112  -6.530  1.00  0.00     0.053 C 
BRANCH  13  14
ATOM     14  C   UNL     1     -45.790  29.198  -7.667  1.00  0.00     0.041 C 
ATOM     15  O   UNL     1     -46.500  29.610  -8.622  1.00  0.00    -0.550 OA
ATOM     16  O   UNL     1     -45.344  27.881  -7.658  1.00  0.00    -0.550 OA
ENDBRANCH  13  14
ENDBRANCH  12  13
ENDBRANCH  11  12
ENDBRANCH  10  11
ENDBRANCH   9  10
ENDBRANCH   8   9
ENDBRANCH   7   8
ENDBRANCH   6   7
ENDBRANCH   5   6
ENDBRANCH   4   5
ENDBRANCH   3   4
ENDBRANCH   2   3
ENDBRANCH   1   2
BRANCH   1  17
ATOM     17  C   UNL     1     -43.181  26.680   2.498  1.00  0.00     0.000 C 
BRANCH  17  18
ATOM     18  C   UNL     1     -43.465  27.001   3.980  1.00  0.00     0.000 C 
BRANCH  18  19
ATOM     19  C   UNL     1     -44.876  26.623   4.468  1.00  0.00     0.000 C 
BRANCH  19  20
ATOM     20  C   UNL     1     -45.829  27.830   4.529  1.00  0.00     0.000 C 
BRANCH  20  21
ATOM     21  C   UNL     1     -47.125  27.526   5.297  1.00  0.00     0.000 C 
BRANCH  21  22
ATOM     22  C   UNL     1     -47.007  27.839   6.797  1.00  0.00    -0.000 C 
BRANCH  22  23
ATOM     23  C   UNL     1     -46.983  29.349   7.081  1.00  0.00    -0.000 C 
BRANCH  23  24
ATOM     24  C   UNL     1     -46.208  29.697   8.362  1.00  0.00    -0.000 C 
BRANCH  24  25
ATOM     25  C   UNL     1     -45.649  28.453   9.076  1.00  0.00    -0.000 C 
BRANCH  25  26
ATOM     26  C   UNL     1     -44.119  28.300   8.940  1.00  0.00    -0.000 C 
BRANCH  26  27
ATOM     27  C   UNL     1     -43.428  29.631   8.600  1.00  0.00    -0.000 C 
BRANCH  27  28
ATOM     28  C   UNL     1     -42.648  29.577   7.274  1.00  0.00    -0.000 C 
BRANCH  28  29
ATOM     29  C   UNL     1     -43.484  29.886   6.019  1.00  0.00    -0.003 C 
ATOM     30  C   UNL     1     -42.626  30.125   4.776  1.00  0.00     0.004 C 
ENDBRANCH  28  29
ENDBRANCH  27  28
ENDBRANCH  26  27
ENDBRANCH  25  26
ENDBRANCH  24  25
ENDBRANCH  23  24
ENDBRANCH  22  23
ENDBRANCH  21  22
ENDBRANCH  20  21
ENDBRANCH  19  20
ENDBRANCH  18  19
ENDBRANCH  17  18
ENDBRANCH   1  17
TORSDOF 26
ENDMDL
