MODEL 1
REMARK VINA RESULT:    -3.739      0.000      0.000
REMARK INTER + INTRA:          -4.884
REMARK INTER:                  -4.613
REMARK INTRA:                  -0.271
REMARK UNBOUND:                -0.271
REMARK SMILES CCCCCC(=O)[O-]
REMARK SMILES IDX 4 1 5 2 6 3 7 4 8 5 3 6 2 7 1 8
REMARK H PARENT
REMARK Flexibility Score: inf
ROOT
ATOM      1  C   UNL     1      53.519  15.553  -1.928  1.00  0.00     0.006 C 
ENDROOT
BRANCH   1   2
ATOM      2  C   UNL     1      52.544  16.732  -1.805  1.00  0.00     0.053 C 
BRANCH   2   3
ATOM      3  C   UNL     1      52.790  17.481  -0.533  1.00  0.00     0.041 C 
ATOM      4  O   UNL     1      51.823  17.848   0.184  1.00  0.00    -0.550 OA
ATOM      5  O   UNL     1      54.091  17.732  -0.114  1.00  0.00    -0.550 OA
ENDBRANCH   2   3
ENDBRANCH   1   2
BRANCH   1   6
ATOM      6  C   UNL     1      53.151  14.383  -1.003  1.00  0.00     0.000 C 
BRANCH   6   7
ATOM      7  C   UNL     1      54.289  14.009  -0.042  1.00  0.00    -0.003 C 
ATOM      8  C   UNL     1      53.994  14.496   1.374  1.00  0.00     0.004 C 
ENDBRANCH   6   7
ENDBRANCH   1   6
TORSDOF 4
ENDMDL
MODEL 2
REMARK VINA RESULT:    -3.728      2.783      3.704
REMARK INTER + INTRA:          -4.871
REMARK INTER:                  -4.605
REMARK INTRA:                  -0.266
REMARK UNBOUND:                -0.271
REMARK SMILES CCCCCC(=O)[O-]
REMARK SMILES IDX 4 1 5 2 6 3 7 4 8 5 3 6 2 7 1 8
REMARK H PARENT
REMARK Flexibility Score: inf
ROOT
ATOM      1  C   UNL     1      54.708  17.152   2.576  1.00  0.00     0.006 C 
ENDROOT
BRANCH   1   2
ATOM      2  C   UNL     1      53.206  17.464   2.562  1.00  0.00     0.053 C 
BRANCH   2   3
ATOM      3  C   UNL     1      52.539  16.764   1.419  1.00  0.00     0.041 C 
ATOM      4  O   UNL     1      51.956  17.428   0.523  1.00  0.00    -0.550 OA
ATOM      5  O   UNL     1      52.604  15.380   1.318  1.00  0.00    -0.550 OA
ENDBRANCH   2   3
ENDBRANCH   1   2
BRANCH   1   6
ATOM      6  C   UNL     1      55.481  17.915   1.489  1.00  0.00     0.000 C 
BRANCH   6   7
ATOM      7  C   UNL     1      56.143  16.979   0.469  1.00  0.00    -0.003 C 
ATOM      8  C   UNL     1      55.494  17.117  -0.906  1.00  0.00     0.004 C 
ENDBRANCH   6   7
ENDBRANCH   1   6
TORSDOF 4
ENDMDL
MODEL 3
REMARK VINA RESULT:    -3.720      1.739      3.493
REMARK INTER + INTRA:          -4.861
REMARK INTER:                  -4.624
REMARK INTRA:                  -0.237
REMARK UNBOUND:                -0.271
REMARK SMILES CCCCCC(=O)[O-]
REMARK SMILES IDX 4 1 5 2 6 3 7 4 8 5 3 6 2 7 1 8
REMARK H PARENT
REMARK Flexibility Score: inf
ROOT
ATOM      1  C   UNL     1      53.100  14.485  -1.092  1.00  0.00     0.006 C 
ENDROOT
BRANCH   1   2
ATOM      2  C   UNL     1      54.265  13.793  -0.374  1.00  0.00     0.053 C 
BRANCH   2   3
ATOM      3  C   UNL     1      54.953  14.751   0.547  1.00  0.00     0.041 C 
ATOM      4  O   UNL     1      56.170  15.025   0.383  1.00  0.00    -0.550 OA
ATOM      5  O   UNL     1      54.236  15.380   1.558  1.00  0.00    -0.550 OA
ENDBRANCH   2   3
ENDBRANCH   1   2
BRANCH   1   6
ATOM      6  C   UNL     1      53.555  15.683  -1.941  1.00  0.00     0.000 C 
BRANCH   6   7
ATOM      7  C   UNL     1      52.512  16.808  -1.983  1.00  0.00    -0.003 C 
ATOM      8  C   UNL     1      52.473  17.571  -0.661  1.00  0.00     0.004 C 
ENDBRANCH   6   7
ENDBRANCH   1   6
TORSDOF 4
ENDMDL
MODEL 4
REMARK VINA RESULT:    -3.682      2.843      4.017
REMARK INTER + INTRA:          -4.814
REMARK INTER:                  -4.595
REMARK INTRA:                  -0.219
REMARK UNBOUND:                -0.271
REMARK SMILES CCCCCC(=O)[O-]
REMARK SMILES IDX 4 1 5 2 6 3 7 4 8 5 3 6 2 7 1 8
REMARK H PARENT
REMARK Flexibility Score: inf
ROOT
ATOM      1  C   UNL     1      54.692  17.142   2.541  1.00  0.00     0.006 C 
ENDROOT
BRANCH   1   2
ATOM      2  C   UNL     1      55.489  17.954   1.513  1.00  0.00     0.053 C 
BRANCH   2   3
ATOM      3  C   UNL     1      56.173  17.042   0.544  1.00  0.00     0.041 C 
ATOM      4  O   UNL     1      57.235  16.451   0.872  1.00  0.00    -0.550 OA
ATOM      5  O   UNL     1      55.611  16.805  -0.704  1.00  0.00    -0.550 OA
ENDBRANCH   2   3
ENDBRANCH   1   2
BRANCH   1   6
ATOM      6  C   UNL     1      53.190  17.465   2.515  1.00  0.00     0.000 C 
BRANCH   6   7
ATOM      7  C   UNL     1      52.413  16.580   1.530  1.00  0.00    -0.003 C 
ATOM      8  C   UNL     1      52.967  15.158   1.513  1.00  0.00     0.004 C 
ENDBRANCH   6   7
ENDBRANCH   1   6
TORSDOF 4
ENDMDL
MODEL 5
REMARK VINA RESULT:    -3.675      1.559      2.941
REMARK INTER + INTRA:          -4.805
REMARK INTER:                  -4.563
REMARK INTRA:                  -0.243
REMARK UNBOUND:                -0.271
REMARK SMILES CCCCCC(=O)[O-]
REMARK SMILES IDX 4 1 5 2 6 3 7 4 8 5 3 6 2 7 1 8
REMARK H PARENT
REMARK Flexibility Score: inf
ROOT
ATOM      1  C   UNL     1      53.892  14.773   0.525  1.00  0.00     0.006 C 
ENDROOT
BRANCH   1   2
ATOM      2  C   UNL     1      52.943  15.433   1.533  1.00  0.00     0.053 C 
BRANCH   2   3
ATOM      3  C   UNL     1      53.421  16.809   1.876  1.00  0.00     0.041 C 
ATOM      4  O   UNL     1      54.313  17.361   1.181  1.00  0.00    -0.550 OA
ATOM      5  O   UNL     1      52.847  17.501   2.936  1.00  0.00    -0.550 OA
ENDBRANCH   2   3
ENDBRANCH   1   2
BRANCH   1   6
ATOM      6  C   UNL     1      53.238  14.558  -0.849  1.00  0.00     0.000 C 
BRANCH   6   7
ATOM      7  C   UNL     1      53.592  15.666  -1.851  1.00  0.00    -0.003 C 
ATOM      8  C   UNL     1      52.507  16.739  -1.890  1.00  0.00     0.004 C 
ENDBRANCH   6   7
ENDBRANCH   1   6
TORSDOF 4
ENDMDL
MODEL 6
REMARK VINA RESULT:    -3.666      1.396      2.046
REMARK INTER + INTRA:          -4.794
REMARK INTER:                  -4.545
REMARK INTRA:                  -0.249
REMARK UNBOUND:                -0.271
REMARK SMILES CCCCCC(=O)[O-]
REMARK SMILES IDX 4 1 5 2 6 3 7 4 8 5 3 6 2 7 1 8
REMARK H PARENT
REMARK Flexibility Score: inf
ROOT
ATOM      1  C   UNL     1      53.070  17.018  -1.380  1.00  0.00     0.006 C 
ENDROOT
BRANCH   1   2
ATOM      2  C   UNL     1      54.269  17.908  -1.027  1.00  0.00     0.053 C 
BRANCH   2   3
ATOM      3  C   UNL     1      54.870  17.482   0.276  1.00  0.00     0.041 C 
ATOM      4  O   UNL     1      54.157  17.417   1.311  1.00  0.00    -0.550 OA
ATOM      5  O   UNL     1      56.207  17.109   0.336  1.00  0.00    -0.550 OA
ENDBRANCH   2   3
ENDBRANCH   1   2
BRANCH   1   6
ATOM      6  C   UNL     1      53.493  15.630  -1.885  1.00  0.00     0.000 C 
BRANCH   6   7
ATOM      7  C   UNL     1      53.054  14.499  -0.944  1.00  0.00    -0.003 C 
ATOM      8  C   UNL     1      54.258  13.717  -0.426  1.00  0.00     0.004 C 
ENDBRANCH   6   7
ENDBRANCH   1   6
TORSDOF 4
ENDMDL
MODEL 7
REMARK VINA RESULT:    -3.643      2.731      3.905
REMARK INTER + INTRA:          -4.766
REMARK INTER:                  -4.514
REMARK INTRA:                  -0.252
REMARK UNBOUND:                -0.271
REMARK SMILES CCCCCC(=O)[O-]
REMARK SMILES IDX 4 1 5 2 6 3 7 4 8 5 3 6 2 7 1 8
REMARK H PARENT
REMARK Flexibility Score: inf
ROOT
ATOM      1  C   UNL     1      53.266  16.221   1.601  1.00  0.00     0.006 C 
ENDROOT
BRANCH   1   2
ATOM      2  C   UNL     1      53.657  14.753   1.386  1.00  0.00     0.053 C 
BRANCH   2   3
ATOM      3  C   UNL     1      53.991  14.507  -0.051  1.00  0.00     0.041 C 
ATOM      4  O   UNL     1      54.308  13.352  -0.439  1.00  0.00    -0.550 OA
ATOM      5  O   UNL     1      53.905  15.543  -0.973  1.00  0.00    -0.550 OA
ENDBRANCH   2   3
ENDBRANCH   1   2
BRANCH   1   6
ATOM      6  C   UNL     1      54.341  17.014   2.361  1.00  0.00     0.000 C 
BRANCH   6   7
ATOM      7  C   UNL     1      55.221  17.859   1.429  1.00  0.00    -0.003 C 
ATOM      8  C   UNL     1      56.514  17.126   1.081  1.00  0.00     0.004 C 
ENDBRANCH   6   7
ENDBRANCH   1   6
TORSDOF 4
ENDMDL
MODEL 8
REMARK VINA RESULT:    -3.630      2.569      3.161
REMARK INTER + INTRA:          -4.750
REMARK INTER:                  -4.495
REMARK INTRA:                  -0.255
REMARK UNBOUND:                -0.271
REMARK SMILES CCCCCC(=O)[O-]
REMARK SMILES IDX 4 1 5 2 6 3 7 4 8 5 3 6 2 7 1 8
REMARK H PARENT
REMARK Flexibility Score: inf
ROOT
ATOM      1  C   UNL     1      55.409  17.009   0.222  1.00  0.00     0.006 C 
ENDROOT
BRANCH   1   2
ATOM      2  C   UNL     1      54.544  17.478  -0.955  1.00  0.00     0.053 C 
BRANCH   2   3
ATOM      3  C   UNL     1      53.350  16.589  -1.111  1.00  0.00     0.041 C 
ATOM      4  O   UNL     1      52.480  16.845  -1.983  1.00  0.00    -0.550 OA
ATOM      5  O   UNL     1      53.225  15.449  -0.326  1.00  0.00    -0.550 OA
ENDBRANCH   2   3
ENDBRANCH   1   2
BRANCH   1   6
ATOM      6  C   UNL     1      55.202  17.860   1.485  1.00  0.00     0.000 C 
BRANCH   6   7
ATOM      7  C   UNL     1      54.453  17.103   2.590  1.00  0.00    -0.003 C 
ATOM      8  C   UNL     1      52.984  17.514   2.639  1.00  0.00     0.004 C 
ENDBRANCH   6   7
ENDBRANCH   1   6
TORSDOF 4
ENDMDL
MODEL 9
REMARK VINA RESULT:    -3.610      1.816      3.101
REMARK INTER + INTRA:          -4.725
REMARK INTER:                  -4.464
REMARK INTRA:                  -0.261
REMARK UNBOUND:                -0.271
REMARK SMILES CCCCCC(=O)[O-]
REMARK SMILES IDX 4 1 5 2 6 3 7 4 8 5 3 6 2 7 1 8
REMARK H PARENT
REMARK Flexibility Score: inf
ROOT
ATOM      1  C   UNL     1      53.401  15.842   1.511  1.00  0.00     0.006 C 
ENDROOT
BRANCH   1   2
ATOM      2  C   UNL     1      54.391  16.864   2.085  1.00  0.00     0.053 C 
BRANCH   2   3
ATOM      3  C   UNL     1      55.346  17.317   1.025  1.00  0.00     0.041 C 
ATOM      4  O   UNL     1      56.588  17.258   1.224  1.00  0.00    -0.550 OA
ATOM      5  O   UNL     1      54.865  17.760  -0.201  1.00  0.00    -0.550 OA
ENDBRANCH   2   3
ENDBRANCH   1   2
BRANCH   1   6
ATOM      6  C   UNL     1      54.003  14.433   1.402  1.00  0.00     0.000 C 
BRANCH   6   7
ATOM      7  C   UNL     1      54.191  13.982  -0.054  1.00  0.00    -0.003 C 
ATOM      8  C   UNL     1      53.182  14.665  -0.975  1.00  0.00     0.004 C 
ENDBRANCH   6   7
ENDBRANCH   1   6
TORSDOF 4
ENDMDL
