MODEL 1
REMARK VINA RESULT:    -6.769      0.000      0.000
REMARK INTER + INTRA:          -8.349
REMARK INTER:                  -7.956
REMARK INTRA:                  -0.393
REMARK UNBOUND:                -0.393
REMARK SMILES C=C(C)[C@H]1CC[C@]2(CO)CC[C@@]3(C)[C@H](CC[C@H]4[C@@]5(C)CC[C@H](O)C(C)(C)[C@@H]5CC[C@]43C)[C@@H]12
REMARK SMILES IDX 4 1 5 2 6 3 7 4 32 5 14 6 15 7 16 8 17 9 18 10 20 11 21 12
REMARK SMILES IDX 22 13 24 14 27 15 28 16 29 17 30 18 12 19 11 20 10 21 13 22
REMARK SMILES IDX 31 23 25 24 26 25 19 26 2 27 3 28 1 29 8 30 9 31 23 33
REMARK H PARENT 9 32 23 34
REMARK Flexibility Score: inf
ROOT
ATOM      1  C   UNL     1      11.592  -1.207  33.307  1.00  0.00     0.018 C 
ATOM      2  C   UNL     1      11.051  -1.757  34.640  1.00  0.00     0.009 C 
ATOM      3  C   UNL     1      12.162  -1.516  35.683  1.00  0.00     0.010 C 
ATOM      4  C   UNL     1      13.483  -1.591  34.886  1.00  0.00    -0.003 C 
ATOM      5  C   UNL     1      13.079  -0.872  33.592  1.00  0.00     0.008 C 
ATOM      6  C   UNL     1      14.172  -0.845  32.464  1.00  0.00    -0.000 C 
ATOM      7  C   UNL     1      13.729   0.199  31.402  1.00  0.00     0.005 C 
ATOM      8  C   UNL     1      14.212   1.596  31.749  1.00  0.00     0.005 C 
ATOM      9  C   UNL     1      15.753   1.729  31.658  1.00  0.00     0.002 C 
ATOM     10  C   UNL     1      16.305   3.176  32.139  1.00  0.00    -0.026 C 
ATOM     11  C   UNL     1      15.206   4.065  32.810  1.00  0.00     0.010 C 
ATOM     12  C   UNL     1      15.738   5.400  33.346  1.00  0.00     0.033 C 
ATOM     13  C   UNL     1      16.808   5.172  34.422  1.00  0.00     0.120 C 
ATOM     14  C   UNL     1      18.004   4.299  33.922  1.00  0.00    -0.006 C 
ATOM     15  C   UNL     1      17.444   2.999  33.196  1.00  0.00     0.003 C 
ATOM     16  C   UNL     1      18.515   2.063  32.633  1.00  0.00     0.005 C 
ATOM     17  C   UNL     1      18.001   0.636  32.667  1.00  0.00     0.008 C 
ATOM     18  C   UNL     1      16.547   0.375  32.067  1.00  0.00    -0.024 C 
ATOM     19  C   UNL     1      15.660  -0.579  33.049  1.00  0.00    -0.024 C 
ATOM     20  C   UNL     1      15.528   0.042  34.502  1.00  0.00     0.008 C 
ATOM     21  C   UNL     1      14.654  -0.764  35.523  1.00  0.00     0.010 C 
ATOM     22  C   UNL     1      16.427  -1.941  33.205  1.00  0.00     0.012 C 
ATOM     23  C   UNL     1      16.848  -0.421  30.738  1.00  0.00     0.012 C 
ATOM     24  C   UNL     1      18.796   3.868  35.192  1.00  0.00     0.014 C 
ATOM     25  C   UNL     1      18.974   5.140  33.042  1.00  0.00     0.014 C 
ATOM     26  C   UNL     1      16.776   3.926  30.846  1.00  0.00     0.012 C 
ENDROOT
BRANCH   1  27
ATOM     27  C   UNL     1      11.279  -2.062  32.073  1.00  0.00    -0.077 C 
ATOM     28  C   UNL     1      11.392  -3.566  32.161  1.00  0.00     0.039 C 
ATOM     29  C   UNL     1      10.939  -1.539  30.884  1.00  0.00     0.008 C 
ENDBRANCH   1  27
BRANCH   4  30
ATOM     30  C   UNL     1      13.824  -3.118  34.709  1.00  0.00     0.163 C 
BRANCH  30  31
ATOM     31  O   UNL     1      14.300  -3.685  35.901  1.00  0.00    -0.396 OA
ATOM     32  H   UNL     1      13.927  -3.138  36.643  1.00  0.00     0.210 HD
ENDBRANCH  30  31
ENDBRANCH   4  30
BRANCH  13  33
ATOM     33  O   UNL     1      17.273   6.415  34.894  1.00  0.00    -0.393 OA
ATOM     34  H   UNL     1      16.713   6.655  35.679  1.00  0.00     0.210 HD
ENDBRANCH  13  33
TORSDOF 4
ENDMDL
MODEL 2
REMARK VINA RESULT:    -6.315      2.003      3.593
REMARK INTER + INTRA:          -7.816
REMARK INTER:                  -7.294
REMARK INTRA:                  -0.521
REMARK UNBOUND:                -0.393
REMARK SMILES C=C(C)[C@H]1CC[C@]2(CO)CC[C@@]3(C)[C@H](CC[C@H]4[C@@]5(C)CC[C@H](O)C(C)(C)[C@@H]5CC[C@]43C)[C@@H]12
REMARK SMILES IDX 4 1 5 2 6 3 7 4 32 5 14 6 15 7 16 8 17 9 18 10 20 11 21 12
REMARK SMILES IDX 22 13 24 14 27 15 28 16 29 17 30 18 12 19 11 20 10 21 13 22
REMARK SMILES IDX 31 23 25 24 26 25 19 26 2 27 3 28 1 29 8 30 9 31 23 33
REMARK H PARENT 9 32 23 34
REMARK Flexibility Score: inf
ROOT
ATOM      1  C   UNL     1      13.739  -3.839  31.093  1.00  0.00     0.018 C 
ATOM      2  C   UNL     1      12.325  -3.922  30.488  1.00  0.00     0.009 C 
ATOM      3  C   UNL     1      11.596  -2.638  30.931  1.00  0.00     0.010 C 
ATOM      4  C   UNL     1      12.217  -2.274  32.298  1.00  0.00    -0.003 C 
ATOM      5  C   UNL     1      13.692  -2.613  32.042  1.00  0.00     0.008 C 
ATOM      6  C   UNL     1      14.644  -2.465  33.283  1.00  0.00    -0.000 C 
ATOM      7  C   UNL     1      16.107  -2.503  32.761  1.00  0.00     0.005 C 
ATOM      8  C   UNL     1      16.599  -1.125  32.360  1.00  0.00     0.005 C 
ATOM      9  C   UNL     1      16.750  -0.173  33.573  1.00  0.00     0.002 C 
ATOM     10  C   UNL     1      17.159   1.341  33.158  1.00  0.00    -0.026 C 
ATOM     11  C   UNL     1      17.096   1.598  31.616  1.00  0.00     0.010 C 
ATOM     12  C   UNL     1      17.397   3.049  31.222  1.00  0.00     0.033 C 
ATOM     13  C   UNL     1      16.378   4.010  31.849  1.00  0.00     0.120 C 
ATOM     14  C   UNL     1      16.307   3.898  33.406  1.00  0.00    -0.006 C 
ATOM     15  C   UNL     1      16.184   2.368  33.823  1.00  0.00     0.003 C 
ATOM     16  C   UNL     1      16.130   2.112  35.330  1.00  0.00     0.005 C 
ATOM     17  C   UNL     1      15.305   0.867  35.598  1.00  0.00     0.008 C 
ATOM     18  C   UNL     1      15.656  -0.432  34.742  1.00  0.00    -0.024 C 
ATOM     19  C   UNL     1      14.308  -1.149  34.168  1.00  0.00    -0.024 C 
ATOM     20  C   UNL     1      13.448  -0.152  33.284  1.00  0.00     0.008 C 
ATOM     21  C   UNL     1      12.151  -0.744  32.636  1.00  0.00     0.010 C 
ATOM     22  C   UNL     1      13.420  -1.545  35.402  1.00  0.00     0.012 C 
ATOM     23  C   UNL     1      16.316  -1.392  35.808  1.00  0.00     0.012 C 
ATOM     24  C   UNL     1      15.014   4.647  33.843  1.00  0.00     0.014 C 
ATOM     25  C   UNL     1      17.507   4.634  34.070  1.00  0.00     0.014 C 
ATOM     26  C   UNL     1      18.651   1.536  33.597  1.00  0.00     0.012 C 
ENDROOT
BRANCH   1  27
ATOM     27  C   UNL     1      14.286  -5.156  31.659  1.00  0.00    -0.077 C 
ATOM     28  C   UNL     1      15.465  -5.821  30.987  1.00  0.00     0.039 C 
ATOM     29  C   UNL     1      13.744  -5.784  32.714  1.00  0.00     0.008 C 
ENDBRANCH   1  27
BRANCH   4  30
ATOM     30  C   UNL     1      11.513  -3.181  33.375  1.00  0.00     0.163 C 
BRANCH  30  31
ATOM     31  O   UNL     1      10.363  -2.568  33.897  1.00  0.00    -0.396 OA
ATOM     32  H   UNL     1       9.588  -2.967  33.419  1.00  0.00     0.210 HD
ENDBRANCH  30  31
ENDBRANCH   4  30
BRANCH  13  33
ATOM     33  O   UNL     1      16.680   5.331  31.467  1.00  0.00    -0.393 OA
ATOM     34  H   UNL     1      17.517   5.586  31.938  1.00  0.00     0.210 HD
ENDBRANCH  13  33
TORSDOF 4
ENDMDL
MODEL 3
REMARK VINA RESULT:    -5.574      3.883      7.456
REMARK INTER + INTRA:          -6.945
REMARK INTER:                  -6.951
REMARK INTRA:                   0.006
REMARK UNBOUND:                -0.393
REMARK SMILES C=C(C)[C@H]1CC[C@]2(CO)CC[C@@]3(C)[C@H](CC[C@H]4[C@@]5(C)CC[C@H](O)C(C)(C)[C@@H]5CC[C@]43C)[C@@H]12
REMARK SMILES IDX 4 1 5 2 6 3 7 4 32 5 14 6 15 7 16 8 17 9 18 10 20 11 21 12
REMARK SMILES IDX 22 13 24 14 27 15 28 16 29 17 30 18 12 19 11 20 10 21 13 22
REMARK SMILES IDX 31 23 25 24 26 25 19 26 2 27 3 28 1 29 8 30 9 31 23 33
REMARK H PARENT 9 32 23 34
REMARK Flexibility Score: inf
ROOT
ATOM      1  C   UNL     1      16.751  -2.324  26.384  1.00  0.00     0.018 C 
ATOM      2  C   UNL     1      16.686  -3.588  25.507  1.00  0.00     0.009 C 
ATOM      3  C   UNL     1      16.150  -4.712  26.417  1.00  0.00     0.010 C 
ATOM      4  C   UNL     1      16.644  -4.349  27.835  1.00  0.00    -0.003 C 
ATOM      5  C   UNL     1      16.458  -2.826  27.823  1.00  0.00     0.008 C 
ATOM      6  C   UNL     1      16.969  -2.072  29.102  1.00  0.00    -0.000 C 
ATOM      7  C   UNL     1      16.392  -0.630  29.063  1.00  0.00     0.005 C 
ATOM      8  C   UNL     1      15.018  -0.556  29.703  1.00  0.00     0.005 C 
ATOM      9  C   UNL     1      15.063  -0.806  31.232  1.00  0.00     0.002 C 
ATOM     10  C   UNL     1      13.595  -0.850  31.921  1.00  0.00    -0.026 C 
ATOM     11  C   UNL     1      12.424  -0.861  30.884  1.00  0.00     0.010 C 
ATOM     12  C   UNL     1      11.036  -0.991  31.523  1.00  0.00     0.033 C 
ATOM     13  C   UNL     1      10.914  -2.305  32.307  1.00  0.00     0.120 C 
ATOM     14  C   UNL     1      12.012  -2.466  33.407  1.00  0.00    -0.006 C 
ATOM     15  C   UNL     1      13.439  -2.146  32.784  1.00  0.00     0.003 C 
ATOM     16  C   UNL     1      14.609  -2.244  33.766  1.00  0.00     0.005 C 
ATOM     17  C   UNL     1      15.859  -2.664  33.015  1.00  0.00     0.008 C 
ATOM     18  C   UNL     1      16.209  -1.860  31.683  1.00  0.00    -0.024 C 
ATOM     19  C   UNL     1      16.622  -2.870  30.471  1.00  0.00    -0.024 C 
ATOM     20  C   UNL     1      15.473  -3.918  30.167  1.00  0.00     0.008 C 
ATOM     21  C   UNL     1      15.736  -4.911  28.984  1.00  0.00     0.010 C 
ATOM     22  C   UNL     1      17.875  -3.692  30.945  1.00  0.00     0.012 C 
ATOM     23  C   UNL     1      17.486  -1.028  32.096  1.00  0.00     0.012 C 
ATOM     24  C   UNL     1      11.975  -3.959  33.849  1.00  0.00     0.014 C 
ATOM     25  C   UNL     1      11.669  -1.611  34.662  1.00  0.00     0.014 C 
ATOM     26  C   UNL     1      13.456   0.467  32.759  1.00  0.00     0.012 C 
ENDROOT
BRANCH   1  27
ATOM     27  C   UNL     1      17.991  -1.447  26.175  1.00  0.00    -0.077 C 
ATOM     28  C   UNL     1      17.947   0.011  26.569  1.00  0.00     0.039 C 
ATOM     29  C   UNL     1      19.125  -1.899  25.615  1.00  0.00     0.008 C 
ENDBRANCH   1  27
BRANCH   4  30
ATOM     30  C   UNL     1      18.141  -4.827  27.934  1.00  0.00     0.163 C 
BRANCH  30  31
ATOM     31  O   UNL     1      18.238  -6.118  28.476  1.00  0.00    -0.396 OA
ATOM     32  H   UNL     1      18.503  -6.719  27.730  1.00  0.00     0.210 HD
ENDBRANCH  30  31
ENDBRANCH   4  30
BRANCH  13  33
ATOM     33  O   UNL     1       9.630  -2.394  32.878  1.00  0.00    -0.393 OA
ATOM     34  H   UNL     1       9.618  -3.215  33.437  1.00  0.00     0.210 HD
ENDBRANCH  13  33
TORSDOF 4
ENDMDL
MODEL 4
REMARK VINA RESULT:    -5.474      2.780      4.297
REMARK INTER + INTRA:          -6.827
REMARK INTER:                  -6.308
REMARK INTRA:                  -0.519
REMARK UNBOUND:                -0.393
REMARK SMILES C=C(C)[C@H]1CC[C@]2(CO)CC[C@@]3(C)[C@H](CC[C@H]4[C@@]5(C)CC[C@H](O)C(C)(C)[C@@H]5CC[C@]43C)[C@@H]12
REMARK SMILES IDX 4 1 5 2 6 3 7 4 32 5 14 6 15 7 16 8 17 9 18 10 20 11 21 12
REMARK SMILES IDX 22 13 24 14 27 15 28 16 29 17 30 18 12 19 11 20 10 21 13 22
REMARK SMILES IDX 31 23 25 24 26 25 19 26 2 27 3 28 1 29 8 30 9 31 23 33
REMARK H PARENT 9 32 23 34
REMARK Flexibility Score: inf
ROOT
ATOM      1  C   UNL     1      15.480  -3.970  31.308  1.00  0.00     0.018 C 
ATOM      2  C   UNL     1      16.640  -4.982  31.273  1.00  0.00     0.009 C 
ATOM      3  C   UNL     1      17.917  -4.158  31.005  1.00  0.00     0.010 C 
ATOM      4  C   UNL     1      17.447  -2.952  30.162  1.00  0.00    -0.003 C 
ATOM      5  C   UNL     1      16.109  -2.631  30.841  1.00  0.00     0.008 C 
ATOM      6  C   UNL     1      15.266  -1.489  30.167  1.00  0.00    -0.000 C 
ATOM      7  C   UNL     1      14.151  -1.074  31.167  1.00  0.00     0.005 C 
ATOM      8  C   UNL     1      14.628  -0.001  32.129  1.00  0.00     0.005 C 
ATOM      9  C   UNL     1      14.900   1.350  31.422  1.00  0.00     0.002 C 
ATOM     10  C   UNL     1      15.524   2.479  32.407  1.00  0.00    -0.026 C 
ATOM     11  C   UNL     1      15.939   1.917  33.806  1.00  0.00     0.010 C 
ATOM     12  C   UNL     1      16.610   2.957  34.712  1.00  0.00     0.033 C 
ATOM     13  C   UNL     1      17.900   3.490  34.074  1.00  0.00     0.120 C 
ATOM     14  C   UNL     1      17.674   4.104  32.655  1.00  0.00    -0.006 C 
ATOM     15  C   UNL     1      16.813   3.099  31.773  1.00  0.00     0.003 C 
ATOM     16  C   UNL     1      16.496   3.590  30.359  1.00  0.00     0.005 C 
ATOM     17  C   UNL     1      16.381   2.397  29.428  1.00  0.00     0.008 C 
ATOM     18  C   UNL     1      15.455   1.191  29.907  1.00  0.00    -0.024 C 
ATOM     19  C   UNL     1      16.186  -0.249  29.674  1.00  0.00    -0.024 C 
ATOM     20  C   UNL     1      17.580  -0.324  30.425  1.00  0.00     0.008 C 
ATOM     21  C   UNL     1      18.354  -1.682  30.314  1.00  0.00     0.010 C 
ATOM     22  C   UNL     1      16.489  -0.383  28.138  1.00  0.00     0.012 C 
ATOM     23  C   UNL     1      14.217   1.285  28.933  1.00  0.00     0.012 C 
ATOM     24  C   UNL     1      19.084   4.260  32.013  1.00  0.00     0.014 C 
ATOM     25  C   UNL     1      17.060   5.530  32.760  1.00  0.00     0.014 C 
ATOM     26  C   UNL     1      14.390   3.533  32.651  1.00  0.00     0.012 C 
ENDROOT
BRANCH   1  27
ATOM     27  C   UNL     1      14.190  -4.430  30.618  1.00  0.00    -0.077 C 
ATOM     28  C   UNL     1      12.863  -4.231  31.312  1.00  0.00     0.039 C 
ATOM     29  C   UNL     1      14.175  -5.046  29.425  1.00  0.00     0.008 C 
ENDBRANCH   1  27
BRANCH   4  30
ATOM     30  C   UNL     1      17.324  -3.455  28.675  1.00  0.00     0.163 C 
BRANCH  30  31
ATOM     31  O   UNL     1      18.534  -3.313  27.978  1.00  0.00    -0.396 OA
ATOM     32  H   UNL     1      18.707  -4.184  27.532  1.00  0.00     0.210 HD
ENDBRANCH  30  31
ENDBRANCH   4  30
BRANCH  13  33
ATOM     33  O   UNL     1      18.491   4.438  34.930  1.00  0.00    -0.393 OA
ATOM     34  H   UNL     1      19.420   4.582  34.607  1.00  0.00     0.210 HD
ENDBRANCH  13  33
TORSDOF 4
ENDMDL
MODEL 5
REMARK VINA RESULT:    -5.244      2.914      5.546
REMARK INTER + INTRA:          -6.557
REMARK INTER:                  -6.180
REMARK INTRA:                  -0.376
REMARK UNBOUND:                -0.393
REMARK SMILES C=C(C)[C@H]1CC[C@]2(CO)CC[C@@]3(C)[C@H](CC[C@H]4[C@@]5(C)CC[C@H](O)C(C)(C)[C@@H]5CC[C@]43C)[C@@H]12
REMARK SMILES IDX 4 1 5 2 6 3 7 4 32 5 14 6 15 7 16 8 17 9 18 10 20 11 21 12
REMARK SMILES IDX 22 13 24 14 27 15 28 16 29 17 30 18 12 19 11 20 10 21 13 22
REMARK SMILES IDX 31 23 25 24 26 25 19 26 2 27 3 28 1 29 8 30 9 31 23 33
REMARK H PARENT 9 32 23 34
REMARK Flexibility Score: inf
ROOT
ATOM      1  C   UNL     1      18.178  -1.925  29.196  1.00  0.00     0.018 C 
ATOM      2  C   UNL     1      18.839  -1.692  27.825  1.00  0.00     0.009 C 
ATOM      3  C   UNL     1      18.631  -0.198  27.500  1.00  0.00     0.010 C 
ATOM      4  C   UNL     1      17.302   0.181  28.189  1.00  0.00    -0.003 C 
ATOM      5  C   UNL     1      17.425  -0.604  29.502  1.00  0.00     0.008 C 
ATOM      6  C   UNL     1      16.171  -0.543  30.446  1.00  0.00    -0.000 C 
ATOM      7  C   UNL     1      16.602  -1.083  31.838  1.00  0.00     0.005 C 
ATOM      8  C   UNL     1      17.177   0.014  32.715  1.00  0.00     0.005 C 
ATOM      9  C   UNL     1      16.111   1.061  33.129  1.00  0.00     0.002 C 
ATOM     10  C   UNL     1      16.723   2.308  33.966  1.00  0.00    -0.026 C 
ATOM     11  C   UNL     1      18.287   2.327  33.994  1.00  0.00     0.010 C 
ATOM     12  C   UNL     1      18.876   3.549  34.709  1.00  0.00     0.033 C 
ATOM     13  C   UNL     1      18.453   4.849  34.011  1.00  0.00     0.120 C 
ATOM     14  C   UNL     1      16.902   5.007  33.899  1.00  0.00    -0.006 C 
ATOM     15  C   UNL     1      16.271   3.664  33.330  1.00  0.00     0.003 C 
ATOM     16  C   UNL     1      14.747   3.674  33.191  1.00  0.00     0.005 C 
ATOM     17  C   UNL     1      14.343   2.777  32.036  1.00  0.00     0.008 C 
ATOM     18  C   UNL     1      14.977   1.315  31.998  1.00  0.00    -0.024 C 
ATOM     19  C   UNL     1      15.510   0.936  30.503  1.00  0.00    -0.024 C 
ATOM     20  C   UNL     1      16.576   1.986  29.980  1.00  0.00     0.008 C 
ATOM     21  C   UNL     1      17.198   1.699  28.572  1.00  0.00     0.010 C 
ATOM     22  C   UNL     1      14.280   1.012  29.529  1.00  0.00     0.012 C 
ATOM     23  C   UNL     1      13.747   0.385  32.339  1.00  0.00     0.012 C 
ATOM     24  C   UNL     1      16.651   6.157  32.878  1.00  0.00     0.014 C 
ATOM     25  C   UNL     1      16.292   5.462  35.256  1.00  0.00     0.014 C 
ATOM     26  C   UNL     1      16.239   2.132  35.447  1.00  0.00     0.012 C 
ENDROOT
BRANCH   1  27
ATOM     27  C   UNL     1      17.396  -3.237  29.330  1.00  0.00    -0.077 C 
ATOM     28  C   UNL     1      17.753  -4.208  30.431  1.00  0.00     0.039 C 
ATOM     29  C   UNL     1      16.418  -3.599  28.484  1.00  0.00     0.008 C 
ENDBRANCH   1  27
BRANCH   4  30
ATOM     30  C   UNL     1      16.141  -0.303  27.242  1.00  0.00     0.163 C 
BRANCH  30  31
ATOM     31  O   UNL     1      15.446   0.778  26.678  1.00  0.00    -0.396 OA
ATOM     32  H   UNL     1      14.825   1.111  27.379  1.00  0.00     0.210 HD
ENDBRANCH  30  31
ENDBRANCH   4  30
BRANCH  13  33
ATOM     33  O   UNL     1      19.010   5.949  34.689  1.00  0.00    -0.393 OA
ATOM     34  H   UNL     1      18.908   5.773  35.662  1.00  0.00     0.210 HD
ENDBRANCH  13  33
TORSDOF 4
ENDMDL
MODEL 6
REMARK VINA RESULT:    -5.239      2.356      3.135
REMARK INTER + INTRA:          -6.551
REMARK INTER:                  -6.053
REMARK INTRA:                  -0.498
REMARK UNBOUND:                -0.393
REMARK SMILES C=C(C)[C@H]1CC[C@]2(CO)CC[C@@]3(C)[C@H](CC[C@H]4[C@@]5(C)CC[C@H](O)C(C)(C)[C@@H]5CC[C@]43C)[C@@H]12
REMARK SMILES IDX 4 1 5 2 6 3 7 4 32 5 14 6 15 7 16 8 17 9 18 10 20 11 21 12
REMARK SMILES IDX 22 13 24 14 27 15 28 16 29 17 30 18 12 19 11 20 10 21 13 22
REMARK SMILES IDX 31 23 25 24 26 25 19 26 2 27 3 28 1 29 8 30 9 31 23 33
REMARK H PARENT 9 32 23 34
REMARK Flexibility Score: inf
ROOT
ATOM      1  C   UNL     1      13.778  -3.506  33.478  1.00  0.00     0.018 C 
ATOM      2  C   UNL     1      14.313  -4.094  34.797  1.00  0.00     0.009 C 
ATOM      3  C   UNL     1      15.726  -3.505  34.985  1.00  0.00     0.010 C 
ATOM      4  C   UNL     1      16.260  -3.281  33.553  1.00  0.00    -0.003 C 
ATOM      5  C   UNL     1      14.993  -2.775  32.849  1.00  0.00     0.008 C 
ATOM      6  C   UNL     1      15.129  -2.533  31.304  1.00  0.00    -0.000 C 
ATOM      7  C   UNL     1      13.894  -1.710  30.844  1.00  0.00     0.005 C 
ATOM      8  C   UNL     1      14.127  -0.217  30.986  1.00  0.00     0.005 C 
ATOM      9  C   UNL     1      15.205   0.309  30.005  1.00  0.00     0.002 C 
ATOM     10  C   UNL     1      15.559   1.878  30.217  1.00  0.00    -0.026 C 
ATOM     11  C   UNL     1      14.917   2.488  31.507  1.00  0.00     0.010 C 
ATOM     12  C   UNL     1      15.317   3.946  31.763  1.00  0.00     0.033 C 
ATOM     13  C   UNL     1      16.835   4.075  31.949  1.00  0.00     0.120 C 
ATOM     14  C   UNL     1      17.649   3.516  30.738  1.00  0.00    -0.006 C 
ATOM     15  C   UNL     1      17.105   2.073  30.353  1.00  0.00     0.003 C 
ATOM     16  C   UNL     1      17.804   1.417  29.160  1.00  0.00     0.005 C 
ATOM     17  C   UNL     1      17.785  -0.090  29.335  1.00  0.00     0.008 C 
ATOM     18  C   UNL     1      16.385  -0.760  29.702  1.00  0.00    -0.024 C 
ATOM     19  C   UNL     1      16.545  -1.850  30.906  1.00  0.00    -0.024 C 
ATOM     20  C   UNL     1      17.173  -1.196  32.206  1.00  0.00     0.008 C 
ATOM     21  C   UNL     1      17.329  -2.137  33.448  1.00  0.00     0.010 C 
ATOM     22  C   UNL     1      17.553  -2.951  30.417  1.00  0.00     0.012 C 
ATOM     23  C   UNL     1      16.003  -1.531  28.379  1.00  0.00     0.012 C 
ATOM     24  C   UNL     1      19.125   3.389  31.222  1.00  0.00     0.014 C 
ATOM     25  C   UNL     1      17.644   4.526  29.553  1.00  0.00     0.014 C 
ATOM     26  C   UNL     1      14.947   2.643  28.993  1.00  0.00     0.012 C 
ENDROOT
BRANCH   1  27
ATOM     27  C   UNL     1      13.002  -4.488  32.592  1.00  0.00    -0.077 C 
ATOM     28  C   UNL     1      13.627  -5.814  32.227  1.00  0.00     0.039 C 
ATOM     29  C   UNL     1      11.791  -4.217  32.079  1.00  0.00     0.008 C 
ENDBRANCH   1  27
BRANCH   4  30
ATOM     30  C   UNL     1      16.785  -4.673  33.038  1.00  0.00     0.163 C 
BRANCH  30  31
ATOM     31  O   UNL     1      18.108  -4.910  33.442  1.00  0.00    -0.396 OA
ATOM     32  H   UNL     1      18.084  -5.043  34.426  1.00  0.00     0.210 HD
ENDBRANCH  30  31
ENDBRANCH   4  30
BRANCH  13  33
ATOM     33  O   UNL     1      17.167   5.423  32.183  1.00  0.00    -0.393 OA
ATOM     34  H   UNL     1      18.159   5.478  32.198  1.00  0.00     0.210 HD
ENDBRANCH  13  33
TORSDOF 4
ENDMDL
MODEL 7
REMARK VINA RESULT:    -5.108      3.195      5.932
REMARK INTER + INTRA:          -6.396
REMARK INTER:                  -5.900
REMARK INTRA:                  -0.496
REMARK UNBOUND:                -0.393
REMARK SMILES C=C(C)[C@H]1CC[C@]2(CO)CC[C@@]3(C)[C@H](CC[C@H]4[C@@]5(C)CC[C@H](O)C(C)(C)[C@@H]5CC[C@]43C)[C@@H]12
REMARK SMILES IDX 4 1 5 2 6 3 7 4 32 5 14 6 15 7 16 8 17 9 18 10 20 11 21 12
REMARK SMILES IDX 22 13 24 14 27 15 28 16 29 17 30 18 12 19 11 20 10 21 13 22
REMARK SMILES IDX 31 23 25 24 26 25 19 26 2 27 3 28 1 29 8 30 9 31 23 33
REMARK H PARENT 9 32 23 34
REMARK Flexibility Score: inf
ROOT
ATOM      1  C   UNL     1      16.615   1.823  29.756  1.00  0.00     0.018 C 
ATOM      2  C   UNL     1      15.291   1.090  29.471  1.00  0.00     0.009 C 
ATOM      3  C   UNL     1      14.232   1.754  30.375  1.00  0.00     0.010 C 
ATOM      4  C   UNL     1      15.011   2.230  31.621  1.00  0.00    -0.003 C 
ATOM      5  C   UNL     1      16.309   2.733  30.974  1.00  0.00     0.008 C 
ATOM      6  C   UNL     1      17.421   3.212  31.974  1.00  0.00    -0.000 C 
ATOM      7  C   UNL     1      18.486   3.994  31.156  1.00  0.00     0.005 C 
ATOM      8  C   UNL     1      18.129   5.463  31.024  1.00  0.00     0.005 C 
ATOM      9  C   UNL     1      18.198   6.213  32.379  1.00  0.00     0.002 C 
ATOM     10  C   UNL     1      17.705   7.756  32.286  1.00  0.00    -0.026 C 
ATOM     11  C   UNL     1      17.047   8.114  30.913  1.00  0.00     0.010 C 
ATOM     12  C   UNL     1      16.499   9.546  30.849  1.00  0.00     0.033 C 
ATOM     13  C   UNL     1      15.409   9.765  31.906  1.00  0.00     0.120 C 
ATOM     14  C   UNL     1      15.896   9.458  33.360  1.00  0.00    -0.006 C 
ATOM     15  C   UNL     1      16.632   8.050  33.387  1.00  0.00     0.003 C 
ATOM     16  C   UNL     1      17.183   7.636  34.753  1.00  0.00     0.005 C 
ATOM     17  C   UNL     1      17.160   6.123  34.865  1.00  0.00     0.008 C 
ATOM     18  C   UNL     1      17.781   5.297  33.650  1.00  0.00    -0.024 C 
ATOM     19  C   UNL     1      16.814   4.057  33.218  1.00  0.00    -0.024 C 
ATOM     20  C   UNL     1      15.362   4.557  32.827  1.00  0.00     0.008 C 
ATOM     21  C   UNL     1      14.356   3.457  32.345  1.00  0.00     0.010 C 
ATOM     22  C   UNL     1      16.652   3.124  34.472  1.00  0.00     0.012 C 
ATOM     23  C   UNL     1      19.108   4.704  34.265  1.00  0.00     0.012 C 
ATOM     24  C   UNL     1      14.615   9.378  34.244  1.00  0.00     0.014 C 
ATOM     25  C   UNL     1      16.759  10.629  33.914  1.00  0.00     0.014 C 
ATOM     26  C   UNL     1      18.989   8.643  32.427  1.00  0.00     0.012 C 
ENDROOT
BRANCH   1  27
ATOM     27  C   UNL     1      17.856   0.925  29.832  1.00  0.00    -0.077 C 
ATOM     28  C   UNL     1      18.942   1.066  28.791  1.00  0.00     0.039 C 
ATOM     29  C   UNL     1      18.019  -0.025  30.768  1.00  0.00     0.008 C 
ENDBRANCH   1  27
BRANCH   4  30
ATOM     30  C   UNL     1      15.188   0.976  32.556  1.00  0.00     0.163 C 
BRANCH  30  31
ATOM     31  O   UNL     1      13.977   0.290  32.738  1.00  0.00    -0.396 OA
ATOM     32  H   UNL     1      13.302   0.753  32.174  1.00  0.00     0.210 HD
ENDBRANCH  30  31
ENDBRANCH   4  30
BRANCH  13  33
ATOM     33  O   UNL     1      14.928  11.085  31.819  1.00  0.00    -0.393 OA
ATOM     34  H   UNL     1      15.061  11.502  32.710  1.00  0.00     0.210 HD
ENDBRANCH  13  33
TORSDOF 4
ENDMDL
MODEL 8
REMARK VINA RESULT:    -5.078      3.856      9.349
REMARK INTER + INTRA:          -6.362
REMARK INTER:                  -5.805
REMARK INTRA:                  -0.556
REMARK UNBOUND:                -0.393
REMARK SMILES C=C(C)[C@H]1CC[C@]2(CO)CC[C@@]3(C)[C@H](CC[C@H]4[C@@]5(C)CC[C@H](O)C(C)(C)[C@@H]5CC[C@]43C)[C@@H]12
REMARK SMILES IDX 4 1 5 2 6 3 7 4 32 5 14 6 15 7 16 8 17 9 18 10 20 11 21 12
REMARK SMILES IDX 22 13 24 14 27 15 28 16 29 17 30 18 12 19 11 20 10 21 13 22
REMARK SMILES IDX 31 23 25 24 26 25 19 26 2 27 3 28 1 29 8 30 9 31 23 33
REMARK H PARENT 9 32 23 34
REMARK Flexibility Score: inf
ROOT
ATOM      1  C   UNL     1      14.861  10.355  33.396  1.00  0.00     0.018 C 
ATOM      2  C   UNL     1      14.466  11.301  32.247  1.00  0.00     0.009 C 
ATOM      3  C   UNL     1      14.982  10.640  30.953  1.00  0.00     0.010 C 
ATOM      4  C   UNL     1      16.239   9.850  31.380  1.00  0.00    -0.003 C 
ATOM      5  C   UNL     1      15.782   9.295  32.736  1.00  0.00     0.008 C 
ATOM      6  C   UNL     1      16.871   8.500  33.542  1.00  0.00    -0.000 C 
ATOM      7  C   UNL     1      16.147   7.736  34.686  1.00  0.00     0.005 C 
ATOM      8  C   UNL     1      15.651   6.376  34.229  1.00  0.00     0.005 C 
ATOM      9  C   UNL     1      16.812   5.397  33.917  1.00  0.00     0.002 C 
ATOM     10  C   UNL     1      16.312   3.977  33.313  1.00  0.00    -0.026 C 
ATOM     11  C   UNL     1      14.790   3.959  32.952  1.00  0.00     0.010 C 
ATOM     12  C   UNL     1      14.328   2.651  32.300  1.00  0.00     0.033 C 
ATOM     13  C   UNL     1      15.074   2.400  30.983  1.00  0.00     0.120 C 
ATOM     14  C   UNL     1      16.627   2.377  31.154  1.00  0.00    -0.006 C 
ATOM     15  C   UNL     1      17.088   3.644  31.996  1.00  0.00     0.003 C 
ATOM     16  C   UNL     1      18.593   3.732  32.260  1.00  0.00     0.005 C 
ATOM     17  C   UNL     1      19.000   5.190  32.357  1.00  0.00     0.008 C 
ATOM     18  C   UNL     1      18.129   6.124  33.313  1.00  0.00    -0.024 C 
ATOM     19  C   UNL     1      17.768   7.541  32.592  1.00  0.00    -0.024 C 
ATOM     20  C   UNL     1      16.996   7.321  31.225  1.00  0.00     0.008 C 
ATOM     21  C   UNL     1      16.551   8.616  30.463  1.00  0.00     0.010 C 
ATOM     22  C   UNL     1      19.124   8.253  32.239  1.00  0.00     0.012 C 
ATOM     23  C   UNL     1      19.109   6.412  34.517  1.00  0.00     0.012 C 
ATOM     24  C   UNL     1      17.229   2.475  29.720  1.00  0.00     0.014 C 
ATOM     25  C   UNL     1      17.098   1.020  31.753  1.00  0.00     0.014 C 
ATOM     26  C   UNL     1      16.529   2.911  34.442  1.00  0.00     0.012 C 
ENDROOT
BRANCH   1  27
ATOM     27  C   UNL     1      15.369  11.047  34.667  1.00  0.00    -0.077 C 
ATOM     28  C   UNL     1      14.764  10.685  36.004  1.00  0.00     0.039 C 
ATOM     29  C   UNL     1      16.312  12.003  34.657  1.00  0.00     0.008 C 
ENDBRANCH   1  27
BRANCH   4  30
ATOM     30  C   UNL     1      17.423  10.883  31.459  1.00  0.00     0.163 C 
BRANCH  30  31
ATOM     31  O   UNL     1      18.019  11.087  30.204  1.00  0.00    -0.396 OA
ATOM     32  H   UNL     1      17.398  10.701  29.531  1.00  0.00     0.210 HD
ENDBRANCH  30  31
ENDBRANCH   4  30
BRANCH  13  33
ATOM     33  O   UNL     1      14.626   1.195  30.409  1.00  0.00    -0.393 OA
ATOM     34  H   UNL     1      13.923   0.831  31.011  1.00  0.00     0.210 HD
ENDBRANCH  13  33
TORSDOF 4
ENDMDL
