MODEL 1
REMARK VINA RESULT:    -3.761      0.000      0.000
REMARK INTER + INTRA:          -5.794
REMARK INTER:                  -5.301
REMARK INTRA:                  -0.493
REMARK UNBOUND:                -0.493
REMARK SMILES CCCCCCCCC(=O)[O-]
REMARK SMILES IDX 6 1 7 2 8 3 9 4 10 5 11 6 5 7 4 8 3 9 2 10 1 11
REMARK H PARENT
REMARK Flexibility Score: inf
ROOT
ATOM      1  C   UNL     1      29.840   5.691  16.044  1.00  0.00     0.000 C 
ENDROOT
BRANCH   1   2
ATOM      2  C   UNL     1      28.986   6.735  15.302  1.00  0.00     0.006 C 
BRANCH   2   3
ATOM      3  C   UNL     1      27.600   6.191  14.931  1.00  0.00     0.053 C 
BRANCH   3   4
ATOM      4  C   UNL     1      27.318   6.332  13.466  1.00  0.00     0.041 C 
ATOM      5  O   UNL     1      26.591   5.488  12.877  1.00  0.00    -0.550 OA
ATOM      6  O   UNL     1      27.832   7.410  12.758  1.00  0.00    -0.550 OA
ENDBRANCH   3   4
ENDBRANCH   2   3
ENDBRANCH   1   2
BRANCH   1   7
ATOM      7  C   UNL     1      30.436   6.236  17.351  1.00  0.00     0.000 C 
BRANCH   7   8
ATOM      8  C   UNL     1      29.888   5.523  18.597  1.00  0.00    -0.000 C 
BRANCH   8   9
ATOM      9  C   UNL     1      30.056   4.001  18.477  1.00  0.00    -0.000 C 
BRANCH   9  10
ATOM     10  C   UNL     1      28.835   3.228  18.997  1.00  0.00    -0.003 C 
ATOM     11  C   UNL     1      27.540   3.620  18.286  1.00  0.00     0.004 C 
ENDBRANCH   9  10
ENDBRANCH   8   9
ENDBRANCH   7   8
ENDBRANCH   1   7
TORSDOF 7
ENDMDL
MODEL 2
REMARK VINA RESULT:    -3.673      3.480      4.905
REMARK INTER + INTRA:          -5.669
REMARK INTER:                  -5.287
REMARK INTRA:                  -0.382
REMARK UNBOUND:                -0.493
REMARK SMILES CCCCCCCCC(=O)[O-]
REMARK SMILES IDX 6 1 7 2 8 3 9 4 10 5 11 6 5 7 4 8 3 9 2 10 1 11
REMARK H PARENT
REMARK Flexibility Score: inf
ROOT
ATOM      1  C   UNL     1      24.424   5.333  15.447  1.00  0.00     0.000 C 
ENDROOT
BRANCH   1   2
ATOM      2  C   UNL     1      25.938   5.123  15.271  1.00  0.00     0.006 C 
BRANCH   2   3
ATOM      3  C   UNL     1      26.656   6.411  14.845  1.00  0.00     0.053 C 
BRANCH   3   4
ATOM      4  C   UNL     1      27.024   6.392  13.393  1.00  0.00     0.041 C 
ATOM      5  O   UNL     1      27.699   7.334  12.898  1.00  0.00    -0.550 OA
ATOM      6  O   UNL     1      26.650   5.320  12.594  1.00  0.00    -0.550 OA
ENDBRANCH   3   4
ENDBRANCH   2   3
ENDBRANCH   1   2
BRANCH   1   7
ATOM      7  C   UNL     1      24.067   6.777  15.832  1.00  0.00     0.000 C 
BRANCH   7   8
ATOM      8  C   UNL     1      23.060   6.852  16.990  1.00  0.00    -0.000 C 
BRANCH   8   9
ATOM      9  C   UNL     1      23.017   5.527  17.766  1.00  0.00    -0.000 C 
BRANCH   9  10
ATOM     10  C   UNL     1      23.146   5.727  19.284  1.00  0.00    -0.003 C 
ATOM     11  C   UNL     1      22.813   4.463  20.077  1.00  0.00     0.004 C 
ENDBRANCH   9  10
ENDBRANCH   8   9
ENDBRANCH   7   8
ENDBRANCH   1   7
TORSDOF 7
ENDMDL
MODEL 3
REMARK VINA RESULT:    -3.664      8.357      9.741
REMARK INTER + INTRA:          -5.656
REMARK INTER:                  -5.020
REMARK INTRA:                  -0.635
REMARK UNBOUND:                -0.493
REMARK SMILES CCCCCCCCC(=O)[O-]
REMARK SMILES IDX 6 1 7 2 8 3 9 4 10 5 11 6 5 7 4 8 3 9 2 10 1 11
REMARK H PARENT
REMARK Flexibility Score: inf
ROOT
ATOM      1  C   UNL     1      23.268   7.149  11.253  1.00  0.00     0.000 C 
ENDROOT
BRANCH   1   2
ATOM      2  C   UNL     1      22.086   7.524  10.341  1.00  0.00     0.006 C 
BRANCH   2   3
ATOM      3  C   UNL     1      20.740   7.071  10.923  1.00  0.00     0.053 C 
BRANCH   3   4
ATOM      4  C   UNL     1      19.618   7.259   9.948  1.00  0.00     0.041 C 
ATOM      5  O   UNL     1      19.343   6.352   9.117  1.00  0.00    -0.550 OA
ATOM      6  O   UNL     1      18.856   8.419   9.977  1.00  0.00    -0.550 OA
ENDBRANCH   3   4
ENDBRANCH   2   3
ENDBRANCH   1   2
BRANCH   1   7
ATOM      7  C   UNL     1      24.331   6.310  10.528  1.00  0.00     0.000 C 
BRANCH   7   8
ATOM      8  C   UNL     1      24.544   6.748   9.071  1.00  0.00    -0.000 C 
BRANCH   8   9
ATOM      9  C   UNL     1      24.194   5.611   8.100  1.00  0.00    -0.000 C 
BRANCH   9  10
ATOM     10  C   UNL     1      23.577   4.396   8.810  1.00  0.00    -0.003 C 
ATOM     11  C   UNL     1      22.127   4.143   8.397  1.00  0.00     0.004 C 
ENDBRANCH   9  10
ENDBRANCH   8   9
ENDBRANCH   7   8
ENDBRANCH   1   7
TORSDOF 7
ENDMDL
MODEL 4
REMARK VINA RESULT:    -3.604      4.829      5.440
REMARK INTER + INTRA:          -5.571
REMARK INTER:                  -5.438
REMARK INTRA:                  -0.133
REMARK UNBOUND:                -0.493
REMARK SMILES CCCCCCCCC(=O)[O-]
REMARK SMILES IDX 6 1 7 2 8 3 9 4 10 5 11 6 5 7 4 8 3 9 2 10 1 11
REMARK H PARENT
REMARK Flexibility Score: inf
ROOT
ATOM      1  C   UNL     1      23.061   6.786  16.741  1.00  0.00     0.000 C 
ENDROOT
BRANCH   1   2
ATOM      2  C   UNL     1      24.270   6.993  15.812  1.00  0.00     0.006 C 
BRANCH   2   3
ATOM      3  C   UNL     1      24.141   6.194  14.508  1.00  0.00     0.053 C 
BRANCH   3   4
ATOM      4  C   UNL     1      24.965   6.786  13.405  1.00  0.00     0.041 C 
ATOM      5  O   UNL     1      24.476   6.921  12.252  1.00  0.00    -0.550 OA
ATOM      6  O   UNL     1      26.260   7.218  13.658  1.00  0.00    -0.550 OA
ENDBRANCH   3   4
ENDBRANCH   2   3
ENDBRANCH   1   2
BRANCH   1   7
ATOM      7  C   UNL     1      23.067   5.410  17.423  1.00  0.00     0.000 C 
BRANCH   7   8
ATOM      8  C   UNL     1      23.011   5.505  18.956  1.00  0.00    -0.000 C 
BRANCH   8   9
ATOM      9  C   UNL     1      23.261   4.134  19.600  1.00  0.00    -0.000 C 
BRANCH   9  10
ATOM     10  C   UNL     1      22.552   3.979  20.954  1.00  0.00    -0.003 C 
ATOM     11  C   UNL     1      22.955   2.701  21.690  1.00  0.00     0.004 C 
ENDBRANCH   9  10
ENDBRANCH   8   9
ENDBRANCH   7   8
ENDBRANCH   1   7
TORSDOF 7
ENDMDL
MODEL 5
REMARK VINA RESULT:    -3.546      9.386     12.605
REMARK INTER + INTRA:          -5.490
REMARK INTER:                  -4.750
REMARK INTRA:                  -0.740
REMARK UNBOUND:                -0.493
REMARK SMILES CCCCCCCCC(=O)[O-]
REMARK SMILES IDX 6 1 7 2 8 3 9 4 10 5 11 6 5 7 4 8 3 9 2 10 1 11
REMARK H PARENT
REMARK Flexibility Score: inf
ROOT
ATOM      1  C   UNL     1      18.155   8.246  10.453  1.00  0.00     0.000 C 
ENDROOT
BRANCH   1   2
ATOM      2  C   UNL     1      19.038   7.080  10.932  1.00  0.00     0.006 C 
BRANCH   2   3
ATOM      3  C   UNL     1      20.275   6.888  10.045  1.00  0.00     0.053 C 
BRANCH   3   4
ATOM      4  C   UNL     1      21.546   7.146  10.795  1.00  0.00     0.041 C 
ATOM      5  O   UNL     1      21.587   8.039  11.684  1.00  0.00    -0.550 OA
ATOM      6  O   UNL     1      22.676   6.381  10.537  1.00  0.00    -0.550 OA
ENDBRANCH   3   4
ENDBRANCH   2   3
ENDBRANCH   1   2
BRANCH   1   7
ATOM      7  C   UNL     1      16.969   7.778   9.597  1.00  0.00     0.000 C 
BRANCH   7   8
ATOM      8  C   UNL     1      17.112   8.169   8.118  1.00  0.00    -0.000 C 
BRANCH   8   9
ATOM      9  C   UNL     1      17.761   7.034   7.311  1.00  0.00    -0.000 C 
BRANCH   9  10
ATOM     10  C   UNL     1      17.272   5.644   7.748  1.00  0.00    -0.003 C 
ATOM     11  C   UNL     1      18.389   4.600   7.755  1.00  0.00     0.004 C 
ENDBRANCH   9  10
ENDBRANCH   8   9
ENDBRANCH   7   8
ENDBRANCH   1   7
TORSDOF 7
ENDMDL
MODEL 6
REMARK VINA RESULT:    -3.546      5.404      8.635
REMARK INTER + INTRA:          -5.490
REMARK INTER:                  -4.923
REMARK INTRA:                  -0.567
REMARK UNBOUND:                -0.493
REMARK SMILES CCCCCCCCC(=O)[O-]
REMARK SMILES IDX 6 1 7 2 8 3 9 4 10 5 11 6 5 7 4 8 3 9 2 10 1 11
REMARK H PARENT
REMARK Flexibility Score: inf
ROOT
ATOM      1  C   UNL     1      23.370   6.854  10.200  1.00  0.00     0.000 C 
ENDROOT
BRANCH   1   2
ATOM      2  C   UNL     1      23.880   6.794  11.651  1.00  0.00     0.006 C 
BRANCH   2   3
ATOM      3  C   UNL     1      24.592   5.470  11.960  1.00  0.00     0.053 C 
BRANCH   3   4
ATOM      4  C   UNL     1      26.037   5.678  12.297  1.00  0.00     0.041 C 
ATOM      5  O   UNL     1      26.682   4.779  12.901  1.00  0.00    -0.550 OA
ATOM      6  O   UNL     1      26.680   6.848  11.917  1.00  0.00    -0.550 OA
ENDBRANCH   3   4
ENDBRANCH   2   3
ENDBRANCH   1   2
BRANCH   1   7
ATOM      7  C   UNL     1      24.508   6.788   9.170  1.00  0.00     0.000 C 
BRANCH   7   8
ATOM      8  C   UNL     1      24.226   5.792   8.035  1.00  0.00    -0.000 C 
BRANCH   8   9
ATOM      9  C   UNL     1      23.645   4.482   8.587  1.00  0.00    -0.000 C 
BRANCH   9  10
ATOM     10  C   UNL     1      22.312   4.102   7.925  1.00  0.00    -0.003 C 
ATOM     11  C   UNL     1      21.196   3.856   8.941  1.00  0.00     0.004 C 
ENDBRANCH   9  10
ENDBRANCH   8   9
ENDBRANCH   7   8
ENDBRANCH   1   7
TORSDOF 7
ENDMDL
MODEL 7
REMARK VINA RESULT:    -3.542      4.458      7.576
REMARK INTER + INTRA:          -5.485
REMARK INTER:                  -4.857
REMARK INTRA:                  -0.628
REMARK UNBOUND:                -0.493
REMARK SMILES CCCCCCCCC(=O)[O-]
REMARK SMILES IDX 6 1 7 2 8 3 9 4 10 5 11 6 5 7 4 8 3 9 2 10 1 11
REMARK H PARENT
REMARK Flexibility Score: inf
ROOT
ATOM      1  C   UNL     1      23.819   5.346  13.002  1.00  0.00     0.000 C 
ENDROOT
BRANCH   1   2
ATOM      2  C   UNL     1      24.906   6.361  13.396  1.00  0.00     0.006 C 
BRANCH   2   3
ATOM      3  C   UNL     1      26.215   6.135  12.627  1.00  0.00     0.053 C 
BRANCH   3   4
ATOM      4  C   UNL     1      27.374   6.824  13.280  1.00  0.00     0.041 C 
ATOM      5  O   UNL     1      28.112   7.595  12.611  1.00  0.00    -0.550 OA
ATOM      6  O   UNL     1      27.621   6.641  14.634  1.00  0.00    -0.550 OA
ENDBRANCH   3   4
ENDBRANCH   2   3
ENDBRANCH   1   2
BRANCH   1   7
ATOM      7  C   UNL     1      22.590   6.013  12.366  1.00  0.00     0.000 C 
BRANCH   7   8
ATOM      8  C   UNL     1      22.895   7.411  11.805  1.00  0.00    -0.000 C 
BRANCH   8   9
ATOM      9  C   UNL     1      22.828   7.413  10.271  1.00  0.00    -0.000 C 
BRANCH   9  10
ATOM     10  C   UNL     1      24.155   6.995   9.621  1.00  0.00    -0.003 C 
ATOM     11  C   UNL     1      24.036   5.707   8.806  1.00  0.00     0.004 C 
ENDBRANCH   9  10
ENDBRANCH   8   9
ENDBRANCH   7   8
ENDBRANCH   1   7
TORSDOF 7
ENDMDL
MODEL 8
REMARK VINA RESULT:    -3.464     12.856     13.973
REMARK INTER + INTRA:          -5.375
REMARK INTER:                  -4.614
REMARK INTRA:                  -0.761
REMARK UNBOUND:                -0.493
REMARK SMILES CCCCCCCCC(=O)[O-]
REMARK SMILES IDX 6 1 7 2 8 3 9 4 10 5 11 6 5 7 4 8 3 9 2 10 1 11
REMARK H PARENT
REMARK Flexibility Score: inf
ROOT
ATOM      1  C   UNL     1      31.828  -3.803   6.369  1.00  0.00     0.000 C 
ENDROOT
BRANCH   1   2
ATOM      2  C   UNL     1      31.538  -4.317   4.948  1.00  0.00     0.006 C 
BRANCH   2   3
ATOM      3  C   UNL     1      30.547  -3.417   4.197  1.00  0.00     0.053 C 
BRANCH   3   4
ATOM      4  C   UNL     1      31.217  -2.209   3.618  1.00  0.00     0.041 C 
ATOM      5  O   UNL     1      30.646  -1.087   3.661  1.00  0.00    -0.550 OA
ATOM      6  O   UNL     1      32.483  -2.315   3.059  1.00  0.00    -0.550 OA
ENDBRANCH   3   4
ENDBRANCH   2   3
ENDBRANCH   1   2
BRANCH   1   7
ATOM      7  C   UNL     1      31.397  -4.798   7.458  1.00  0.00     0.000 C 
BRANCH   7   8
ATOM      8  C   UNL     1      29.891  -5.103   7.422  1.00  0.00    -0.000 C 
BRANCH   8   9
ATOM      9  C   UNL     1      29.092  -4.001   8.133  1.00  0.00    -0.000 C 
BRANCH   9  10
ATOM     10  C   UNL     1      28.253  -3.158   7.161  1.00  0.00    -0.003 C 
ATOM     11  C   UNL     1      28.753  -1.718   7.043  1.00  0.00     0.004 C 
ENDBRANCH   9  10
ENDBRANCH   8   9
ENDBRANCH   7   8
ENDBRANCH   1   7
TORSDOF 7
ENDMDL
MODEL 9
REMARK VINA RESULT:    -3.440      8.814     11.870
REMARK INTER + INTRA:          -5.340
REMARK INTER:                  -4.757
REMARK INTRA:                  -0.584
REMARK UNBOUND:                -0.493
REMARK SMILES CCCCCCCCC(=O)[O-]
REMARK SMILES IDX 6 1 7 2 8 3 9 4 10 5 11 6 5 7 4 8 3 9 2 10 1 11
REMARK H PARENT
REMARK Flexibility Score: inf
ROOT
ATOM      1  C   UNL     1      20.016   4.788   9.853  1.00  0.00     0.000 C 
ENDROOT
BRANCH   1   2
ATOM      2  C   UNL     1      21.390   5.454  10.041  1.00  0.00     0.006 C 
BRANCH   2   3
ATOM      3  C   UNL     1      21.287   6.984  10.114  1.00  0.00     0.053 C 
BRANCH   3   4
ATOM      4  C   UNL     1      21.913   7.527  11.362  1.00  0.00     0.041 C 
ATOM      5  O   UNL     1      21.188   7.943  12.305  1.00  0.00    -0.550 OA
ATOM      6  O   UNL     1      23.295   7.547  11.497  1.00  0.00    -0.550 OA
ENDBRANCH   3   4
ENDBRANCH   2   3
ENDBRANCH   1   2
BRANCH   1   7
ATOM      7  C   UNL     1      19.497   4.897   8.411  1.00  0.00     0.000 C 
BRANCH   7   8
ATOM      8  C   UNL     1      18.070   5.460   8.333  1.00  0.00    -0.000 C 
BRANCH   8   9
ATOM      9  C   UNL     1      18.043   6.782   7.553  1.00  0.00    -0.000 C 
BRANCH   9  10
ATOM     10  C   UNL     1      17.373   7.919   8.339  1.00  0.00    -0.003 C 
ATOM     11  C   UNL     1      17.753   7.918   9.820  1.00  0.00     0.004 C 
ENDBRANCH   9  10
ENDBRANCH   8   9
ENDBRANCH   7   8
ENDBRANCH   1   7
TORSDOF 7
ENDMDL
