MODEL 1
REMARK VINA RESULT:    -4.612      0.000      0.000
REMARK INTER + INTRA:          -5.764
REMARK INTER:                  -5.556
REMARK INTRA:                  -0.208
REMARK UNBOUND:                -0.208
REMARK SMILES CCCCc1oc(O)c2ccccc12
REMARK SMILES IDX 4 1 5 2 7 3 6 4 9 5 14 6 10 7 13 8 11 9 12 10 8 11 3 13 2 14
REMARK SMILES IDX 1 15
REMARK H PARENT 8 12
REMARK Flexibility Score: inf
ROOT
ATOM      1  C   UNL     1      -1.494  48.722  42.999  1.00  0.00     0.076 C 
ENDROOT
BRANCH   1   2
ATOM      2  C   UNL     1      -1.312  49.837  42.016  1.00  0.00     0.116 A 
ATOM      3  C   UNL     1      -1.453  50.953  40.190  1.00  0.00     0.290 A 
ATOM      4  O   UNL     1      -1.823  49.841  40.797  1.00  0.00    -0.430 OA
ATOM      5  C   UNL     1      -0.668  51.703  41.032  1.00  0.00     0.066 A 
ATOM      6  C   UNL     1      -0.573  50.994  42.199  1.00  0.00     0.027 A 
ATOM      7  C   UNL     1      -0.034  52.932  40.861  1.00  0.00     0.016 A 
ATOM      8  C   UNL     1       0.168  51.462  43.284  1.00  0.00     0.012 A 
ATOM      9  C   UNL     1       0.720  53.434  41.939  1.00  0.00     0.001 A 
ATOM     10  C   UNL     1       0.821  52.702  43.144  1.00  0.00     0.001 A 
BRANCH   3  11
ATOM     11  O   UNL     1      -1.809  51.294  38.890  1.00  0.00    -0.480 OA
ATOM     12  H   UNL     1      -1.424  52.121  38.453  1.00  0.00     0.297 HD
ENDBRANCH   3  11
ENDBRANCH   1   2
BRANCH   1  13
ATOM     13  C   UNL     1      -1.762  47.402  42.267  1.00  0.00     0.008 C 
BRANCH  13  14
ATOM     14  C   UNL     1      -3.240  46.984  42.328  1.00  0.00    -0.003 C 
ATOM     15  C   UNL     1      -3.420  45.479  42.522  1.00  0.00     0.004 C 
ENDBRANCH  13  14
ENDBRANCH   1  13
TORSDOF 4
ENDMDL
MODEL 2
REMARK VINA RESULT:    -4.579      1.972      2.976
REMARK INTER + INTRA:          -5.723
REMARK INTER:                  -5.278
REMARK INTRA:                  -0.445
REMARK UNBOUND:                -0.208
REMARK SMILES CCCCc1oc(O)c2ccccc12
REMARK SMILES IDX 4 1 5 2 7 3 6 4 9 5 14 6 10 7 13 8 11 9 12 10 8 11 3 13 2 14
REMARK SMILES IDX 1 15
REMARK H PARENT 8 12
REMARK Flexibility Score: inf
ROOT
ATOM      1  C   UNL     1      -3.303  48.098  42.429  1.00  0.00     0.076 C 
ENDROOT
BRANCH   1   2
ATOM      2  C   UNL     1      -2.081  48.849  41.996  1.00  0.00     0.116 A 
ATOM      3  C   UNL     1      -0.871  50.379  41.106  1.00  0.00     0.290 A 
ATOM      4  O   UNL     1      -2.111  50.008  41.360  1.00  0.00    -0.430 OA
ATOM      5  C   UNL     1       0.005  49.433  41.584  1.00  0.00     0.066 A 
ATOM      6  C   UNL     1      -0.764  48.453  42.152  1.00  0.00     0.027 A 
ATOM      7  C   UNL     1       1.396  49.358  41.556  1.00  0.00     0.016 A 
ATOM      8  C   UNL     1      -0.196  47.320  42.733  1.00  0.00     0.012 A 
ATOM      9  C   UNL     1       2.001  48.227  42.138  1.00  0.00     0.001 A 
ATOM     10  C   UNL     1       1.208  47.213  42.723  1.00  0.00     0.001 A 
BRANCH   3  11
ATOM     11  O   UNL     1      -0.521  51.552  40.447  1.00  0.00    -0.480 OA
ATOM     12  H   UNL     1      -0.614  51.623  39.442  1.00  0.00     0.297 HD
ENDBRANCH   3  11
ENDBRANCH   1   2
BRANCH   1  13
ATOM     13  C   UNL     1      -3.549  46.899  41.505  1.00  0.00     0.008 C 
BRANCH  13  14
ATOM     14  C   UNL     1      -3.609  45.568  42.271  1.00  0.00    -0.003 C 
ATOM     15  C   UNL     1      -3.230  45.717  43.744  1.00  0.00     0.004 C 
ENDBRANCH  13  14
ENDBRANCH   1  13
TORSDOF 4
ENDMDL
MODEL 3
REMARK VINA RESULT:    -4.371      2.219      4.842
REMARK INTER + INTRA:          -5.473
REMARK INTER:                  -5.015
REMARK INTRA:                  -0.457
REMARK UNBOUND:                -0.208
REMARK SMILES CCCCc1oc(O)c2ccccc12
REMARK SMILES IDX 4 1 5 2 7 3 6 4 9 5 14 6 10 7 13 8 11 9 12 10 8 11 3 13 2 14
REMARK SMILES IDX 1 15
REMARK H PARENT 8 12
REMARK Flexibility Score: inf
ROOT
ATOM      1  C   UNL     1      -1.773  50.701  41.528  1.00  0.00     0.076 C 
ENDROOT
BRANCH   1   2
ATOM      2  C   UNL     1      -1.369  49.280  41.780  1.00  0.00     0.116 A 
ATOM      3  C   UNL     1      -1.532  47.157  42.032  1.00  0.00     0.290 A 
ATOM      4  O   UNL     1      -2.203  48.255  41.738  1.00  0.00    -0.430 OA
ATOM      5  C   UNL     1      -0.217  47.468  42.281  1.00  0.00     0.066 A 
ATOM      6  C   UNL     1      -0.108  48.824  42.123  1.00  0.00     0.027 A 
ATOM      7  C   UNL     1       0.873  46.676  42.636  1.00  0.00     0.016 A 
ATOM      8  C   UNL     1       1.102  49.490  42.313  1.00  0.00     0.012 A 
ATOM      9  C   UNL     1       2.111  47.318  42.832  1.00  0.00     0.001 A 
ATOM     10  C   UNL     1       2.224  48.718  42.671  1.00  0.00     0.001 A 
BRANCH   3  11
ATOM     11  O   UNL     1      -2.092  45.885  42.082  1.00  0.00    -0.480 OA
ATOM     12  H   UNL     1      -1.935  45.288  42.883  1.00  0.00     0.297 HD
ENDBRANCH   3  11
ENDBRANCH   1   2
BRANCH   1  13
ATOM     13  C   UNL     1      -1.375  51.126  40.109  1.00  0.00     0.008 C 
BRANCH  13  14
ATOM     14  C   UNL     1      -0.797  52.549  40.062  1.00  0.00    -0.003 C 
ATOM     15  C   UNL     1       0.049  52.884  41.290  1.00  0.00     0.004 C 
ENDBRANCH  13  14
ENDBRANCH   1  13
TORSDOF 4
ENDMDL
MODEL 4
REMARK VINA RESULT:    -4.370      1.926      5.166
REMARK INTER + INTRA:          -5.472
REMARK INTER:                  -5.075
REMARK INTRA:                  -0.397
REMARK UNBOUND:                -0.208
REMARK SMILES CCCCc1oc(O)c2ccccc12
REMARK SMILES IDX 4 1 5 2 7 3 6 4 9 5 14 6 10 7 13 8 11 9 12 10 8 11 3 13 2 14
REMARK SMILES IDX 1 15
REMARK H PARENT 8 12
REMARK Flexibility Score: inf
ROOT
ATOM      1  C   UNL     1      -0.632  50.833  43.392  1.00  0.00     0.076 C 
ENDROOT
BRANCH   1   2
ATOM      2  C   UNL     1      -1.868  49.990  43.305  1.00  0.00     0.116 A 
ATOM      3  C   UNL     1      -3.935  49.432  43.423  1.00  0.00     0.290 A 
ATOM      4  O   UNL     1      -3.086  50.431  43.570  1.00  0.00    -0.430 OA
ATOM      5  C   UNL     1      -3.256  48.295  43.054  1.00  0.00     0.066 A 
ATOM      6  C   UNL     1      -1.935  48.646  42.980  1.00  0.00     0.027 A 
ATOM      7  C   UNL     1      -3.692  46.998  42.791  1.00  0.00     0.016 A 
ATOM      8  C   UNL     1      -0.948  47.721  42.639  1.00  0.00     0.012 A 
ATOM      9  C   UNL     1      -2.720  46.041  42.440  1.00  0.00     0.001 A 
ATOM     10  C   UNL     1      -1.355  46.402  42.365  1.00  0.00     0.001 A 
BRANCH   3  11
ATOM     11  O   UNL     1      -5.307  49.533  43.620  1.00  0.00    -0.480 OA
ATOM     12  H   UNL     1      -5.674  49.971  44.454  1.00  0.00     0.297 HD
ENDBRANCH   3  11
ENDBRANCH   1   2
BRANCH   1  13
ATOM     13  C   UNL     1       0.004  50.994  42.006  1.00  0.00     0.008 C 
BRANCH  13  14
ATOM     14  C   UNL     1      -0.825  51.897  41.079  1.00  0.00    -0.003 C 
ATOM     15  C   UNL     1      -1.479  51.125  39.934  1.00  0.00     0.004 C 
ENDBRANCH  13  14
ENDBRANCH   1  13
TORSDOF 4
ENDMDL
MODEL 5
REMARK VINA RESULT:    -4.317      2.475      4.528
REMARK INTER + INTRA:          -5.408
REMARK INTER:                  -4.948
REMARK INTRA:                  -0.460
REMARK UNBOUND:                -0.208
REMARK SMILES CCCCc1oc(O)c2ccccc12
REMARK SMILES IDX 4 1 5 2 7 3 6 4 9 5 14 6 10 7 13 8 11 9 12 10 8 11 3 13 2 14
REMARK SMILES IDX 1 15
REMARK H PARENT 8 12
REMARK Flexibility Score: inf
ROOT
ATOM      1  C   UNL     1       1.619  49.235  42.855  1.00  0.00     0.076 C 
ENDROOT
BRANCH   1   2
ATOM      2  C   UNL     1       0.263  49.227  42.218  1.00  0.00     0.116 A 
ATOM      3  C   UNL     1      -1.367  49.804  40.950  1.00  0.00     0.290 A 
ATOM      4  O   UNL     1      -0.113  50.065  41.267  1.00  0.00    -0.430 OA
ATOM      5  C   UNL     1      -1.835  48.765  41.719  1.00  0.00     0.066 A 
ATOM      6  C   UNL     1      -0.797  48.394  42.532  1.00  0.00     0.027 A 
ATOM      7  C   UNL     1      -3.075  48.133  41.770  1.00  0.00     0.016 A 
ATOM      8  C   UNL     1      -0.926  47.363  43.462  1.00  0.00     0.012 A 
ATOM      9  C   UNL     1      -3.237  47.084  42.696  1.00  0.00     0.001 A 
ATOM     10  C   UNL     1      -2.167  46.702  43.538  1.00  0.00     0.001 A 
BRANCH   3  11
ATOM     11  O   UNL     1      -2.092  50.491  39.983  1.00  0.00    -0.480 OA
ATOM     12  H   UNL     1      -3.030  50.815  40.180  1.00  0.00     0.297 HD
ENDBRANCH   3  11
ENDBRANCH   1   2
BRANCH   1  13
ATOM     13  C   UNL     1       2.588  48.348  42.063  1.00  0.00     0.008 C 
BRANCH  13  14
ATOM     14  C   UNL     1       3.253  47.274  42.938  1.00  0.00    -0.003 C 
ATOM     15  C   UNL     1       2.411  46.004  43.055  1.00  0.00     0.004 C 
ENDBRANCH  13  14
ENDBRANCH   1  13
TORSDOF 4
ENDMDL
MODEL 6
REMARK VINA RESULT:    -4.302      1.303      2.026
REMARK INTER + INTRA:          -5.390
REMARK INTER:                  -4.854
REMARK INTRA:                  -0.536
REMARK UNBOUND:                -0.208
REMARK SMILES CCCCc1oc(O)c2ccccc12
REMARK SMILES IDX 4 1 5 2 7 3 6 4 9 5 14 6 10 7 13 8 11 9 12 10 8 11 3 13 2 14
REMARK SMILES IDX 1 15
REMARK H PARENT 8 12
REMARK Flexibility Score: inf
ROOT
ATOM      1  C   UNL     1      -1.303  48.634  42.746  1.00  0.00     0.076 C 
ENDROOT
BRANCH   1   2
ATOM      2  C   UNL     1      -1.187  49.843  41.869  1.00  0.00     0.116 A 
ATOM      3  C   UNL     1      -1.430  51.125  40.167  1.00  0.00     0.290 A 
ATOM      4  O   UNL     1      -1.752  49.952  40.678  1.00  0.00    -0.430 OA
ATOM      5  C   UNL     1      -0.624  51.810  41.045  1.00  0.00     0.066 A 
ATOM      6  C   UNL     1      -0.464  50.995  42.133  1.00  0.00     0.027 A 
ATOM      7  C   UNL     1      -0.023  53.065  40.967  1.00  0.00     0.016 A 
ATOM      8  C   UNL     1       0.315  51.373  43.225  1.00  0.00     0.012 A 
ATOM      9  C   UNL     1       0.768  53.478  42.057  1.00  0.00     0.001 A 
ATOM     10  C   UNL     1       0.936  52.636  43.180  1.00  0.00     0.001 A 
BRANCH   3  11
ATOM     11  O   UNL     1      -1.851  51.581  38.923  1.00  0.00    -0.480 OA
ATOM     12  H   UNL     1      -1.279  52.227  38.394  1.00  0.00     0.297 HD
ENDBRANCH   3  11
ENDBRANCH   1   2
BRANCH   1  13
ATOM     13  C   UNL     1      -0.401  47.508  42.226  1.00  0.00     0.008 C 
BRANCH  13  14
ATOM     14  C   UNL     1       0.936  47.429  42.980  1.00  0.00    -0.003 C 
ATOM     15  C   UNL     1       2.089  48.065  42.204  1.00  0.00     0.004 C 
ENDBRANCH  13  14
ENDBRANCH   1  13
TORSDOF 4
ENDMDL
MODEL 7
REMARK VINA RESULT:    -4.197      2.375      4.988
REMARK INTER + INTRA:          -5.264
REMARK INTER:                  -4.874
REMARK INTRA:                  -0.390
REMARK UNBOUND:                -0.208
REMARK SMILES CCCCc1oc(O)c2ccccc12
REMARK SMILES IDX 4 1 5 2 7 3 6 4 9 5 14 6 10 7 13 8 11 9 12 10 8 11 3 13 2 14
REMARK SMILES IDX 1 15
REMARK H PARENT 8 12
REMARK Flexibility Score: inf
ROOT
ATOM      1  C   UNL     1       0.374  54.103  39.712  1.00  0.00     0.076 C 
ENDROOT
BRANCH   1   2
ATOM      2  C   UNL     1      -0.137  52.857  40.368  1.00  0.00     0.116 A 
ATOM      3  C   UNL     1      -1.231  51.035  40.647  1.00  0.00     0.290 A 
ATOM      4  O   UNL     1      -0.962  52.000  39.790  1.00  0.00    -0.430 OA
ATOM      5  C   UNL     1      -0.569  51.263  41.830  1.00  0.00     0.066 A 
ATOM      6  C   UNL     1       0.131  52.427  41.657  1.00  0.00     0.027 A 
ATOM      7  C   UNL     1      -0.534  50.551  43.027  1.00  0.00     0.016 A 
ATOM      8  C   UNL     1       0.916  52.970  42.674  1.00  0.00     0.012 A 
ATOM      9  C   UNL     1       0.253  51.071  44.073  1.00  0.00     0.001 A 
ATOM     10  C   UNL     1       0.974  52.274  43.896  1.00  0.00     0.001 A 
BRANCH   3  11
ATOM     11  O   UNL     1      -2.068  49.957  40.378  1.00  0.00    -0.480 OA
ATOM     12  H   UNL     1      -2.614  49.932  39.527  1.00  0.00     0.297 HD
ENDBRANCH   3  11
ENDBRANCH   1   2
BRANCH   1  13
ATOM     13  C   UNL     1      -0.433  55.322  40.176  1.00  0.00     0.008 C 
BRANCH  13  14
ATOM     14  C   UNL     1      -1.680  55.566  39.312  1.00  0.00    -0.003 C 
ATOM     15  C   UNL     1      -2.962  55.056  39.968  1.00  0.00     0.004 C 
ENDBRANCH  13  14
ENDBRANCH   1  13
TORSDOF 4
ENDMDL
MODEL 8
REMARK VINA RESULT:    -4.069      1.862      2.789
REMARK INTER + INTRA:          -5.109
REMARK INTER:                  -4.865
REMARK INTRA:                  -0.243
REMARK UNBOUND:                -0.208
REMARK SMILES CCCCc1oc(O)c2ccccc12
REMARK SMILES IDX 4 1 5 2 7 3 6 4 9 5 14 6 10 7 13 8 11 9 12 10 8 11 3 13 2 14
REMARK SMILES IDX 1 15
REMARK H PARENT 8 12
REMARK Flexibility Score: inf
ROOT
ATOM      1  C   UNL     1      -2.153  47.575  41.539  1.00  0.00     0.076 C 
ENDROOT
BRANCH   1   2
ATOM      2  C   UNL     1      -1.151  48.619  41.927  1.00  0.00     0.116 A 
ATOM      3  C   UNL     1       0.436  49.585  42.997  1.00  0.00     0.290 A 
ATOM      4  O   UNL     1      -0.272  48.476  42.904  1.00  0.00    -0.430 OA
ATOM      5  C   UNL     1       0.009  50.490  42.055  1.00  0.00     0.066 A 
ATOM      6  C   UNL     1      -1.006  49.878  41.370  1.00  0.00     0.027 A 
ATOM      7  C   UNL     1       0.424  51.787  41.758  1.00  0.00     0.016 A 
ATOM      8  C   UNL     1      -1.686  50.522  40.336  1.00  0.00     0.012 A 
ATOM      9  C   UNL     1      -0.240  52.463  40.717  1.00  0.00     0.001 A 
ATOM     10  C   UNL     1      -1.290  51.833  40.010  1.00  0.00     0.001 A 
BRANCH   3  11
ATOM     11  O   UNL     1       1.456  49.790  43.920  1.00  0.00    -0.480 OA
ATOM     12  H   UNL     1       1.262  49.762  44.912  1.00  0.00     0.297 HD
ENDBRANCH   3  11
ENDBRANCH   1   2
BRANCH   1  13
ATOM     13  C   UNL     1      -3.229  47.437  42.622  1.00  0.00     0.008 C 
BRANCH  13  14
ATOM     14  C   UNL     1      -3.244  46.041  43.263  1.00  0.00    -0.003 C 
ATOM     15  C   UNL     1      -3.610  44.939  42.270  1.00  0.00     0.004 C 
ENDBRANCH  13  14
ENDBRANCH   1  13
TORSDOF 4
ENDMDL
MODEL 9
REMARK VINA RESULT:    -4.023      2.047      5.292
REMARK INTER + INTRA:          -5.054
REMARK INTER:                  -4.704
REMARK INTRA:                  -0.350
REMARK UNBOUND:                -0.208
REMARK SMILES CCCCc1oc(O)c2ccccc12
REMARK SMILES IDX 4 1 5 2 7 3 6 4 9 5 14 6 10 7 13 8 11 9 12 10 8 11 3 13 2 14
REMARK SMILES IDX 1 15
REMARK H PARENT 8 12
REMARK Flexibility Score: inf
ROOT
ATOM      1  C   UNL     1      -0.235  51.206  42.862  1.00  0.00     0.076 C 
ENDROOT
BRANCH   1   2
ATOM      2  C   UNL     1      -0.459  49.735  43.040  1.00  0.00     0.116 A 
ATOM      3  C   UNL     1      -0.071  47.627  43.036  1.00  0.00     0.290 A 
ATOM      4  O   UNL     1       0.459  48.813  42.807  1.00  0.00    -0.430 OA
ATOM      5  C   UNL     1      -1.382  47.770  43.426  1.00  0.00     0.066 A 
ATOM      6  C   UNL     1      -1.634  49.115  43.428  1.00  0.00     0.027 A 
ATOM      7  C   UNL     1      -2.356  46.834  43.766  1.00  0.00     0.016 A 
ATOM      8  C   UNL     1      -2.887  49.626  43.768  1.00  0.00     0.012 A 
ATOM      9  C   UNL     1      -3.631  47.318  44.118  1.00  0.00     0.001 A 
ATOM     10  C   UNL     1      -3.894  48.707  44.119  1.00  0.00     0.001 A 
BRANCH   3  11
ATOM     11  O   UNL     1       0.608  46.422  42.893  1.00  0.00    -0.480 OA
ATOM     12  H   UNL     1       1.571  46.410  42.584  1.00  0.00     0.297 HD
ENDBRANCH   3  11
ENDBRANCH   1   2
BRANCH   1  13
ATOM     13  C   UNL     1       0.459  51.484  41.523  1.00  0.00     0.008 C 
BRANCH  13  14
ATOM     14  C   UNL     1      -0.327  52.471  40.646  1.00  0.00    -0.003 C 
ATOM     15  C   UNL     1      -1.750  51.995  40.352  1.00  0.00     0.004 C 
ENDBRANCH  13  14
ENDBRANCH   1  13
TORSDOF 4
ENDMDL
