MODEL 1
REMARK VINA RESULT:    -5.514      0.000      0.000
REMARK INTER + INTRA:          -6.025
REMARK INTER:                  -5.997
REMARK INTRA:                  -0.027
REMARK UNBOUND:                -0.027
REMARK SMILES O=C([O-])c1ccc(O)cc1
REMARK SMILES IDX 7 1 6 2 9 3 5 4 10 5 4 6 8 7 2 9 1 10 3 11
REMARK H PARENT 8 8
REMARK Flexibility Score: inf
ROOT
ATOM      1  C   UNL     1       1.160  -0.211  -2.415  1.00  0.00     0.115 A 
ATOM      2  C   UNL     1       1.898   0.656  -1.598  1.00  0.00     0.047 A 
ATOM      3  C   UNL     1       0.102  -0.944  -1.870  1.00  0.00     0.047 A 
ATOM      4  C   UNL     1       1.578   0.785  -0.243  1.00  0.00     0.014 A 
ATOM      5  C   UNL     1      -0.220  -0.817  -0.516  1.00  0.00     0.014 A 
ATOM      6  C   UNL     1       0.515   0.049   0.313  1.00  0.00    -0.003 A 
ENDROOT
BRANCH   1   7
ATOM      7  O   UNL     1       1.469  -0.347  -3.767  1.00  0.00    -0.508 OA
ATOM      8  H   UNL     1       1.874   0.416  -4.296  1.00  0.00     0.293 HD
ENDBRANCH   1   7
BRANCH   6   9
ATOM      9  C   UNL     1       0.172   0.183   1.746  1.00  0.00     0.071 C 
ATOM     10  O   UNL     1       0.480  -0.722   2.566  1.00  0.00    -0.545 OA
ATOM     11  O   UNL     1      -0.499   1.310   2.207  1.00  0.00    -0.545 OA
ENDBRANCH   6   9
TORSDOF 2
ENDMDL
MODEL 2
REMARK VINA RESULT:    -5.485      0.077      1.842
REMARK INTER + INTRA:          -5.994
REMARK INTER:                  -5.966
REMARK INTRA:                  -0.027
REMARK UNBOUND:                -0.027
REMARK SMILES O=C([O-])c1ccc(O)cc1
REMARK SMILES IDX 7 1 6 2 9 3 5 4 10 5 4 6 8 7 2 9 1 10 3 11
REMARK H PARENT 8 8
REMARK Flexibility Score: inf
ROOT
ATOM      1  C   UNL     1       1.149  -0.234  -2.398  1.00  0.00     0.115 A 
ATOM      2  C   UNL     1       0.075  -0.956  -1.862  1.00  0.00     0.047 A 
ATOM      3  C   UNL     1       1.898   0.610  -1.573  1.00  0.00     0.047 A 
ATOM      4  C   UNL     1      -0.248  -0.831  -0.507  1.00  0.00     0.014 A 
ATOM      5  C   UNL     1       1.576   0.738  -0.218  1.00  0.00     0.014 A 
ATOM      6  C   UNL     1       0.499   0.018   0.330  1.00  0.00    -0.003 A 
ENDROOT
BRANCH   1   7
ATOM      7  O   UNL     1       1.481  -0.352  -3.746  1.00  0.00    -0.508 OA
ATOM      8  H   UNL     1       1.455   0.447  -4.369  1.00  0.00     0.293 HD
ENDBRANCH   1   7
BRANCH   6   9
ATOM      9  C   UNL     1       0.162   0.154   1.763  1.00  0.00     0.071 C 
ATOM     10  O   UNL     1      -0.439   1.177   2.186  1.00  0.00    -0.545 OA
ATOM     11  O   UNL     1       0.506  -0.847   2.665  1.00  0.00    -0.545 OA
ENDBRANCH   6   9
TORSDOF 2
ENDMDL
MODEL 3
REMARK VINA RESULT:    -5.265      1.536      4.107
REMARK INTER + INTRA:          -5.755
REMARK INTER:                  -5.719
REMARK INTRA:                  -0.036
REMARK UNBOUND:                -0.027
REMARK SMILES O=C([O-])c1ccc(O)cc1
REMARK SMILES IDX 7 1 6 2 9 3 5 4 10 5 4 6 8 7 2 9 1 10 3 11
REMARK H PARENT 8 8
REMARK Flexibility Score: inf
ROOT
ATOM      1  C   UNL     1      -0.063   1.007   1.514  1.00  0.00     0.115 A 
ATOM      2  C   UNL     1       0.759   1.638   0.571  1.00  0.00     0.047 A 
ATOM      3  C   UNL     1      -0.228  -0.380   1.472  1.00  0.00     0.047 A 
ATOM      4  C   UNL     1       1.409   0.883  -0.410  1.00  0.00     0.014 A 
ATOM      5  C   UNL     1       0.420  -1.138   0.492  1.00  0.00     0.014 A 
ATOM      6  C   UNL     1       1.247  -0.514  -0.460  1.00  0.00    -0.003 A 
ENDROOT
BRANCH   1   7
ATOM      7  O   UNL     1      -0.715   1.749   2.496  1.00  0.00    -0.508 OA
ATOM      8  H   UNL     1      -1.470   1.353   3.045  1.00  0.00     0.293 HD
ENDBRANCH   1   7
BRANCH   6   9
ATOM      9  C   UNL     1       1.933  -1.318  -1.495  1.00  0.00     0.071 C 
ATOM     10  O   UNL     1       2.598  -0.757  -2.406  1.00  0.00    -0.545 OA
ATOM     11  O   UNL     1       1.851  -2.706  -1.477  1.00  0.00    -0.545 OA
ENDBRANCH   6   9
TORSDOF 2
ENDMDL
MODEL 4
REMARK VINA RESULT:    -5.261      1.534      4.332
REMARK INTER + INTRA:          -5.750
REMARK INTER:                  -5.714
REMARK INTRA:                  -0.036
REMARK UNBOUND:                -0.027
REMARK SMILES O=C([O-])c1ccc(O)cc1
REMARK SMILES IDX 7 1 6 2 9 3 5 4 10 5 4 6 8 7 2 9 1 10 3 11
REMARK H PARENT 8 8
REMARK Flexibility Score: inf
ROOT
ATOM      1  C   UNL     1      -0.056   1.012   1.517  1.00  0.00     0.115 A 
ATOM      2  C   UNL     1      -0.227  -0.377   1.479  1.00  0.00     0.047 A 
ATOM      3  C   UNL     1       0.762   1.636   0.571  1.00  0.00     0.047 A 
ATOM      4  C   UNL     1       0.418  -1.138   0.499  1.00  0.00     0.014 A 
ATOM      5  C   UNL     1       1.410   0.878  -0.410  1.00  0.00     0.014 A 
ATOM      6  C   UNL     1       1.244  -0.518  -0.456  1.00  0.00    -0.003 A 
ENDROOT
BRANCH   1   7
ATOM      7  O   UNL     1      -0.694   1.780   2.489  1.00  0.00    -0.508 OA
ATOM      8  H   UNL     1      -1.468   2.392   2.256  1.00  0.00     0.293 HD
ENDBRANCH   1   7
BRANCH   6   9
ATOM      9  C   UNL     1       1.929  -1.317  -1.496  1.00  0.00     0.071 C 
ATOM     10  O   UNL     1       2.605  -0.753  -2.396  1.00  0.00    -0.545 OA
ATOM     11  O   UNL     1       1.835  -2.705  -1.492  1.00  0.00    -0.545 OA
ENDBRANCH   6   9
TORSDOF 2
ENDMDL
MODEL 5
REMARK VINA RESULT:    -4.965      1.574      2.040
REMARK INTER + INTRA:          -5.428
REMARK INTER:                  -5.396
REMARK INTRA:                  -0.031
REMARK UNBOUND:                -0.027
REMARK SMILES O=C([O-])c1ccc(O)cc1
REMARK SMILES IDX 7 1 6 2 9 3 5 4 10 5 4 6 8 7 2 9 1 10 3 11
REMARK H PARENT 8 8
REMARK Flexibility Score: inf
ROOT
ATOM      1  C   UNL     1       2.392   0.267  -2.522  1.00  0.00     0.115 A 
ATOM      2  C   UNL     1       2.529   0.486  -1.145  1.00  0.00     0.047 A 
ATOM      3  C   UNL     1       1.234  -0.341  -3.015  1.00  0.00     0.047 A 
ATOM      4  C   UNL     1       1.512   0.096  -0.268  1.00  0.00     0.014 A 
ATOM      5  C   UNL     1       0.216  -0.733  -2.141  1.00  0.00     0.014 A 
ATOM      6  C   UNL     1       0.344  -0.518  -0.756  1.00  0.00    -0.003 A 
ENDROOT
BRANCH   1   7
ATOM      7  O   UNL     1       3.398   0.652  -3.406  1.00  0.00    -0.508 OA
ATOM      8  H   UNL     1       3.935  -0.032  -3.926  1.00  0.00     0.293 HD
ENDBRANCH   1   7
BRANCH   6   9
ATOM      9  C   UNL     1      -0.735  -0.932   0.167  1.00  0.00     0.071 C 
ATOM     10  O   UNL     1      -1.942  -0.717  -0.121  1.00  0.00    -0.545 OA
ATOM     11  O   UNL     1      -0.430  -1.564   1.367  1.00  0.00    -0.545 OA
ENDBRANCH   6   9
TORSDOF 2
ENDMDL
MODEL 6
REMARK VINA RESULT:    -4.902      8.633      9.480
REMARK INTER + INTRA:          -5.359
REMARK INTER:                  -5.328
REMARK INTRA:                  -0.031
REMARK UNBOUND:                -0.027
REMARK SMILES O=C([O-])c1ccc(O)cc1
REMARK SMILES IDX 7 1 6 2 9 3 5 4 10 5 4 6 8 7 2 9 1 10 3 11
REMARK H PARENT 8 8
REMARK Flexibility Score: inf
ROOT
ATOM      1  C   UNL     1      -0.890   7.716   0.617  1.00  0.00     0.115 A 
ATOM      2  C   UNL     1      -1.378   8.956   1.048  1.00  0.00     0.047 A 
ATOM      3  C   UNL     1      -1.742   6.829  -0.047  1.00  0.00     0.047 A 
ATOM      4  C   UNL     1      -2.712   9.305   0.817  1.00  0.00     0.014 A 
ATOM      5  C   UNL     1      -3.077   7.174  -0.280  1.00  0.00     0.014 A 
ATOM      6  C   UNL     1      -3.576   8.417   0.150  1.00  0.00    -0.003 A 
ENDROOT
BRANCH   1   7
ATOM      7  O   UNL     1       0.438   7.358   0.842  1.00  0.00    -0.508 OA
ATOM      8  H   UNL     1       0.729   6.387   0.856  1.00  0.00     0.293 HD
ENDBRANCH   1   7
BRANCH   6   9
ATOM      9  C   UNL     1      -4.989   8.780  -0.099  1.00  0.00     0.071 C 
ATOM     10  O   UNL     1      -5.694   9.273   0.821  1.00  0.00    -0.545 OA
ATOM     11  O   UNL     1      -5.557   8.581  -1.352  1.00  0.00    -0.545 OA
ENDBRANCH   6   9
TORSDOF 2
ENDMDL
MODEL 7
REMARK VINA RESULT:    -4.857      8.020      9.027
REMARK INTER + INTRA:          -5.310
REMARK INTER:                  -5.277
REMARK INTRA:                  -0.034
REMARK UNBOUND:                -0.027
REMARK SMILES O=C([O-])c1ccc(O)cc1
REMARK SMILES IDX 7 1 6 2 9 3 5 4 10 5 4 6 8 7 2 9 1 10 3 11
REMARK H PARENT 8 8
REMARK Flexibility Score: inf
ROOT
ATOM      1  C   UNL     1      -3.758   8.377   0.003  1.00  0.00     0.115 A 
ATOM      2  C   UNL     1      -3.185   7.154  -0.370  1.00  0.00     0.047 A 
ATOM      3  C   UNL     1      -2.986   9.327   0.678  1.00  0.00     0.047 A 
ATOM      4  C   UNL     1      -1.847   6.884  -0.066  1.00  0.00     0.014 A 
ATOM      5  C   UNL     1      -1.648   9.059   0.985  1.00  0.00     0.014 A 
ATOM      6  C   UNL     1      -1.064   7.834   0.616  1.00  0.00    -0.003 A 
ENDROOT
BRANCH   1   7
ATOM      7  O   UNL     1      -5.089   8.658  -0.296  1.00  0.00    -0.508 OA
ATOM      8  H   UNL     1      -5.519   9.535  -0.025  1.00  0.00     0.293 HD
ENDBRANCH   1   7
BRANCH   6   9
ATOM      9  C   UNL     1       0.352   7.553   0.940  1.00  0.00     0.071 C 
ATOM     10  O   UNL     1       1.183   8.493   1.047  1.00  0.00    -0.545 OA
ATOM     11  O   UNL     1       0.785   6.246   1.129  1.00  0.00    -0.545 OA
ENDBRANCH   6   9
TORSDOF 2
ENDMDL
MODEL 8
REMARK VINA RESULT:    -4.794      8.871      9.357
REMARK INTER + INTRA:          -5.242
REMARK INTER:                  -5.213
REMARK INTRA:                  -0.029
REMARK UNBOUND:                -0.027
REMARK SMILES O=C([O-])c1ccc(O)cc1
REMARK SMILES IDX 7 1 6 2 9 3 5 4 10 5 4 6 8 7 2 9 1 10 3 11
REMARK H PARENT 8 8
REMARK Flexibility Score: inf
ROOT
ATOM      1  C   UNL     1      -2.747   7.196  -2.400  1.00  0.00     0.115 A 
ATOM      2  C   UNL     1      -2.247   6.768  -1.164  1.00  0.00     0.047 A 
ATOM      3  C   UNL     1      -3.361   8.448  -2.503  1.00  0.00     0.047 A 
ATOM      4  C   UNL     1      -2.363   7.588  -0.037  1.00  0.00     0.014 A 
ATOM      5  C   UNL     1      -3.479   9.270  -1.379  1.00  0.00     0.014 A 
ATOM      6  C   UNL     1      -2.981   8.848  -0.133  1.00  0.00    -0.003 A 
ENDROOT
BRANCH   1   7
ATOM      7  O   UNL     1      -2.636   6.388  -3.529  1.00  0.00    -0.508 OA
ATOM      8  H   UNL     1      -3.292   6.461  -4.299  1.00  0.00     0.293 HD
ENDBRANCH   1   7
BRANCH   6   9
ATOM      9  C   UNL     1      -3.106   9.721   1.056  1.00  0.00     0.071 C 
ATOM     10  O   UNL     1      -4.238  10.109   1.449  1.00  0.00    -0.545 OA
ATOM     11  O   UNL     1      -1.975  10.125   1.754  1.00  0.00    -0.545 OA
ENDBRANCH   6   9
TORSDOF 2
ENDMDL
MODEL 9
REMARK VINA RESULT:    -4.657      7.681      8.850
REMARK INTER + INTRA:          -5.093
REMARK INTER:                  -5.064
REMARK INTRA:                  -0.029
REMARK UNBOUND:                -0.027
REMARK SMILES O=C([O-])c1ccc(O)cc1
REMARK SMILES IDX 7 1 6 2 9 3 5 4 10 5 4 6 8 7 2 9 1 10 3 11
REMARK H PARENT 8 8
REMARK Flexibility Score: inf
ROOT
ATOM      1  C   UNL     1      -1.211   9.296   1.197  1.00  0.00     0.115 A 
ATOM      2  C   UNL     1       0.094   9.783   1.346  1.00  0.00     0.047 A 
ATOM      3  C   UNL     1      -1.416   7.974   0.793  1.00  0.00     0.047 A 
ATOM      4  C   UNL     1       1.187   8.949   1.091  1.00  0.00     0.014 A 
ATOM      5  C   UNL     1      -0.325   7.138   0.536  1.00  0.00     0.014 A 
ATOM      6  C   UNL     1       0.990   7.617   0.682  1.00  0.00    -0.003 A 
ENDROOT
BRANCH   1   7
ATOM      7  O   UNL     1      -2.308  10.117   1.449  1.00  0.00    -0.508 OA
ATOM      8  H   UNL     1      -2.797  10.593   0.699  1.00  0.00     0.293 HD
ENDBRANCH   1   7
BRANCH   6   9
ATOM      9  C   UNL     1       2.142   6.731   0.411  1.00  0.00     0.071 C 
ATOM     10  O   UNL     1       2.286   5.654   1.049  1.00  0.00    -0.545 OA
ATOM     11  O   UNL     1       3.084   7.075  -0.552  1.00  0.00    -0.545 OA
ENDBRANCH   6   9
TORSDOF 2
ENDMDL
