MODEL 1
REMARK VINA RESULT:    -5.346      0.000      0.000
REMARK INTER + INTRA:         -14.627
REMARK INTER:                 -11.596
REMARK INTRA:                  -3.031
REMARK UNBOUND:                -3.031
REMARK SMILES CCCCCCCCCCCCCCCCCCCCCC(=O)[O-]
REMARK SMILES IDX 12 1 11 2 10 3 9 4 8 5 7 6 6 7 5 8 4 9 3 10 2 11 1 12 13 13
REMARK SMILES IDX 14 14 15 15 16 16 17 17 18 18 19 19 20 20 21 21 22 22 23 23
REMARK SMILES IDX 24 24
REMARK H PARENT
REMARK Flexibility Score: inf
ROOT
ATOM      1  C   UNL     1      23.013  -8.639 -38.054  1.00  0.00     0.000 C 
ENDROOT
BRANCH   1   2
ATOM      2  C   UNL     1      24.353  -9.191 -38.573  1.00  0.00     0.000 C 
BRANCH   2   3
ATOM      3  C   UNL     1      25.041  -8.331 -39.652  1.00  0.00     0.000 C 
BRANCH   3   4
ATOM      4  C   UNL     1      25.889  -7.160 -39.114  1.00  0.00    -0.000 C 
BRANCH   4   5
ATOM      5  C   UNL     1      26.295  -7.275 -37.630  1.00  0.00    -0.000 C 
BRANCH   5   6
ATOM      6  C   UNL     1      27.569  -6.504 -37.244  1.00  0.00    -0.000 C 
BRANCH   6   7
ATOM      7  C   UNL     1      28.055  -5.561 -38.354  1.00  0.00    -0.000 C 
BRANCH   7   8
ATOM      8  C   UNL     1      27.791  -4.097 -37.986  1.00  0.00    -0.000 C 
BRANCH   8   9
ATOM      9  C   UNL     1      26.284  -3.795 -37.967  1.00  0.00    -0.000 C 
BRANCH   9  10
ATOM     10  C   UNL     1      25.925  -2.569 -38.832  1.00  0.00    -0.000 C 
BRANCH  10  11
ATOM     11  C   UNL     1      24.549  -2.679 -39.510  1.00  0.00    -0.003 C 
ATOM     12  C   UNL     1      24.193  -4.108 -39.914  1.00  0.00     0.004 C 
ENDBRANCH  10  11
ENDBRANCH   9  10
ENDBRANCH   8   9
ENDBRANCH   7   8
ENDBRANCH   6   7
ENDBRANCH   5   6
ENDBRANCH   4   5
ENDBRANCH   3   4
ENDBRANCH   2   3
ENDBRANCH   1   2
BRANCH   1  13
ATOM     13  C   UNL     1      22.233  -7.861 -39.128  1.00  0.00     0.000 C 
BRANCH  13  14
ATOM     14  C   UNL     1      22.018  -6.386 -38.754  1.00  0.00     0.000 C 
BRANCH  14  15
ATOM     15  C   UNL     1      21.945  -6.161 -37.234  1.00  0.00     0.000 C 
BRANCH  15  16
ATOM     16  C   UNL     1      23.271  -5.642 -36.653  1.00  0.00     0.000 C 
BRANCH  16  17
ATOM     17  C   UNL     1      23.136  -4.233 -36.048  1.00  0.00     0.000 C 
BRANCH  17  18
ATOM     18  C   UNL     1      21.671  -3.808 -35.860  1.00  0.00     0.000 C 
BRANCH  18  19
ATOM     19  C   UNL     1      21.459  -2.300 -36.067  1.00  0.00     0.000 C 
BRANCH  19  20
ATOM     20  C   UNL     1      20.507  -2.035 -37.240  1.00  0.00     0.006 C 
BRANCH  20  21
ATOM     21  C   UNL     1      20.956  -2.792 -38.493  1.00  0.00     0.053 C 
BRANCH  21  22
ATOM     22  C   UNL     1      19.812  -2.961 -39.443  1.00  0.00     0.041 C 
ATOM     23  O   UNL     1      18.637  -2.712 -39.068  1.00  0.00    -0.550 OA
ATOM     24  O   UNL     1      20.049  -3.356 -40.754  1.00  0.00    -0.550 OA
ENDBRANCH  21  22
ENDBRANCH  20  21
ENDBRANCH  19  20
ENDBRANCH  18  19
ENDBRANCH  17  18
ENDBRANCH  16  17
ENDBRANCH  15  16
ENDBRANCH  14  15
ENDBRANCH  13  14
ENDBRANCH   1  13
TORSDOF 20
ENDMDL
MODEL 2
REMARK VINA RESULT:    -5.215      2.662      6.402
REMARK INTER + INTRA:         -14.343
REMARK INTER:                 -10.546
REMARK INTRA:                  -3.797
REMARK UNBOUND:                -3.031
REMARK SMILES CCCCCCCCCCCCCCCCCCCCCC(=O)[O-]
REMARK SMILES IDX 12 1 11 2 10 3 9 4 8 5 7 6 6 7 5 8 4 9 3 10 2 11 1 12 13 13
REMARK SMILES IDX 14 14 15 15 16 16 17 17 18 18 19 19 20 20 21 21 22 22 23 23
REMARK SMILES IDX 24 24
REMARK H PARENT
REMARK Flexibility Score: inf
ROOT
ATOM      1  C   UNL     1      23.467  -4.799 -39.871  1.00  0.00     0.000 C 
ENDROOT
BRANCH   1   2
ATOM      2  C   UNL     1      21.943  -4.841 -40.083  1.00  0.00     0.000 C 
BRANCH   2   3
ATOM      3  C   UNL     1      21.224  -3.485 -39.933  1.00  0.00     0.000 C 
BRANCH   3   4
ATOM      4  C   UNL     1      20.043  -3.476 -38.943  1.00  0.00    -0.000 C 
BRANCH   4   5
ATOM      5  C   UNL     1      20.115  -2.390 -37.849  1.00  0.00    -0.000 C 
BRANCH   5   6
ATOM      6  C   UNL     1      21.531  -2.085 -37.330  1.00  0.00    -0.000 C 
BRANCH   6   7
ATOM      7  C   UNL     1      21.766  -2.593 -35.900  1.00  0.00    -0.000 C 
BRANCH   7   8
ATOM      8  C   UNL     1      21.825  -4.124 -35.865  1.00  0.00    -0.000 C 
BRANCH   8   9
ATOM      9  C   UNL     1      23.279  -4.622 -35.847  1.00  0.00    -0.000 C 
BRANCH   9  10
ATOM     10  C   UNL     1      23.421  -6.026 -36.469  1.00  0.00    -0.000 C 
BRANCH  10  11
ATOM     11  C   UNL     1      22.080  -6.645 -36.896  1.00  0.00    -0.003 C 
ATOM     12  C   UNL     1      22.235  -7.750 -37.939  1.00  0.00     0.004 C 
ENDBRANCH  10  11
ENDBRANCH   9  10
ENDBRANCH   8   9
ENDBRANCH   7   8
ENDBRANCH   6   7
ENDBRANCH   5   6
ENDBRANCH   4   5
ENDBRANCH   3   4
ENDBRANCH   2   3
ENDBRANCH   1   2
BRANCH   1  13
ATOM     13  C   UNL     1      24.035  -3.370 -39.903  1.00  0.00     0.000 C 
BRANCH  13  14
ATOM     14  C   UNL     1      24.811  -3.011 -38.625  1.00  0.00     0.000 C 
BRANCH  14  15
ATOM     15  C   UNL     1      26.233  -2.502 -38.914  1.00  0.00     0.000 C 
BRANCH  15  16
ATOM     16  C   UNL     1      27.316  -3.459 -38.389  1.00  0.00     0.000 C 
BRANCH  16  17
ATOM     17  C   UNL     1      26.720  -4.696 -37.694  1.00  0.00     0.000 C 
BRANCH  17  18
ATOM     18  C   UNL     1      27.722  -5.857 -37.590  1.00  0.00     0.000 C 
BRANCH  18  19
ATOM     19  C   UNL     1      27.355  -7.042 -38.497  1.00  0.00     0.000 C 
BRANCH  19  20
ATOM     20  C   UNL     1      25.835  -7.223 -38.578  1.00  0.00     0.006 C 
BRANCH  20  21
ATOM     21  C   UNL     1      25.434  -7.934 -39.873  1.00  0.00     0.053 C 
BRANCH  21  22
ATOM     22  C   UNL     1      24.947  -9.319 -39.585  1.00  0.00     0.041 C 
ATOM     23  O   UNL     1      25.032  -9.790 -38.421  1.00  0.00    -0.550 OA
ATOM     24  O   UNL     1      24.361 -10.075 -40.593  1.00  0.00    -0.550 OA
ENDBRANCH  21  22
ENDBRANCH  20  21
ENDBRANCH  19  20
ENDBRANCH  18  19
ENDBRANCH  17  18
ENDBRANCH  16  17
ENDBRANCH  15  16
ENDBRANCH  14  15
ENDBRANCH  13  14
ENDBRANCH   1  13
TORSDOF 20
ENDMDL
MODEL 3
REMARK VINA RESULT:    -5.142      2.490      6.380
REMARK INTER + INTRA:         -14.184
REMARK INTER:                 -10.848
REMARK INTRA:                  -3.336
REMARK UNBOUND:                -3.031
REMARK SMILES CCCCCCCCCCCCCCCCCCCCCC(=O)[O-]
REMARK SMILES IDX 12 1 11 2 10 3 9 4 8 5 7 6 6 7 5 8 4 9 3 10 2 11 1 12 13 13
REMARK SMILES IDX 14 14 15 15 16 16 17 17 18 18 19 19 20 20 21 21 22 22 23 23
REMARK SMILES IDX 24 24
REMARK H PARENT
REMARK Flexibility Score: inf
ROOT
ATOM      1  C   UNL     1      23.826  -1.962 -37.717  1.00  0.00     0.000 C 
ENDROOT
BRANCH   1   2
ATOM      2  C   UNL     1      22.335  -1.942 -37.336  1.00  0.00     0.000 C 
BRANCH   2   3
ATOM      3  C   UNL     1      22.018  -2.427 -35.907  1.00  0.00     0.000 C 
BRANCH   3   4
ATOM      4  C   UNL     1      21.742  -3.938 -35.774  1.00  0.00    -0.000 C 
BRANCH   4   5
ATOM      5  C   UNL     1      22.956  -4.851 -36.048  1.00  0.00    -0.000 C 
BRANCH   5   6
ATOM      6  C   UNL     1      22.704  -5.976 -37.068  1.00  0.00    -0.000 C 
BRANCH   6   7
ATOM      7  C   UNL     1      21.625  -5.616 -38.100  1.00  0.00    -0.000 C 
BRANCH   7   8
ATOM      8  C   UNL     1      22.019  -6.104 -39.499  1.00  0.00    -0.000 C 
BRANCH   8   9
ATOM      9  C   UNL     1      21.627  -5.077 -40.573  1.00  0.00    -0.000 C 
BRANCH   9  10
ATOM     10  C   UNL     1      21.202  -3.727 -39.959  1.00  0.00    -0.000 C 
BRANCH  10  11
ATOM     11  C   UNL     1      19.806  -3.263 -40.407  1.00  0.00    -0.003 C 
ATOM     12  C   UNL     1      19.002  -2.613 -39.283  1.00  0.00     0.004 C 
ENDBRANCH  10  11
ENDBRANCH   9  10
ENDBRANCH   8   9
ENDBRANCH   7   8
ENDBRANCH   6   7
ENDBRANCH   5   6
ENDBRANCH   4   5
ENDBRANCH   3   4
ENDBRANCH   2   3
ENDBRANCH   1   2
BRANCH   1  13
ATOM     13  C   UNL     1      24.075  -2.545 -39.120  1.00  0.00     0.000 C 
BRANCH  13  14
ATOM     14  C   UNL     1      24.978  -3.789 -39.093  1.00  0.00     0.000 C 
BRANCH  14  15
ATOM     15  C   UNL     1      25.971  -3.780 -37.919  1.00  0.00     0.000 C 
BRANCH  15  16
ATOM     16  C   UNL     1      27.418  -3.528 -38.376  1.00  0.00     0.000 C 
BRANCH  16  17
ATOM     17  C   UNL     1      28.357  -4.695 -38.023  1.00  0.00     0.000 C 
BRANCH  17  18
ATOM     18  C   UNL     1      27.761  -6.065 -38.383  1.00  0.00     0.000 C 
BRANCH  18  19
ATOM     19  C   UNL     1      27.279  -6.846 -37.151  1.00  0.00     0.000 C 
BRANCH  19  20
ATOM     20  C   UNL     1      25.851  -7.366 -37.354  1.00  0.00     0.006 C 
BRANCH  20  21
ATOM     21  C   UNL     1      25.617  -7.775 -38.811  1.00  0.00     0.053 C 
BRANCH  21  22
ATOM     22  C   UNL     1      24.791  -9.020 -38.882  1.00  0.00     0.041 C 
ATOM     23  O   UNL     1      25.240 -10.046 -39.456  1.00  0.00    -0.550 OA
ATOM     24  O   UNL     1      23.540  -9.061 -38.279  1.00  0.00    -0.550 OA
ENDBRANCH  21  22
ENDBRANCH  20  21
ENDBRANCH  19  20
ENDBRANCH  18  19
ENDBRANCH  17  18
ENDBRANCH  16  17
ENDBRANCH  15  16
ENDBRANCH  14  15
ENDBRANCH  13  14
ENDBRANCH   1  13
TORSDOF 20
ENDMDL
MODEL 4
REMARK VINA RESULT:    -4.848      2.579      5.591
REMARK INTER + INTRA:         -13.547
REMARK INTER:                 -10.771
REMARK INTRA:                  -2.776
REMARK UNBOUND:                -3.031
REMARK SMILES CCCCCCCCCCCCCCCCCCCCCC(=O)[O-]
REMARK SMILES IDX 12 1 11 2 10 3 9 4 8 5 7 6 6 7 5 8 4 9 3 10 2 11 1 12 13 13
REMARK SMILES IDX 14 14 15 15 16 16 17 17 18 18 19 19 20 20 21 21 22 22 23 23
REMARK SMILES IDX 24 24
REMARK H PARENT
REMARK Flexibility Score: inf
ROOT
ATOM      1  C   UNL     1      27.060  -5.537 -38.411  1.00  0.00     0.000 C 
ENDROOT
BRANCH   1   2
ATOM      2  C   UNL     1      27.273  -6.584 -37.302  1.00  0.00     0.000 C 
BRANCH   2   3
ATOM      3  C   UNL     1      26.022  -6.910 -36.462  1.00  0.00     0.000 C 
BRANCH   3   4
ATOM      4  C   UNL     1      24.678  -6.517 -37.107  1.00  0.00    -0.000 C 
BRANCH   4   5
ATOM      5  C   UNL     1      23.554  -6.162 -36.111  1.00  0.00    -0.000 C 
BRANCH   5   6
ATOM      6  C   UNL     1      23.373  -4.657 -35.847  1.00  0.00    -0.000 C 
BRANCH   6   7
ATOM      7  C   UNL     1      22.126  -4.076 -36.531  1.00  0.00    -0.000 C 
BRANCH   7   8
ATOM      8  C   UNL     1      21.785  -2.692 -35.969  1.00  0.00    -0.000 C 
BRANCH   8   9
ATOM      9  C   UNL     1      20.825  -1.937 -36.903  1.00  0.00    -0.000 C 
BRANCH   9  10
ATOM     10  C   UNL     1      20.136  -2.879 -37.912  1.00  0.00    -0.000 C 
BRANCH  10  11
ATOM     11  C   UNL     1      19.141  -2.160 -38.839  1.00  0.00    -0.003 C 
ATOM     12  C   UNL     1      19.286  -2.567 -40.303  1.00  0.00     0.004 C 
ENDBRANCH  10  11
ENDBRANCH   9  10
ENDBRANCH   8   9
ENDBRANCH   7   8
ENDBRANCH   6   7
ENDBRANCH   5   6
ENDBRANCH   4   5
ENDBRANCH   3   4
ENDBRANCH   2   3
ENDBRANCH   1   2
BRANCH   1  13
ATOM     13  C   UNL     1      27.050  -4.095 -37.874  1.00  0.00     0.000 C 
BRANCH  13  14
ATOM     14  C   UNL     1      26.382  -3.106 -38.844  1.00  0.00     0.000 C 
BRANCH  14  15
ATOM     15  C   UNL     1      24.846  -3.131 -38.757  1.00  0.00     0.000 C 
BRANCH  15  16
ATOM     16  C   UNL     1      24.229  -4.256 -39.604  1.00  0.00     0.000 C 
BRANCH  16  17
ATOM     17  C   UNL     1      22.735  -4.023 -39.891  1.00  0.00     0.000 C 
BRANCH  17  18
ATOM     18  C   UNL     1      22.024  -5.289 -40.396  1.00  0.00     0.000 C 
BRANCH  18  19
ATOM     19  C   UNL     1      21.893  -6.369 -39.312  1.00  0.00     0.000 C 
BRANCH  19  20
ATOM     20  C   UNL     1      22.124  -7.767 -39.898  1.00  0.00     0.006 C 
BRANCH  20  21
ATOM     21  C   UNL     1      23.095  -8.573 -39.031  1.00  0.00     0.053 C 
BRANCH  21  22
ATOM     22  C   UNL     1      24.233  -9.088 -39.854  1.00  0.00     0.041 C 
ATOM     23  O   UNL     1      24.062 -10.065 -40.628  1.00  0.00    -0.550 OA
ATOM     24  O   UNL     1      25.472  -8.463 -39.796  1.00  0.00    -0.550 OA
ENDBRANCH  21  22
ENDBRANCH  20  21
ENDBRANCH  19  20
ENDBRANCH  18  19
ENDBRANCH  17  18
ENDBRANCH  16  17
ENDBRANCH  15  16
ENDBRANCH  14  15
ENDBRANCH  13  14
ENDBRANCH   1  13
TORSDOF 20
ENDMDL
MODEL 5
REMARK VINA RESULT:    -4.825      2.903      5.137
REMARK INTER + INTRA:         -13.497
REMARK INTER:                 -10.151
REMARK INTRA:                  -3.346
REMARK UNBOUND:                -3.031
REMARK SMILES CCCCCCCCCCCCCCCCCCCCCC(=O)[O-]
REMARK SMILES IDX 12 1 11 2 10 3 9 4 8 5 7 6 6 7 5 8 4 9 3 10 2 11 1 12 13 13
REMARK SMILES IDX 14 14 15 15 16 16 17 17 18 18 19 19 20 20 21 21 22 22 23 23
REMARK SMILES IDX 24 24
REMARK H PARENT
REMARK Flexibility Score: inf
ROOT
ATOM      1  C   UNL     1      23.881  -8.813 -39.341  1.00  0.00     0.000 C 
ENDROOT
BRANCH   1   2
ATOM      2  C   UNL     1      25.148  -8.015 -38.979  1.00  0.00     0.000 C 
BRANCH   2   3
ATOM      3  C   UNL     1      25.446  -7.912 -37.470  1.00  0.00     0.000 C 
BRANCH   3   4
ATOM      4  C   UNL     1      25.377  -6.487 -36.885  1.00  0.00    -0.000 C 
BRANCH   4   5
ATOM      5  C   UNL     1      24.093  -6.169 -36.090  1.00  0.00    -0.000 C 
BRANCH   5   6
ATOM      6  C   UNL     1      23.721  -4.677 -36.028  1.00  0.00    -0.000 C 
BRANCH   6   7
ATOM      7  C   UNL     1      22.205  -4.438 -36.064  1.00  0.00    -0.000 C 
BRANCH   7   8
ATOM      8  C   UNL     1      21.862  -3.018 -35.599  1.00  0.00    -0.000 C 
BRANCH   8   9
ATOM      9  C   UNL     1      20.844  -2.359 -36.543  1.00  0.00    -0.000 C 
BRANCH   9  10
ATOM     10  C   UNL     1      20.489  -3.264 -37.740  1.00  0.00    -0.000 C 
BRANCH  10  11
ATOM     11  C   UNL     1      20.323  -2.495 -39.062  1.00  0.00    -0.003 C 
ATOM     12  C   UNL     1      18.943  -2.675 -39.691  1.00  0.00     0.004 C 
ENDBRANCH  10  11
ENDBRANCH   9  10
ENDBRANCH   8   9
ENDBRANCH   7   8
ENDBRANCH   6   7
ENDBRANCH   5   6
ENDBRANCH   4   5
ENDBRANCH   3   4
ENDBRANCH   2   3
ENDBRANCH   1   2
BRANCH   1  13
ATOM     13  C   UNL     1      22.735  -8.598 -38.338  1.00  0.00     0.000 C 
BRANCH  13  14
ATOM     14  C   UNL     1      21.938  -7.312 -38.614  1.00  0.00     0.000 C 
BRANCH  14  15
ATOM     15  C   UNL     1      21.893  -6.948 -40.108  1.00  0.00     0.000 C 
BRANCH  15  16
ATOM     16  C   UNL     1      22.178  -5.457 -40.357  1.00  0.00     0.000 C 
BRANCH  16  17
ATOM     17  C   UNL     1      23.156  -4.866 -39.325  1.00  0.00     0.000 C 
BRANCH  17  18
ATOM     18  C   UNL     1      24.203  -3.941 -39.965  1.00  0.00     0.000 C 
BRANCH  18  19
ATOM     19  C   UNL     1      24.353  -2.606 -39.219  1.00  0.00     0.000 C 
BRANCH  19  20
ATOM     20  C   UNL     1      25.813  -2.359 -38.821  1.00  0.00     0.006 C 
BRANCH  20  21
ATOM     21  C   UNL     1      26.505  -3.667 -38.431  1.00  0.00     0.053 C 
BRANCH  21  22
ATOM     22  C   UNL     1      27.990  -3.487 -38.397  1.00  0.00     0.041 C 
ATOM     23  O   UNL     1      28.750  -4.490 -38.430  1.00  0.00    -0.550 OA
ATOM     24  O   UNL     1      28.535  -2.209 -38.367  1.00  0.00    -0.550 OA
ENDBRANCH  21  22
ENDBRANCH  20  21
ENDBRANCH  19  20
ENDBRANCH  18  19
ENDBRANCH  17  18
ENDBRANCH  16  17
ENDBRANCH  15  16
ENDBRANCH  14  15
ENDBRANCH  13  14
ENDBRANCH   1  13
TORSDOF 20
ENDMDL
MODEL 6
REMARK VINA RESULT:    -4.801      1.007      2.113
REMARK INTER + INTRA:         -13.444
REMARK INTER:                 -10.585
REMARK INTRA:                  -2.859
REMARK UNBOUND:                -3.031
REMARK SMILES CCCCCCCCCCCCCCCCCCCCCC(=O)[O-]
REMARK SMILES IDX 12 1 11 2 10 3 9 4 8 5 7 6 6 7 5 8 4 9 3 10 2 11 1 12 13 13
REMARK SMILES IDX 14 14 15 15 16 16 17 17 18 18 19 19 20 20 21 21 22 22 23 23
REMARK SMILES IDX 24 24
REMARK H PARENT
REMARK Flexibility Score: inf
ROOT
ATOM      1  C   UNL     1      21.656  -6.932 -38.548  1.00  0.00     0.000 C 
ENDROOT
BRANCH   1   2
ATOM      2  C   UNL     1      22.674  -8.087 -38.522  1.00  0.00     0.000 C 
BRANCH   2   3
ATOM      3  C   UNL     1      23.169  -8.554 -39.906  1.00  0.00     0.000 C 
BRANCH   3   4
ATOM      4  C   UNL     1      24.425  -9.447 -39.885  1.00  0.00    -0.000 C 
BRANCH   4   5
ATOM      5  C   UNL     1      25.626  -8.868 -39.107  1.00  0.00    -0.000 C 
BRANCH   5   6
ATOM      6  C   UNL     1      25.625  -7.336 -38.959  1.00  0.00    -0.000 C 
BRANCH   6   7
ATOM      7  C   UNL     1      26.353  -6.857 -37.695  1.00  0.00    -0.000 C 
BRANCH   7   8
ATOM      8  C   UNL     1      27.398  -5.789 -38.034  1.00  0.00    -0.000 C 
BRANCH   8   9
ATOM      9  C   UNL     1      26.929  -4.395 -37.587  1.00  0.00    -0.000 C 
BRANCH   9  10
ATOM     10  C   UNL     1      26.434  -3.541 -38.772  1.00  0.00    -0.000 C 
BRANCH  10  11
ATOM     11  C   UNL     1      24.943  -3.175 -38.683  1.00  0.00    -0.003 C 
ATOM     12  C   UNL     1      24.062  -4.021 -39.599  1.00  0.00     0.004 C 
ENDBRANCH  10  11
ENDBRANCH   9  10
ENDBRANCH   8   9
ENDBRANCH   7   8
ENDBRANCH   6   7
ENDBRANCH   5   6
ENDBRANCH   4   5
ENDBRANCH   3   4
ENDBRANCH   2   3
ENDBRANCH   1   2
BRANCH   1  13
ATOM     13  C   UNL     1      21.699  -6.071 -37.273  1.00  0.00     0.000 C 
BRANCH  13  14
ATOM     14  C   UNL     1      23.109  -5.979 -36.668  1.00  0.00     0.000 C 
BRANCH  14  15
ATOM     15  C   UNL     1      23.355  -4.652 -35.928  1.00  0.00     0.000 C 
BRANCH  15  16
ATOM     16  C   UNL     1      22.046  -3.917 -35.593  1.00  0.00     0.000 C 
BRANCH  16  17
ATOM     17  C   UNL     1      22.107  -2.420 -35.945  1.00  0.00     0.000 C 
BRANCH  17  18
ATOM     18  C   UNL     1      20.928  -1.970 -36.822  1.00  0.00     0.000 C 
BRANCH  18  19
ATOM     19  C   UNL     1      21.026  -2.492 -38.264  1.00  0.00     0.000 C 
BRANCH  19  20
ATOM     20  C   UNL     1      19.735  -3.206 -38.680  1.00  0.00     0.006 C 
BRANCH  20  21
ATOM     21  C   UNL     1      19.120  -2.551 -39.920  1.00  0.00     0.053 C 
BRANCH  21  22
ATOM     22  C   UNL     1      19.619  -3.212 -41.166  1.00  0.00     0.041 C 
ATOM     23  O   UNL     1      19.061  -2.982 -42.271  1.00  0.00    -0.550 OA
ATOM     24  O   UNL     1      20.726  -4.050 -41.114  1.00  0.00    -0.550 OA
ENDBRANCH  21  22
ENDBRANCH  20  21
ENDBRANCH  19  20
ENDBRANCH  18  19
ENDBRANCH  17  18
ENDBRANCH  16  17
ENDBRANCH  15  16
ENDBRANCH  14  15
ENDBRANCH  13  14
ENDBRANCH   1  13
TORSDOF 20
ENDMDL
MODEL 7
REMARK VINA RESULT:    -4.753      2.499      6.570
REMARK INTER + INTRA:         -13.341
REMARK INTER:                 -10.094
REMARK INTRA:                  -3.247
REMARK UNBOUND:                -3.031
REMARK SMILES CCCCCCCCCCCCCCCCCCCCCC(=O)[O-]
REMARK SMILES IDX 12 1 11 2 10 3 9 4 8 5 7 6 6 7 5 8 4 9 3 10 2 11 1 12 13 13
REMARK SMILES IDX 14 14 15 15 16 16 17 17 18 18 19 19 20 20 21 21 22 22 23 23
REMARK SMILES IDX 24 24
REMARK H PARENT
REMARK Flexibility Score: inf
ROOT
ATOM      1  C   UNL     1      23.239  -5.302 -36.345  1.00  0.00     0.000 C 
ENDROOT
BRANCH   1   2
ATOM      2  C   UNL     1      21.885  -4.585 -36.187  1.00  0.00     0.000 C 
BRANCH   2   3
ATOM      3  C   UNL     1      21.886  -3.395 -35.208  1.00  0.00     0.000 C 
BRANCH   3   4
ATOM      4  C   UNL     1      21.438  -2.049 -35.812  1.00  0.00    -0.000 C 
BRANCH   4   5
ATOM      5  C   UNL     1      21.292  -2.040 -37.349  1.00  0.00    -0.000 C 
BRANCH   5   6
ATOM      6  C   UNL     1      19.850  -1.876 -37.862  1.00  0.00    -0.000 C 
BRANCH   6   7
ATOM      7  C   UNL     1      19.595  -2.626 -39.177  1.00  0.00    -0.000 C 
BRANCH   7   8
ATOM      8  C   UNL     1      20.349  -3.960 -39.204  1.00  0.00    -0.000 C 
BRANCH   8   9
ATOM      9  C   UNL     1      21.072  -4.159 -40.545  1.00  0.00    -0.000 C 
BRANCH   9  10
ATOM     10  C   UNL     1      22.260  -5.136 -40.426  1.00  0.00    -0.000 C 
BRANCH  10  11
ATOM     11  C   UNL     1      22.028  -6.261 -39.404  1.00  0.00    -0.003 C 
ATOM     12  C   UNL     1      21.666  -7.595 -40.053  1.00  0.00     0.004 C 
ENDBRANCH  10  11
ENDBRANCH   9  10
ENDBRANCH   8   9
ENDBRANCH   7   8
ENDBRANCH   6   7
ENDBRANCH   5   6
ENDBRANCH   4   5
ENDBRANCH   3   4
ENDBRANCH   2   3
ENDBRANCH   1   2
BRANCH   1  13
ATOM     13  C   UNL     1      24.386  -4.338 -36.694  1.00  0.00     0.000 C 
BRANCH  13  14
ATOM     14  C   UNL     1      24.308  -3.822 -38.140  1.00  0.00     0.000 C 
BRANCH  14  15
ATOM     15  C   UNL     1      25.673  -3.829 -38.850  1.00  0.00     0.000 C 
BRANCH  15  16
ATOM     16  C   UNL     1      26.808  -3.325 -37.943  1.00  0.00     0.000 C 
BRANCH  16  17
ATOM     17  C   UNL     1      28.011  -4.284 -37.920  1.00  0.00     0.000 C 
BRANCH  17  18
ATOM     18  C   UNL     1      27.654  -5.695 -38.414  1.00  0.00     0.000 C 
BRANCH  18  19
ATOM     19  C   UNL     1      27.456  -6.695 -37.266  1.00  0.00     0.000 C 
BRANCH  19  20
ATOM     20  C   UNL     1      26.037  -7.274 -37.279  1.00  0.00     0.006 C 
BRANCH  20  21
ATOM     21  C   UNL     1      25.623  -7.683 -38.695  1.00  0.00     0.053 C 
BRANCH  21  22
ATOM     22  C   UNL     1      24.825  -8.948 -38.666  1.00  0.00     0.041 C 
ATOM     23  O   UNL     1      23.863  -9.071 -37.865  1.00  0.00    -0.550 OA
ATOM     24  O   UNL     1      25.120  -9.977 -39.552  1.00  0.00    -0.550 OA
ENDBRANCH  21  22
ENDBRANCH  20  21
ENDBRANCH  19  20
ENDBRANCH  18  19
ENDBRANCH  17  18
ENDBRANCH  16  17
ENDBRANCH  15  16
ENDBRANCH  14  15
ENDBRANCH  13  14
ENDBRANCH   1  13
TORSDOF 20
ENDMDL
MODEL 8
REMARK VINA RESULT:    -4.630      1.961      5.607
REMARK INTER + INTRA:         -13.075
REMARK INTER:                 -10.020
REMARK INTRA:                  -3.055
REMARK UNBOUND:                -3.031
REMARK SMILES CCCCCCCCCCCCCCCCCCCCCC(=O)[O-]
REMARK SMILES IDX 12 1 11 2 10 3 9 4 8 5 7 6 6 7 5 8 4 9 3 10 2 11 1 12 13 13
REMARK SMILES IDX 14 14 15 15 16 16 17 17 18 18 19 19 20 20 21 21 22 22 23 23
REMARK SMILES IDX 24 24
REMARK H PARENT
REMARK Flexibility Score: inf
ROOT
ATOM      1  C   UNL     1      28.216  -5.393 -38.172  1.00  0.00     0.000 C 
ENDROOT
BRANCH   1   2
ATOM      2  C   UNL     1      28.030  -3.939 -37.700  1.00  0.00     0.000 C 
BRANCH   2   3
ATOM      3  C   UNL     1      27.555  -2.954 -38.788  1.00  0.00     0.000 C 
BRANCH   3   4
ATOM      4  C   UNL     1      26.139  -2.382 -38.581  1.00  0.00    -0.000 C 
BRANCH   4   5
ATOM      5  C   UNL     1      25.008  -3.431 -38.552  1.00  0.00    -0.000 C 
BRANCH   5   6
ATOM      6  C   UNL     1      23.843  -3.156 -39.519  1.00  0.00    -0.000 C 
BRANCH   6   7
ATOM      7  C   UNL     1      23.178  -4.441 -40.034  1.00  0.00    -0.000 C 
BRANCH   7   8
ATOM      8  C   UNL     1      21.651  -4.343 -39.946  1.00  0.00    -0.000 C 
BRANCH   8   9
ATOM      9  C   UNL     1      21.223  -3.144 -39.086  1.00  0.00    -0.000 C 
BRANCH   9  10
ATOM     10  C   UNL     1      19.732  -3.210 -38.697  1.00  0.00    -0.000 C 
BRANCH  10  11
ATOM     11  C   UNL     1      18.912  -2.012 -39.205  1.00  0.00    -0.003 C 
ATOM     12  C   UNL     1      18.742  -2.004 -40.722  1.00  0.00     0.004 C 
ENDBRANCH  10  11
ENDBRANCH   9  10
ENDBRANCH   8   9
ENDBRANCH   7   8
ENDBRANCH   6   7
ENDBRANCH   5   6
ENDBRANCH   4   5
ENDBRANCH   3   4
ENDBRANCH   2   3
ENDBRANCH   1   2
BRANCH   1  13
ATOM     13  C   UNL     1      27.657  -6.420 -37.171  1.00  0.00     0.000 C 
BRANCH  13  14
ATOM     14  C   UNL     1      26.483  -7.229 -37.746  1.00  0.00     0.000 C 
BRANCH  14  15
ATOM     15  C   UNL     1      25.982  -6.679 -39.092  1.00  0.00     0.000 C 
BRANCH  15  16
ATOM     16  C   UNL     1      25.417  -7.782 -40.002  1.00  0.00     0.000 C 
BRANCH  16  17
ATOM     17  C   UNL     1      24.705  -8.892 -39.209  1.00  0.00     0.000 C 
BRANCH  17  18
ATOM     18  C   UNL     1      23.214  -9.010 -39.563  1.00  0.00     0.000 C 
BRANCH  18  19
ATOM     19  C   UNL     1      22.386  -7.818 -39.057  1.00  0.00     0.000 C 
BRANCH  19  20
ATOM     20  C   UNL     1      22.619  -7.583 -37.560  1.00  0.00     0.006 C 
BRANCH  20  21
ATOM     21  C   UNL     1      21.880  -6.331 -37.079  1.00  0.00     0.053 C 
BRANCH  21  22
ATOM     22  C   UNL     1      22.813  -5.416 -36.351  1.00  0.00     0.041 C 
ATOM     23  O   UNL     1      23.969  -5.807 -36.042  1.00  0.00    -0.550 OA
ATOM     24  O   UNL     1      22.420  -4.118 -36.049  1.00  0.00    -0.550 OA
ENDBRANCH  21  22
ENDBRANCH  20  21
ENDBRANCH  19  20
ENDBRANCH  18  19
ENDBRANCH  17  18
ENDBRANCH  16  17
ENDBRANCH  15  16
ENDBRANCH  14  15
ENDBRANCH  13  14
ENDBRANCH   1  13
TORSDOF 20
ENDMDL
MODEL 9
REMARK VINA RESULT:    -4.508      1.175      3.488
REMARK INTER + INTRA:         -12.809
REMARK INTER:                  -9.640
REMARK INTRA:                  -3.168
REMARK UNBOUND:                -3.031
REMARK SMILES CCCCCCCCCCCCCCCCCCCCCC(=O)[O-]
REMARK SMILES IDX 12 1 11 2 10 3 9 4 8 5 7 6 6 7 5 8 4 9 3 10 2 11 1 12 13 13
REMARK SMILES IDX 14 14 15 15 16 16 17 17 18 18 19 19 20 20 21 21 22 22 23 23
REMARK SMILES IDX 24 24
REMARK H PARENT
REMARK Flexibility Score: inf
ROOT
ATOM      1  C   UNL     1      21.147  -5.727 -37.063  1.00  0.00     0.000 C 
ENDROOT
BRANCH   1   2
ATOM      2  C   UNL     1      22.168  -6.870 -36.912  1.00  0.00     0.000 C 
BRANCH   2   3
ATOM      3  C   UNL     1      22.498  -7.628 -38.214  1.00  0.00     0.000 C 
BRANCH   3   4
ATOM      4  C   UNL     1      23.148  -9.012 -38.018  1.00  0.00    -0.000 C 
BRANCH   4   5
ATOM      5  C   UNL     1      24.636  -9.098 -38.420  1.00  0.00    -0.000 C 
BRANCH   5   6
ATOM      6  C   UNL     1      25.040  -8.205 -39.607  1.00  0.00    -0.000 C 
BRANCH   6   7
ATOM      7  C   UNL     1      25.997  -7.074 -39.205  1.00  0.00    -0.000 C 
BRANCH   7   8
ATOM      8  C   UNL     1      26.060  -6.923 -37.682  1.00  0.00    -0.000 C 
BRANCH   8   9
ATOM      9  C   UNL     1      26.981  -5.760 -37.280  1.00  0.00    -0.000 C 
BRANCH   9  10
ATOM     10  C   UNL     1      28.389  -5.894 -37.894  1.00  0.00    -0.000 C 
BRANCH  10  11
ATOM     11  C   UNL     1      28.884  -4.608 -38.578  1.00  0.00    -0.003 C 
ATOM     12  C   UNL     1      28.100  -3.367 -38.160  1.00  0.00     0.004 C 
ENDBRANCH  10  11
ENDBRANCH   9  10
ENDBRANCH   8   9
ENDBRANCH   7   8
ENDBRANCH   6   7
ENDBRANCH   5   6
ENDBRANCH   4   5
ENDBRANCH   3   4
ENDBRANCH   2   3
ENDBRANCH   1   2
BRANCH   1  13
ATOM     13  C   UNL     1      21.651  -4.398 -36.474  1.00  0.00     0.000 C 
BRANCH  13  14
ATOM     14  C   UNL     1      23.040  -4.524 -35.827  1.00  0.00     0.000 C 
BRANCH  14  15
ATOM     15  C   UNL     1      24.110  -3.682 -36.542  1.00  0.00     0.000 C 
BRANCH  15  16
ATOM     16  C   UNL     1      23.652  -3.209 -37.932  1.00  0.00     0.000 C 
BRANCH  16  17
ATOM     17  C   UNL     1      24.531  -3.771 -39.063  1.00  0.00     0.000 C 
BRANCH  17  18
ATOM     18  C   UNL     1      23.726  -4.110 -40.327  1.00  0.00     0.000 C 
BRANCH  18  19
ATOM     19  C   UNL     1      22.426  -4.869 -40.018  1.00  0.00     0.000 C 
BRANCH  19  20
ATOM     20  C   UNL     1      21.208  -4.124 -40.577  1.00  0.00     0.006 C 
BRANCH  20  21
ATOM     21  C   UNL     1      20.625  -3.165 -39.536  1.00  0.00     0.053 C 
BRANCH  21  22
ATOM     22  C   UNL     1      19.309  -2.624 -39.997  1.00  0.00     0.041 C 
ATOM     23  O   UNL     1      19.044  -2.568 -41.227  1.00  0.00    -0.550 OA
ATOM     24  O   UNL     1      18.359  -2.217 -39.069  1.00  0.00    -0.550 OA
ENDBRANCH  21  22
ENDBRANCH  20  21
ENDBRANCH  19  20
ENDBRANCH  18  19
ENDBRANCH  17  18
ENDBRANCH  16  17
ENDBRANCH  15  16
ENDBRANCH  14  15
ENDBRANCH  13  14
ENDBRANCH   1  13
TORSDOF 20
ENDMDL
