MODEL 1
REMARK VINA RESULT:    -7.926      0.000      0.000
REMARK INTER + INTRA:          -9.358
REMARK INTER:                  -9.085
REMARK INTRA:                  -0.274
REMARK UNBOUND:                -0.274
REMARK SMILES C=C(C)[C@H]1CC[C@@]2(C(=O)[O-])CC[C@@]3(C)[C@@H](CC[C@H]4[C@]5(C)CC[C@H](O)C(C)(C)[C@@H]5CC[C@]43C)[C@@H]12
REMARK SMILES IDX 7 1 6 2 33 3 11 4 5 5 15 6 4 7 12 8 16 9 13 10 17 11 31 12
REMARK SMILES IDX 14 13 18 14 30 15 32 16 19 17 29 18 21 19 20 20 28 21 22 22
REMARK SMILES IDX 25 23 23 24 26 25 27 26 8 27 9 28 10 29 2 30 3 31 1 32 24 33
REMARK H PARENT 24 34
REMARK Flexibility Score: inf
ROOT
ATOM      1  C   UNL     1     -35.194  43.262   5.454  1.00  0.00     0.014 C 
ATOM      2  C   UNL     1     -34.804  44.754   5.362  1.00  0.00     0.014 C 
ATOM      3  C   UNL     1     -35.715  43.093   6.923  1.00  0.00     0.012 C 
ATOM      4  C   UNL     1     -33.929  42.413   5.147  1.00  0.00     0.014 C 
ATOM      5  C   UNL     1     -34.304  45.125   6.747  1.00  0.00     0.009 C 
ATOM      6  C   UNL     1     -35.571  41.618   7.487  1.00  0.00     0.000 C 
ATOM      7  C   UNL     1     -35.262  44.393   7.685  1.00  0.00     0.018 C 
ATOM      8  C   UNL     1     -34.053  40.963   5.616  1.00  0.00     0.008 C 
ATOM      9  C   UNL     1     -35.963  41.463   8.949  1.00  0.00     0.005 C 
ATOM     10  C   UNL     1     -34.258  40.830   7.163  1.00  0.00    -0.024 C 
ATOM     11  C   UNL     1     -36.205  40.002   9.280  1.00  0.00     0.005 C 
ATOM     12  C   UNL     1     -34.359  39.263   7.615  1.00  0.00    -0.024 C 
ATOM     13  C   UNL     1     -33.059  41.512   7.893  1.00  0.00     0.012 C 
ATOM     14  C   UNL     1     -34.932  39.100   9.100  1.00  0.00     0.002 C 
ATOM     15  C   UNL     1     -35.309  38.459   6.678  1.00  0.00     0.008 C 
ATOM     16  C   UNL     1     -32.917  38.651   7.496  1.00  0.00     0.012 C 
ATOM     17  C   UNL     1     -35.236  37.597   9.609  1.00  0.00    -0.026 C 
ATOM     18  C   UNL     1     -35.575  37.010   7.108  1.00  0.00     0.005 C 
ATOM     19  C   UNL     1     -33.932  36.782   9.894  1.00  0.00     0.010 C 
ATOM     20  C   UNL     1     -35.965  37.724  10.993  1.00  0.00     0.012 C 
ATOM     21  C   UNL     1     -36.123  36.819   8.554  1.00  0.00     0.003 C 
ATOM     22  C   UNL     1     -34.170  35.312  10.292  1.00  0.00     0.033 C 
ATOM     23  C   UNL     1     -36.353  35.271   8.890  1.00  0.00    -0.006 C 
ATOM     24  C   UNL     1     -35.011  34.546   9.258  1.00  0.00     0.120 C 
ATOM     25  C   UNL     1     -37.007  34.526   7.686  1.00  0.00     0.014 C 
ATOM     26  C   UNL     1     -37.375  35.093  10.053  1.00  0.00     0.014 C 
ENDROOT
BRANCH   1  27
ATOM     27  C   UNL     1     -36.262  42.939   4.419  1.00  0.00     0.048 C 
ATOM     28  O   UNL     1     -36.350  43.625   3.366  1.00  0.00    -0.550 OA
ATOM     29  O   UNL     1     -37.097  41.838   4.573  1.00  0.00    -0.550 OA
ENDBRANCH   1  27
BRANCH   7  30
ATOM     30  C   UNL     1     -34.875  44.359   9.168  1.00  0.00    -0.077 C 
ATOM     31  C   UNL     1     -33.453  44.442   9.678  1.00  0.00     0.039 C 
ATOM     32  C   UNL     1     -35.854  44.425  10.089  1.00  0.00     0.008 C 
ENDBRANCH   7  30
BRANCH  24  33
ATOM     33  O   UNL     1     -34.214  34.329   8.118  1.00  0.00    -0.393 OA
ATOM     34  H   UNL     1     -34.508  34.968   7.418  1.00  0.00     0.210 HD
ENDBRANCH  24  33
TORSDOF 3
ENDMDL
MODEL 2
REMARK VINA RESULT:    -6.337     16.064     18.177
REMARK INTER + INTRA:          -7.537
REMARK INTER:                  -7.352
REMARK INTRA:                  -0.185
REMARK UNBOUND:                -0.274
REMARK SMILES C=C(C)[C@H]1CC[C@@]2(C(=O)[O-])CC[C@@]3(C)[C@@H](CC[C@H]4[C@]5(C)CC[C@H](O)C(C)(C)[C@@H]5CC[C@]43C)[C@@H]12
REMARK SMILES IDX 7 1 6 2 33 3 11 4 5 5 15 6 4 7 12 8 16 9 13 10 17 11 31 12
REMARK SMILES IDX 14 13 18 14 30 15 32 16 19 17 29 18 21 19 20 20 28 21 22 22
REMARK SMILES IDX 25 23 23 24 26 25 27 26 8 27 9 28 10 29 2 30 3 31 1 32 24 33
REMARK H PARENT 24 34
REMARK Flexibility Score: inf
ROOT
ATOM      1  C   UNL     1     -26.417  34.317  21.421  1.00  0.00     0.014 C 
ATOM      2  C   UNL     1     -25.150  35.132  21.082  1.00  0.00     0.014 C 
ATOM      3  C   UNL     1     -25.866  32.903  21.821  1.00  0.00     0.012 C 
ATOM      4  C   UNL     1     -27.325  34.291  20.161  1.00  0.00     0.014 C 
ATOM      5  C   UNL     1     -24.176  34.132  20.486  1.00  0.00     0.009 C 
ATOM      6  C   UNL     1     -26.903  31.726  21.590  1.00  0.00     0.000 C 
ATOM      7  C   UNL     1     -24.366  32.884  21.345  1.00  0.00     0.018 C 
ATOM      8  C   UNL     1     -28.381  33.186  20.207  1.00  0.00     0.008 C 
ATOM      9  C   UNL     1     -26.346  30.336  21.862  1.00  0.00     0.005 C 
ATOM     10  C   UNL     1     -27.766  31.747  20.285  1.00  0.00    -0.024 C 
ATOM     11  C   UNL     1     -27.474  29.338  22.036  1.00  0.00     0.005 C 
ATOM     12  C   UNL     1     -28.934  30.604  20.306  1.00  0.00    -0.024 C 
ATOM     13  C   UNL     1     -26.835  31.526  19.053  1.00  0.00     0.012 C 
ATOM     14  C   UNL     1     -28.370  29.176  20.756  1.00  0.00     0.002 C 
ATOM     15  C   UNL     1     -30.073  30.970  21.304  1.00  0.00     0.008 C 
ATOM     16  C   UNL     1     -29.546  30.539  18.862  1.00  0.00     0.012 C 
ATOM     17  C   UNL     1     -29.451  27.996  20.977  1.00  0.00    -0.026 C 
ATOM     18  C   UNL     1     -31.144  29.888  21.494  1.00  0.00     0.005 C 
ATOM     19  C   UNL     1     -30.051  27.469  19.632  1.00  0.00     0.010 C 
ATOM     20  C   UNL     1     -28.678  26.779  21.597  1.00  0.00     0.012 C 
ATOM     21  C   UNL     1     -30.624  28.483  21.921  1.00  0.00     0.003 C 
ATOM     22  C   UNL     1     -31.157  26.408  19.796  1.00  0.00     0.033 C 
ATOM     23  C   UNL     1     -31.828  27.439  22.080  1.00  0.00    -0.006 C 
ATOM     24  C   UNL     1     -32.309  26.886  20.694  1.00  0.00     0.120 C 
ATOM     25  C   UNL     1     -33.045  28.092  22.805  1.00  0.00     0.014 C 
ATOM     26  C   UNL     1     -31.424  26.250  23.003  1.00  0.00     0.014 C 
ENDROOT
BRANCH   1  27
ATOM     27  C   UNL     1     -27.176  34.985  22.557  1.00  0.00     0.048 C 
ATOM     28  O   UNL     1     -26.698  36.003  23.125  1.00  0.00    -0.550 OA
ATOM     29  O   UNL     1     -28.441  34.543  22.930  1.00  0.00    -0.550 OA
ENDBRANCH   1  27
BRANCH   7  30
ATOM     30  C   UNL     1     -23.702  31.598  20.843  1.00  0.00    -0.077 C 
ATOM     31  C   UNL     1     -23.574  31.222  19.383  1.00  0.00     0.039 C 
ATOM     32  C   UNL     1     -23.043  30.827  21.727  1.00  0.00     0.008 C 
ENDBRANCH   7  30
BRANCH  24  33
ATOM     33  O   UNL     1     -33.048  27.850  19.982  1.00  0.00    -0.393 OA
ATOM     34  H   UNL     1     -32.413  28.545  19.668  1.00  0.00     0.210 HD
ENDBRANCH  24  33
TORSDOF 3
ENDMDL
MODEL 3
REMARK VINA RESULT:    -6.070     16.204     18.401
REMARK INTER + INTRA:          -7.231
REMARK INTER:                  -6.780
REMARK INTRA:                  -0.451
REMARK UNBOUND:                -0.274
REMARK SMILES C=C(C)[C@H]1CC[C@@]2(C(=O)[O-])CC[C@@]3(C)[C@@H](CC[C@H]4[C@]5(C)CC[C@H](O)C(C)(C)[C@@H]5CC[C@]43C)[C@@H]12
REMARK SMILES IDX 7 1 6 2 33 3 11 4 5 5 15 6 4 7 12 8 16 9 13 10 17 11 31 12
REMARK SMILES IDX 14 13 18 14 30 15 32 16 19 17 29 18 21 19 20 20 28 21 22 22
REMARK SMILES IDX 25 23 23 24 26 25 27 26 8 27 9 28 10 29 2 30 3 31 1 32 24 33
REMARK H PARENT 24 34
REMARK Flexibility Score: inf
ROOT
ATOM      1  C   UNL     1     -27.141  32.086  20.343  1.00  0.00     0.014 C 
ATOM      2  C   UNL     1     -25.648  32.436  20.165  1.00  0.00     0.014 C 
ATOM      3  C   UNL     1     -27.142  30.944  21.418  1.00  0.00     0.012 C 
ATOM      4  C   UNL     1     -27.699  31.635  18.965  1.00  0.00     0.014 C 
ATOM      5  C   UNL     1     -24.902  31.128  20.370  1.00  0.00     0.009 C 
ATOM      6  C   UNL     1     -28.397  29.981  21.325  1.00  0.00     0.000 C 
ATOM      7  C   UNL     1     -25.648  30.464  21.525  1.00  0.00     0.018 C 
ATOM      8  C   UNL     1     -29.014  30.864  19.074  1.00  0.00     0.008 C 
ATOM      9  C   UNL     1     -28.355  28.800  22.284  1.00  0.00     0.005 C 
ATOM     10  C   UNL     1     -28.889  29.543  19.905  1.00  0.00    -0.024 C 
ATOM     11  C   UNL     1     -29.737  28.192  22.438  1.00  0.00     0.005 C 
ATOM     12  C   UNL     1     -30.313  28.745  19.970  1.00  0.00    -0.024 C 
ATOM     13  C   UNL     1     -27.805  28.632  19.248  1.00  0.00     0.012 C 
ATOM     14  C   UNL     1     -30.318  27.612  21.099  1.00  0.00     0.002 C 
ATOM     15  C   UNL     1     -31.492  29.709  20.300  1.00  0.00     0.008 C 
ATOM     16  C   UNL     1     -30.565  28.128  18.549  1.00  0.00     0.012 C 
ATOM     17  C   UNL     1     -31.720  26.859  21.379  1.00  0.00    -0.026 C 
ATOM     18  C   UNL     1     -32.849  29.027  20.519  1.00  0.00     0.005 C 
ATOM     19  C   UNL     1     -32.120  25.882  20.225  1.00  0.00     0.010 C 
ATOM     20  C   UNL     1     -31.507  25.954  22.643  1.00  0.00     0.012 C 
ATOM     21  C   UNL     1     -32.882  27.910  21.604  1.00  0.00     0.003 C 
ATOM     22  C   UNL     1     -33.497  25.211  20.403  1.00  0.00     0.033 C 
ATOM     23  C   UNL     1     -34.343  27.269  21.737  1.00  0.00    -0.006 C 
ATOM     24  C   UNL     1     -34.631  26.229  20.598  1.00  0.00     0.120 C 
ATOM     25  C   UNL     1     -35.446  28.371  21.696  1.00  0.00     0.014 C 
ATOM     26  C   UNL     1     -34.534  26.586  23.125  1.00  0.00     0.014 C 
ENDROOT
BRANCH   1  27
ATOM     27  C   UNL     1     -27.911  33.316  20.803  1.00  0.00     0.048 C 
ATOM     28  O   UNL     1     -28.049  33.551  22.033  1.00  0.00    -0.550 OA
ATOM     29  O   UNL     1     -28.397  34.240  19.885  1.00  0.00    -0.550 OA
ENDBRANCH   1  27
BRANCH   7  30
ATOM     30  C   UNL     1     -25.296  29.001  21.816  1.00  0.00    -0.077 C 
ATOM     31  C   UNL     1     -24.903  27.994  20.757  1.00  0.00     0.039 C 
ATOM     32  C   UNL     1     -25.163  28.614  23.098  1.00  0.00     0.008 C 
ENDBRANCH   7  30
BRANCH  24  33
ATOM     33  O   UNL     1     -34.866  26.867  19.366  1.00  0.00    -0.393 OA
ATOM     34  H   UNL     1     -35.826  27.115  19.333  1.00  0.00     0.210 HD
ENDBRANCH  24  33
TORSDOF 3
ENDMDL
MODEL 4
REMARK VINA RESULT:    -5.943     15.182     18.371
REMARK INTER + INTRA:          -7.085
REMARK INTER:                  -6.820
REMARK INTRA:                  -0.265
REMARK UNBOUND:                -0.274
REMARK SMILES C=C(C)[C@H]1CC[C@@]2(C(=O)[O-])CC[C@@]3(C)[C@@H](CC[C@H]4[C@]5(C)CC[C@H](O)C(C)(C)[C@@H]5CC[C@]43C)[C@@H]12
REMARK SMILES IDX 7 1 6 2 33 3 11 4 5 5 15 6 4 7 12 8 16 9 13 10 17 11 31 12
REMARK SMILES IDX 14 13 18 14 30 15 32 16 19 17 29 18 21 19 20 20 28 21 22 22
REMARK SMILES IDX 25 23 23 24 26 25 27 26 8 27 9 28 10 29 2 30 3 31 1 32 24 33
REMARK H PARENT 24 34
REMARK Flexibility Score: inf
ROOT
ATOM      1  C   UNL     1     -39.408  29.618  19.411  1.00  0.00     0.014 C 
ATOM      2  C   UNL     1     -40.930  29.375  19.314  1.00  0.00     0.014 C 
ATOM      3  C   UNL     1     -38.774  28.262  18.942  1.00  0.00     0.012 C 
ATOM      4  C   UNL     1     -39.070  29.980  20.884  1.00  0.00     0.014 C 
ATOM      5  C   UNL     1     -41.125  27.907  19.646  1.00  0.00     0.009 C 
ATOM      6  C   UNL     1     -37.327  27.996  19.532  1.00  0.00     0.000 C 
ATOM      7  C   UNL     1     -39.952  27.219  18.950  1.00  0.00     0.018 C 
ATOM      8  C   UNL     1     -37.585  29.823  21.212  1.00  0.00     0.008 C 
ATOM      9  C   UNL     1     -36.746  26.633  19.182  1.00  0.00     0.005 C 
ATOM     10  C   UNL     1     -37.063  28.358  21.032  1.00  0.00    -0.024 C 
ATOM     11  C   UNL     1     -35.245  26.624  19.405  1.00  0.00     0.005 C 
ATOM     12  C   UNL     1     -35.480  28.239  21.421  1.00  0.00    -0.024 C 
ATOM     13  C   UNL     1     -37.901  27.406  21.942  1.00  0.00     0.012 C 
ATOM     14  C   UNL     1     -34.833  26.872  20.900  1.00  0.00     0.002 C 
ATOM     15  C   UNL     1     -34.650  29.396  20.788  1.00  0.00     0.008 C 
ATOM     16  C   UNL     1     -35.375  28.355  22.983  1.00  0.00     0.012 C 
ATOM     17  C   UNL     1     -33.236  26.702  21.075  1.00  0.00    -0.026 C 
ATOM     18  C   UNL     1     -33.131  29.289  20.983  1.00  0.00     0.005 C 
ATOM     19  C   UNL     1     -32.813  26.476  22.563  1.00  0.00     0.010 C 
ATOM     20  C   UNL     1     -32.832  25.388  20.318  1.00  0.00     0.012 C 
ATOM     21  C   UNL     1     -32.474  27.964  20.497  1.00  0.00     0.003 C 
ATOM     22  C   UNL     1     -31.290  26.403  22.792  1.00  0.00     0.033 C 
ATOM     23  C   UNL     1     -30.895  27.966  20.759  1.00  0.00    -0.006 C 
ATOM     24  C   UNL     1     -30.549  27.637  22.253  1.00  0.00     0.120 C 
ATOM     25  C   UNL     1     -30.267  29.346  20.394  1.00  0.00     0.014 C 
ATOM     26  C   UNL     1     -30.168  26.953  19.823  1.00  0.00     0.014 C 
ENDROOT
BRANCH   1  27
ATOM     27  C   UNL     1     -39.009  30.783  18.517  1.00  0.00     0.048 C 
ATOM     28  O   UNL     1     -37.831  30.870  18.080  1.00  0.00    -0.550 OA
ATOM     29  O   UNL     1     -39.950  31.718  18.099  1.00  0.00    -0.550 OA
ENDBRANCH   1  27
BRANCH   7  30
ATOM     30  C   UNL     1     -39.716  25.746  19.300  1.00  0.00    -0.077 C 
ATOM     31  C   UNL     1     -40.015  25.135  20.652  1.00  0.00     0.039 C 
ATOM     32  C   UNL     1     -39.378  24.896  18.313  1.00  0.00     0.008 C 
ENDBRANCH   7  30
BRANCH  24  33
ATOM     33  O   UNL     1     -30.837  28.725  23.099  1.00  0.00    -0.393 OA
ATOM     34  H   UNL     1     -31.502  28.418  23.769  1.00  0.00     0.210 HD
ENDBRANCH  24  33
TORSDOF 3
ENDMDL
MODEL 5
REMARK VINA RESULT:    -5.795     15.261     18.625
REMARK INTER + INTRA:          -6.915
REMARK INTER:                  -6.780
REMARK INTRA:                  -0.135
REMARK UNBOUND:                -0.274
REMARK SMILES C=C(C)[C@H]1CC[C@@]2(C(=O)[O-])CC[C@@]3(C)[C@@H](CC[C@H]4[C@]5(C)CC[C@H](O)C(C)(C)[C@@H]5CC[C@]43C)[C@@H]12
REMARK SMILES IDX 7 1 6 2 33 3 11 4 5 5 15 6 4 7 12 8 16 9 13 10 17 11 31 12
REMARK SMILES IDX 14 13 18 14 30 15 32 16 19 17 29 18 21 19 20 20 28 21 22 22
REMARK SMILES IDX 25 23 23 24 26 25 27 26 8 27 9 28 10 29 2 30 3 31 1 32 24 33
REMARK H PARENT 24 34
REMARK Flexibility Score: inf
ROOT
ATOM      1  C   UNL     1     -35.779  28.887  21.796  1.00  0.00     0.014 C 
ATOM      2  C   UNL     1     -36.855  27.905  22.308  1.00  0.00     0.014 C 
ATOM      3  C   UNL     1     -34.842  27.998  20.906  1.00  0.00     0.012 C 
ATOM      4  C   UNL     1     -35.060  29.501  23.028  1.00  0.00     0.014 C 
ATOM      5  C   UNL     1     -36.142  26.574  22.466  1.00  0.00     0.009 C 
ATOM      6  C   UNL     1     -33.360  28.549  20.791  1.00  0.00     0.000 C 
ATOM      7  C   UNL     1     -35.222  26.510  21.249  1.00  0.00     0.018 C 
ATOM      8  C   UNL     1     -33.716  30.142  22.679  1.00  0.00     0.008 C 
ATOM      9  C   UNL     1     -32.408  27.638  20.030  1.00  0.00     0.005 C 
ATOM     10  C   UNL     1     -32.685  29.128  22.079  1.00  0.00    -0.024 C 
ATOM     11  C   UNL     1     -31.170  28.404  19.601  1.00  0.00     0.005 C 
ATOM     12  C   UNL     1     -31.260  29.856  21.749  1.00  0.00    -0.024 C 
ATOM     13  C   UNL     1     -32.459  27.970  23.101  1.00  0.00     0.012 C 
ATOM     14  C   UNL     1     -30.330  28.958  20.806  1.00  0.00     0.002 C 
ATOM     15  C   UNL     1     -31.471  31.211  21.009  1.00  0.00     0.008 C 
ATOM     16  C   UNL     1     -30.558  30.149  23.122  1.00  0.00     0.012 C 
ATOM     17  C   UNL     1     -28.961  29.631  20.270  1.00  0.00    -0.026 C 
ATOM     18  C   UNL     1     -30.184  31.900  20.534  1.00  0.00     0.005 C 
ATOM     19  C   UNL     1     -27.884  29.783  21.393  1.00  0.00     0.010 C 
ATOM     20  C   UNL     1     -28.344  28.636  19.226  1.00  0.00     0.012 C 
ATOM     21  C   UNL     1     -29.252  31.047  19.624  1.00  0.00     0.003 C 
ATOM     22  C   UNL     1     -26.596  30.506  20.951  1.00  0.00     0.033 C 
ATOM     23  C   UNL     1     -27.943  31.865  19.199  1.00  0.00    -0.006 C 
ATOM     24  C   UNL     1     -26.872  31.891  20.344  1.00  0.00     0.120 C 
ATOM     25  C   UNL     1     -28.299  33.335  18.818  1.00  0.00     0.014 C 
ATOM     26  C   UNL     1     -27.306  31.276  17.905  1.00  0.00     0.014 C 
ENDROOT
BRANCH   1  27
ATOM     27  C   UNL     1     -36.434  30.009  21.004  1.00  0.00     0.048 C 
ATOM     28  O   UNL     1     -36.567  29.908  19.755  1.00  0.00    -0.550 OA
ATOM     29  O   UNL     1     -36.973  31.119  21.646  1.00  0.00    -0.550 OA
ENDBRANCH   1  27
BRANCH   7  30
ATOM     30  C   UNL     1     -34.172  25.393  21.242  1.00  0.00    -0.077 C 
ATOM     31  C   UNL     1     -33.466  24.897  19.999  1.00  0.00     0.039 C 
ATOM     32  C   UNL     1     -33.719  24.929  22.421  1.00  0.00     0.008 C 
ENDBRANCH   7  30
BRANCH  24  33
ATOM     33  O   UNL     1     -27.252  32.758  21.386  1.00  0.00    -0.393 OA
ATOM     34  H   UNL     1     -28.208  32.987  21.254  1.00  0.00     0.210 HD
ENDBRANCH  24  33
TORSDOF 3
ENDMDL
MODEL 6
REMARK VINA RESULT:    -5.416     16.535     19.223
REMARK INTER + INTRA:          -6.481
REMARK INTER:                  -6.496
REMARK INTRA:                   0.016
REMARK UNBOUND:                -0.274
REMARK SMILES C=C(C)[C@H]1CC[C@@]2(C(=O)[O-])CC[C@@]3(C)[C@@H](CC[C@H]4[C@]5(C)CC[C@H](O)C(C)(C)[C@@H]5CC[C@]43C)[C@@H]12
REMARK SMILES IDX 7 1 6 2 33 3 11 4 5 5 15 6 4 7 12 8 16 9 13 10 17 11 31 12
REMARK SMILES IDX 14 13 18 14 30 15 32 16 19 17 29 18 21 19 20 20 28 21 22 22
REMARK SMILES IDX 25 23 23 24 26 25 27 26 8 27 9 28 10 29 2 30 3 31 1 32 24 33
REMARK H PARENT 24 34
REMARK Flexibility Score: inf
ROOT
ATOM      1  C   UNL     1     -30.217  27.993  20.384  1.00  0.00     0.014 C 
ATOM      2  C   UNL     1     -31.755  27.940  20.262  1.00  0.00     0.014 C 
ATOM      3  C   UNL     1     -29.956  29.099  21.465  1.00  0.00     0.012 C 
ATOM      4  C   UNL     1     -29.633  28.345  18.988  1.00  0.00     0.014 C 
ATOM      5  C   UNL     1     -32.226  29.364  20.502  1.00  0.00     0.009 C 
ATOM      6  C   UNL     1     -28.542  29.804  21.329  1.00  0.00     0.000 C 
ATOM      7  C   UNL     1     -31.324  29.858  21.631  1.00  0.00     0.018 C 
ATOM      8  C   UNL     1     -28.190  28.846  19.051  1.00  0.00     0.008 C 
ATOM      9  C   UNL     1     -28.320  30.959  22.294  1.00  0.00     0.005 C 
ATOM     10  C   UNL     1     -28.028  30.156  19.893  1.00  0.00    -0.024 C 
ATOM     11  C   UNL     1     -26.842  31.286  22.398  1.00  0.00     0.005 C 
ATOM     12  C   UNL     1     -26.474  30.663  19.908  1.00  0.00    -0.024 C 
ATOM     13  C   UNL     1     -28.938  31.267  19.283  1.00  0.00     0.012 C 
ATOM     14  C   UNL     1     -26.210  31.760  21.042  1.00  0.00     0.002 C 
ATOM     15  C   UNL     1     -25.493  29.485  20.187  1.00  0.00     0.008 C 
ATOM     16  C   UNL     1     -26.159  31.238  18.481  1.00  0.00     0.012 C 
ATOM     17  C   UNL     1     -24.679  32.225  21.272  1.00  0.00    -0.026 C 
ATOM     18  C   UNL     1     -24.022  29.890  20.358  1.00  0.00     0.005 C 
ATOM     19  C   UNL     1     -24.140  33.120  20.109  1.00  0.00     0.010 C 
ATOM     20  C   UNL     1     -24.667  33.138  22.548  1.00  0.00     0.012 C 
ATOM     21  C   UNL     1     -23.735  30.966  21.447  1.00  0.00     0.003 C 
ATOM     22  C   UNL     1     -22.654  33.510  20.237  1.00  0.00     0.033 C 
ATOM     23  C   UNL     1     -22.173  31.311  21.527  1.00  0.00    -0.006 C 
ATOM     24  C   UNL     1     -21.731  32.290  20.384  1.00  0.00     0.120 C 
ATOM     25  C   UNL     1     -21.307  30.018  21.438  1.00  0.00     0.014 C 
ATOM     26  C   UNL     1     -21.803  31.928  22.911  1.00  0.00     0.014 C 
ENDROOT
BRANCH   1  27
ATOM     27  C   UNL     1     -29.683  26.632  20.808  1.00  0.00     0.048 C 
ATOM     28  O   UNL     1     -29.134  25.877  19.963  1.00  0.00    -0.550 OA
ATOM     29  O   UNL     1     -29.710  26.237  22.141  1.00  0.00    -0.550 OA
ENDBRANCH   1  27
BRANCH   7  30
ATOM     30  C   UNL     1     -31.376  31.358  21.943  1.00  0.00    -0.077 C 
ATOM     31  C   UNL     1     -31.061  32.446  20.939  1.00  0.00     0.039 C 
ATOM     32  C   UNL     1     -31.887  31.752  23.123  1.00  0.00     0.008 C 
ENDBRANCH   7  30
BRANCH  24  33
ATOM     33  O   UNL     1     -21.670  31.635  19.140  1.00  0.00    -0.393 OA
ATOM     34  H   UNL     1     -21.446  32.314  18.452  1.00  0.00     0.210 HD
ENDBRANCH  24  33
TORSDOF 3
ENDMDL
MODEL 7
REMARK VINA RESULT:    -5.407      1.798      2.686
REMARK INTER + INTRA:          -6.471
REMARK INTER:                  -6.049
REMARK INTRA:                  -0.423
REMARK UNBOUND:                -0.274
REMARK SMILES C=C(C)[C@H]1CC[C@@]2(C(=O)[O-])CC[C@@]3(C)[C@@H](CC[C@H]4[C@]5(C)CC[C@H](O)C(C)(C)[C@@H]5CC[C@]43C)[C@@H]12
REMARK SMILES IDX 7 1 6 2 33 3 11 4 5 5 15 6 4 7 12 8 16 9 13 10 17 11 31 12
REMARK SMILES IDX 14 13 18 14 30 15 32 16 19 17 29 18 21 19 20 20 28 21 22 22
REMARK SMILES IDX 25 23 23 24 26 25 27 26 8 27 9 28 10 29 2 30 3 31 1 32 24 33
REMARK H PARENT 24 34
REMARK Flexibility Score: inf
ROOT
ATOM      1  C   UNL     1     -35.045  43.884   5.904  1.00  0.00     0.014 C 
ATOM      2  C   UNL     1     -34.367  45.125   5.284  1.00  0.00     0.014 C 
ATOM      3  C   UNL     1     -33.981  43.333   6.916  1.00  0.00     0.012 C 
ATOM      4  C   UNL     1     -35.377  42.891   4.757  1.00  0.00     0.014 C 
ATOM      5  C   UNL     1     -32.886  44.792   5.237  1.00  0.00     0.009 C 
ATOM      6  C   UNL     1     -34.115  41.779   7.200  1.00  0.00     0.000 C 
ATOM      7  C   UNL     1     -32.636  44.067   6.558  1.00  0.00     0.018 C 
ATOM      8  C   UNL     1     -35.647  41.471   5.254  1.00  0.00     0.008 C 
ATOM      9  C   UNL     1     -33.020  41.205   8.088  1.00  0.00     0.005 C 
ATOM     10  C   UNL     1     -34.423  40.832   5.993  1.00  0.00    -0.024 C 
ATOM     11  C   UNL     1     -33.443  39.861   8.649  1.00  0.00     0.005 C 
ATOM     12  C   UNL     1     -34.754  39.307   6.480  1.00  0.00    -0.024 C 
ATOM     13  C   UNL     1     -33.197  40.821   5.027  1.00  0.00     0.012 C 
ATOM     14  C   UNL     1     -33.687  38.771   7.545  1.00  0.00     0.002 C 
ATOM     15  C   UNL     1     -36.151  39.218   7.164  1.00  0.00     0.008 C 
ATOM     16  C   UNL     1     -34.775  38.403   5.197  1.00  0.00     0.012 C 
ATOM     17  C   UNL     1     -33.990  37.339   8.231  1.00  0.00    -0.026 C 
ATOM     18  C   UNL     1     -36.489  37.853   7.779  1.00  0.00     0.005 C 
ATOM     19  C   UNL     1     -33.787  36.143   7.243  1.00  0.00     0.010 C 
ATOM     20  C   UNL     1     -32.919  37.139   9.360  1.00  0.00     0.012 C 
ATOM     21  C   UNL     1     -35.462  37.299   8.810  1.00  0.00     0.003 C 
ATOM     22  C   UNL     1     -34.155  34.764   7.825  1.00  0.00     0.033 C 
ATOM     23  C   UNL     1     -35.916  35.871   9.376  1.00  0.00    -0.006 C 
ATOM     24  C   UNL     1     -35.592  34.714   8.368  1.00  0.00     0.120 C 
ATOM     25  C   UNL     1     -37.445  35.850   9.684  1.00  0.00     0.014 C 
ATOM     26  C   UNL     1     -35.243  35.569  10.748  1.00  0.00     0.014 C 
ENDROOT
BRANCH   1  27
ATOM     27  C   UNL     1     -36.341  44.289   6.590  1.00  0.00     0.048 C 
ATOM     28  O   UNL     1     -36.437  44.233   7.845  1.00  0.00    -0.550 OA
ATOM     29  O   UNL     1     -37.405  44.808   5.860  1.00  0.00    -0.550 OA
ENDBRANCH   1  27
BRANCH   7  30
ATOM     30  C   UNL     1     -31.279  43.372   6.712  1.00  0.00    -0.077 C 
ATOM     31  C   UNL     1     -30.497  42.769   5.565  1.00  0.00     0.039 C 
ATOM     32  C   UNL     1     -30.654  43.438   7.902  1.00  0.00     0.008 C 
ENDBRANCH   7  30
BRANCH  24  33
ATOM     33  O   UNL     1     -36.476  34.722   7.272  1.00  0.00    -0.393 OA
ATOM     34  H   UNL     1     -37.276  34.193   7.526  1.00  0.00     0.210 HD
ENDBRANCH  24  33
TORSDOF 3
ENDMDL
MODEL 8
REMARK VINA RESULT:    -5.132     16.733     18.905
REMARK INTER + INTRA:          -6.155
REMARK INTER:                  -5.887
REMARK INTRA:                  -0.268
REMARK UNBOUND:                -0.274
REMARK SMILES C=C(C)[C@H]1CC[C@@]2(C(=O)[O-])CC[C@@]3(C)[C@@H](CC[C@H]4[C@]5(C)CC[C@H](O)C(C)(C)[C@@H]5CC[C@]43C)[C@@H]12
REMARK SMILES IDX 7 1 6 2 33 3 11 4 5 5 15 6 4 7 12 8 16 9 13 10 17 11 31 12
REMARK SMILES IDX 14 13 18 14 30 15 32 16 19 17 29 18 21 19 20 20 28 21 22 22
REMARK SMILES IDX 25 23 23 24 26 25 27 26 8 27 9 28 10 29 2 30 3 31 1 32 24 33
REMARK H PARENT 24 34
REMARK Flexibility Score: inf
ROOT
ATOM      1  C   UNL     1     -22.318  31.739  20.293  1.00  0.00     0.014 C 
ATOM      2  C   UNL     1     -21.269  32.840  20.563  1.00  0.00     0.014 C 
ATOM      3  C   UNL     1     -23.633  32.533  19.975  1.00  0.00     0.012 C 
ATOM      4  C   UNL     1     -22.426  30.852  21.564  1.00  0.00     0.014 C 
ATOM      5  C   UNL     1     -22.040  33.979  21.207  1.00  0.00     0.009 C 
ATOM      6  C   UNL     1     -24.959  31.725  20.292  1.00  0.00     0.000 C 
ATOM      7  C   UNL     1     -23.354  34.013  20.430  1.00  0.00     0.018 C 
ATOM      8  C   UNL     1     -23.702  30.012  21.602  1.00  0.00     0.008 C 
ATOM      9  C   UNL     1     -26.242  32.521  20.100  1.00  0.00     0.005 C 
ATOM     10  C   UNL     1     -25.009  30.874  21.605  1.00  0.00    -0.024 C 
ATOM     11  C   UNL     1     -27.435  31.589  20.004  1.00  0.00     0.005 C 
ATOM     12  C   UNL     1     -26.342  29.930  21.671  1.00  0.00    -0.024 C 
ATOM     13  C   UNL     1     -24.981  31.832  22.836  1.00  0.00     0.012 C 
ATOM     14  C   UNL     1     -27.672  30.740  21.303  1.00  0.00     0.002 C 
ATOM     15  C   UNL     1     -26.250  28.741  20.668  1.00  0.00     0.008 C 
ATOM     16  C   UNL     1     -26.423  29.342  23.125  1.00  0.00     0.012 C 
ATOM     17  C   UNL     1     -29.038  29.887  21.172  1.00  0.00    -0.026 C 
ATOM     18  C   UNL     1     -27.516  27.881  20.560  1.00  0.00     0.005 C 
ATOM     19  C   UNL     1     -29.576  29.393  22.555  1.00  0.00     0.010 C 
ATOM     20  C   UNL     1     -30.134  30.864  20.618  1.00  0.00     0.012 C 
ATOM     21  C   UNL     1     -28.829  28.643  20.215  1.00  0.00     0.003 C 
ATOM     22  C   UNL     1     -30.827  28.495  22.472  1.00  0.00     0.033 C 
ATOM     23  C   UNL     1     -30.079  27.646  20.137  1.00  0.00    -0.006 C 
ATOM     24  C   UNL     1     -30.620  27.274  21.562  1.00  0.00     0.120 C 
ATOM     25  C   UNL     1     -29.702  26.330  19.389  1.00  0.00     0.014 C 
ATOM     26  C   UNL     1     -31.234  28.255  19.285  1.00  0.00     0.014 C 
ENDROOT
BRANCH   1  27
ATOM     27  C   UNL     1     -21.870  30.870  19.127  1.00  0.00     0.048 C 
ATOM     28  O   UNL     1     -22.042  31.263  17.943  1.00  0.00    -0.550 OA
ATOM     29  O   UNL     1     -21.190  29.676  19.345  1.00  0.00    -0.550 OA
ENDBRANCH   1  27
BRANCH   7  30
ATOM     30  C   UNL     1     -24.466  34.898  21.002  1.00  0.00    -0.077 C 
ATOM     31  C   UNL     1     -24.514  35.383  22.435  1.00  0.00     0.039 C 
ATOM     32  C   UNL     1     -25.373  35.420  20.156  1.00  0.00     0.008 C 
ENDBRANCH   7  30
BRANCH  24  33
ATOM     33  O   UNL     1     -29.760  26.376  22.222  1.00  0.00    -0.393 OA
ATOM     34  H   UNL     1     -30.324  25.738  22.732  1.00  0.00     0.210 HD
ENDBRANCH  24  33
TORSDOF 3
ENDMDL
