MODEL 1
REMARK VINA RESULT:    -5.139      0.000      0.000
REMARK INTER + INTRA:          -5.139
REMARK INTER:                  -5.139
REMARK INTRA:                   0.000
REMARK UNBOUND:                 0.000
REMARK SMILES CC1=CC(=O)[C@H]2C[C@@H]1C2(C)C
REMARK SMILES IDX 1 1 2 2 3 3 4 4 5 5 6 6 7 7 8 8 9 9 10 10 11 11
REMARK H PARENT
REMARK Flexibility Score: inf
ROOT
ATOM      1  C   UNL     1      56.826  19.378  -5.234  1.00  0.00     0.040 C 
ATOM      2  C   UNL     1      55.529  18.837  -4.723  1.00  0.00    -0.066 C 
ATOM      3  C   UNL     1      54.336  19.447  -4.975  1.00  0.00     0.047 C 
ATOM      4  C   UNL     1      53.120  18.789  -4.396  1.00  0.00     0.159 C 
ATOM      5  O   UNL     1      51.968  19.277  -4.523  1.00  0.00    -0.295 OA
ATOM      6  C   UNL     1      53.378  17.484  -3.641  1.00  0.00     0.067 C 
ATOM      7  C   UNL     1      54.338  16.699  -4.564  1.00  0.00     0.021 C 
ATOM      8  C   UNL     1      55.482  17.518  -3.926  1.00  0.00     0.022 C 
ATOM      9  C   UNL     1      54.576  17.701  -2.673  1.00  0.00    -0.019 C 
ATOM     10  C   UNL     1      54.731  16.541  -1.658  1.00  0.00     0.012 C 
ATOM     11  C   UNL     1      54.662  19.045  -1.895  1.00  0.00     0.012 C 
ENDROOT
TORSDOF 0
ENDMDL
MODEL 2
REMARK VINA RESULT:    -4.989      1.709      2.730
REMARK INTER + INTRA:          -4.989
REMARK INTER:                  -4.989
REMARK INTRA:                   0.000
REMARK UNBOUND:                 0.000
REMARK SMILES CC1=CC(=O)[C@H]2C[C@@H]1C2(C)C
REMARK SMILES IDX 1 1 2 2 3 3 4 4 5 5 6 6 7 7 8 8 9 9 10 10 11 11
REMARK H PARENT
REMARK Flexibility Score: inf
ROOT
ATOM      1  C   UNL     1      52.363  19.950  -6.002  1.00  0.00     0.040 C 
ATOM      2  C   UNL     1      53.263  18.958  -5.336  1.00  0.00    -0.066 C 
ATOM      3  C   UNL     1      53.191  17.622  -5.595  1.00  0.00     0.047 C 
ATOM      4  C   UNL     1      54.156  16.750  -4.850  1.00  0.00     0.159 C 
ATOM      5  O   UNL     1      54.161  15.498  -4.971  1.00  0.00    -0.295 OA
ATOM      6  C   UNL     1      55.133  17.489  -3.934  1.00  0.00     0.067 C 
ATOM      7  C   UNL     1      55.637  18.669  -4.795  1.00  0.00     0.021 C 
ATOM      8  C   UNL     1      54.360  19.420  -4.356  1.00  0.00     0.022 C 
ATOM      9  C   UNL     1      54.335  18.520  -3.087  1.00  0.00    -0.019 C 
ATOM     10  C   UNL     1      55.178  19.109  -1.928  1.00  0.00     0.012 C 
ATOM     11  C   UNL     1      52.952  18.093  -2.517  1.00  0.00     0.012 C 
ENDROOT
TORSDOF 0
ENDMDL
MODEL 3
REMARK VINA RESULT:    -4.940      1.487      2.449
REMARK INTER + INTRA:          -4.940
REMARK INTER:                  -4.940
REMARK INTRA:                   0.000
REMARK UNBOUND:                 0.000
REMARK SMILES CC1=CC(=O)[C@H]2C[C@@H]1C2(C)C
REMARK SMILES IDX 1 1 2 2 3 3 4 4 5 5 6 6 7 7 8 8 9 9 10 10 11 11
REMARK H PARENT
REMARK Flexibility Score: inf
ROOT
ATOM      1  C   UNL     1      56.954  19.431  -5.004  1.00  0.00     0.040 C 
ATOM      2  C   UNL     1      55.651  18.937  -4.459  1.00  0.00    -0.066 C 
ATOM      3  C   UNL     1      55.300  19.106  -3.153  1.00  0.00     0.047 C 
ATOM      4  C   UNL     1      53.964  18.557  -2.751  1.00  0.00     0.159 C 
ATOM      5  O   UNL     1      53.544  18.612  -1.566  1.00  0.00    -0.295 OA
ATOM      6  C   UNL     1      53.148  17.927  -3.880  1.00  0.00     0.067 C 
ATOM      7  C   UNL     1      53.269  18.938  -5.042  1.00  0.00     0.021 C 
ATOM      8  C   UNL     1      54.616  18.258  -5.378  1.00  0.00     0.022 C 
ATOM      9  C   UNL     1      54.075  16.973  -4.687  1.00  0.00    -0.019 C 
ATOM     10  C   UNL     1      53.282  16.068  -5.663  1.00  0.00     0.012 C 
ATOM     11  C   UNL     1      55.079  16.082  -3.902  1.00  0.00     0.012 C 
ENDROOT
TORSDOF 0
ENDMDL
MODEL 4
REMARK VINA RESULT:    -4.758      1.650      3.090
REMARK INTER + INTRA:          -4.758
REMARK INTER:                  -4.758
REMARK INTRA:                   0.000
REMARK UNBOUND:                 0.000
REMARK SMILES CC1=CC(=O)[C@H]2C[C@@H]1C2(C)C
REMARK SMILES IDX 1 1 2 2 3 3 4 4 5 5 6 6 7 7 8 8 9 9 10 10 11 11
REMARK H PARENT
REMARK Flexibility Score: inf
ROOT
ATOM      1  C   UNL     1      51.775  20.236  -3.673  1.00  0.00     0.040 C 
ATOM      2  C   UNL     1      52.812  19.164  -3.774  1.00  0.00    -0.066 C 
ATOM      3  C   UNL     1      52.706  17.983  -3.101  1.00  0.00     0.047 C 
ATOM      4  C   UNL     1      53.824  17.005  -3.299  1.00  0.00     0.159 C 
ATOM      5  O   UNL     1      53.862  15.899  -2.701  1.00  0.00    -0.295 OA
ATOM      6  C   UNL     1      54.913  17.445  -4.278  1.00  0.00     0.067 C 
ATOM      7  C   UNL     1      54.130  18.004  -5.487  1.00  0.00     0.021 C 
ATOM      8  C   UNL     1      54.034  19.330  -4.700  1.00  0.00     0.022 C 
ATOM      9  C   UNL     1      55.323  18.906  -3.939  1.00  0.00    -0.019 C 
ATOM     10  C   UNL     1      56.614  19.342  -4.676  1.00  0.00     0.012 C 
ATOM     11  C   UNL     1      55.457  19.306  -2.442  1.00  0.00     0.012 C 
ENDROOT
TORSDOF 0
ENDMDL
MODEL 5
REMARK VINA RESULT:    -4.752      1.689      3.440
REMARK INTER + INTRA:          -4.752
REMARK INTER:                  -4.752
REMARK INTRA:                   0.000
REMARK UNBOUND:                 0.000
REMARK SMILES CC1=CC(=O)[C@H]2C[C@@H]1C2(C)C
REMARK SMILES IDX 1 1 2 2 3 3 4 4 5 5 6 6 7 7 8 8 9 9 10 10 11 11
REMARK H PARENT
REMARK Flexibility Score: inf
ROOT
ATOM      1  C   UNL     1      54.080  15.329  -4.632  1.00  0.00     0.040 C 
ATOM      2  C   UNL     1      54.406  16.721  -4.192  1.00  0.00    -0.066 C 
ATOM      3  C   UNL     1      54.759  17.014  -2.909  1.00  0.00     0.047 C 
ATOM      4  C   UNL     1      55.056  18.454  -2.616  1.00  0.00     0.159 C 
ATOM      5  O   UNL     1      55.353  18.857  -1.462  1.00  0.00    -0.295 OA
ATOM      6  C   UNL     1      54.974  19.397  -3.817  1.00  0.00     0.067 C 
ATOM      7  C   UNL     1      55.730  18.647  -4.937  1.00  0.00     0.021 C 
ATOM      8  C   UNL     1      54.409  17.888  -5.200  1.00  0.00     0.022 C 
ATOM      9  C   UNL     1      53.655  19.104  -4.587  1.00  0.00    -0.019 C 
ATOM     10  C   UNL     1      53.335  20.193  -5.642  1.00  0.00     0.012 C 
ATOM     11  C   UNL     1      52.365  18.829  -3.763  1.00  0.00     0.012 C 
ENDROOT
TORSDOF 0
ENDMDL
MODEL 6
REMARK VINA RESULT:    -4.666      1.197      2.538
REMARK INTER + INTRA:          -4.666
REMARK INTER:                  -4.666
REMARK INTRA:                   0.000
REMARK UNBOUND:                 0.000
REMARK SMILES CC1=CC(=O)[C@H]2C[C@@H]1C2(C)C
REMARK SMILES IDX 1 1 2 2 3 3 4 4 5 5 6 6 7 7 8 8 9 9 10 10 11 11
REMARK H PARENT
REMARK Flexibility Score: inf
ROOT
ATOM      1  C   UNL     1      54.016  15.352  -4.900  1.00  0.00     0.040 C 
ATOM      2  C   UNL     1      53.734  16.796  -4.630  1.00  0.00    -0.066 C 
ATOM      3  C   UNL     1      53.259  17.637  -5.592  1.00  0.00     0.047 C 
ATOM      4  C   UNL     1      53.026  19.057  -5.174  1.00  0.00     0.159 C 
ATOM      5  O   UNL     1      52.629  19.938  -5.980  1.00  0.00    -0.295 OA
ATOM      6  C   UNL     1      53.303  19.360  -3.701  1.00  0.00     0.067 C 
ATOM      7  C   UNL     1      52.630  18.193  -2.943  1.00  0.00     0.021 C 
ATOM      8  C   UNL     1      53.920  17.387  -3.218  1.00  0.00     0.022 C 
ATOM      9  C   UNL     1      54.678  18.742  -3.318  1.00  0.00    -0.019 C 
ATOM     10  C   UNL     1      55.185  19.239  -1.941  1.00  0.00     0.012 C 
ATOM     11  C   UNL     1      55.847  18.856  -4.339  1.00  0.00     0.012 C 
ENDROOT
TORSDOF 0
ENDMDL
MODEL 7
REMARK VINA RESULT:    -4.628      1.743      2.920
REMARK INTER + INTRA:          -4.628
REMARK INTER:                  -4.628
REMARK INTRA:                   0.000
REMARK UNBOUND:                 0.000
REMARK SMILES CC1=CC(=O)[C@H]2C[C@@H]1C2(C)C
REMARK SMILES IDX 1 1 2 2 3 3 4 4 5 5 6 6 7 7 8 8 9 9 10 10 11 11
REMARK H PARENT
REMARK Flexibility Score: inf
ROOT
ATOM      1  C   UNL     1      52.036  17.549  -5.530  1.00  0.00     0.040 C 
ATOM      2  C   UNL     1      53.234  17.980  -4.746  1.00  0.00    -0.066 C 
ATOM      3  C   UNL     1      54.353  18.481  -5.344  1.00  0.00     0.047 C 
ATOM      4  C   UNL     1      55.474  18.871  -4.428  1.00  0.00     0.159 C 
ATOM      5  O   UNL     1      56.573  19.306  -4.860  1.00  0.00    -0.295 OA
ATOM      6  C   UNL     1      55.190  18.702  -2.935  1.00  0.00     0.067 C 
ATOM      7  C   UNL     1      53.777  19.300  -2.751  1.00  0.00     0.021 C 
ATOM      8  C   UNL     1      53.232  17.927  -3.205  1.00  0.00     0.022 C 
ATOM      9  C   UNL     1      54.564  17.296  -2.706  1.00  0.00    -0.019 C 
ATOM     10  C   UNL     1      54.511  16.913  -1.206  1.00  0.00     0.012 C 
ATOM     11  C   UNL     1      55.149  16.091  -3.497  1.00  0.00     0.012 C 
ENDROOT
TORSDOF 0
ENDMDL
MODEL 8
REMARK VINA RESULT:    -4.542      1.472      3.253
REMARK INTER + INTRA:          -4.542
REMARK INTER:                  -4.542
REMARK INTRA:                   0.000
REMARK UNBOUND:                 0.000
REMARK SMILES CC1=CC(=O)[C@H]2C[C@@H]1C2(C)C
REMARK SMILES IDX 1 1 2 2 3 3 4 4 5 5 6 6 7 7 8 8 9 9 10 10 11 11
REMARK H PARENT
REMARK Flexibility Score: inf
ROOT
ATOM      1  C   UNL     1      55.472  14.873  -3.127  1.00  0.00     0.040 C 
ATOM      2  C   UNL     1      54.692  16.148  -3.184  1.00  0.00    -0.066 C 
ATOM      3  C   UNL     1      53.382  16.215  -2.813  1.00  0.00     0.047 C 
ATOM      4  C   UNL     1      52.731  17.561  -2.926  1.00  0.00     0.159 C 
ATOM      5  O   UNL     1      51.516  17.744  -2.654  1.00  0.00    -0.295 OA
ATOM      6  C   UNL     1      53.645  18.694  -3.393  1.00  0.00     0.067 C 
ATOM      7  C   UNL     1      54.933  18.507  -2.560  1.00  0.00     0.021 C 
ATOM      8  C   UNL     1      55.362  17.466  -3.619  1.00  0.00     0.022 C 
ATOM      9  C   UNL     1      54.444  18.205  -4.635  1.00  0.00    -0.019 C 
ATOM     10  C   UNL     1      55.176  19.363  -5.359  1.00  0.00     0.012 C 
ATOM     11  C   UNL     1      53.699  17.355  -5.704  1.00  0.00     0.012 C 
ENDROOT
TORSDOF 0
ENDMDL
MODEL 9
REMARK VINA RESULT:    -4.501      1.317      2.975
REMARK INTER + INTRA:          -4.501
REMARK INTER:                  -4.501
REMARK INTRA:                   0.000
REMARK UNBOUND:                 0.000
REMARK SMILES CC1=CC(=O)[C@H]2C[C@@H]1C2(C)C
REMARK SMILES IDX 1 1 2 2 3 3 4 4 5 5 6 6 7 7 8 8 9 9 10 10 11 11
REMARK H PARENT
REMARK Flexibility Score: inf
ROOT
ATOM      1  C   UNL     1      52.755  16.219  -6.257  1.00  0.00     0.040 C 
ATOM      2  C   UNL     1      53.229  17.085  -5.134  1.00  0.00    -0.066 C 
ATOM      3  C   UNL     1      52.376  17.600  -4.203  1.00  0.00     0.047 C 
ATOM      4  C   UNL     1      52.997  18.452  -3.137  1.00  0.00     0.159 C 
ATOM      5  O   UNL     1      52.311  19.018  -2.247  1.00  0.00    -0.295 OA
ATOM      6  C   UNL     1      54.518  18.585  -3.207  1.00  0.00     0.067 C 
ATOM      7  C   UNL     1      55.011  17.141  -3.451  1.00  0.00     0.021 C 
ATOM      8  C   UNL     1      54.729  17.389  -4.949  1.00  0.00     0.022 C 
ATOM      9  C   UNL     1      54.920  18.909  -4.675  1.00  0.00    -0.019 C 
ATOM     10  C   UNL     1      56.400  19.350  -4.797  1.00  0.00     0.012 C 
ATOM     11  C   UNL     1      54.043  19.916  -5.474  1.00  0.00     0.012 C 
ENDROOT
TORSDOF 0
ENDMDL
