MODEL 1
REMARK VINA RESULT:    -6.174      0.000      0.000
REMARK INTER + INTRA:          -7.116
REMARK INTER:                  -6.896
REMARK INTRA:                  -0.221
REMARK UNBOUND:                -0.221
REMARK SMILES CC(C)c1ccc(C(=O)[O-])cc1
REMARK SMILES IDX 7 1 6 2 11 3 5 4 12 5 4 6 8 7 9 8 10 9 2 10 1 11 3 12
REMARK H PARENT
REMARK Flexibility Score: inf
ROOT
ATOM      1  C   UNL     1       5.614   9.271  34.206  1.00  0.00    -0.003 A 
ATOM      2  C   UNL     1       5.786   8.315  33.191  1.00  0.00     0.010 A 
ATOM      3  C   UNL     1       6.477  10.378  34.251  1.00  0.00     0.010 A 
ATOM      4  C   UNL     1       6.800   8.464  32.240  1.00  0.00     0.004 A 
ATOM      5  C   UNL     1       7.492  10.527  33.301  1.00  0.00     0.004 A 
ATOM      6  C   UNL     1       7.665   9.571  32.284  1.00  0.00    -0.045 A 
ENDROOT
BRANCH   1   7
ATOM      7  C   UNL     1       4.539   9.109  35.209  1.00  0.00     0.071 C 
ATOM      8  O   UNL     1       4.149  10.092  35.895  1.00  0.00    -0.545 OA
ATOM      9  O   UNL     1       3.941   7.870  35.409  1.00  0.00    -0.545 OA
ENDBRANCH   1   7
BRANCH   6  10
ATOM     10  C   UNL     1       8.762   9.719  31.247  1.00  0.00     0.013 C 
ATOM     11  C   UNL     1       8.495   8.824  30.030  1.00  0.00     0.012 C 
ATOM     12  C   UNL     1       8.933  11.184  30.829  1.00  0.00     0.012 C 
ENDBRANCH   6  10
TORSDOF 2
ENDMDL
MODEL 2
REMARK VINA RESULT:    -6.062      0.627      1.530
REMARK INTER + INTRA:          -6.991
REMARK INTER:                  -6.776
REMARK INTRA:                  -0.214
REMARK UNBOUND:                -0.221
REMARK SMILES CC(C)c1ccc(C(=O)[O-])cc1
REMARK SMILES IDX 7 1 6 2 11 3 5 4 12 5 4 6 8 7 9 8 10 9 2 10 1 11 3 12
REMARK H PARENT
REMARK Flexibility Score: inf
ROOT
ATOM      1  C   UNL     1       5.665   9.458  34.292  1.00  0.00    -0.003 A 
ATOM      2  C   UNL     1       6.594  10.511  34.294  1.00  0.00     0.010 A 
ATOM      3  C   UNL     1       5.735   8.490  33.276  1.00  0.00     0.010 A 
ATOM      4  C   UNL     1       7.574  10.595  33.300  1.00  0.00     0.004 A 
ATOM      5  C   UNL     1       6.714   8.574  32.281  1.00  0.00     0.004 A 
ATOM      6  C   UNL     1       7.645   9.629  32.282  1.00  0.00    -0.045 A 
ENDROOT
BRANCH   1   7
ATOM      7  C   UNL     1       4.630   9.373  35.346  1.00  0.00     0.071 C 
ATOM      8  O   UNL     1       4.957   9.328  36.562  1.00  0.00    -0.545 OA
ATOM      9  O   UNL     1       3.282   9.341  35.010  1.00  0.00    -0.545 OA
ENDBRANCH   1   7
BRANCH   6  10
ATOM     10  C   UNL     1       8.713   9.733  31.210  1.00  0.00     0.013 C 
ATOM     11  C   UNL     1       8.362   8.864  29.995  1.00  0.00     0.012 C 
ATOM     12  C   UNL     1       8.942  11.191  30.798  1.00  0.00     0.012 C 
ENDBRANCH   6  10
TORSDOF 2
ENDMDL
MODEL 3
REMARK VINA RESULT:    -5.666      3.016      5.023
REMARK INTER + INTRA:          -6.549
REMARK INTER:                  -6.333
REMARK INTRA:                  -0.216
REMARK UNBOUND:                -0.221
REMARK SMILES CC(C)c1ccc(C(=O)[O-])cc1
REMARK SMILES IDX 7 1 6 2 11 3 5 4 12 5 4 6 8 7 9 8 10 9 2 10 1 11 3 12
REMARK H PARENT
REMARK Flexibility Score: inf
ROOT
ATOM      1  C   UNL     1       7.636   9.747  32.185  1.00  0.00    -0.003 A 
ATOM      2  C   UNL     1       6.877   8.584  31.971  1.00  0.00     0.010 A 
ATOM      3  C   UNL     1       7.327  10.569  33.281  1.00  0.00     0.010 A 
ATOM      4  C   UNL     1       5.832   8.250  32.838  1.00  0.00     0.004 A 
ATOM      5  C   UNL     1       6.282  10.236  34.147  1.00  0.00     0.004 A 
ATOM      6  C   UNL     1       5.522   9.071  33.934  1.00  0.00    -0.045 A 
ENDROOT
BRANCH   1   7
ATOM      7  C   UNL     1       8.741  10.096  31.266  1.00  0.00     0.071 C 
ATOM      8  O   UNL     1       9.443   9.194  30.735  1.00  0.00    -0.545 OA
ATOM      9  O   UNL     1       9.023  11.426  30.973  1.00  0.00    -0.545 OA
ENDBRANCH   1   7
BRANCH   6  10
ATOM     10  C   UNL     1       4.384   8.697  34.866  1.00  0.00     0.013 C 
ATOM     11  C   UNL     1       4.514   7.244  35.340  1.00  0.00     0.012 C 
ATOM     12  C   UNL     1       4.303   9.660  36.055  1.00  0.00     0.012 C 
ENDBRANCH   6  10
TORSDOF 2
ENDMDL
MODEL 4
REMARK VINA RESULT:    -5.658      3.026      5.212
REMARK INTER + INTRA:          -6.540
REMARK INTER:                  -6.325
REMARK INTRA:                  -0.216
REMARK UNBOUND:                -0.221
REMARK SMILES CC(C)c1ccc(C(=O)[O-])cc1
REMARK SMILES IDX 7 1 6 2 11 3 5 4 12 5 4 6 8 7 9 8 10 9 2 10 1 11 3 12
REMARK H PARENT
REMARK Flexibility Score: inf
ROOT
ATOM      1  C   UNL     1       7.655   9.745  32.166  1.00  0.00    -0.003 A 
ATOM      2  C   UNL     1       7.364  10.553  33.278  1.00  0.00     0.010 A 
ATOM      3  C   UNL     1       6.877   8.598  31.937  1.00  0.00     0.010 A 
ATOM      4  C   UNL     1       6.315  10.222  34.141  1.00  0.00     0.004 A 
ATOM      5  C   UNL     1       5.829   8.266  32.800  1.00  0.00     0.004 A 
ATOM      6  C   UNL     1       5.536   9.075  33.913  1.00  0.00    -0.045 A 
ENDROOT
BRANCH   1   7
ATOM      7  C   UNL     1       8.765  10.100  31.255  1.00  0.00     0.071 C 
ATOM      8  O   UNL     1       9.473   9.201  30.728  1.00  0.00    -0.545 OA
ATOM      9  O   UNL     1       9.043  11.431  30.967  1.00  0.00    -0.545 OA
ENDBRANCH   1   7
BRANCH   6  10
ATOM     10  C   UNL     1       4.402   8.728  34.859  1.00  0.00     0.013 C 
ATOM     11  C   UNL     1       4.527   7.285  35.364  1.00  0.00     0.012 C 
ATOM     12  C   UNL     1       4.333   9.717  36.027  1.00  0.00     0.012 C 
ENDBRANCH   6  10
TORSDOF 2
ENDMDL
MODEL 5
REMARK VINA RESULT:    -4.799      2.896      5.197
REMARK INTER + INTRA:          -5.581
REMARK INTER:                  -5.366
REMARK INTRA:                  -0.215
REMARK UNBOUND:                -0.221
REMARK SMILES CC(C)c1ccc(C(=O)[O-])cc1
REMARK SMILES IDX 7 1 6 2 11 3 5 4 12 5 4 6 8 7 9 8 10 9 2 10 1 11 3 12
REMARK H PARENT
REMARK Flexibility Score: inf
ROOT
ATOM      1  C   UNL     1       7.446   9.877  33.074  1.00  0.00    -0.003 A 
ATOM      2  C   UNL     1       7.375  10.285  34.416  1.00  0.00     0.010 A 
ATOM      3  C   UNL     1       6.772   8.709  32.681  1.00  0.00     0.010 A 
ATOM      4  C   UNL     1       6.644   9.540  35.346  1.00  0.00     0.004 A 
ATOM      5  C   UNL     1       6.042   7.963  33.611  1.00  0.00     0.004 A 
ATOM      6  C   UNL     1       5.970   8.371  34.956  1.00  0.00    -0.045 A 
ENDROOT
BRANCH   1   7
ATOM      7  C   UNL     1       8.220  10.669  32.093  1.00  0.00     0.071 C 
ATOM      8  O   UNL     1       8.185  11.929  32.116  1.00  0.00    -0.545 OA
ATOM      9  O   UNL     1       8.998  10.036  31.130  1.00  0.00    -0.545 OA
ENDBRANCH   1   7
BRANCH   6  10
ATOM     10  C   UNL     1       5.182   7.572  35.976  1.00  0.00     0.013 C 
ATOM     11  C   UNL     1       4.207   8.471  36.748  1.00  0.00     0.012 C 
ATOM     12  C   UNL     1       4.447   6.401  35.314  1.00  0.00     0.012 C 
ENDBRANCH   6  10
TORSDOF 2
ENDMDL
MODEL 6
REMARK VINA RESULT:    -4.502      1.407      2.485
REMARK INTER + INTRA:          -5.249
REMARK INTER:                  -5.040
REMARK INTRA:                  -0.209
REMARK UNBOUND:                -0.221
REMARK SMILES CC(C)c1ccc(C(=O)[O-])cc1
REMARK SMILES IDX 7 1 6 2 11 3 5 4 12 5 4 6 8 7 9 8 10 9 2 10 1 11 3 12
REMARK H PARENT
REMARK Flexibility Score: inf
ROOT
ATOM      1  C   UNL     1       5.530   8.198  35.339  1.00  0.00    -0.003 A 
ATOM      2  C   UNL     1       6.139   9.450  35.529  1.00  0.00     0.010 A 
ATOM      3  C   UNL     1       5.560   7.613  34.062  1.00  0.00     0.010 A 
ATOM      4  C   UNL     1       6.766  10.102  34.464  1.00  0.00     0.004 A 
ATOM      5  C   UNL     1       6.186   8.266  32.997  1.00  0.00     0.004 A 
ATOM      6  C   UNL     1       6.796   9.519  33.186  1.00  0.00    -0.045 A 
ENDROOT
BRANCH   1   7
ATOM      7  C   UNL     1       4.868   7.511  36.470  1.00  0.00     0.071 C 
ATOM      8  O   UNL     1       3.611   7.464  36.544  1.00  0.00    -0.545 OA
ATOM      9  O   UNL     1       5.624   6.906  37.468  1.00  0.00    -0.545 OA
ENDBRANCH   1   7
BRANCH   6  10
ATOM     10  C   UNL     1       7.479  10.240  32.038  1.00  0.00     0.013 C 
ATOM     11  C   UNL     1       8.000  11.613  32.481  1.00  0.00     0.012 C 
ATOM     12  C   UNL     1       8.606   9.388  31.443  1.00  0.00     0.012 C 
ENDBRANCH   6  10
TORSDOF 2
ENDMDL
MODEL 7
REMARK VINA RESULT:    -4.238      2.712      5.217
REMARK INTER + INTRA:          -4.954
REMARK INTER:                  -4.736
REMARK INTRA:                  -0.218
REMARK UNBOUND:                -0.221
REMARK SMILES CC(C)c1ccc(C(=O)[O-])cc1
REMARK SMILES IDX 7 1 6 2 11 3 5 4 12 5 4 6 8 7 9 8 10 9 2 10 1 11 3 12
REMARK H PARENT
REMARK Flexibility Score: inf
ROOT
ATOM      1  C   UNL     1       6.331   8.882  33.043  1.00  0.00    -0.003 A 
ATOM      2  C   UNL     1       5.631   7.736  33.458  1.00  0.00     0.010 A 
ATOM      3  C   UNL     1       6.239  10.052  33.814  1.00  0.00     0.010 A 
ATOM      4  C   UNL     1       4.856   7.761  34.621  1.00  0.00     0.004 A 
ATOM      5  C   UNL     1       5.464  10.077  34.977  1.00  0.00     0.004 A 
ATOM      6  C   UNL     1       4.763   8.931  35.394  1.00  0.00    -0.045 A 
ENDROOT
BRANCH   1   7
ATOM      7  C   UNL     1       7.150   8.851  31.811  1.00  0.00     0.071 C 
ATOM      8  O   UNL     1       6.774   8.187  30.808  1.00  0.00    -0.545 OA
ATOM      9  O   UNL     1       8.347   9.554  31.742  1.00  0.00    -0.545 OA
ENDBRANCH   1   7
BRANCH   6  10
ATOM     10  C   UNL     1       3.918   8.943  36.654  1.00  0.00     0.013 C 
ATOM     11  C   UNL     1       3.768   7.530  37.232  1.00  0.00     0.012 C 
ATOM     12  C   UNL     1       4.494   9.908  37.697  1.00  0.00     0.012 C 
ENDBRANCH   6  10
TORSDOF 2
ENDMDL
MODEL 8
REMARK VINA RESULT:    -4.217     15.646     16.174
REMARK INTER + INTRA:          -4.930
REMARK INTER:                  -4.714
REMARK INTRA:                  -0.216
REMARK UNBOUND:                -0.221
REMARK SMILES CC(C)c1ccc(C(=O)[O-])cc1
REMARK SMILES IDX 7 1 6 2 11 3 5 4 12 5 4 6 8 7 9 8 10 9 2 10 1 11 3 12
REMARK H PARENT
REMARK Flexibility Score: inf
ROOT
ATOM      1  C   UNL     1      19.735  18.717  32.923  1.00  0.00    -0.003 A 
ATOM      2  C   UNL     1      18.764  19.064  31.968  1.00  0.00     0.010 A 
ATOM      3  C   UNL     1      20.867  17.995  32.511  1.00  0.00     0.010 A 
ATOM      4  C   UNL     1      18.923  18.697  30.629  1.00  0.00     0.004 A 
ATOM      5  C   UNL     1      21.026  17.627  31.172  1.00  0.00     0.004 A 
ATOM      6  C   UNL     1      20.055  17.974  30.215  1.00  0.00    -0.045 A 
ENDROOT
BRANCH   1   7
ATOM      7  C   UNL     1      19.562  19.109  34.339  1.00  0.00     0.071 C 
ATOM      8  O   UNL     1      20.430  18.801  35.199  1.00  0.00    -0.545 OA
ATOM      9  O   UNL     1      18.439  19.822  34.742  1.00  0.00    -0.545 OA
ENDBRANCH   1   7
BRANCH   6  10
ATOM     10  C   UNL     1      20.214  17.582  28.758  1.00  0.00     0.013 C 
ATOM     11  C   UNL     1      20.119  16.061  28.583  1.00  0.00     0.012 C 
ATOM     12  C   UNL     1      19.189  18.304  27.876  1.00  0.00     0.012 C 
ENDBRANCH   6  10
TORSDOF 2
ENDMDL
