MODEL 1
REMARK VINA RESULT:    -1.954      0.000      0.000
REMARK INTER + INTRA:          -3.144
REMARK INTER:                  -2.868
REMARK INTRA:                  -0.277
REMARK UNBOUND:                -0.277
REMARK SMILES O=C([O-])CCCCCCCC(=O)[O-]
REMARK SMILES IDX 7 1 6 2 5 3 4 4 2 5 1 6 3 7 8 8 9 9 10 10 11 11 12 12 13 13
REMARK H PARENT
REMARK Flexibility Score: inf
ROOT
ATOM      1  C   UNL     1      -7.732  52.125  -5.965  1.00  0.00     0.000 C 
ENDROOT
BRANCH   1   2
ATOM      2  C   UNL     1      -9.060  52.124  -5.193  1.00  0.00     0.000 C 
BRANCH   2   3
ATOM      3  C   UNL     1      -8.861  52.016  -3.673  1.00  0.00     0.006 C 
BRANCH   3   4
ATOM      4  C   UNL     1      -8.642  50.570  -3.207  1.00  0.00     0.053 C 
BRANCH   4   5
ATOM      5  C   UNL     1      -8.623  50.501  -1.713  1.00  0.00     0.041 C 
ATOM      6  O   UNL     1      -9.125  49.511  -1.118  1.00  0.00    -0.550 OA
ATOM      7  O   UNL     1      -8.006  51.506  -0.978  1.00  0.00    -0.550 OA
ENDBRANCH   4   5
ENDBRANCH   3   4
ENDBRANCH   2   3
ENDBRANCH   1   2
BRANCH   1   8
ATOM      8  C   UNL     1      -7.901  51.484  -7.348  1.00  0.00     0.000 C 
BRANCH   8   9
ATOM      9  C   UNL     1      -6.681  51.759  -8.236  1.00  0.00     0.006 C 
BRANCH   9  10
ATOM     10  C   UNL     1      -5.434  52.025  -7.389  1.00  0.00     0.053 C 
BRANCH  10  11
ATOM     11  C   UNL     1      -4.222  51.443  -8.045  1.00  0.00     0.041 C 
ATOM     12  O   UNL     1      -3.503  50.614  -7.427  1.00  0.00    -0.550 OA
ATOM     13  O   UNL     1      -3.913  51.779  -9.357  1.00  0.00    -0.550 OA
ENDBRANCH  10  11
ENDBRANCH   9  10
ENDBRANCH   8   9
ENDBRANCH   1   8
TORSDOF 8
ENDMDL
MODEL 2
REMARK VINA RESULT:    -1.597      1.635      2.041
REMARK INTER + INTRA:          -2.621
REMARK INTER:                  -2.217
REMARK INTRA:                  -0.404
REMARK UNBOUND:                -0.277
REMARK SMILES O=C([O-])CCCCCCCC(=O)[O-]
REMARK SMILES IDX 7 1 6 2 5 3 4 4 2 5 1 6 3 7 8 8 9 9 10 10 11 11 12 12 13 13
REMARK H PARENT
REMARK Flexibility Score: inf
ROOT
ATOM      1  C   UNL     1      -6.958  51.270  -5.424  1.00  0.00     0.000 C 
ENDROOT
BRANCH   1   2
ATOM      2  C   UNL     1      -8.228  52.124  -5.298  1.00  0.00     0.000 C 
BRANCH   2   3
ATOM      3  C   UNL     1      -9.085  51.734  -4.084  1.00  0.00     0.006 C 
BRANCH   3   4
ATOM      4  C   UNL     1      -8.793  50.311  -3.587  1.00  0.00     0.053 C 
BRANCH   4   5
ATOM      5  C   UNL     1      -8.436  50.327  -2.135  1.00  0.00     0.041 C 
ATOM      6  O   UNL     1      -8.018  49.281  -1.573  1.00  0.00    -0.550 OA
ATOM      7  O   UNL     1      -8.517  51.512  -1.413  1.00  0.00    -0.550 OA
ENDBRANCH   4   5
ENDBRANCH   3   4
ENDBRANCH   2   3
ENDBRANCH   1   2
BRANCH   1   8
ATOM      8  C   UNL     1      -5.765  52.125  -5.872  1.00  0.00     0.000 C 
BRANCH   8   9
ATOM      9  C   UNL     1      -5.267  51.693  -7.257  1.00  0.00     0.006 C 
BRANCH   9  10
ATOM     10  C   UNL     1      -6.251  52.117  -8.351  1.00  0.00     0.053 C 
BRANCH  10  11
ATOM     11  C   UNL     1      -6.792  50.916  -9.061  1.00  0.00     0.041 C 
ATOM     12  O   UNL     1      -7.994  50.574  -8.902  1.00  0.00    -0.550 OA
ATOM     13  O   UNL     1      -5.984  50.203  -9.938  1.00  0.00    -0.550 OA
ENDBRANCH  10  11
ENDBRANCH   9  10
ENDBRANCH   8   9
ENDBRANCH   1   8
TORSDOF 8
ENDMDL
MODEL 3
REMARK VINA RESULT:    -1.533      2.010      6.713
REMARK INTER + INTRA:          -2.526
REMARK INTER:                  -2.340
REMARK INTRA:                  -0.186
REMARK UNBOUND:                -0.277
REMARK SMILES O=C([O-])CCCCCCCC(=O)[O-]
REMARK SMILES IDX 7 1 6 2 5 3 4 4 2 5 1 6 3 7 8 8 9 9 10 10 11 11 12 12 13 13
REMARK H PARENT
REMARK Flexibility Score: inf
ROOT
ATOM      1  C   UNL     1      -8.154  51.319  -4.574  1.00  0.00     0.000 C 
ENDROOT
BRANCH   1   2
ATOM      2  C   UNL     1      -8.246  52.125  -5.879  1.00  0.00     0.000 C 
BRANCH   2   3
ATOM      3  C   UNL     1      -7.102  51.805  -6.854  1.00  0.00     0.006 C 
BRANCH   3   4
ATOM      4  C   UNL     1      -7.509  51.988  -8.322  1.00  0.00     0.053 C 
BRANCH   4   5
ATOM      5  C   UNL     1      -7.259  50.731  -9.093  1.00  0.00     0.041 C 
ATOM      6  O   UNL     1      -6.104  50.468  -9.520  1.00  0.00    -0.550 OA
ATOM      7  O   UNL     1      -8.293  49.824  -9.298  1.00  0.00    -0.550 OA
ENDBRANCH   4   5
ENDBRANCH   3   4
ENDBRANCH   2   3
ENDBRANCH   1   2
BRANCH   1   8
ATOM      8  C   UNL     1      -9.117  51.874  -3.517  1.00  0.00     0.000 C 
BRANCH   8   9
ATOM      9  C   UNL     1      -8.886  51.205  -2.157  1.00  0.00     0.006 C 
BRANCH   9  10
ATOM     10  C   UNL     1      -8.096  52.124  -1.221  1.00  0.00     0.053 C 
BRANCH  10  11
ATOM     11  C   UNL     1      -7.084  51.338  -0.448  1.00  0.00     0.041 C 
ATOM     12  O   UNL     1      -6.253  51.929   0.291  1.00  0.00    -0.550 OA
ATOM     13  O   UNL     1      -7.089  49.950  -0.506  1.00  0.00    -0.550 OA
ENDBRANCH  10  11
ENDBRANCH   9  10
ENDBRANCH   8   9
ENDBRANCH   1   8
TORSDOF 8
ENDMDL
MODEL 4
REMARK VINA RESULT:    -1.516      1.209      1.840
REMARK INTER + INTRA:          -2.502
REMARK INTER:                  -2.318
REMARK INTRA:                  -0.184
REMARK UNBOUND:                -0.277
REMARK SMILES O=C([O-])CCCCCCCC(=O)[O-]
REMARK SMILES IDX 7 1 6 2 5 3 4 4 2 5 1 6 3 7 8 8 9 9 10 10 11 11 12 12 13 13
REMARK H PARENT
REMARK Flexibility Score: inf
ROOT
ATOM      1  C   UNL     1      -7.821  51.449  -5.037  1.00  0.00     0.000 C 
ENDROOT
BRANCH   1   2
ATOM      2  C   UNL     1      -9.095  51.346  -4.186  1.00  0.00     0.000 C 
BRANCH   2   3
ATOM      3  C   UNL     1      -8.961  52.061  -2.832  1.00  0.00     0.006 C 
BRANCH   3   4
ATOM      4  C   UNL     1      -9.056  51.096  -1.642  1.00  0.00     0.053 C 
BRANCH   4   5
ATOM      5  C   UNL     1      -7.755  51.045  -0.907  1.00  0.00     0.041 C 
ATOM      6  O   UNL     1      -7.107  52.103  -0.689  1.00  0.00    -0.550 OA
ATOM      7  O   UNL     1      -7.280  49.834  -0.417  1.00  0.00    -0.550 OA
ENDBRANCH   4   5
ENDBRANCH   3   4
ENDBRANCH   2   3
ENDBRANCH   1   2
BRANCH   1   8
ATOM      8  C   UNL     1      -8.163  51.736  -6.505  1.00  0.00     0.000 C 
BRANCH   8   9
ATOM      9  C   UNL     1      -6.909  52.122  -7.298  1.00  0.00     0.006 C 
BRANCH   9  10
ATOM     10  C   UNL     1      -6.755  51.243  -8.543  1.00  0.00     0.053 C 
BRANCH  10  11
ATOM     11  C   UNL     1      -5.325  51.202  -8.980  1.00  0.00     0.041 C 
ATOM     12  O   UNL     1      -4.976  51.752 -10.059  1.00  0.00    -0.550 OA
ATOM     13  O   UNL     1      -4.367  50.599  -8.174  1.00  0.00    -0.550 OA
ENDBRANCH  10  11
ENDBRANCH   9  10
ENDBRANCH   8   9
ENDBRANCH   1   8
TORSDOF 8
ENDMDL
MODEL 5
REMARK VINA RESULT:    -1.239      2.248      3.532
REMARK INTER + INTRA:          -2.094
REMARK INTER:                  -1.890
REMARK INTRA:                  -0.204
REMARK UNBOUND:                -0.277
REMARK SMILES O=C([O-])CCCCCCCC(=O)[O-]
REMARK SMILES IDX 7 1 6 2 5 3 4 4 2 5 1 6 3 7 8 8 9 9 10 10 11 11 12 12 13 13
REMARK H PARENT
REMARK Flexibility Score: inf
ROOT
ATOM      1  C   UNL     1      -8.769  49.896  -2.849  1.00  0.00     0.000 C 
ENDROOT
BRANCH   1   2
ATOM      2  C   UNL     1      -8.269  50.075  -1.407  1.00  0.00     0.000 C 
BRANCH   2   3
ATOM      3  C   UNL     1      -8.241  51.548  -0.970  1.00  0.00     0.006 C 
BRANCH   3   4
ATOM      4  C   UNL     1      -6.818  52.119  -0.906  1.00  0.00     0.053 C 
BRANCH   4   5
ATOM      5  C   UNL     1      -6.181  51.790   0.406  1.00  0.00     0.041 C 
ATOM      6  O   UNL     1      -5.044  51.252   0.442  1.00  0.00    -0.550 OA
ATOM      7  O   UNL     1      -6.822  52.125   1.593  1.00  0.00    -0.550 OA
ENDBRANCH   4   5
ENDBRANCH   3   4
ENDBRANCH   2   3
ENDBRANCH   1   2
BRANCH   1   8
ATOM      8  C   UNL     1      -8.551  51.175  -3.668  1.00  0.00     0.000 C 
BRANCH   8   9
ATOM      9  C   UNL     1      -8.391  50.853  -5.159  1.00  0.00     0.006 C 
BRANCH   9  10
ATOM     10  C   UNL     1      -7.922  52.084  -5.939  1.00  0.00     0.053 C 
BRANCH  10  11
ATOM     11  C   UNL     1      -6.994  51.683  -7.042  1.00  0.00     0.041 C 
ATOM     12  O   UNL     1      -5.749  51.812  -6.901  1.00  0.00    -0.550 OA
ATOM     13  O   UNL     1      -7.500  51.121  -8.207  1.00  0.00    -0.550 OA
ENDBRANCH  10  11
ENDBRANCH   9  10
ENDBRANCH   8   9
ENDBRANCH   1   8
TORSDOF 8
ENDMDL
MODEL 6
REMARK VINA RESULT:    -1.214      2.382      6.301
REMARK INTER + INTRA:          -2.058
REMARK INTER:                  -1.753
REMARK INTRA:                  -0.305
REMARK UNBOUND:                -0.277
REMARK SMILES O=C([O-])CCCCCCCC(=O)[O-]
REMARK SMILES IDX 7 1 6 2 5 3 4 4 2 5 1 6 3 7 8 8 9 9 10 10 11 11 12 12 13 13
REMARK H PARENT
REMARK Flexibility Score: inf
ROOT
ATOM      1  C   UNL     1      -7.878  49.801  -2.472  1.00  0.00     0.000 C 
ENDROOT
BRANCH   1   2
ATOM      2  C   UNL     1      -8.547  49.876  -3.853  1.00  0.00     0.000 C 
BRANCH   2   3
ATOM      3  C   UNL     1      -8.839  51.319  -4.291  1.00  0.00     0.006 C 
BRANCH   3   4
ATOM      4  C   UNL     1      -7.566  52.094  -4.660  1.00  0.00     0.053 C 
BRANCH   4   5
ATOM      5  C   UNL     1      -7.293  51.983  -6.126  1.00  0.00     0.041 C 
ATOM      6  O   UNL     1      -8.242  51.813  -6.936  1.00  0.00    -0.550 OA
ATOM      7  O   UNL     1      -5.995  52.118  -6.605  1.00  0.00    -0.550 OA
ENDBRANCH   4   5
ENDBRANCH   3   4
ENDBRANCH   2   3
ENDBRANCH   1   2
BRANCH   1   8
ATOM      8  C   UNL     1      -8.824  50.307  -1.376  1.00  0.00     0.000 C 
BRANCH   8   9
ATOM      9  C   UNL     1      -8.567  51.786  -1.066  1.00  0.00     0.006 C 
BRANCH   9  10
ATOM     10  C   UNL     1      -7.077  52.120  -1.179  1.00  0.00     0.053 C 
BRANCH  10  11
ATOM     11  C   UNL     1      -6.377  51.836   0.113  1.00  0.00     0.041 C 
ATOM     12  O   UNL     1      -6.927  52.125   1.209  1.00  0.00    -0.550 OA
ATOM     13  O   UNL     1      -5.138  51.207   0.110  1.00  0.00    -0.550 OA
ENDBRANCH  10  11
ENDBRANCH   9  10
ENDBRANCH   8   9
ENDBRANCH   1   8
TORSDOF 8
ENDMDL
MODEL 7
REMARK VINA RESULT:    -0.882      4.509      6.562
REMARK INTER + INTRA:          -1.571
REMARK INTER:                  -1.282
REMARK INTRA:                  -0.289
REMARK UNBOUND:                -0.277
REMARK SMILES O=C([O-])CCCCCCCC(=O)[O-]
REMARK SMILES IDX 7 1 6 2 5 3 4 4 2 5 1 6 3 7 8 8 9 9 10 10 11 11 12 12 13 13
REMARK H PARENT
REMARK Flexibility Score: inf
ROOT
ATOM      1  C   UNL     1      -6.140  50.795  -0.412  1.00  0.00     0.000 C 
ENDROOT
BRANCH   1   2
ATOM      2  C   UNL     1      -5.422  52.125  -0.140  1.00  0.00     0.000 C 
BRANCH   2   3
ATOM      3  C   UNL     1      -4.156  51.950   0.714  1.00  0.00     0.006 C 
BRANCH   3   4
ATOM      4  C   UNL     1      -3.104  51.061   0.035  1.00  0.00     0.053 C 
BRANCH   4   5
ATOM      5  C   UNL     1      -1.794  51.778  -0.053  1.00  0.00     0.041 C 
ATOM      6  O   UNL     1      -1.181  52.107   0.996  1.00  0.00    -0.550 OA
ATOM      7  O   UNL     1      -1.225  52.038  -1.294  1.00  0.00    -0.550 OA
ENDBRANCH   4   5
ENDBRANCH   3   4
ENDBRANCH   2   3
ENDBRANCH   1   2
BRANCH   1   8
ATOM      8  C   UNL     1      -7.660  50.954  -0.276  1.00  0.00     0.000 C 
BRANCH   8   9
ATOM      9  C   UNL     1      -8.376  50.525  -1.563  1.00  0.00     0.006 C 
BRANCH   9  10
ATOM     10  C   UNL     1      -8.268  51.609  -2.639  1.00  0.00     0.053 C 
BRANCH  10  11
ATOM     11  C   UNL     1      -8.160  50.990  -3.996  1.00  0.00     0.041 C 
ATOM     12  O   UNL     1      -8.568  49.814  -4.191  1.00  0.00    -0.550 OA
ATOM     13  O   UNL     1      -7.653  51.727  -5.059  1.00  0.00    -0.550 OA
ENDBRANCH  10  11
ENDBRANCH   9  10
ENDBRANCH   8   9
ENDBRANCH   1   8
TORSDOF 8
ENDMDL
MODEL 8
REMARK VINA RESULT:    -0.668      1.558      6.674
REMARK INTER + INTRA:          -1.257
REMARK INTER:                  -0.983
REMARK INTRA:                  -0.274
REMARK UNBOUND:                -0.277
REMARK SMILES O=C([O-])CCCCCCCC(=O)[O-]
REMARK SMILES IDX 7 1 6 2 5 3 4 4 2 5 1 6 3 7 8 8 9 9 10 10 11 11 12 12 13 13
REMARK H PARENT
REMARK Flexibility Score: inf
ROOT
ATOM      1  C   UNL     1      -8.181  51.081  -3.974  1.00  0.00     0.000 C 
ENDROOT
BRANCH   1   2
ATOM      2  C   UNL     1      -8.204  51.741  -5.361  1.00  0.00     0.000 C 
BRANCH   2   3
ATOM      3  C   UNL     1      -6.799  52.107  -5.865  1.00  0.00     0.006 C 
BRANCH   3   4
ATOM      4  C   UNL     1      -6.660  51.954  -7.386  1.00  0.00     0.053 C 
BRANCH   4   5
ATOM      5  C   UNL     1      -5.217  51.934  -7.779  1.00  0.00     0.041 C 
ATOM      6  O   UNL     1      -4.327  51.735  -6.911  1.00  0.00    -0.550 OA
ATOM      7  O   UNL     1      -4.856  52.086  -9.113  1.00  0.00    -0.550 OA
ENDBRANCH   4   5
ENDBRANCH   3   4
ENDBRANCH   2   3
ENDBRANCH   1   2
BRANCH   1   8
ATOM      8  C   UNL     1      -7.959  52.125  -2.872  1.00  0.00     0.000 C 
BRANCH   8   9
ATOM      9  C   UNL     1      -8.628  51.694  -1.562  1.00  0.00     0.006 C 
BRANCH   9  10
ATOM     10  C   UNL     1      -7.657  51.813  -0.384  1.00  0.00     0.053 C 
BRANCH  10  11
ATOM     11  C   UNL     1      -6.862  50.555  -0.231  1.00  0.00     0.041 C 
ATOM     12  O   UNL     1      -7.267  49.482  -0.752  1.00  0.00    -0.550 OA
ATOM     13  O   UNL     1      -5.648  50.577   0.444  1.00  0.00    -0.550 OA
ENDBRANCH  10  11
ENDBRANCH   9  10
ENDBRANCH   8   9
ENDBRANCH   1   8
TORSDOF 8
ENDMDL
