MODEL 1
REMARK VINA RESULT:    -4.562      0.000      0.000
REMARK INTER + INTRA:          -7.491
REMARK INTER:                  -6.962
REMARK INTRA:                  -0.530
REMARK UNBOUND:                -0.530
REMARK SMILES O=C([O-])CCCCCCCCC(=O)[O-]
REMARK SMILES IDX 7 1 6 2 5 3 4 4 2 5 1 6 3 7 8 8 9 9 10 10 11 11 12 12 13 13
REMARK SMILES IDX 14 14
REMARK H PARENT
REMARK Flexibility Score: inf
ROOT
ATOM      1  C   UNL     1      -5.011  10.006  -4.514  1.00  0.00     0.000 C 
ENDROOT
BRANCH   1   2
ATOM      2  C   UNL     1      -4.169  10.059  -3.230  1.00  0.00     0.000 C 
BRANCH   2   3
ATOM      3  C   UNL     1      -2.961   9.116  -3.327  1.00  0.00     0.006 C 
BRANCH   3   4
ATOM      4  C   UNL     1      -1.961   9.561  -4.402  1.00  0.00     0.053 C 
BRANCH   4   5
ATOM      5  C   UNL     1      -1.396   8.396  -5.153  1.00  0.00     0.041 C 
ATOM      6  O   UNL     1      -2.076   7.831  -6.051  1.00  0.00    -0.550 OA
ATOM      7  O   UNL     1      -0.106   7.955  -4.888  1.00  0.00    -0.550 OA
ENDBRANCH   4   5
ENDBRANCH   3   4
ENDBRANCH   2   3
ENDBRANCH   1   2
BRANCH   1   8
ATOM      8  C   UNL     1      -5.967   8.803  -4.547  1.00  0.00     0.000 C 
BRANCH   8   9
ATOM      9  C   UNL     1      -5.516   7.716  -5.535  1.00  0.00     0.000 C 
BRANCH   9  10
ATOM     10  C   UNL     1      -6.216   6.383  -5.240  1.00  0.00     0.006 C 
BRANCH  10  11
ATOM     11  C   UNL     1      -7.681   6.422  -5.685  1.00  0.00     0.053 C 
BRANCH  11  12
ATOM     12  C   UNL     1      -7.965   5.311  -6.646  1.00  0.00     0.041 C 
ATOM     13  O   UNL     1      -7.432   5.307  -7.786  1.00  0.00    -0.550 OA
ATOM     14  O   UNL     1      -8.783   4.255  -6.264  1.00  0.00    -0.550 OA
ENDBRANCH  11  12
ENDBRANCH  10  11
ENDBRANCH   9  10
ENDBRANCH   8   9
ENDBRANCH   1   8
TORSDOF 9
ENDMDL
MODEL 2
REMARK VINA RESULT:    -4.473      1.055      1.807
REMARK INTER + INTRA:          -7.356
REMARK INTER:                  -6.578
REMARK INTRA:                  -0.778
REMARK UNBOUND:                -0.530
REMARK SMILES O=C([O-])CCCCCCCCC(=O)[O-]
REMARK SMILES IDX 7 1 6 2 5 3 4 4 2 5 1 6 3 7 8 8 9 9 10 10 11 11 12 12 13 13
REMARK SMILES IDX 14 14
REMARK H PARENT
REMARK Flexibility Score: inf
ROOT
ATOM      1  C   UNL     1      -4.254   9.993  -3.114  1.00  0.00     0.000 C 
ENDROOT
BRANCH   1   2
ATOM      2  C   UNL     1      -2.941   9.207  -3.249  1.00  0.00     0.000 C 
BRANCH   2   3
ATOM      3  C   UNL     1      -2.201   9.592  -4.539  1.00  0.00     0.006 C 
BRANCH   3   4
ATOM      4  C   UNL     1      -1.807   8.365  -5.371  1.00  0.00     0.053 C 
BRANCH   4   5
ATOM      5  C   UNL     1      -0.324   8.275  -5.561  1.00  0.00     0.041 C 
ATOM      6  O   UNL     1       0.220   8.813  -6.561  1.00  0.00    -0.550 OA
ATOM      7  O   UNL     1       0.460   7.626  -4.616  1.00  0.00    -0.550 OA
ENDBRANCH   4   5
ENDBRANCH   3   4
ENDBRANCH   2   3
ENDBRANCH   1   2
BRANCH   1   8
ATOM      8  C   UNL     1      -5.010  10.117  -4.447  1.00  0.00     0.000 C 
BRANCH   8   9
ATOM      9  C   UNL     1      -6.023   8.982  -4.661  1.00  0.00     0.000 C 
BRANCH   9  10
ATOM     10  C   UNL     1      -5.571   8.051  -5.793  1.00  0.00     0.006 C 
BRANCH  10  11
ATOM     11  C   UNL     1      -5.672   6.583  -5.370  1.00  0.00     0.053 C 
BRANCH  11  12
ATOM     12  C   UNL     1      -6.854   5.932  -6.016  1.00  0.00     0.041 C 
ATOM     13  O   UNL     1      -7.937   5.817  -5.385  1.00  0.00    -0.550 OA
ATOM     14  O   UNL     1      -6.774   5.496  -7.333  1.00  0.00    -0.550 OA
ENDBRANCH  11  12
ENDBRANCH  10  11
ENDBRANCH   9  10
ENDBRANCH   8   9
ENDBRANCH   1   8
TORSDOF 9
ENDMDL
MODEL 3
REMARK VINA RESULT:    -4.449      0.799      5.976
REMARK INTER + INTRA:          -7.320
REMARK INTER:                  -6.646
REMARK INTRA:                  -0.673
REMARK UNBOUND:                -0.530
REMARK SMILES O=C([O-])CCCCCCCCC(=O)[O-]
REMARK SMILES IDX 7 1 6 2 5 3 4 4 2 5 1 6 3 7 8 8 9 9 10 10 11 11 12 12 13 13
REMARK SMILES IDX 14 14
REMARK H PARENT
REMARK Flexibility Score: inf
ROOT
ATOM      1  C   UNL     1      -6.007   9.099  -4.807  1.00  0.00     0.000 C 
ENDROOT
BRANCH   1   2
ATOM      2  C   UNL     1      -5.707   7.966  -5.801  1.00  0.00     0.000 C 
BRANCH   2   3
ATOM      3  C   UNL     1      -5.980   6.594  -5.168  1.00  0.00     0.006 C 
BRANCH   3   4
ATOM      4  C   UNL     1      -7.356   6.038  -5.558  1.00  0.00     0.053 C 
BRANCH   4   5
ATOM      5  C   UNL     1      -7.595   6.129  -7.033  1.00  0.00     0.041 C 
ATOM      6  O   UNL     1      -6.974   5.370  -7.824  1.00  0.00    -0.550 OA
ATOM      7  O   UNL     1      -8.529   7.027  -7.533  1.00  0.00    -0.550 OA
ENDBRANCH   4   5
ENDBRANCH   3   4
ENDBRANCH   2   3
ENDBRANCH   1   2
BRANCH   1   8
ATOM      8  C   UNL     1      -4.840  10.090  -4.667  1.00  0.00     0.000 C 
BRANCH   8   9
ATOM      9  C   UNL     1      -4.176  10.032  -3.283  1.00  0.00     0.000 C 
BRANCH   9  10
ATOM     10  C   UNL     1      -2.976   9.076  -3.291  1.00  0.00     0.006 C 
BRANCH  10  11
ATOM     11  C   UNL     1      -1.904   9.549  -4.277  1.00  0.00     0.053 C 
BRANCH  11  12
ATOM     12  C   UNL     1      -1.428   8.408  -5.120  1.00  0.00     0.041 C 
ATOM     13  O   UNL     1      -2.168   7.933  -6.019  1.00  0.00    -0.550 OA
ATOM     14  O   UNL     1      -0.145   7.903  -4.944  1.00  0.00    -0.550 OA
ENDBRANCH  11  12
ENDBRANCH  10  11
ENDBRANCH   9  10
ENDBRANCH   8   9
ENDBRANCH   1   8
TORSDOF 9
ENDMDL
MODEL 4
REMARK VINA RESULT:    -4.192      3.128      4.913
REMARK INTER + INTRA:          -6.927
REMARK INTER:                  -6.489
REMARK INTRA:                  -0.438
REMARK UNBOUND:                -0.530
REMARK SMILES O=C([O-])CCCCCCCCC(=O)[O-]
REMARK SMILES IDX 7 1 6 2 5 3 4 4 2 5 1 6 3 7 8 8 9 9 10 10 11 11 12 12 13 13
REMARK SMILES IDX 14 14
REMARK H PARENT
REMARK Flexibility Score: inf
ROOT
ATOM      1  C   UNL     1      -1.217   8.335  -5.404  1.00  0.00     0.000 C 
ENDROOT
BRANCH   1   2
ATOM      2  C   UNL     1      -0.331   8.883  -6.533  1.00  0.00     0.000 C 
BRANCH   2   3
ATOM      3  C   UNL     1       1.026   8.164  -6.564  1.00  0.00     0.006 C 
BRANCH   3   4
ATOM      4  C   UNL     1       1.732   8.312  -7.918  1.00  0.00     0.053 C 
BRANCH   4   5
ATOM      5  C   UNL     1       2.910   7.395  -8.034  1.00  0.00     0.041 C 
ATOM      6  O   UNL     1       2.952   6.330  -7.362  1.00  0.00    -0.550 OA
ATOM      7  O   UNL     1       3.944   7.698  -8.910  1.00  0.00    -0.550 OA
ENDBRANCH   4   5
ENDBRANCH   3   4
ENDBRANCH   2   3
ENDBRANCH   1   2
BRANCH   1   8
ATOM      8  C   UNL     1      -1.640   9.421  -4.403  1.00  0.00     0.000 C 
BRANCH   8   9
ATOM      9  C   UNL     1      -2.706   8.930  -3.411  1.00  0.00     0.000 C 
BRANCH   9  10
ATOM     10  C   UNL     1      -3.931   9.852  -3.421  1.00  0.00     0.006 C 
BRANCH  10  11
ATOM     11  C   UNL     1      -4.512   9.976  -4.833  1.00  0.00     0.053 C 
BRANCH  11  12
ATOM     12  C   UNL     1      -5.262   8.735  -5.202  1.00  0.00     0.041 C 
ATOM     13  O   UNL     1      -6.373   8.483  -4.667  1.00  0.00    -0.550 OA
ATOM     14  O   UNL     1      -4.755   7.881  -6.174  1.00  0.00    -0.550 OA
ENDBRANCH  11  12
ENDBRANCH  10  11
ENDBRANCH   9  10
ENDBRANCH   8   9
ENDBRANCH   1   8
TORSDOF 9
ENDMDL
MODEL 5
REMARK VINA RESULT:    -4.127      2.214      3.249
REMARK INTER + INTRA:          -6.828
REMARK INTER:                  -6.400
REMARK INTRA:                  -0.428
REMARK UNBOUND:                -0.530
REMARK SMILES O=C([O-])CCCCCCCCC(=O)[O-]
REMARK SMILES IDX 7 1 6 2 5 3 4 4 2 5 1 6 3 7 8 8 9 9 10 10 11 11 12 12 13 13
REMARK SMILES IDX 14 14
REMARK H PARENT
REMARK Flexibility Score: inf
ROOT
ATOM      1  C   UNL     1      -2.627   8.886  -4.618  1.00  0.00     0.000 C 
ENDROOT
BRANCH   1   2
ATOM      2  C   UNL     1      -1.112   9.140  -4.585  1.00  0.00     0.000 C 
BRANCH   2   3
ATOM      3  C   UNL     1      -0.387   8.261  -5.614  1.00  0.00     0.006 C 
BRANCH   3   4
ATOM      4  C   UNL     1      -0.079   9.020  -6.913  1.00  0.00     0.053 C 
BRANCH   4   5
ATOM      5  C   UNL     1       1.250   8.631  -7.483  1.00  0.00     0.041 C 
ATOM      6  O   UNL     1       1.885   7.657  -7.000  1.00  0.00    -0.550 OA
ATOM      7  O   UNL     1       1.770   9.321  -8.570  1.00  0.00    -0.550 OA
ENDBRANCH   4   5
ENDBRANCH   3   4
ENDBRANCH   2   3
ENDBRANCH   1   2
BRANCH   1   8
ATOM      8  C   UNL     1      -3.349   9.449  -3.383  1.00  0.00     0.000 C 
BRANCH   8   9
ATOM      9  C   UNL     1      -4.832   9.749  -3.650  1.00  0.00     0.000 C 
BRANCH   9  10
ATOM     10  C   UNL     1      -5.266   9.196  -5.014  1.00  0.00     0.006 C 
BRANCH  10  11
ATOM     11  C   UNL     1      -6.513   8.317  -4.878  1.00  0.00     0.053 C 
BRANCH  11  12
ATOM     12  C   UNL     1      -6.187   6.894  -5.204  1.00  0.00     0.041 C 
ATOM     13  O   UNL     1      -5.044   6.587  -5.631  1.00  0.00    -0.550 OA
ATOM     14  O   UNL     1      -7.132   5.898  -4.987  1.00  0.00    -0.550 OA
ENDBRANCH  11  12
ENDBRANCH  10  11
ENDBRANCH   9  10
ENDBRANCH   8   9
ENDBRANCH   1   8
TORSDOF 9
ENDMDL
MODEL 6
REMARK VINA RESULT:    -3.967      3.407      7.606
REMARK INTER + INTRA:          -6.584
REMARK INTER:                  -6.141
REMARK INTRA:                  -0.443
REMARK UNBOUND:                -0.530
REMARK SMILES O=C([O-])CCCCCCCCC(=O)[O-]
REMARK SMILES IDX 7 1 6 2 5 3 4 4 2 5 1 6 3 7 8 8 9 9 10 10 11 11 12 12 13 13
REMARK SMILES IDX 14 14
REMARK H PARENT
REMARK Flexibility Score: inf
ROOT
ATOM      1  C   UNL     1      -0.906   8.486  -5.207  1.00  0.00     0.000 C 
ENDROOT
BRANCH   1   2
ATOM      2  C   UNL     1      -2.432   8.321  -5.277  1.00  0.00     0.000 C 
BRANCH   2   3
ATOM      3  C   UNL     1      -2.835   7.444  -6.471  1.00  0.00     0.006 C 
BRANCH   3   4
ATOM      4  C   UNL     1      -4.304   7.641  -6.868  1.00  0.00     0.053 C 
BRANCH   4   5
ATOM      5  C   UNL     1      -5.147   6.465  -6.484  1.00  0.00     0.041 C 
ATOM      6  O   UNL     1      -5.575   5.677  -7.369  1.00  0.00    -0.550 OA
ATOM      7  O   UNL     1      -5.431   6.218  -5.147  1.00  0.00    -0.550 OA
ENDBRANCH   4   5
ENDBRANCH   3   4
ENDBRANCH   2   3
ENDBRANCH   1   2
BRANCH   1   8
ATOM      8  C   UNL     1      -0.410   9.728  -5.965  1.00  0.00     0.000 C 
BRANCH   8   9
ATOM      9  C   UNL     1       0.247   9.378  -7.309  1.00  0.00     0.000 C 
BRANCH   9  10
ATOM     10  C   UNL     1       1.288   8.264  -7.137  1.00  0.00     0.006 C 
BRANCH  10  11
ATOM     11  C   UNL     1       2.311   8.288  -8.276  1.00  0.00     0.053 C 
BRANCH  11  12
ATOM     12  C   UNL     1       3.316   7.193  -8.101  1.00  0.00     0.041 C 
ATOM     13  O   UNL     1       3.069   6.223  -7.339  1.00  0.00    -0.550 OA
ATOM     14  O   UNL     1       4.505   7.221  -8.819  1.00  0.00    -0.550 OA
ENDBRANCH  11  12
ENDBRANCH  10  11
ENDBRANCH   9  10
ENDBRANCH   8   9
ENDBRANCH   1   8
TORSDOF 9
ENDMDL
MODEL 7
REMARK VINA RESULT:    -3.957      3.323      7.345
REMARK INTER + INTRA:          -6.568
REMARK INTER:                  -6.173
REMARK INTRA:                  -0.395
REMARK UNBOUND:                -0.530
REMARK SMILES O=C([O-])CCCCCCCCC(=O)[O-]
REMARK SMILES IDX 7 1 6 2 5 3 4 4 2 5 1 6 3 7 8 8 9 9 10 10 11 11 12 12 13 13
REMARK SMILES IDX 14 14
REMARK H PARENT
REMARK Flexibility Score: inf
ROOT
ATOM      1  C   UNL     1      -1.961   8.260  -5.339  1.00  0.00     0.000 C 
ENDROOT
BRANCH   1   2
ATOM      2  C   UNL     1      -2.369   9.198  -4.192  1.00  0.00     0.000 C 
BRANCH   2   3
ATOM      3  C   UNL     1      -3.515  10.125  -4.622  1.00  0.00     0.006 C 
BRANCH   3   4
ATOM      4  C   UNL     1      -4.862   9.699  -4.024  1.00  0.00     0.053 C 
BRANCH   4   5
ATOM      5  C   UNL     1      -5.736   9.031  -5.041  1.00  0.00     0.041 C 
ATOM      6  O   UNL     1      -5.478   9.144  -6.269  1.00  0.00    -0.550 OA
ATOM      7  O   UNL     1      -6.813   8.256  -4.632  1.00  0.00    -0.550 OA
ENDBRANCH   4   5
ENDBRANCH   3   4
ENDBRANCH   2   3
ENDBRANCH   1   2
BRANCH   1   8
ATOM      8  C   UNL     1      -0.448   8.274  -5.608  1.00  0.00     0.000 C 
BRANCH   8   9
ATOM      9  C   UNL     1      -0.003   9.496  -6.426  1.00  0.00     0.000 C 
BRANCH   9  10
ATOM     10  C   UNL     1       0.806   9.066  -7.656  1.00  0.00     0.006 C 
BRANCH  10  11
ATOM     11  C   UNL     1       1.810   7.968  -7.297  1.00  0.00     0.053 C 
BRANCH  11  12
ATOM     12  C   UNL     1       2.905   7.905  -8.315  1.00  0.00     0.041 C 
ATOM     13  O   UNL     1       3.719   6.946  -8.311  1.00  0.00    -0.550 OA
ATOM     14  O   UNL     1       2.995   8.882  -9.298  1.00  0.00    -0.550 OA
ENDBRANCH  11  12
ENDBRANCH  10  11
ENDBRANCH   9  10
ENDBRANCH   8   9
ENDBRANCH   1   8
TORSDOF 9
ENDMDL
MODEL 8
REMARK VINA RESULT:    -3.912      3.330      4.795
REMARK INTER + INTRA:          -6.500
REMARK INTER:                  -6.064
REMARK INTRA:                  -0.436
REMARK UNBOUND:                -0.530
REMARK SMILES O=C([O-])CCCCCCCCC(=O)[O-]
REMARK SMILES IDX 7 1 6 2 5 3 4 4 2 5 1 6 3 7 8 8 9 9 10 10 11 11 12 12 13 13
REMARK SMILES IDX 14 14
REMARK H PARENT
REMARK Flexibility Score: inf
ROOT
ATOM      1  C   UNL     1      -0.470   9.984  -6.053  1.00  0.00     0.000 C 
ENDROOT
BRANCH   1   2
ATOM      2  C   UNL     1       0.359   9.768  -7.328  1.00  0.00     0.000 C 
BRANCH   2   3
ATOM      3  C   UNL     1       1.138   8.447  -7.259  1.00  0.00     0.006 C 
BRANCH   3   4
ATOM      4  C   UNL     1       2.222   8.353  -8.341  1.00  0.00     0.053 C 
BRANCH   4   5
ATOM      5  C   UNL     1       3.196   7.251  -8.058  1.00  0.00     0.041 C 
ATOM      6  O   UNL     1       4.171   7.054  -8.832  1.00  0.00    -0.550 OA
ATOM      7  O   UNL     1       3.048   6.465  -6.924  1.00  0.00    -0.550 OA
ENDBRANCH   4   5
ENDBRANCH   3   4
ENDBRANCH   2   3
ENDBRANCH   1   2
BRANCH   1   8
ATOM      8  C   UNL     1      -0.823   8.666  -5.345  1.00  0.00     0.000 C 
BRANCH   8   9
ATOM      9  C   UNL     1      -2.339   8.452  -5.214  1.00  0.00     0.000 C 
BRANCH   9  10
ATOM     10  C   UNL     1      -2.837   7.416  -6.230  1.00  0.00     0.006 C 
BRANCH  10  11
ATOM     11  C   UNL     1      -4.288   7.693  -6.631  1.00  0.00     0.053 C 
BRANCH  11  12
ATOM     12  C   UNL     1      -5.138   6.486  -6.386  1.00  0.00     0.041 C 
ATOM     13  O   UNL     1      -5.556   6.230  -5.226  1.00  0.00    -0.550 OA
ATOM     14  O   UNL     1      -5.510   5.671  -7.448  1.00  0.00    -0.550 OA
ENDBRANCH  11  12
ENDBRANCH  10  11
ENDBRANCH   9  10
ENDBRANCH   8   9
ENDBRANCH   1   8
TORSDOF 9
ENDMDL
MODEL 9
REMARK VINA RESULT:    -3.751      1.032      1.878
REMARK INTER + INTRA:          -6.253
REMARK INTER:                  -5.802
REMARK INTRA:                  -0.452
REMARK UNBOUND:                -0.530
REMARK SMILES O=C([O-])CCCCCCCCC(=O)[O-]
REMARK SMILES IDX 7 1 6 2 5 3 4 4 2 5 1 6 3 7 8 8 9 9 10 10 11 11 12 12 13 13
REMARK SMILES IDX 14 14
REMARK H PARENT
REMARK Flexibility Score: inf
ROOT
ATOM      1  C   UNL     1      -5.886   8.844  -4.482  1.00  0.00     0.000 C 
ENDROOT
BRANCH   1   2
ATOM      2  C   UNL     1      -4.917  10.027  -4.629  1.00  0.00     0.000 C 
BRANCH   2   3
ATOM      3  C   UNL     1      -3.983  10.125  -3.414  1.00  0.00     0.006 C 
BRANCH   3   4
ATOM      4  C   UNL     1      -2.958   8.983  -3.375  1.00  0.00     0.053 C 
BRANCH   4   5
ATOM      5  C   UNL     1      -1.982   9.073  -4.507  1.00  0.00     0.041 C 
ATOM      6  O   UNL     1      -1.165  10.030  -4.565  1.00  0.00    -0.550 OA
ATOM      7  O   UNL     1      -1.951   8.082  -5.479  1.00  0.00    -0.550 OA
ENDBRANCH   4   5
ENDBRANCH   3   4
ENDBRANCH   2   3
ENDBRANCH   1   2
BRANCH   1   8
ATOM      8  C   UNL     1      -5.791   7.851  -5.651  1.00  0.00     0.000 C 
BRANCH   8   9
ATOM      9  C   UNL     1      -6.780   6.683  -5.519  1.00  0.00     0.000 C 
BRANCH   9  10
ATOM     10  C   UNL     1      -7.889   6.782  -6.574  1.00  0.00     0.006 C 
BRANCH  10  11
ATOM     11  C   UNL     1      -9.096   5.924  -6.185  1.00  0.00     0.053 C 
BRANCH  11  12
ATOM     12  C   UNL     1      -9.128   4.667  -6.996  1.00  0.00     0.041 C 
ATOM     13  O   UNL     1      -9.977   3.773  -6.745  1.00  0.00    -0.550 OA
ATOM     14  O   UNL     1      -8.250   4.505  -8.060  1.00  0.00    -0.550 OA
ENDBRANCH  11  12
ENDBRANCH  10  11
ENDBRANCH   9  10
ENDBRANCH   8   9
ENDBRANCH   1   8
TORSDOF 9
ENDMDL
