MODEL 1
REMARK VINA RESULT:    -4.127      0.000      0.000
REMARK INTER + INTRA:          -7.384
REMARK INTER:                  -6.299
REMARK INTRA:                  -1.086
REMARK UNBOUND:                -1.086
REMARK SMILES CCCCCCCCCCC(=O)[O-]
REMARK SMILES IDX 7 1 8 2 9 3 10 4 11 5 12 6 13 7 6 8 5 9 4 10 3 11 2 12 1 13
REMARK H PARENT
REMARK Flexibility Score: inf
ROOT
ATOM      1  C   UNL     1      57.009  -1.635  83.500  1.00  0.00     0.000 C 
ENDROOT
BRANCH   1   2
ATOM      2  C   UNL     1      56.903  -3.079  84.014  1.00  0.00     0.000 C 
BRANCH   2   3
ATOM      3  C   UNL     1      57.916  -4.021  83.338  1.00  0.00     0.006 C 
BRANCH   3   4
ATOM      4  C   UNL     1      58.180  -5.282  84.173  1.00  0.00     0.053 C 
BRANCH   4   5
ATOM      5  C   UNL     1      59.542  -5.845  83.909  1.00  0.00     0.041 C 
ATOM      6  O   UNL     1      59.693  -6.772  83.070  1.00  0.00    -0.550 OA
ATOM      7  O   UNL     1      60.639  -5.370  84.615  1.00  0.00    -0.550 OA
ENDBRANCH   4   5
ENDBRANCH   3   4
ENDBRANCH   2   3
ENDBRANCH   1   2
BRANCH   1   8
ATOM      8  C   UNL     1      57.066  -0.605  84.642  1.00  0.00     0.000 C 
BRANCH   8   9
ATOM      9  C   UNL     1      58.506  -0.201  85.010  1.00  0.00    -0.000 C 
BRANCH   9  10
ATOM     10  C   UNL     1      59.528  -0.332  83.866  1.00  0.00    -0.000 C 
BRANCH  10  11
ATOM     11  C   UNL     1      60.552  -1.452  84.104  1.00  0.00    -0.000 C 
BRANCH  11  12
ATOM     12  C   UNL     1      61.022  -2.057  82.776  1.00  0.00    -0.003 C 
ATOM     13  C   UNL     1      60.278  -1.441  81.595  1.00  0.00     0.004 C 
ENDBRANCH  11  12
ENDBRANCH  10  11
ENDBRANCH   9  10
ENDBRANCH   8   9
ENDBRANCH   1   8
TORSDOF 9
ENDMDL
MODEL 2
REMARK VINA RESULT:    -4.104      1.249      1.827
REMARK INTER + INTRA:          -7.350
REMARK INTER:                  -6.388
REMARK INTRA:                  -0.961
REMARK UNBOUND:                -1.086
REMARK SMILES CCCCCCCCCCC(=O)[O-]
REMARK SMILES IDX 7 1 8 2 9 3 10 4 11 5 12 6 13 7 6 8 5 9 4 10 3 11 2 12 1 13
REMARK H PARENT
REMARK Flexibility Score: inf
ROOT
ATOM      1  C   UNL     1      57.886  -3.767  83.232  1.00  0.00     0.000 C 
ENDROOT
BRANCH   1   2
ATOM      2  C   UNL     1      57.612  -4.950  84.173  1.00  0.00     0.000 C 
BRANCH   2   3
ATOM      3  C   UNL     1      58.876  -5.778  84.463  1.00  0.00     0.006 C 
BRANCH   3   4
ATOM      4  C   UNL     1      60.161  -5.017  84.104  1.00  0.00     0.053 C 
BRANCH   4   5
ATOM      5  C   UNL     1      60.978  -5.758  83.091  1.00  0.00     0.041 C 
ATOM      6  O   UNL     1      60.887  -7.010  82.995  1.00  0.00    -0.550 OA
ATOM      7  O   UNL     1      61.865  -5.068  82.275  1.00  0.00    -0.550 OA
ENDBRANCH   4   5
ENDBRANCH   3   4
ENDBRANCH   2   3
ENDBRANCH   1   2
BRANCH   1   8
ATOM      8  C   UNL     1      57.475  -2.417  83.846  1.00  0.00     0.000 C 
BRANCH   8   9
ATOM      9  C   UNL     1      58.417  -1.267  83.445  1.00  0.00    -0.000 C 
BRANCH   9  10
ATOM     10  C   UNL     1      59.773  -1.256  84.175  1.00  0.00    -0.000 C 
BRANCH  10  11
ATOM     11  C   UNL     1      60.956  -1.561  83.245  1.00  0.00    -0.000 C 
BRANCH  11  12
ATOM     12  C   UNL     1      60.494  -1.675  81.787  1.00  0.00    -0.003 C 
ATOM     13  C   UNL     1      61.626  -1.341  80.821  1.00  0.00     0.004 C 
ENDBRANCH  11  12
ENDBRANCH  10  11
ENDBRANCH   9  10
ENDBRANCH   8   9
ENDBRANCH   1   8
TORSDOF 9
ENDMDL
MODEL 3
REMARK VINA RESULT:    -3.988      2.022      4.144
REMARK INTER + INTRA:          -7.172
REMARK INTER:                  -6.341
REMARK INTRA:                  -0.832
REMARK UNBOUND:                -1.086
REMARK SMILES CCCCCCCCCCC(=O)[O-]
REMARK SMILES IDX 7 1 8 2 9 3 10 4 11 5 12 6 13 7 6 8 5 9 4 10 3 11 2 12 1 13
REMARK H PARENT
REMARK Flexibility Score: inf
ROOT
ATOM      1  C   UNL     1      57.387  -1.487  84.613  1.00  0.00     0.000 C 
ENDROOT
BRANCH   1   2
ATOM      2  C   UNL     1      58.509  -0.521  84.201  1.00  0.00     0.000 C 
BRANCH   2   3
ATOM      3  C   UNL     1      59.756  -1.256  83.676  1.00  0.00     0.006 C 
BRANCH   3   4
ATOM      4  C   UNL     1      59.817  -1.269  82.142  1.00  0.00     0.053 C 
BRANCH   4   5
ATOM      5  C   UNL     1      61.079  -1.904  81.645  1.00  0.00     0.041 C 
ATOM      6  O   UNL     1      61.781  -1.323  80.775  1.00  0.00    -0.550 OA
ATOM      7  O   UNL     1      61.462  -3.152  82.117  1.00  0.00    -0.550 OA
ENDBRANCH   4   5
ENDBRANCH   3   4
ENDBRANCH   2   3
ENDBRANCH   1   2
BRANCH   1   8
ATOM      8  C   UNL     1      56.418  -1.794  83.459  1.00  0.00     0.000 C 
BRANCH   8   9
ATOM      9  C   UNL     1      56.606  -3.209  82.881  1.00  0.00    -0.000 C 
BRANCH   9  10
ATOM     10  C   UNL     1      57.285  -4.211  83.831  1.00  0.00    -0.000 C 
BRANCH  10  11
ATOM     11  C   UNL     1      58.666  -4.665  83.336  1.00  0.00    -0.000 C 
BRANCH  11  12
ATOM     12  C   UNL     1      59.096  -5.965  84.025  1.00  0.00    -0.003 C 
ATOM     13  C   UNL     1      60.405  -6.491  83.444  1.00  0.00     0.004 C 
ENDBRANCH  11  12
ENDBRANCH  10  11
ENDBRANCH   9  10
ENDBRANCH   8   9
ENDBRANCH   1   8
TORSDOF 9
ENDMDL
MODEL 4
REMARK VINA RESULT:    -3.981      2.074      4.294
REMARK INTER + INTRA:          -7.162
REMARK INTER:                  -6.229
REMARK INTRA:                  -0.933
REMARK UNBOUND:                -1.086
REMARK SMILES CCCCCCCCCCC(=O)[O-]
REMARK SMILES IDX 7 1 8 2 9 3 10 4 11 5 12 6 13 7 6 8 5 9 4 10 3 11 2 12 1 13
REMARK H PARENT
REMARK Flexibility Score: inf
ROOT
ATOM      1  C   UNL     1      56.880  -2.446  83.332  1.00  0.00     0.000 C 
ENDROOT
BRANCH   1   2
ATOM      2  C   UNL     1      57.543  -1.635  84.457  1.00  0.00     0.000 C 
BRANCH   2   3
ATOM      3  C   UNL     1      58.605  -0.655  83.929  1.00  0.00     0.006 C 
BRANCH   3   4
ATOM      4  C   UNL     1      60.024  -1.233  84.026  1.00  0.00     0.053 C 
BRANCH   4   5
ATOM      5  C   UNL     1      60.584  -1.554  82.674  1.00  0.00     0.041 C 
ATOM      6  O   UNL     1      61.664  -2.194  82.570  1.00  0.00    -0.550 OA
ATOM      7  O   UNL     1      59.930  -1.116  81.530  1.00  0.00    -0.550 OA
ENDBRANCH   4   5
ENDBRANCH   3   4
ENDBRANCH   2   3
ENDBRANCH   1   2
BRANCH   1   8
ATOM      8  C   UNL     1      57.626  -3.758  83.031  1.00  0.00     0.000 C 
BRANCH   8   9
ATOM      9  C   UNL     1      57.524  -4.779  84.179  1.00  0.00    -0.000 C 
BRANCH   9  10
ATOM     10  C   UNL     1      58.735  -5.720  84.317  1.00  0.00    -0.000 C 
BRANCH  10  11
ATOM     11  C   UNL     1      60.075  -5.010  84.077  1.00  0.00    -0.000 C 
BRANCH  11  12
ATOM     12  C   UNL     1      61.126  -5.987  83.538  1.00  0.00    -0.003 C 
ATOM     13  C   UNL     1      60.473  -7.255  82.996  1.00  0.00     0.004 C 
ENDBRANCH  11  12
ENDBRANCH  10  11
ENDBRANCH   9  10
ENDBRANCH   8   9
ENDBRANCH   1   8
TORSDOF 9
ENDMDL
MODEL 5
REMARK VINA RESULT:    -3.887     12.017     13.267
REMARK INTER + INTRA:          -7.017
REMARK INTER:                  -6.098
REMARK INTRA:                  -0.919
REMARK UNBOUND:                -1.086
REMARK SMILES CCCCCCCCCCC(=O)[O-]
REMARK SMILES IDX 7 1 8 2 9 3 10 4 11 5 12 6 13 7 6 8 5 9 4 10 3 11 2 12 1 13
REMARK H PARENT
REMARK Flexibility Score: inf
ROOT
ATOM      1  C   UNL     1      52.526  -0.659  72.279  1.00  0.00     0.000 C 
ENDROOT
BRANCH   1   2
ATOM      2  C   UNL     1      52.718  -1.764  73.330  1.00  0.00     0.000 C 
BRANCH   2   3
ATOM      3  C   UNL     1      53.299  -3.055  72.729  1.00  0.00     0.006 C 
BRANCH   3   4
ATOM      4  C   UNL     1      53.370  -4.192  73.758  1.00  0.00     0.053 C 
BRANCH   4   5
ATOM      5  C   UNL     1      54.770  -4.412  74.244  1.00  0.00     0.041 C 
ATOM      6  O   UNL     1      55.255  -3.669  75.137  1.00  0.00    -0.550 OA
ATOM      7  O   UNL     1      55.549  -5.417  73.685  1.00  0.00    -0.550 OA
ENDBRANCH   4   5
ENDBRANCH   3   4
ENDBRANCH   2   3
ENDBRANCH   1   2
BRANCH   1   8
ATOM      8  C   UNL     1      51.160   0.040  72.400  1.00  0.00     0.000 C 
BRANCH   8   9
ATOM      9  C   UNL     1      50.011  -0.786  71.794  1.00  0.00    -0.000 C 
BRANCH   9  10
ATOM     10  C   UNL     1      48.824  -1.036  72.742  1.00  0.00    -0.000 C 
BRANCH  10  11
ATOM     11  C   UNL     1      48.842  -2.438  73.368  1.00  0.00    -0.000 C 
BRANCH  11  12
ATOM     12  C   UNL     1      49.557  -3.438  72.453  1.00  0.00    -0.003 C 
ATOM     13  C   UNL     1      48.981  -4.842  72.614  1.00  0.00     0.004 C 
ENDBRANCH  11  12
ENDBRANCH  10  11
ENDBRANCH   9  10
ENDBRANCH   8   9
ENDBRANCH   1   8
TORSDOF 9
ENDMDL
MODEL 6
REMARK VINA RESULT:    -3.840     12.014     13.309
REMARK INTER + INTRA:          -6.946
REMARK INTER:                  -5.696
REMARK INTRA:                  -1.251
REMARK UNBOUND:                -1.086
REMARK SMILES CCCCCCCCCCC(=O)[O-]
REMARK SMILES IDX 7 1 8 2 9 3 10 4 11 5 12 6 13 7 6 8 5 9 4 10 3 11 2 12 1 13
REMARK H PARENT
REMARK Flexibility Score: inf
ROOT
ATOM      1  C   UNL     1      51.906   0.238  71.874  1.00  0.00     0.000 C 
ENDROOT
BRANCH   1   2
ATOM      2  C   UNL     1      53.169  -0.606  72.106  1.00  0.00     0.000 C 
BRANCH   2   3
ATOM      3  C   UNL     1      52.980  -1.659  73.212  1.00  0.00     0.006 C 
BRANCH   3   4
ATOM      4  C   UNL     1      53.502  -3.040  72.793  1.00  0.00     0.053 C 
BRANCH   4   5
ATOM      5  C   UNL     1      53.887  -3.870  73.979  1.00  0.00     0.041 C 
ATOM      6  O   UNL     1      53.375  -5.008  74.150  1.00  0.00    -0.550 OA
ATOM      7  O   UNL     1      54.786  -3.372  74.913  1.00  0.00    -0.550 OA
ENDBRANCH   4   5
ENDBRANCH   3   4
ENDBRANCH   2   3
ENDBRANCH   1   2
BRANCH   1   8
ATOM      8  C   UNL     1      50.741  -0.181  72.787  1.00  0.00     0.000 C 
BRANCH   8   9
ATOM      9  C   UNL     1      49.561  -0.791  72.009  1.00  0.00    -0.000 C 
BRANCH   9  10
ATOM     10  C   UNL     1      49.000  -2.096  72.601  1.00  0.00    -0.000 C 
BRANCH  10  11
ATOM     11  C   UNL     1      49.835  -3.330  72.228  1.00  0.00    -0.000 C 
BRANCH  11  12
ATOM     12  C   UNL     1      50.000  -4.266  73.431  1.00  0.00    -0.003 C 
ATOM     13  C   UNL     1      50.154  -3.476  74.727  1.00  0.00     0.004 C 
ENDBRANCH  11  12
ENDBRANCH  10  11
ENDBRANCH   9  10
ENDBRANCH   8   9
ENDBRANCH   1   8
TORSDOF 9
ENDMDL
MODEL 7
REMARK VINA RESULT:    -3.771      2.033      4.020
REMARK INTER + INTRA:          -6.841
REMARK INTER:                  -6.256
REMARK INTRA:                  -0.585
REMARK UNBOUND:                -1.086
REMARK SMILES CCCCCCCCCCC(=O)[O-]
REMARK SMILES IDX 7 1 8 2 9 3 10 4 11 5 12 6 13 7 6 8 5 9 4 10 3 11 2 12 1 13
REMARK H PARENT
REMARK Flexibility Score: inf
ROOT
ATOM      1  C   UNL     1      58.738  -0.602  84.298  1.00  0.00     0.000 C 
ENDROOT
BRANCH   1   2
ATOM      2  C   UNL     1      59.431  -1.266  83.099  1.00  0.00     0.000 C 
BRANCH   2   3
ATOM      3  C   UNL     1      60.377  -2.404  83.521  1.00  0.00     0.006 C 
BRANCH   3   4
ATOM      4  C   UNL     1      60.136  -3.687  82.713  1.00  0.00     0.053 C 
BRANCH   4   5
ATOM      5  C   UNL     1      59.666  -4.810  83.586  1.00  0.00     0.041 C 
ATOM      6  O   UNL     1      58.464  -5.184  83.547  1.00  0.00    -0.550 OA
ATOM      7  O   UNL     1      60.549  -5.422  84.467  1.00  0.00    -0.550 OA
ENDBRANCH   4   5
ENDBRANCH   3   4
ENDBRANCH   2   3
ENDBRANCH   1   2
BRANCH   1   8
ATOM      8  C   UNL     1      57.216  -0.827  84.299  1.00  0.00     0.000 C 
BRANCH   8   9
ATOM      9  C   UNL     1      56.819  -2.227  83.798  1.00  0.00    -0.000 C 
BRANCH   9  10
ATOM     10  C   UNL     1      55.664  -2.247  82.780  1.00  0.00    -0.000 C 
BRANCH  10  11
ATOM     11  C   UNL     1      55.237  -3.669  82.386  1.00  0.00    -0.000 C 
BRANCH  11  12
ATOM     12  C   UNL     1      53.808  -3.679  81.832  1.00  0.00    -0.003 C 
ATOM     13  C   UNL     1      53.126  -2.330  82.039  1.00  0.00     0.004 C 
ENDBRANCH  11  12
ENDBRANCH  10  11
ENDBRANCH   9  10
ENDBRANCH   8   9
ENDBRANCH   1   8
TORSDOF 9
ENDMDL
MODEL 8
REMARK VINA RESULT:    -3.758      3.155      5.311
REMARK INTER + INTRA:          -6.822
REMARK INTER:                  -6.040
REMARK INTRA:                  -0.782
REMARK UNBOUND:                -1.086
REMARK SMILES CCCCCCCCCCC(=O)[O-]
REMARK SMILES IDX 7 1 8 2 9 3 10 4 11 5 12 6 13 7 6 8 5 9 4 10 3 11 2 12 1 13
REMARK H PARENT
REMARK Flexibility Score: inf
ROOT
ATOM      1  C   UNL     1      59.797  -2.020  82.893  1.00  0.00     0.000 C 
ENDROOT
BRANCH   1   2
ATOM      2  C   UNL     1      60.283  -1.015  83.950  1.00  0.00     0.000 C 
BRANCH   2   3
ATOM      3  C   UNL     1      59.121  -0.283  84.645  1.00  0.00     0.006 C 
BRANCH   3   4
ATOM      4  C   UNL     1      57.762  -0.921  84.326  1.00  0.00     0.053 C 
BRANCH   4   5
ATOM      5  C   UNL     1      56.625  -0.035  84.736  1.00  0.00     0.041 C 
ATOM      6  O   UNL     1      55.576   0.013  84.040  1.00  0.00    -0.550 OA
ATOM      7  O   UNL     1      56.739   0.763  85.867  1.00  0.00    -0.550 OA
ENDBRANCH   4   5
ENDBRANCH   3   4
ENDBRANCH   2   3
ENDBRANCH   1   2
BRANCH   1   8
ATOM      8  C   UNL     1      60.949  -2.832  82.278  1.00  0.00     0.000 C 
BRANCH   8   9
ATOM      9  C   UNL     1      60.813  -4.345  82.528  1.00  0.00    -0.000 C 
BRANCH   9  10
ATOM     10  C   UNL     1      60.386  -4.730  83.956  1.00  0.00    -0.000 C 
BRANCH  10  11
ATOM     11  C   UNL     1      59.506  -5.987  84.000  1.00  0.00    -0.000 C 
BRANCH  11  12
ATOM     12  C   UNL     1      58.166  -5.696  84.685  1.00  0.00    -0.003 C 
ATOM     13  C   UNL     1      57.383  -4.624  83.933  1.00  0.00     0.004 C 
ENDBRANCH  11  12
ENDBRANCH  10  11
ENDBRANCH   9  10
ENDBRANCH   8   9
ENDBRANCH   1   8
TORSDOF 9
ENDMDL
MODEL 9
REMARK VINA RESULT:    -3.626     13.055     14.341
REMARK INTER + INTRA:          -6.619
REMARK INTER:                  -5.341
REMARK INTRA:                  -1.279
REMARK UNBOUND:                -1.086
REMARK SMILES CCCCCCCCCCC(=O)[O-]
REMARK SMILES IDX 7 1 8 2 9 3 10 4 11 5 12 6 13 7 6 8 5 9 4 10 3 11 2 12 1 13
REMARK H PARENT
REMARK Flexibility Score: inf
ROOT
ATOM      1  C   UNL     1      48.782   0.290  73.617  1.00  0.00     0.000 C 
ENDROOT
BRANCH   1   2
ATOM      2  C   UNL     1      48.654  -0.496  72.303  1.00  0.00     0.000 C 
BRANCH   2   3
ATOM      3  C   UNL     1      50.021  -0.907  71.727  1.00  0.00     0.006 C 
BRANCH   3   4
ATOM      4  C   UNL     1      51.166  -0.053  72.288  1.00  0.00     0.053 C 
BRANCH   4   5
ATOM      5  C   UNL     1      52.472  -0.787  72.255  1.00  0.00     0.041 C 
ATOM      6  O   UNL     1      52.535  -1.986  72.636  1.00  0.00    -0.550 OA
ATOM      7  O   UNL     1      53.624  -0.136  71.835  1.00  0.00    -0.550 OA
ENDBRANCH   4   5
ENDBRANCH   3   4
ENDBRANCH   2   3
ENDBRANCH   1   2
BRANCH   1   8
ATOM      8  C   UNL     1      48.158  -0.451  74.812  1.00  0.00     0.000 C 
BRANCH   8   9
ATOM      9  C   UNL     1      49.122  -1.462  75.459  1.00  0.00    -0.000 C 
BRANCH   9  10
ATOM     10  C   UNL     1      48.845  -2.935  75.111  1.00  0.00    -0.000 C 
BRANCH  10  11
ATOM     11  C   UNL     1      49.986  -3.588  74.317  1.00  0.00    -0.000 C 
BRANCH  11  12
ATOM     12  C   UNL     1      49.452  -4.290  73.063  1.00  0.00    -0.003 C 
ATOM     13  C   UNL     1      47.939  -4.135  72.947  1.00  0.00     0.004 C 
ENDBRANCH  11  12
ENDBRANCH  10  11
ENDBRANCH   9  10
ENDBRANCH   8   9
ENDBRANCH   1   8
TORSDOF 9
ENDMDL
