MODEL 1
REMARK VINA RESULT:    -4.670      0.000      0.000
REMARK INTER + INTRA:         -13.679
REMARK INTER:                 -10.131
REMARK INTRA:                  -3.548
REMARK UNBOUND:                -3.548
REMARK SMILES CCCCCCCCCCCCCCCCCCCCCC(=O)[O-]
REMARK SMILES IDX 12 1 11 2 10 3 9 4 8 5 7 6 6 7 5 8 4 9 3 10 2 11 1 12 13 13
REMARK SMILES IDX 14 14 15 15 16 16 17 17 18 18 19 19 20 20 21 21 22 22 23 23
REMARK SMILES IDX 24 24
REMARK H PARENT
REMARK Flexibility Score: inf
ROOT
ATOM      1  C   UNL     1     189.705 196.375 195.082  1.00  0.00     0.000 C 
ENDROOT
BRANCH   1   2
ATOM      2  C   UNL     1     188.533 196.547 196.069  1.00  0.00     0.000 C 
BRANCH   2   3
ATOM      3  C   UNL     1     187.218 197.056 195.445  1.00  0.00     0.000 C 
BRANCH   3   4
ATOM      4  C   UNL     1     186.049 196.057 195.493  1.00  0.00    -0.000 C 
BRANCH   4   5
ATOM      5  C   UNL     1     186.478 194.659 195.961  1.00  0.00    -0.000 C 
BRANCH   5   6
ATOM      6  C   UNL     1     186.240 193.615 194.862  1.00  0.00    -0.000 C 
BRANCH   6   7
ATOM      7  C   UNL     1     185.724 194.276 193.577  1.00  0.00    -0.000 C 
BRANCH   7   8
ATOM      8  C   UNL     1     186.205 193.510 192.336  1.00  0.00    -0.000 C 
BRANCH   8   9
ATOM      9  C   UNL     1     186.141 191.984 192.518  1.00  0.00    -0.000 C 
BRANCH   9  10
ATOM     10  C   UNL     1     186.952 191.230 191.451  1.00  0.00    -0.000 C 
BRANCH  10  11
ATOM     11  C   UNL     1     187.499 192.163 190.359  1.00  0.00    -0.003 C 
ATOM     12  C   UNL     1     186.941 191.846 188.972  1.00  0.00     0.004 C 
ENDBRANCH  10  11
ENDBRANCH   9  10
ENDBRANCH   8   9
ENDBRANCH   7   8
ENDBRANCH   6   7
ENDBRANCH   5   6
ENDBRANCH   4   5
ENDBRANCH   3   4
ENDBRANCH   2   3
ENDBRANCH   1   2
BRANCH   1  13
ATOM     13  C   UNL     1     189.456 195.373 193.940  1.00  0.00     0.000 C 
BRANCH  13  14
ATOM     14  C   UNL     1     189.932 193.950 194.280  1.00  0.00     0.000 C 
BRANCH  14  15
ATOM     15  C   UNL     1     189.624 192.947 193.154  1.00  0.00     0.000 C 
BRANCH  15  16
ATOM     16  C   UNL     1     190.462 191.662 193.266  1.00  0.00     0.000 C 
BRANCH  16  17
ATOM     17  C   UNL     1     191.407 191.470 192.069  1.00  0.00     0.000 C 
BRANCH  17  18
ATOM     18  C   UNL     1     191.441 192.692 191.135  1.00  0.00     0.000 C 
BRANCH  18  19
ATOM     19  C   UNL     1     192.803 193.402 191.140  1.00  0.00     0.000 C 
BRANCH  19  20
ATOM     20  C   UNL     1     192.702 194.872 191.584  1.00  0.00     0.006 C 
BRANCH  20  21
ATOM     21  C   UNL     1     191.423 195.547 191.071  1.00  0.00     0.053 C 
BRANCH  21  22
ATOM     22  C   UNL     1     191.445 197.027 191.306  1.00  0.00     0.041 C 
ATOM     23  O   UNL     1     191.018 197.815 190.423  1.00  0.00    -0.550 OA
ATOM     24  O   UNL     1     191.908 197.532 192.514  1.00  0.00    -0.550 OA
ENDBRANCH  21  22
ENDBRANCH  20  21
ENDBRANCH  19  20
ENDBRANCH  18  19
ENDBRANCH  17  18
ENDBRANCH  16  17
ENDBRANCH  15  16
ENDBRANCH  14  15
ENDBRANCH  13  14
ENDBRANCH   1  13
TORSDOF 20
ENDMDL
MODEL 2
REMARK VINA RESULT:    -4.445      1.272      4.081
REMARK INTER + INTRA:         -13.191
REMARK INTER:                 -10.021
REMARK INTRA:                  -3.170
REMARK UNBOUND:                -3.548
REMARK SMILES CCCCCCCCCCCCCCCCCCCCCC(=O)[O-]
REMARK SMILES IDX 12 1 11 2 10 3 9 4 8 5 7 6 6 7 5 8 4 9 3 10 2 11 1 12 13 13
REMARK SMILES IDX 14 14 15 15 16 16 17 17 18 18 19 19 20 20 21 21 22 22 23 23
REMARK SMILES IDX 24 24
REMARK H PARENT
REMARK Flexibility Score: inf
ROOT
ATOM      1  C   UNL     1     186.233 192.012 193.334  1.00  0.00     0.000 C 
ENDROOT
BRANCH   1   2
ATOM      2  C   UNL     1     185.082 192.463 194.254  1.00  0.00     0.000 C 
BRANCH   2   3
ATOM      3  C   UNL     1     184.226 193.627 193.712  1.00  0.00     0.000 C 
BRANCH   3   4
ATOM      4  C   UNL     1     184.161 194.863 194.626  1.00  0.00    -0.000 C 
BRANCH   4   5
ATOM      5  C   UNL     1     185.538 195.496 194.870  1.00  0.00    -0.000 C 
BRANCH   5   6
ATOM      6  C   UNL     1     185.806 195.662 196.372  1.00  0.00    -0.000 C 
BRANCH   6   7
ATOM      7  C   UNL     1     186.913 194.711 196.843  1.00  0.00    -0.000 C 
BRANCH   7   8
ATOM      8  C   UNL     1     187.885 194.390 195.698  1.00  0.00    -0.000 C 
BRANCH   8   9
ATOM      9  C   UNL     1     189.230 195.122 195.838  1.00  0.00    -0.000 C 
BRANCH   9  10
ATOM     10  C   UNL     1     189.435 196.189 194.749  1.00  0.00    -0.000 C 
BRANCH  10  11
ATOM     11  C   UNL     1     188.787 197.535 195.114  1.00  0.00    -0.003 C 
ATOM     12  C   UNL     1     188.935 197.882 196.595  1.00  0.00     0.004 C 
ENDBRANCH  10  11
ENDBRANCH   9  10
ENDBRANCH   8   9
ENDBRANCH   7   8
ENDBRANCH   6   7
ENDBRANCH   5   6
ENDBRANCH   4   5
ENDBRANCH   3   4
ENDBRANCH   2   3
ENDBRANCH   1   2
BRANCH   1  13
ATOM     13  C   UNL     1     186.727 193.074 192.336  1.00  0.00     0.000 C 
BRANCH  13  14
ATOM     14  C   UNL     1     188.228 192.949 192.024  1.00  0.00     0.000 C 
BRANCH  14  15
ATOM     15  C   UNL     1     188.487 192.330 190.640  1.00  0.00     0.000 C 
BRANCH  15  16
ATOM     16  C   UNL     1     189.943 191.865 190.466  1.00  0.00     0.000 C 
BRANCH  16  17
ATOM     17  C   UNL     1     190.614 191.517 191.804  1.00  0.00     0.000 C 
BRANCH  17  18
ATOM     18  C   UNL     1     191.991 192.182 191.970  1.00  0.00     0.000 C 
BRANCH  18  19
ATOM     19  C   UNL     1     192.327 193.142 190.818  1.00  0.00     0.000 C 
BRANCH  19  20
ATOM     20  C   UNL     1     192.608 194.575 191.306  1.00  0.00     0.006 C 
BRANCH  20  21
ATOM     21  C   UNL     1     191.327 195.305 191.729  1.00  0.00     0.053 C 
BRANCH  21  22
ATOM     22  C   UNL     1     191.497 196.794 191.680  1.00  0.00     0.041 C 
ATOM     23  O   UNL     1     191.144 197.439 190.659  1.00  0.00    -0.550 OA
ATOM     24  O   UNL     1     192.018 197.470 192.776  1.00  0.00    -0.550 OA
ENDBRANCH  21  22
ENDBRANCH  20  21
ENDBRANCH  19  20
ENDBRANCH  18  19
ENDBRANCH  17  18
ENDBRANCH  16  17
ENDBRANCH  15  16
ENDBRANCH  14  15
ENDBRANCH  13  14
ENDBRANCH   1  13
TORSDOF 20
ENDMDL
MODEL 3
REMARK VINA RESULT:    -4.418      3.870      7.386
REMARK INTER + INTRA:         -13.132
REMARK INTER:                 -10.371
REMARK INTRA:                  -2.760
REMARK UNBOUND:                -3.548
REMARK SMILES CCCCCCCCCCCCCCCCCCCCCC(=O)[O-]
REMARK SMILES IDX 12 1 11 2 10 3 9 4 8 5 7 6 6 7 5 8 4 9 3 10 2 11 1 12 13 13
REMARK SMILES IDX 14 14 15 15 16 16 17 17 18 18 19 19 20 20 21 21 22 22 23 23
REMARK SMILES IDX 24 24
REMARK H PARENT
REMARK Flexibility Score: inf
ROOT
ATOM      1  C   UNL     1     188.389 194.415 195.630  1.00  0.00     0.000 C 
ENDROOT
BRANCH   1   2
ATOM      2  C   UNL     1     189.293 193.869 194.506  1.00  0.00     0.000 C 
BRANCH   2   3
ATOM      3  C   UNL     1     188.620 193.748 193.124  1.00  0.00     0.000 C 
BRANCH   3   4
ATOM      4  C   UNL     1     188.667 192.341 192.502  1.00  0.00    -0.000 C 
BRANCH   4   5
ATOM      5  C   UNL     1     190.099 191.845 192.257  1.00  0.00    -0.000 C 
BRANCH   5   6
ATOM      6  C   UNL     1     190.791 192.682 191.173  1.00  0.00    -0.000 C 
BRANCH   6   7
ATOM      7  C   UNL     1     192.273 192.898 191.505  1.00  0.00    -0.000 C 
BRANCH   7   8
ATOM      8  C   UNL     1     192.680 194.360 191.270  1.00  0.00    -0.000 C 
BRANCH   8   9
ATOM      9  C   UNL     1     191.485 195.326 191.328  1.00  0.00    -0.000 C 
BRANCH   9  10
ATOM     10  C   UNL     1     191.484 196.184 192.605  1.00  0.00    -0.000 C 
BRANCH  10  11
ATOM     11  C   UNL     1     191.443 197.691 192.301  1.00  0.00    -0.003 C 
ATOM     12  C   UNL     1     192.565 198.466 192.992  1.00  0.00     0.004 C 
ENDBRANCH  10  11
ENDBRANCH   9  10
ENDBRANCH   8   9
ENDBRANCH   7   8
ENDBRANCH   6   7
ENDBRANCH   5   6
ENDBRANCH   4   5
ENDBRANCH   3   4
ENDBRANCH   2   3
ENDBRANCH   1   2
BRANCH   1  13
ATOM     13  C   UNL     1     187.232 195.314 195.159  1.00  0.00     0.000 C 
BRANCH  13  14
ATOM     14  C   UNL     1     187.466 196.802 195.469  1.00  0.00     0.000 C 
BRANCH  14  15
ATOM     15  C   UNL     1     188.748 197.341 194.812  1.00  0.00     0.000 C 
BRANCH  15  16
ATOM     16  C   UNL     1     189.765 197.857 195.843  1.00  0.00     0.000 C 
BRANCH  16  17
ATOM     17  C   UNL     1     189.225 197.806 197.281  1.00  0.00     0.000 C 
BRANCH  17  18
ATOM     18  C   UNL     1     190.236 197.210 198.276  1.00  0.00     0.000 C 
BRANCH  18  19
ATOM     19  C   UNL     1     190.254 195.674 198.252  1.00  0.00     0.000 C 
BRANCH  19  20
ATOM     20  C   UNL     1     189.404 195.055 199.376  1.00  0.00     0.006 C 
BRANCH  20  21
ATOM     21  C   UNL     1     190.268 194.443 200.486  1.00  0.00     0.053 C 
BRANCH  21  22
ATOM     22  C   UNL     1     189.429 193.902 201.605  1.00  0.00     0.041 C 
ATOM     23  O   UNL     1     188.369 194.490 201.944  1.00  0.00    -0.550 OA
ATOM     24  O   UNL     1     189.805 192.733 202.252  1.00  0.00    -0.550 OA
ENDBRANCH  21  22
ENDBRANCH  20  21
ENDBRANCH  19  20
ENDBRANCH  18  19
ENDBRANCH  17  18
ENDBRANCH  16  17
ENDBRANCH  15  16
ENDBRANCH  14  15
ENDBRANCH  13  14
ENDBRANCH   1  13
TORSDOF 20
ENDMDL
MODEL 4
REMARK VINA RESULT:    -4.401      2.191      5.423
REMARK INTER + INTRA:         -13.095
REMARK INTER:                  -9.911
REMARK INTRA:                  -3.184
REMARK UNBOUND:                -3.548
REMARK SMILES CCCCCCCCCCCCCCCCCCCCCC(=O)[O-]
REMARK SMILES IDX 12 1 11 2 10 3 9 4 8 5 7 6 6 7 5 8 4 9 3 10 2 11 1 12 13 13
REMARK SMILES IDX 14 14 15 15 16 16 17 17 18 18 19 19 20 20 21 21 22 22 23 23
REMARK SMILES IDX 24 24
REMARK H PARENT
REMARK Flexibility Score: inf
ROOT
ATOM      1  C   UNL     1     185.081 194.441 193.360  1.00  0.00     0.000 C 
ENDROOT
BRANCH   1   2
ATOM      2  C   UNL     1     184.490 193.021 193.475  1.00  0.00     0.000 C 
BRANCH   2   3
ATOM      3  C   UNL     1     185.478 191.935 193.947  1.00  0.00     0.000 C 
BRANCH   3   4
ATOM      4  C   UNL     1     185.736 190.808 192.931  1.00  0.00    -0.000 C 
BRANCH   4   5
ATOM      5  C   UNL     1     187.189 190.774 192.436  1.00  0.00    -0.000 C 
BRANCH   5   6
ATOM      6  C   UNL     1     187.338 191.547 191.119  1.00  0.00    -0.000 C 
BRANCH   6   7
ATOM      7  C   UNL     1     188.458 192.590 191.215  1.00  0.00    -0.000 C 
BRANCH   7   8
ATOM      8  C   UNL     1     189.034 192.646 192.638  1.00  0.00    -0.000 C 
BRANCH   8   9
ATOM      9  C   UNL     1     190.571 192.585 192.658  1.00  0.00    -0.000 C 
BRANCH   9  10
ATOM     10  C   UNL     1     191.185 192.753 191.258  1.00  0.00    -0.000 C 
BRANCH  10  11
ATOM     11  C   UNL     1     192.264 193.847 191.216  1.00  0.00    -0.003 C 
ATOM     12  C   UNL     1     191.699 195.246 191.454  1.00  0.00     0.004 C 
ENDBRANCH  10  11
ENDBRANCH   9  10
ENDBRANCH   8   9
ENDBRANCH   7   8
ENDBRANCH   6   7
ENDBRANCH   5   6
ENDBRANCH   4   5
ENDBRANCH   3   4
ENDBRANCH   2   3
ENDBRANCH   1   2
BRANCH   1  13
ATOM     13  C   UNL     1     184.641 195.422 194.461  1.00  0.00     0.000 C 
BRANCH  13  14
ATOM     14  C   UNL     1     185.826 196.005 195.251  1.00  0.00     0.000 C 
BRANCH  14  15
ATOM     15  C   UNL     1     185.877 195.480 196.697  1.00  0.00     0.000 C 
BRANCH  15  16
ATOM     16  C   UNL     1     187.201 194.764 197.016  1.00  0.00     0.000 C 
BRANCH  16  17
ATOM     17  C   UNL     1     187.966 194.349 195.749  1.00  0.00     0.000 C 
BRANCH  17  18
ATOM     18  C   UNL     1     189.368 194.980 195.667  1.00  0.00     0.000 C 
BRANCH  18  19
ATOM     19  C   UNL     1     189.509 195.953 194.486  1.00  0.00     0.000 C 
BRANCH  19  20
ATOM     20  C   UNL     1     189.842 197.386 194.938  1.00  0.00     0.006 C 
BRANCH  20  21
ATOM     21  C   UNL     1     188.957 197.848 196.103  1.00  0.00     0.053 C 
BRANCH  21  22
ATOM     22  C   UNL     1     189.766 198.464 197.204  1.00  0.00     0.041 C 
ATOM     23  O   UNL     1     190.825 197.909 197.600  1.00  0.00    -0.550 OA
ATOM     24  O   UNL     1     189.367 199.667 197.770  1.00  0.00    -0.550 OA
ENDBRANCH  21  22
ENDBRANCH  20  21
ENDBRANCH  19  20
ENDBRANCH  18  19
ENDBRANCH  17  18
ENDBRANCH  16  17
ENDBRANCH  15  16
ENDBRANCH  14  15
ENDBRANCH  13  14
ENDBRANCH   1  13
TORSDOF 20
ENDMDL
MODEL 5
REMARK VINA RESULT:    -4.401      1.866      4.242
REMARK INTER + INTRA:         -13.094
REMARK INTER:                 -10.405
REMARK INTRA:                  -2.689
REMARK UNBOUND:                -3.548
REMARK SMILES CCCCCCCCCCCCCCCCCCCCCC(=O)[O-]
REMARK SMILES IDX 12 1 11 2 10 3 9 4 8 5 7 6 6 7 5 8 4 9 3 10 2 11 1 12 13 13
REMARK SMILES IDX 14 14 15 15 16 16 17 17 18 18 19 19 20 20 21 21 22 22 23 23
REMARK SMILES IDX 24 24
REMARK H PARENT
REMARK Flexibility Score: inf
ROOT
ATOM      1  C   UNL     1     188.196 192.676 192.638  1.00  0.00     0.000 C 
ENDROOT
BRANCH   1   2
ATOM      2  C   UNL     1     188.885 193.933 193.207  1.00  0.00     0.000 C 
BRANCH   2   3
ATOM      3  C   UNL     1     189.651 193.721 194.528  1.00  0.00     0.000 C 
BRANCH   3   4
ATOM      4  C   UNL     1     189.239 194.662 195.674  1.00  0.00    -0.000 C 
BRANCH   4   5
ATOM      5  C   UNL     1     187.794 194.434 196.142  1.00  0.00    -0.000 C 
BRANCH   5   6
ATOM      6  C   UNL     1     187.114 195.765 196.487  1.00  0.00    -0.000 C 
BRANCH   6   7
ATOM      7  C   UNL     1     186.451 196.383 195.250  1.00  0.00    -0.000 C 
BRANCH   7   8
ATOM      8  C   UNL     1     185.754 195.305 194.406  1.00  0.00    -0.000 C 
BRANCH   8   9
ATOM      9  C   UNL     1     184.276 195.115 194.789  1.00  0.00    -0.000 C 
BRANCH   9  10
ATOM     10  C   UNL     1     184.000 193.728 195.395  1.00  0.00    -0.000 C 
BRANCH  10  11
ATOM     11  C   UNL     1     183.691 193.794 196.899  1.00  0.00    -0.003 C 
ATOM     12  C   UNL     1     183.243 195.182 197.352  1.00  0.00     0.004 C 
ENDBRANCH  10  11
ENDBRANCH   9  10
ENDBRANCH   8   9
ENDBRANCH   7   8
ENDBRANCH   6   7
ENDBRANCH   5   6
ENDBRANCH   4   5
ENDBRANCH   3   4
ENDBRANCH   2   3
ENDBRANCH   1   2
BRANCH   1  13
ATOM     13  C   UNL     1     188.853 192.086 191.377  1.00  0.00     0.000 C 
BRANCH  13  14
ATOM     14  C   UNL     1     190.246 191.495 191.650  1.00  0.00     0.000 C 
BRANCH  14  15
ATOM     15  C   UNL     1     191.346 192.190 190.830  1.00  0.00     0.000 C 
BRANCH  15  16
ATOM     16  C   UNL     1     192.240 193.096 191.694  1.00  0.00     0.000 C 
BRANCH  16  17
ATOM     17  C   UNL     1     192.672 194.374 190.958  1.00  0.00     0.000 C 
BRANCH  17  18
ATOM     18  C   UNL     1     191.714 195.554 191.203  1.00  0.00     0.000 C 
BRANCH  18  19
ATOM     19  C   UNL     1     191.848 196.139 192.617  1.00  0.00     0.000 C 
BRANCH  19  20
ATOM     20  C   UNL     1     191.171 197.515 192.753  1.00  0.00     0.006 C 
BRANCH  20  21
ATOM     21  C   UNL     1     191.832 198.577 191.866  1.00  0.00     0.053 C 
BRANCH  21  22
ATOM     22  C   UNL     1     192.923 199.304 192.592  1.00  0.00     0.041 C 
ATOM     23  O   UNL     1     193.522 198.755 193.552  1.00  0.00    -0.550 OA
ATOM     24  O   UNL     1     193.298 200.578 192.186  1.00  0.00    -0.550 OA
ENDBRANCH  21  22
ENDBRANCH  20  21
ENDBRANCH  19  20
ENDBRANCH  18  19
ENDBRANCH  17  18
ENDBRANCH  16  17
ENDBRANCH  15  16
ENDBRANCH  14  15
ENDBRANCH  13  14
ENDBRANCH   1  13
TORSDOF 20
ENDMDL
MODEL 6
REMARK VINA RESULT:    -4.359      2.515      6.489
REMARK INTER + INTRA:         -13.003
REMARK INTER:                 -10.157
REMARK INTRA:                  -2.846
REMARK UNBOUND:                -3.548
REMARK SMILES CCCCCCCCCCCCCCCCCCCCCC(=O)[O-]
REMARK SMILES IDX 12 1 11 2 10 3 9 4 8 5 7 6 6 7 5 8 4 9 3 10 2 11 1 12 13 13
REMARK SMILES IDX 14 14 15 15 16 16 17 17 18 18 19 19 20 20 21 21 22 22 23 23
REMARK SMILES IDX 24 24
REMARK H PARENT
REMARK Flexibility Score: inf
ROOT
ATOM      1  C   UNL     1     187.060 193.151 193.370  1.00  0.00     0.000 C 
ENDROOT
BRANCH   1   2
ATOM      2  C   UNL     1     188.484 193.741 193.331  1.00  0.00     0.000 C 
BRANCH   2   3
ATOM      3  C   UNL     1     189.626 192.707 193.392  1.00  0.00     0.000 C 
BRANCH   3   4
ATOM      4  C   UNL     1     189.560 191.605 192.320  1.00  0.00    -0.000 C 
BRANCH   4   5
ATOM      5  C   UNL     1     190.581 191.809 191.192  1.00  0.00    -0.000 C 
BRANCH   5   6
ATOM      6  C   UNL     1     191.933 192.267 191.753  1.00  0.00    -0.000 C 
BRANCH   6   7
ATOM      7  C   UNL     1     192.599 193.290 190.824  1.00  0.00    -0.000 C 
BRANCH   7   8
ATOM      8  C   UNL     1     192.705 194.662 191.506  1.00  0.00    -0.000 C 
BRANCH   8   9
ATOM      9  C   UNL     1     191.378 195.440 191.484  1.00  0.00    -0.000 C 
BRANCH   9  10
ATOM     10  C   UNL     1     191.123 196.204 192.795  1.00  0.00    -0.000 C 
BRANCH  10  11
ATOM     11  C   UNL     1     190.993 197.720 192.576  1.00  0.00    -0.003 C 
ATOM     12  C   UNL     1     191.333 198.145 191.149  1.00  0.00     0.004 C 
ENDBRANCH  10  11
ENDBRANCH   9  10
ENDBRANCH   8   9
ENDBRANCH   7   8
ENDBRANCH   6   7
ENDBRANCH   5   6
ENDBRANCH   4   5
ENDBRANCH   3   4
ENDBRANCH   2   3
ENDBRANCH   1   2
BRANCH   1  13
ATOM     13  C   UNL     1     185.932 194.144 193.040  1.00  0.00     0.000 C 
BRANCH  13  14
ATOM     14  C   UNL     1     185.046 194.467 194.255  1.00  0.00     0.000 C 
BRANCH  14  15
ATOM     15  C   UNL     1     185.084 193.356 195.318  1.00  0.00     0.000 C 
BRANCH  15  16
ATOM     16  C   UNL     1     184.910 193.901 196.746  1.00  0.00     0.000 C 
BRANCH  16  17
ATOM     17  C   UNL     1     185.679 195.212 196.973  1.00  0.00     0.000 C 
BRANCH  17  18
ATOM     18  C   UNL     1     187.107 194.981 197.499  1.00  0.00     0.000 C 
BRANCH  18  19
ATOM     19  C   UNL     1     188.184 195.396 196.484  1.00  0.00     0.000 C 
BRANCH  19  20
ATOM     20  C   UNL     1     187.999 196.840 195.984  1.00  0.00     0.006 C 
BRANCH  20  21
ATOM     21  C   UNL     1     189.323 197.615 195.946  1.00  0.00     0.053 C 
BRANCH  21  22
ATOM     22  C   UNL     1     189.679 198.169 197.293  1.00  0.00     0.041 C 
ATOM     23  O   UNL     1     190.400 197.504 198.082  1.00  0.00    -0.550 OA
ATOM     24  O   UNL     1     189.238 199.432 197.663  1.00  0.00    -0.550 OA
ENDBRANCH  21  22
ENDBRANCH  20  21
ENDBRANCH  19  20
ENDBRANCH  18  19
ENDBRANCH  17  18
ENDBRANCH  16  17
ENDBRANCH  15  16
ENDBRANCH  14  15
ENDBRANCH  13  14
ENDBRANCH   1  13
TORSDOF 20
ENDMDL
MODEL 7
REMARK VINA RESULT:    -4.358      2.449      5.802
REMARK INTER + INTRA:         -13.001
REMARK INTER:                 -10.259
REMARK INTRA:                  -2.741
REMARK UNBOUND:                -3.548
REMARK SMILES CCCCCCCCCCCCCCCCCCCCCC(=O)[O-]
REMARK SMILES IDX 12 1 11 2 10 3 9 4 8 5 7 6 6 7 5 8 4 9 3 10 2 11 1 12 13 13
REMARK SMILES IDX 14 14 15 15 16 16 17 17 18 18 19 19 20 20 21 21 22 22 23 23
REMARK SMILES IDX 24 24
REMARK H PARENT
REMARK Flexibility Score: inf
ROOT
ATOM      1  C   UNL     1     192.806 195.217 191.597  1.00  0.00     0.000 C 
ENDROOT
BRANCH   1   2
ATOM      2  C   UNL     1     192.913 193.707 191.303  1.00  0.00     0.000 C 
BRANCH   2   3
ATOM      3  C   UNL     1     191.581 192.931 191.360  1.00  0.00     0.000 C 
BRANCH   3   4
ATOM      4  C   UNL     1     191.671 191.536 192.002  1.00  0.00    -0.000 C 
BRANCH   4   5
ATOM      5  C   UNL     1     190.320 191.039 192.539  1.00  0.00    -0.000 C 
BRANCH   5   6
ATOM      6  C   UNL     1     189.370 192.215 192.805  1.00  0.00    -0.000 C 
BRANCH   6   7
ATOM      7  C   UNL     1     187.915 191.822 192.525  1.00  0.00    -0.000 C 
BRANCH   7   8
ATOM      8  C   UNL     1     186.951 192.613 193.422  1.00  0.00    -0.000 C 
BRANCH   8   9
ATOM      9  C   UNL     1     186.248 193.758 192.673  1.00  0.00    -0.000 C 
BRANCH   9  10
ATOM     10  C   UNL     1     185.434 194.663 193.614  1.00  0.00    -0.000 C 
BRANCH  10  11
ATOM     11  C   UNL     1     185.511 194.208 195.080  1.00  0.00    -0.003 C 
ATOM     12  C   UNL     1     185.436 195.372 196.068  1.00  0.00     0.004 C 
ENDBRANCH  10  11
ENDBRANCH   9  10
ENDBRANCH   8   9
ENDBRANCH   7   8
ENDBRANCH   6   7
ENDBRANCH   5   6
ENDBRANCH   4   5
ENDBRANCH   3   4
ENDBRANCH   2   3
ENDBRANCH   1   2
BRANCH   1  13
ATOM     13  C   UNL     1     191.424 195.839 191.327  1.00  0.00     0.000 C 
BRANCH  13  14
ATOM     14  C   UNL     1     191.211 197.168 192.072  1.00  0.00     0.000 C 
BRANCH  14  15
ATOM     15  C   UNL     1     190.832 196.956 193.548  1.00  0.00     0.000 C 
BRANCH  15  16
ATOM     16  C   UNL     1     190.124 195.611 193.786  1.00  0.00     0.000 C 
BRANCH  16  17
ATOM     17  C   UNL     1     188.938 195.733 194.757  1.00  0.00     0.000 C 
BRANCH  17  18
ATOM     18  C   UNL     1     189.117 194.878 196.024  1.00  0.00     0.000 C 
BRANCH  18  19
ATOM     19  C   UNL     1     189.679 195.684 197.205  1.00  0.00     0.000 C 
BRANCH  19  20
ATOM     20  C   UNL     1     189.369 197.187 197.096  1.00  0.00     0.006 C 
BRANCH  20  21
ATOM     21  C   UNL     1     190.593 198.057 197.411  1.00  0.00     0.053 C 
BRANCH  21  22
ATOM     22  C   UNL     1     190.197 199.442 197.824  1.00  0.00     0.041 C 
ATOM     23  O   UNL     1     191.074 200.330 197.988  1.00  0.00    -0.550 OA
ATOM     24  O   UNL     1     188.856 199.759 197.997  1.00  0.00    -0.550 OA
ENDBRANCH  21  22
ENDBRANCH  20  21
ENDBRANCH  19  20
ENDBRANCH  18  19
ENDBRANCH  17  18
ENDBRANCH  16  17
ENDBRANCH  15  16
ENDBRANCH  14  15
ENDBRANCH  13  14
ENDBRANCH   1  13
TORSDOF 20
ENDMDL
MODEL 8
REMARK VINA RESULT:    -4.313      1.384      3.978
REMARK INTER + INTRA:         -12.903
REMARK INTER:                  -9.540
REMARK INTRA:                  -3.363
REMARK UNBOUND:                -3.548
REMARK SMILES CCCCCCCCCCCCCCCCCCCCCC(=O)[O-]
REMARK SMILES IDX 12 1 11 2 10 3 9 4 8 5 7 6 6 7 5 8 4 9 3 10 2 11 1 12 13 13
REMARK SMILES IDX 14 14 15 15 16 16 17 17 18 18 19 19 20 20 21 21 22 22 23 23
REMARK SMILES IDX 24 24
REMARK H PARENT
REMARK Flexibility Score: inf
ROOT
ATOM      1  C   UNL     1     185.959 196.020 195.472  1.00  0.00     0.000 C 
ENDROOT
BRANCH   1   2
ATOM      2  C   UNL     1     185.825 194.990 194.332  1.00  0.00     0.000 C 
BRANCH   2   3
ATOM      3  C   UNL     1     185.271 193.614 194.752  1.00  0.00     0.000 C 
BRANCH   3   4
ATOM      4  C   UNL     1     185.217 192.566 193.627  1.00  0.00    -0.000 C 
BRANCH   4   5
ATOM      5  C   UNL     1     186.607 192.055 193.221  1.00  0.00    -0.000 C 
BRANCH   5   6
ATOM      6  C   UNL     1     186.986 192.551 191.820  1.00  0.00    -0.000 C 
BRANCH   6   7
ATOM      7  C   UNL     1     188.073 191.666 191.197  1.00  0.00    -0.000 C 
BRANCH   7   8
ATOM      8  C   UNL     1     188.743 190.788 192.264  1.00  0.00    -0.000 C 
BRANCH   8   9
ATOM      9  C   UNL     1     190.198 191.199 192.544  1.00  0.00    -0.000 C 
BRANCH   9  10
ATOM     10  C   UNL     1     190.779 192.096 191.438  1.00  0.00    -0.000 C 
BRANCH  10  11
ATOM     11  C   UNL     1     192.274 192.392 191.645  1.00  0.00    -0.003 C 
ATOM     12  C   UNL     1     192.760 193.588 190.828  1.00  0.00     0.004 C 
ENDBRANCH  10  11
ENDBRANCH   9  10
ENDBRANCH   8   9
ENDBRANCH   7   8
ENDBRANCH   6   7
ENDBRANCH   5   6
ENDBRANCH   4   5
ENDBRANCH   3   4
ENDBRANCH   2   3
ENDBRANCH   1   2
BRANCH   1  13
ATOM     13  C   UNL     1     187.017 197.114 195.243  1.00  0.00     0.000 C 
BRANCH  13  14
ATOM     14  C   UNL     1     188.098 197.139 196.337  1.00  0.00     0.000 C 
BRANCH  14  15
ATOM     15  C   UNL     1     188.402 195.736 196.890  1.00  0.00     0.000 C 
BRANCH  15  16
ATOM     16  C   UNL     1     189.604 195.076 196.191  1.00  0.00     0.000 C 
BRANCH  16  17
ATOM     17  C   UNL     1     189.177 194.077 195.103  1.00  0.00     0.000 C 
BRANCH  17  18
ATOM     18  C   UNL     1     189.292 194.659 193.683  1.00  0.00     0.000 C 
BRANCH  18  19
ATOM     19  C   UNL     1     190.709 195.158 193.362  1.00  0.00     0.000 C 
BRANCH  19  20
ATOM     20  C   UNL     1     190.715 196.579 192.771  1.00  0.00     0.006 C 
BRANCH  20  21
ATOM     21  C   UNL     1     191.360 197.599 193.717  1.00  0.00     0.053 C 
BRANCH  21  22
ATOM     22  C   UNL     1     192.443 198.380 193.036  1.00  0.00     0.041 C 
ATOM     23  O   UNL     1     193.576 198.494 193.571  1.00  0.00    -0.550 OA
ATOM     24  O   UNL     1     192.207 198.956 191.795  1.00  0.00    -0.550 OA
ENDBRANCH  21  22
ENDBRANCH  20  21
ENDBRANCH  19  20
ENDBRANCH  18  19
ENDBRANCH  17  18
ENDBRANCH  16  17
ENDBRANCH  15  16
ENDBRANCH  14  15
ENDBRANCH  13  14
ENDBRANCH   1  13
TORSDOF 20
ENDMDL
MODEL 9
REMARK VINA RESULT:    -4.283      2.368      4.868
REMARK INTER + INTRA:         -12.839
REMARK INTER:                  -9.434
REMARK INTRA:                  -3.405
REMARK UNBOUND:                -3.548
REMARK SMILES CCCCCCCCCCCCCCCCCCCCCC(=O)[O-]
REMARK SMILES IDX 12 1 11 2 10 3 9 4 8 5 7 6 6 7 5 8 4 9 3 10 2 11 1 12 13 13
REMARK SMILES IDX 14 14 15 15 16 16 17 17 18 18 19 19 20 20 21 21 22 22 23 23
REMARK SMILES IDX 24 24
REMARK H PARENT
REMARK Flexibility Score: inf
ROOT
ATOM      1  C   UNL     1     185.900 194.127 193.099  1.00  0.00     0.000 C 
ENDROOT
BRANCH   1   2
ATOM      2  C   UNL     1     184.502 194.546 193.596  1.00  0.00     0.000 C 
BRANCH   2   3
ATOM      3  C   UNL     1     184.492 195.632 194.691  1.00  0.00     0.000 C 
BRANCH   3   4
ATOM      4  C   UNL     1     184.108 195.134 196.095  1.00  0.00    -0.000 C 
BRANCH   4   5
ATOM      5  C   UNL     1     185.128 194.143 196.675  1.00  0.00    -0.000 C 
BRANCH   5   6
ATOM      6  C   UNL     1     186.094 194.851 197.634  1.00  0.00    -0.000 C 
BRANCH   6   7
ATOM      7  C   UNL     1     187.469 195.051 196.984  1.00  0.00    -0.000 C 
BRANCH   7   8
ATOM      8  C   UNL     1     187.624 196.486 196.460  1.00  0.00    -0.000 C 
BRANCH   8   9
ATOM      9  C   UNL     1     188.110 196.536 195.002  1.00  0.00    -0.000 C 
BRANCH   9  10
ATOM     10  C   UNL     1     189.033 195.358 194.649  1.00  0.00    -0.000 C 
BRANCH  10  11
ATOM     11  C   UNL     1     190.262 195.796 193.835  1.00  0.00    -0.003 C 
ATOM     12  C   UNL     1     190.444 197.313 193.807  1.00  0.00     0.004 C 
ENDBRANCH  10  11
ENDBRANCH   9  10
ENDBRANCH   8   9
ENDBRANCH   7   8
ENDBRANCH   6   7
ENDBRANCH   5   6
ENDBRANCH   4   5
ENDBRANCH   3   4
ENDBRANCH   2   3
ENDBRANCH   1   2
BRANCH   1  13
ATOM     13  C   UNL     1     186.391 192.760 193.608  1.00  0.00     0.000 C 
BRANCH  13  14
ATOM     14  C   UNL     1     185.605 191.581 193.010  1.00  0.00     0.000 C 
BRANCH  14  15
ATOM     15  C   UNL     1     186.438 190.290 192.958  1.00  0.00     0.000 C 
BRANCH  15  16
ATOM     16  C   UNL     1     187.264 190.174 191.666  1.00  0.00     0.000 C 
BRANCH  16  17
ATOM     17  C   UNL     1     186.641 190.953 190.497  1.00  0.00     0.000 C 
BRANCH  17  18
ATOM     18  C   UNL     1     187.487 192.167 190.072  1.00  0.00     0.000 C 
BRANCH  18  19
ATOM     19  C   UNL     1     188.990 191.950 190.305  1.00  0.00     0.000 C 
BRANCH  19  20
ATOM     20  C   UNL     1     189.590 192.973 191.285  1.00  0.00     0.006 C 
BRANCH  20  21
ATOM     21  C   UNL     1     189.905 192.352 192.652  1.00  0.00     0.053 C 
BRANCH  21  22
ATOM     22  C   UNL     1     191.123 191.481 192.598  1.00  0.00     0.041 C 
ATOM     23  O   UNL     1     192.125 191.834 191.922  1.00  0.00    -0.550 OA
ATOM     24  O   UNL     1     191.162 190.295 193.319  1.00  0.00    -0.550 OA
ENDBRANCH  21  22
ENDBRANCH  20  21
ENDBRANCH  19  20
ENDBRANCH  18  19
ENDBRANCH  17  18
ENDBRANCH  16  17
ENDBRANCH  15  16
ENDBRANCH  14  15
ENDBRANCH  13  14
ENDBRANCH   1  13
TORSDOF 20
ENDMDL
