MODEL 1
REMARK VINA RESULT:    -5.300      0.000      0.000
REMARK INTER + INTRA:         -11.614
REMARK INTER:                  -9.638
REMARK INTRA:                  -1.976
REMARK UNBOUND:                -1.976
REMARK SMILES CCCCCCCCCCCCCCCC(=O)[O-]
REMARK SMILES IDX 9 1 10 2 11 3 12 4 13 5 14 6 15 7 16 8 17 9 18 10 8 11 7 12
REMARK SMILES IDX 6 13 5 14 4 15 3 16 2 17 1 18
REMARK H PARENT
REMARK Flexibility Score: inf
ROOT
ATOM      1  C   UNL     1     -16.997  55.860  -2.750  1.00  0.00     0.000 C 
ENDROOT
BRANCH   1   2
ATOM      2  C   UNL     1     -18.179  56.420  -3.563  1.00  0.00     0.000 C 
BRANCH   2   3
ATOM      3  C   UNL     1     -19.446  55.560  -3.447  1.00  0.00     0.000 C 
BRANCH   3   4
ATOM      4  C   UNL     1     -20.676  56.431  -3.159  1.00  0.00     0.000 C 
BRANCH   4   5
ATOM      5  C   UNL     1     -21.305  56.064  -1.806  1.00  0.00     0.000 C 
BRANCH   5   6
ATOM      6  C   UNL     1     -21.919  54.655  -1.803  1.00  0.00     0.006 C 
BRANCH   6   7
ATOM      7  C   UNL     1     -21.547  53.851  -0.550  1.00  0.00     0.053 C 
BRANCH   7   8
ATOM      8  C   UNL     1     -20.519  52.815  -0.882  1.00  0.00     0.041 C 
ATOM      9  O   UNL     1     -19.836  52.284   0.034  1.00  0.00    -0.550 OA
ATOM     10  O   UNL     1     -20.278  52.473  -2.207  1.00  0.00    -0.550 OA
ENDBRANCH   7   8
ENDBRANCH   6   7
ENDBRANCH   5   6
ENDBRANCH   4   5
ENDBRANCH   3   4
ENDBRANCH   2   3
ENDBRANCH   1   2
BRANCH   1  11
ATOM     11  C   UNL     1     -17.320  54.611  -1.910  1.00  0.00     0.000 C 
BRANCH  11  12
ATOM     12  C   UNL     1     -16.467  54.505  -0.637  1.00  0.00    -0.000 C 
BRANCH  12  13
ATOM     13  C   UNL     1     -17.320  54.740   0.618  1.00  0.00    -0.000 C 
BRANCH  13  14
ATOM     14  C   UNL     1     -18.425  55.790   0.405  1.00  0.00    -0.000 C 
BRANCH  14  15
ATOM     15  C   UNL     1     -17.958  57.253   0.521  1.00  0.00    -0.000 C 
BRANCH  15  16
ATOM     16  C   UNL     1     -16.604  57.393   1.237  1.00  0.00    -0.000 C 
BRANCH  16  17
ATOM     17  C   UNL     1     -15.518  57.990   0.330  1.00  0.00    -0.003 C 
ATOM     18  C   UNL     1     -14.784  59.161   0.981  1.00  0.00     0.004 C 
ENDBRANCH  16  17
ENDBRANCH  15  16
ENDBRANCH  14  15
ENDBRANCH  13  14
ENDBRANCH  12  13
ENDBRANCH  11  12
ENDBRANCH   1  11
TORSDOF 14
ENDMDL
MODEL 2
REMARK VINA RESULT:    -5.168      0.996      2.081
REMARK INTER + INTRA:         -11.374
REMARK INTER:                  -9.814
REMARK INTRA:                  -1.560
REMARK UNBOUND:                -1.976
REMARK SMILES CCCCCCCCCCCCCCCC(=O)[O-]
REMARK SMILES IDX 9 1 10 2 11 3 12 4 13 5 14 6 15 7 16 8 17 9 18 10 8 11 7 12
REMARK SMILES IDX 6 13 5 14 4 15 3 16 2 17 1 18
REMARK H PARENT
REMARK Flexibility Score: inf
ROOT
ATOM      1  C   UNL     1     -19.473  56.560  -2.870  1.00  0.00     0.000 C 
ENDROOT
BRANCH   1   2
ATOM      2  C   UNL     1     -20.816  56.503  -3.622  1.00  0.00     0.000 C 
BRANCH   2   3
ATOM      3  C   UNL     1     -22.029  56.662  -2.695  1.00  0.00     0.000 C 
BRANCH   3   4
ATOM      4  C   UNL     1     -22.708  55.310  -2.441  1.00  0.00     0.000 C 
BRANCH   4   5
ATOM      5  C   UNL     1     -22.799  55.015  -0.936  1.00  0.00     0.000 C 
BRANCH   5   6
ATOM      6  C   UNL     1     -22.118  53.692  -0.551  1.00  0.00     0.006 C 
BRANCH   6   7
ATOM      7  C   UNL     1     -20.588  53.772  -0.625  1.00  0.00     0.053 C 
BRANCH   7   8
ATOM      8  C   UNL     1     -20.057  52.743  -1.572  1.00  0.00     0.041 C 
ATOM      9  O   UNL     1     -19.941  53.011  -2.798  1.00  0.00    -0.550 OA
ATOM     10  O   UNL     1     -19.739  51.471  -1.112  1.00  0.00    -0.550 OA
ENDBRANCH   7   8
ENDBRANCH   6   7
ENDBRANCH   5   6
ENDBRANCH   4   5
ENDBRANCH   3   4
ENDBRANCH   2   3
ENDBRANCH   1   2
BRANCH   1  11
ATOM     11  C   UNL     1     -18.228  56.327  -3.745  1.00  0.00     0.000 C 
BRANCH  11  12
ATOM     12  C   UNL     1     -16.936  56.184  -2.926  1.00  0.00    -0.000 C 
BRANCH  12  13
ATOM     13  C   UNL     1     -16.929  54.868  -2.136  1.00  0.00    -0.000 C 
BRANCH  13  14
ATOM     14  C   UNL     1     -16.913  55.082  -0.611  1.00  0.00    -0.000 C 
BRANCH  14  15
ATOM     15  C   UNL     1     -17.026  56.551  -0.164  1.00  0.00    -0.000 C 
BRANCH  15  16
ATOM     16  C   UNL     1     -15.758  57.060   0.543  1.00  0.00    -0.000 C 
BRANCH  16  17
ATOM     17  C   UNL     1     -15.505  58.554   0.293  1.00  0.00    -0.003 C 
ATOM     18  C   UNL     1     -14.280  59.079   1.041  1.00  0.00     0.004 C 
ENDBRANCH  16  17
ENDBRANCH  15  16
ENDBRANCH  14  15
ENDBRANCH  13  14
ENDBRANCH  12  13
ENDBRANCH  11  12
ENDBRANCH   1  11
TORSDOF 14
ENDMDL
MODEL 3
REMARK VINA RESULT:    -5.097      2.800      5.556
REMARK INTER + INTRA:         -11.244
REMARK INTER:                  -9.239
REMARK INTRA:                  -2.005
REMARK UNBOUND:                -1.976
REMARK SMILES CCCCCCCCCCCCCCCC(=O)[O-]
REMARK SMILES IDX 9 1 10 2 11 3 12 4 13 5 14 6 15 7 16 8 17 9 18 10 8 11 7 12
REMARK SMILES IDX 6 13 5 14 4 15 3 16 2 17 1 18
REMARK H PARENT
REMARK Flexibility Score: inf
ROOT
ATOM      1  C   UNL     1     -22.971  54.759  -0.296  1.00  0.00     0.000 C 
ENDROOT
BRANCH   1   2
ATOM      2  C   UNL     1     -22.385  56.181  -0.366  1.00  0.00     0.000 C 
BRANCH   2   3
ATOM      3  C   UNL     1     -21.946  56.716   1.004  1.00  0.00     0.000 C 
BRANCH   3   4
ATOM      4  C   UNL     1     -20.468  57.126   0.986  1.00  0.00     0.000 C 
BRANCH   4   5
ATOM      5  C   UNL     1     -19.645  56.177   0.101  1.00  0.00     0.000 C 
BRANCH   5   6
ATOM      6  C   UNL     1     -18.131  56.345   0.302  1.00  0.00     0.006 C 
BRANCH   6   7
ATOM      7  C   UNL     1     -17.749  57.758   0.763  1.00  0.00     0.053 C 
BRANCH   7   8
ATOM      8  C   UNL     1     -16.264  57.936   0.724  1.00  0.00     0.041 C 
ATOM      9  O   UNL     1     -15.511  56.941   0.557  1.00  0.00    -0.550 OA
ATOM     10  O   UNL     1     -15.709  59.194   0.923  1.00  0.00    -0.550 OA
ENDBRANCH   7   8
ENDBRANCH   6   7
ENDBRANCH   5   6
ENDBRANCH   4   5
ENDBRANCH   3   4
ENDBRANCH   2   3
ENDBRANCH   1   2
BRANCH   1  11
ATOM     11  C   UNL     1     -22.265  53.721  -1.188  1.00  0.00     0.000 C 
BRANCH  11  12
ATOM     12  C   UNL     1     -21.047  53.074  -0.510  1.00  0.00    -0.000 C 
BRANCH  12  13
ATOM     13  C   UNL     1     -20.167  52.348  -1.536  1.00  0.00    -0.000 C 
BRANCH  13  14
ATOM     14  C   UNL     1     -18.934  53.168  -1.958  1.00  0.00    -0.000 C 
BRANCH  14  15
ATOM     15  C   UNL     1     -19.154  54.088  -3.173  1.00  0.00    -0.000 C 
BRANCH  15  16
ATOM     16  C   UNL     1     -18.121  55.224  -3.257  1.00  0.00    -0.000 C 
BRANCH  16  17
ATOM     17  C   UNL     1     -18.763  56.577  -3.601  1.00  0.00    -0.003 C 
ATOM     18  C   UNL     1     -20.282  56.567  -3.440  1.00  0.00     0.004 C 
ENDBRANCH  16  17
ENDBRANCH  15  16
ENDBRANCH  14  15
ENDBRANCH  13  14
ENDBRANCH  12  13
ENDBRANCH  11  12
ENDBRANCH   1  11
TORSDOF 14
ENDMDL
MODEL 4
REMARK VINA RESULT:    -5.094      1.843      3.395
REMARK INTER + INTRA:         -11.239
REMARK INTER:                  -9.661
REMARK INTRA:                  -1.577
REMARK UNBOUND:                -1.976
REMARK SMILES CCCCCCCCCCCCCCCC(=O)[O-]
REMARK SMILES IDX 9 1 10 2 11 3 12 4 13 5 14 6 15 7 16 8 17 9 18 10 8 11 7 12
REMARK SMILES IDX 6 13 5 14 4 15 3 16 2 17 1 18
REMARK H PARENT
REMARK Flexibility Score: inf
ROOT
ATOM      1  C   UNL     1     -21.168  53.093  -1.328  1.00  0.00     0.000 C 
ENDROOT
BRANCH   1   2
ATOM      2  C   UNL     1     -21.887  53.943  -0.264  1.00  0.00     0.000 C 
BRANCH   2   3
ATOM      3  C   UNL     1     -23.153  54.628  -0.799  1.00  0.00     0.000 C 
BRANCH   3   4
ATOM      4  C   UNL     1     -22.998  54.988  -2.282  1.00  0.00     0.000 C 
BRANCH   4   5
ATOM      5  C   UNL     1     -22.381  56.386  -2.446  1.00  0.00     0.000 C 
BRANCH   5   6
ATOM      6  C   UNL     1     -21.110  56.373  -3.309  1.00  0.00     0.006 C 
BRANCH   6   7
ATOM      7  C   UNL     1     -19.828  56.279  -2.471  1.00  0.00     0.053 C 
BRANCH   7   8
ATOM      8  C   UNL     1     -18.633  56.138  -3.361  1.00  0.00     0.041 C 
ATOM      9  O   UNL     1     -18.319  55.011  -3.827  1.00  0.00    -0.550 OA
ATOM     10  O   UNL     1     -17.835  57.242  -3.633  1.00  0.00    -0.550 OA
ENDBRANCH   7   8
ENDBRANCH   6   7
ENDBRANCH   5   6
ENDBRANCH   4   5
ENDBRANCH   3   4
ENDBRANCH   2   3
ENDBRANCH   1   2
BRANCH   1  11
ATOM     11  C   UNL     1     -19.672  52.845  -1.059  1.00  0.00     0.000 C 
BRANCH  11  12
ATOM     12  C   UNL     1     -19.115  53.710   0.082  1.00  0.00    -0.000 C 
BRANCH  12  13
ATOM     13  C   UNL     1     -17.683  54.169  -0.226  1.00  0.00    -0.000 C 
BRANCH  13  14
ATOM     14  C   UNL     1     -17.222  55.338   0.663  1.00  0.00    -0.000 C 
BRANCH  14  15
ATOM     15  C   UNL     1     -16.887  56.635  -0.096  1.00  0.00    -0.000 C 
BRANCH  15  16
ATOM     16  C   UNL     1     -16.468  57.783   0.838  1.00  0.00    -0.000 C 
BRANCH  16  17
ATOM     17  C   UNL     1     -15.370  58.667   0.227  1.00  0.00    -0.003 C 
ATOM     18  C   UNL     1     -14.222  58.937   1.199  1.00  0.00     0.004 C 
ENDBRANCH  16  17
ENDBRANCH  15  16
ENDBRANCH  14  15
ENDBRANCH  13  14
ENDBRANCH  12  13
ENDBRANCH  11  12
ENDBRANCH   1  11
TORSDOF 14
ENDMDL
MODEL 5
REMARK VINA RESULT:    -5.031      2.509      4.747
REMARK INTER + INTRA:         -11.124
REMARK INTER:                  -9.048
REMARK INTRA:                  -2.076
REMARK UNBOUND:                -1.976
REMARK SMILES CCCCCCCCCCCCCCCC(=O)[O-]
REMARK SMILES IDX 9 1 10 2 11 3 12 4 13 5 14 6 15 7 16 8 17 9 18 10 8 11 7 12
REMARK SMILES IDX 6 13 5 14 4 15 3 16 2 17 1 18
REMARK H PARENT
REMARK Flexibility Score: inf
ROOT
ATOM      1  C   UNL     1     -23.506  55.043   0.953  1.00  0.00     0.000 C 
ENDROOT
BRANCH   1   2
ATOM      2  C   UNL     1     -22.850  53.697   0.597  1.00  0.00     0.000 C 
BRANCH   2   3
ATOM      3  C   UNL     1     -22.039  53.752  -0.706  1.00  0.00     0.000 C 
BRANCH   3   4
ATOM      4  C   UNL     1     -20.744  52.939  -0.582  1.00  0.00     0.000 C 
BRANCH   4   5
ATOM      5  C   UNL     1     -19.981  52.913  -1.914  1.00  0.00     0.000 C 
BRANCH   5   6
ATOM      6  C   UNL     1     -20.209  54.182  -2.751  1.00  0.00     0.006 C 
BRANCH   6   7
ATOM      7  C   UNL     1     -18.899  54.810  -3.243  1.00  0.00     0.053 C 
BRANCH   7   8
ATOM      8  C   UNL     1     -19.075  56.279  -3.463  1.00  0.00     0.041 C 
ATOM      9  O   UNL     1     -18.070  57.034  -3.541  1.00  0.00    -0.550 OA
ATOM     10  O   UNL     1     -20.351  56.824  -3.532  1.00  0.00    -0.550 OA
ENDBRANCH   7   8
ENDBRANCH   6   7
ENDBRANCH   5   6
ENDBRANCH   4   5
ENDBRANCH   3   4
ENDBRANCH   2   3
ENDBRANCH   1   2
BRANCH   1  11
ATOM     11  C   UNL     1     -22.770  56.286   0.420  1.00  0.00     0.000 C 
BRANCH  11  12
ATOM     12  C   UNL     1     -22.265  57.212   1.538  1.00  0.00    -0.000 C 
BRANCH  12  13
ATOM     13  C   UNL     1     -20.768  57.508   1.372  1.00  0.00    -0.000 C 
BRANCH  13  14
ATOM     14  C   UNL     1     -20.088  56.605   0.327  1.00  0.00    -0.000 C 
BRANCH  14  15
ATOM     15  C   UNL     1     -18.550  56.592   0.386  1.00  0.00    -0.000 C 
BRANCH  15  16
ATOM     16  C   UNL     1     -17.961  55.173   0.332  1.00  0.00    -0.000 C 
BRANCH  16  17
ATOM     17  C   UNL     1     -16.680  55.099  -0.513  1.00  0.00    -0.003 C 
ATOM     18  C   UNL     1     -15.757  53.959  -0.087  1.00  0.00     0.004 C 
ENDBRANCH  16  17
ENDBRANCH  15  16
ENDBRANCH  14  15
ENDBRANCH  13  14
ENDBRANCH  12  13
ENDBRANCH  11  12
ENDBRANCH   1  11
TORSDOF 14
ENDMDL
MODEL 6
REMARK VINA RESULT:    -5.026      2.114      3.969
REMARK INTER + INTRA:         -11.115
REMARK INTER:                  -9.620
REMARK INTRA:                  -1.495
REMARK UNBOUND:                -1.976
REMARK SMILES CCCCCCCCCCCCCCCC(=O)[O-]
REMARK SMILES IDX 9 1 10 2 11 3 12 4 13 5 14 6 15 7 16 8 17 9 18 10 8 11 7 12
REMARK SMILES IDX 6 13 5 14 4 15 3 16 2 17 1 18
REMARK H PARENT
REMARK Flexibility Score: inf
ROOT
ATOM      1  C   UNL     1     -22.435  55.968   0.406  1.00  0.00     0.000 C 
ENDROOT
BRANCH   1   2
ATOM      2  C   UNL     1     -22.732  54.495   0.067  1.00  0.00     0.000 C 
BRANCH   2   3
ATOM      3  C   UNL     1     -22.337  54.120  -1.368  1.00  0.00     0.000 C 
BRANCH   3   4
ATOM      4  C   UNL     1     -21.459  52.862  -1.385  1.00  0.00     0.000 C 
BRANCH   4   5
ATOM      5  C   UNL     1     -19.995  53.218  -1.685  1.00  0.00     0.000 C 
BRANCH   5   6
ATOM      6  C   UNL     1     -19.828  53.954  -3.023  1.00  0.00     0.006 C 
BRANCH   6   7
ATOM      7  C   UNL     1     -18.511  54.737  -3.107  1.00  0.00     0.053 C 
BRANCH   7   8
ATOM      8  C   UNL     1     -18.774  56.159  -3.492  1.00  0.00     0.041 C 
ATOM      9  O   UNL     1     -17.814  56.935  -3.745  1.00  0.00    -0.550 OA
ATOM     10  O   UNL     1     -20.076  56.643  -3.520  1.00  0.00    -0.550 OA
ENDBRANCH   7   8
ENDBRANCH   6   7
ENDBRANCH   5   6
ENDBRANCH   4   5
ENDBRANCH   3   4
ENDBRANCH   2   3
ENDBRANCH   1   2
BRANCH   1  11
ATOM     11  C   UNL     1     -20.998  56.429   0.096  1.00  0.00     0.000 C 
BRANCH  11  12
ATOM     12  C   UNL     1     -20.430  57.382   1.158  1.00  0.00    -0.000 C 
BRANCH  12  13
ATOM     13  C   UNL     1     -18.902  57.481   1.047  1.00  0.00    -0.000 C 
BRANCH  13  14
ATOM     14  C   UNL     1     -18.297  56.414   0.117  1.00  0.00    -0.000 C 
BRANCH  14  15
ATOM     15  C   UNL     1     -16.774  56.520  -0.082  1.00  0.00    -0.000 C 
BRANCH  15  16
ATOM     16  C   UNL     1     -16.116  57.536   0.866  1.00  0.00    -0.000 C 
BRANCH  16  17
ATOM     17  C   UNL     1     -15.162  58.492   0.134  1.00  0.00    -0.003 C 
ATOM     18  C   UNL     1     -14.168  59.170   1.076  1.00  0.00     0.004 C 
ENDBRANCH  16  17
ENDBRANCH  15  16
ENDBRANCH  14  15
ENDBRANCH  13  14
ENDBRANCH  12  13
ENDBRANCH  11  12
ENDBRANCH   1  11
TORSDOF 14
ENDMDL
MODEL 7
REMARK VINA RESULT:    -4.983      2.135      3.118
REMARK INTER + INTRA:         -11.037
REMARK INTER:                  -9.644
REMARK INTRA:                  -1.393
REMARK UNBOUND:                -1.976
REMARK SMILES CCCCCCCCCCCCCCCC(=O)[O-]
REMARK SMILES IDX 9 1 10 2 11 3 12 4 13 5 14 6 15 7 16 8 17 9 18 10 8 11 7 12
REMARK SMILES IDX 6 13 5 14 4 15 3 16 2 17 1 18
REMARK H PARENT
REMARK Flexibility Score: inf
ROOT
ATOM      1  C   UNL     1     -18.524  54.172  -3.279  1.00  0.00     0.000 C 
ENDROOT
BRANCH   1   2
ATOM      2  C   UNL     1     -19.832  53.507  -2.812  1.00  0.00     0.000 C 
BRANCH   2   3
ATOM      3  C   UNL     1     -19.634  52.582  -1.603  1.00  0.00     0.000 C 
BRANCH   3   4
ATOM      4  C   UNL     1     -20.150  53.241  -0.317  1.00  0.00     0.000 C 
BRANCH   4   5
ATOM      5  C   UNL     1     -21.677  53.409  -0.359  1.00  0.00     0.000 C 
BRANCH   5   6
ATOM      6  C   UNL     1     -22.106  54.874  -0.531  1.00  0.00     0.006 C 
BRANCH   6   7
ATOM      7  C   UNL     1     -22.994  55.089  -1.763  1.00  0.00     0.053 C 
BRANCH   7   8
ATOM      8  C   UNL     1     -22.939  56.518  -2.202  1.00  0.00     0.041 C 
ATOM      9  O   UNL     1     -23.907  57.290  -1.970  1.00  0.00    -0.550 OA
ATOM     10  O   UNL     1     -21.841  56.986  -2.913  1.00  0.00    -0.550 OA
ENDBRANCH   7   8
ENDBRANCH   6   7
ENDBRANCH   5   6
ENDBRANCH   4   5
ENDBRANCH   3   4
ENDBRANCH   2   3
ENDBRANCH   1   2
BRANCH   1  11
ATOM     11  C   UNL     1     -18.561  55.711  -3.335  1.00  0.00     0.000 C 
BRANCH  11  12
ATOM     12  C   UNL     1     -17.427  56.369  -2.535  1.00  0.00    -0.000 C 
BRANCH  12  13
ATOM     13  C   UNL     1     -17.318  55.757  -1.131  1.00  0.00    -0.000 C 
BRANCH  13  14
ATOM     14  C   UNL     1     -18.182  56.489  -0.088  1.00  0.00    -0.000 C 
BRANCH  14  15
ATOM     15  C   UNL     1     -17.404  57.430   0.850  1.00  0.00    -0.000 C 
BRANCH  15  16
ATOM     16  C   UNL     1     -15.901  57.484   0.530  1.00  0.00    -0.000 C 
BRANCH  16  17
ATOM     17  C   UNL     1     -15.370  58.923   0.444  1.00  0.00    -0.003 C 
ATOM     18  C   UNL     1     -14.045  59.108   1.184  1.00  0.00     0.004 C 
ENDBRANCH  16  17
ENDBRANCH  15  16
ENDBRANCH  14  15
ENDBRANCH  13  14
ENDBRANCH  12  13
ENDBRANCH  11  12
ENDBRANCH   1  11
TORSDOF 14
ENDMDL
MODEL 8
REMARK VINA RESULT:    -4.967      2.746      5.540
REMARK INTER + INTRA:         -11.008
REMARK INTER:                  -8.851
REMARK INTRA:                  -2.158
REMARK UNBOUND:                -1.976
REMARK SMILES CCCCCCCCCCCCCCCC(=O)[O-]
REMARK SMILES IDX 9 1 10 2 11 3 12 4 13 5 14 6 15 7 16 8 17 9 18 10 8 11 7 12
REMARK SMILES IDX 6 13 5 14 4 15 3 16 2 17 1 18
REMARK H PARENT
REMARK Flexibility Score: inf
ROOT
ATOM      1  C   UNL     1     -21.878  53.512  -1.250  1.00  0.00     0.000 C 
ENDROOT
BRANCH   1   2
ATOM      2  C   UNL     1     -20.647  52.880  -0.575  1.00  0.00     0.000 C 
BRANCH   2   3
ATOM      3  C   UNL     1     -19.329  53.238  -1.276  1.00  0.00     0.000 C 
BRANCH   3   4
ATOM      4  C   UNL     1     -18.461  54.140  -0.389  1.00  0.00     0.000 C 
BRANCH   4   5
ATOM      5  C   UNL     1     -19.222  55.413   0.011  1.00  0.00     0.000 C 
BRANCH   5   6
ATOM      6  C   UNL     1     -18.342  56.671  -0.050  1.00  0.00     0.006 C 
BRANCH   6   7
ATOM      7  C   UNL     1     -16.894  56.401   0.381  1.00  0.00     0.053 C 
BRANCH   7   8
ATOM      8  C   UNL     1     -16.137  57.686   0.498  1.00  0.00     0.041 C 
ATOM      9  O   UNL     1     -16.134  58.323   1.585  1.00  0.00    -0.550 OA
ATOM     10  O   UNL     1     -15.477  58.208  -0.607  1.00  0.00    -0.550 OA
ENDBRANCH   7   8
ENDBRANCH   6   7
ENDBRANCH   5   6
ENDBRANCH   4   5
ENDBRANCH   3   4
ENDBRANCH   2   3
ENDBRANCH   1   2
BRANCH   1  11
ATOM     11  C   UNL     1     -22.770  54.354  -0.319  1.00  0.00     0.000 C 
BRANCH  11  12
ATOM     12  C   UNL     1     -23.041  55.765  -0.861  1.00  0.00    -0.000 C 
BRANCH  12  13
ATOM     13  C   UNL     1     -22.834  55.819  -2.381  1.00  0.00    -0.000 C 
BRANCH  13  14
ATOM     14  C   UNL     1     -21.624  56.677  -2.793  1.00  0.00    -0.000 C 
BRANCH  14  15
ATOM     15  C   UNL     1     -20.444  55.887  -3.387  1.00  0.00    -0.000 C 
BRANCH  15  16
ATOM     16  C   UNL     1     -19.190  56.752  -3.596  1.00  0.00    -0.000 C 
BRANCH  16  17
ATOM     17  C   UNL     1     -17.974  55.927  -4.046  1.00  0.00    -0.003 C 
ATOM     18  C   UNL     1     -16.681  56.357  -3.355  1.00  0.00     0.004 C 
ENDBRANCH  16  17
ENDBRANCH  15  16
ENDBRANCH  14  15
ENDBRANCH  13  14
ENDBRANCH  12  13
ENDBRANCH  11  12
ENDBRANCH   1  11
TORSDOF 14
ENDMDL
MODEL 9
REMARK VINA RESULT:    -4.955      2.632      4.042
REMARK INTER + INTRA:         -10.987
REMARK INTER:                  -8.759
REMARK INTRA:                  -2.228
REMARK UNBOUND:                -1.976
REMARK SMILES CCCCCCCCCCCCCCCC(=O)[O-]
REMARK SMILES IDX 9 1 10 2 11 3 12 4 13 5 14 6 15 7 16 8 17 9 18 10 8 11 7 12
REMARK SMILES IDX 6 13 5 14 4 15 3 16 2 17 1 18
REMARK H PARENT
REMARK Flexibility Score: inf
ROOT
ATOM      1  C   UNL     1     -20.594  55.247  -2.901  1.00  0.00     0.000 C 
ENDROOT
BRANCH   1   2
ATOM      2  C   UNL     1     -19.996  53.832  -2.797  1.00  0.00     0.000 C 
BRANCH   2   3
ATOM      3  C   UNL     1     -20.682  52.968  -1.729  1.00  0.00     0.000 C 
BRANCH   3   4
ATOM      4  C   UNL     1     -22.020  53.583  -1.301  1.00  0.00     0.000 C 
BRANCH   4   5
ATOM      5  C   UNL     1     -22.100  53.718   0.227  1.00  0.00     0.000 C 
BRANCH   5   6
ATOM      6  C   UNL     1     -23.478  54.200   0.706  1.00  0.00     0.006 C 
BRANCH   6   7
ATOM      7  C   UNL     1     -23.506  55.703   1.011  1.00  0.00     0.053 C 
BRANCH   7   8
ATOM      8  C   UNL     1     -24.012  56.466  -0.173  1.00  0.00     0.041 C 
ATOM      9  O   UNL     1     -23.451  57.538  -0.523  1.00  0.00    -0.550 OA
ATOM     10  O   UNL     1     -25.135  56.021  -0.859  1.00  0.00    -0.550 OA
ENDBRANCH   7   8
ENDBRANCH   6   7
ENDBRANCH   5   6
ENDBRANCH   4   5
ENDBRANCH   3   4
ENDBRANCH   2   3
ENDBRANCH   1   2
BRANCH   1  11
ATOM     11  C   UNL     1     -19.581  56.358  -3.234  1.00  0.00     0.000 C 
BRANCH  11  12
ATOM     12  C   UNL     1     -18.299  55.825  -3.891  1.00  0.00    -0.000 C 
BRANCH  12  13
ATOM     13  C   UNL     1     -17.060  56.545  -3.341  1.00  0.00    -0.000 C 
BRANCH  13  14
ATOM     14  C   UNL     1     -17.038  56.615  -1.803  1.00  0.00    -0.000 C 
BRANCH  14  15
ATOM     15  C   UNL     1     -17.044  55.248  -1.095  1.00  0.00    -0.000 C 
BRANCH  15  16
ATOM     16  C   UNL     1     -17.943  55.227   0.153  1.00  0.00    -0.000 C 
BRANCH  16  17
ATOM     17  C   UNL     1     -18.484  56.619   0.512  1.00  0.00    -0.003 C 
ATOM     18  C   UNL     1     -20.011  56.662   0.568  1.00  0.00     0.004 C 
ENDBRANCH  16  17
ENDBRANCH  15  16
ENDBRANCH  14  15
ENDBRANCH  13  14
ENDBRANCH  12  13
ENDBRANCH  11  12
ENDBRANCH   1  11
TORSDOF 14
ENDMDL
