MODEL 1
REMARK VINA RESULT:    -3.357      0.000      0.000
REMARK INTER + INTRA:          -4.502
REMARK INTER:                  -4.731
REMARK INTRA:                   0.229
REMARK UNBOUND:                 0.229
REMARK SMILES CC1=CCC(=C(C)C)C(=O)CC(C)=CCC1
REMARK SMILES IDX 12 1 14 2 13 3 15 4 16 5 2 6 1 7 3 8 11 10 9 11 10 12 5 13
REMARK SMILES IDX 6 14 7 15 8 16 4 17
REMARK H PARENT
REMARK Flexibility Score: 60.00
ROOT
ATOM      1  C   UNL     1       9.308 -33.201  12.707  1.00  0.00    -0.070 C 
ATOM      2  C   UNL     1      10.011 -32.347  11.928  1.00  0.00    -0.027 C 
ATOM      3  C   UNL     1       8.504 -34.282  12.029  1.00  0.00     0.039 C 
ENDROOT
BRANCH   2   4
ATOM      4  C   UNL     1      10.843 -31.188  12.427  1.00  0.00     0.032 C 
BRANCH   4   5
ATOM      5  C   UNL     1       9.983 -29.930  12.659  1.00  0.00     0.034 C 
BRANCH   5   6
ATOM      6  C   UNL     1      10.223 -29.312  14.025  1.00  0.00    -0.077 C 
ATOM      7  C   UNL     1      11.548 -28.644  14.294  1.00  0.00     0.039 C 
ATOM      8  C   UNL     1       9.309 -29.325  15.023  1.00  0.00    -0.023 CG0
ATOM      9  G   UNL     1       7.952 -29.985  14.972  1.00  0.00     0.000 G0
ENDBRANCH   5   6
ENDBRANCH   4   5
ENDBRANCH   2   4
BRANCH   1  10
ATOM     10  C   UNL     1       9.270 -33.096  14.220  1.00  0.00     0.111 C 
BRANCH  10  11
ATOM     11  C   UNL     1       7.964 -32.537  14.720  1.00  0.00     0.163 C 
ATOM     12  O   UNL     1       6.885 -33.061  14.336  1.00  0.00    -0.294 OA
BRANCH  11  13
ATOM     13  C   UNL     1       7.912 -31.354  15.615  1.00  0.00    -0.002 C 
ATOM     14  C   UNL     1       7.734 -31.515  16.955  1.00  0.00    -0.069 C 
ATOM     15  C   UNL     1       7.548 -30.330  17.873  1.00  0.00     0.039 C 
ATOM     16  C   UNL     1       7.724 -32.893  17.577  1.00  0.00     0.039 C 
BRANCH  13  17
ATOM     17  C   UNL     1       7.927 -29.981  14.962  1.00  0.00     0.066 CG0
ATOM     18  G   UNL     1       9.292 -29.341  15.042  1.00  0.00     0.000 G0
ENDBRANCH  13  17
ENDBRANCH  11  13
ENDBRANCH  10  11
ENDBRANCH   1  10
TORSDOF 0
ENDMDL
MODEL 2
REMARK VINA RESULT:    -3.206      1.760      2.707
REMARK INTER + INTRA:          -4.289
REMARK INTER:                  -5.103
REMARK INTRA:                   0.813
REMARK UNBOUND:                 0.229
REMARK SMILES CC1=CCC(=C(C)C)C(=O)CC(C)=CCC1
REMARK SMILES IDX 12 1 14 2 13 3 15 4 16 5 2 6 1 7 3 8 11 10 9 11 10 12 5 13
REMARK SMILES IDX 6 14 7 15 8 16 4 17
REMARK H PARENT
REMARK Flexibility Score: 60.00
ROOT
ATOM      1  C   UNL     1       6.489 -31.104  13.473  1.00  0.00    -0.070 C 
ATOM      2  C   UNL     1       7.065 -30.580  12.367  1.00  0.00    -0.027 C 
ATOM      3  C   UNL     1       5.875 -32.478  13.369  1.00  0.00     0.039 C 
ENDROOT
BRANCH   2   4
ATOM      4  C   UNL     1       7.697 -29.210  12.273  1.00  0.00     0.032 C 
BRANCH   4   5
ATOM      5  C   UNL     1       9.212 -29.301  12.006  1.00  0.00     0.034 C 
BRANCH   5   6
ATOM      6  C   UNL     1       9.872 -30.413  12.804  1.00  0.00    -0.077 C 
ATOM      7  C   UNL     1      10.414 -31.609  12.064  1.00  0.00     0.039 C 
ATOM      8  C   UNL     1      10.001 -30.391  14.151  1.00  0.00    -0.023 CG0
ATOM      9  G   UNL     1       9.480 -29.316  15.073  1.00  0.00     0.000 G0
ENDBRANCH   5   6
ENDBRANCH   4   5
ENDBRANCH   2   4
BRANCH   1  10
ATOM     10  C   UNL     1       6.407 -30.360  14.791  1.00  0.00     0.111 C 
BRANCH  10  11
ATOM     11  C   UNL     1       7.485 -30.784  15.754  1.00  0.00     0.163 C 
ATOM     12  O   UNL     1       7.439 -31.939  16.254  1.00  0.00    -0.294 OA
BRANCH  11  13
ATOM     13  C   UNL     1       8.573 -29.863  16.165  1.00  0.00    -0.002 C 
ATOM     14  C   UNL     1       8.665 -29.443  17.456  1.00  0.00    -0.069 C 
ATOM     15  C   UNL     1       9.681 -28.407  17.877  1.00  0.00     0.039 C 
ATOM     16  C   UNL     1       7.756 -30.006  18.523  1.00  0.00     0.039 C 
BRANCH  13  17
ATOM     17  C   UNL     1       9.476 -29.314  15.071  1.00  0.00     0.066 CG0
ATOM     18  G   UNL     1       9.976 -30.409  14.160  1.00  0.00     0.000 G0
ENDBRANCH  13  17
ENDBRANCH  11  13
ENDBRANCH  10  11
ENDBRANCH   1  10
TORSDOF 0
ENDMDL
MODEL 3
REMARK VINA RESULT:    -3.117      2.205      5.316
REMARK INTER + INTRA:          -4.164
REMARK INTER:                  -4.636
REMARK INTRA:                   0.472
REMARK UNBOUND:                 0.229
REMARK SMILES CC1=CCC(=C(C)C)C(=O)CC(C)=CCC1
REMARK SMILES IDX 12 1 14 2 13 3 15 4 16 5 2 6 1 7 3 8 11 10 9 11 10 12 5 13
REMARK SMILES IDX 6 14 7 15 8 16 4 17
REMARK H PARENT
REMARK Flexibility Score: 60.00
ROOT
ATOM      1  C   UNL     1       8.881 -29.341  16.918  1.00  0.00    -0.070 C 
ATOM      2  C   UNL     1       8.494 -30.231  17.860  1.00  0.00    -0.027 C 
ATOM      3  C   UNL     1       9.961 -28.351  17.280  1.00  0.00     0.039 C 
ENDROOT
BRANCH   2   4
ATOM      4  C   UNL     1       7.409 -31.270  17.690  1.00  0.00     0.032 C 
BRANCH   4   5
ATOM      5  C   UNL     1       7.990 -32.633  17.263  1.00  0.00     0.034 C 
BRANCH   5   6
ATOM      6  C   UNL     1       7.227 -33.245  16.101  1.00  0.00    -0.077 C 
ATOM      7  C   UNL     1       5.947 -33.988  16.388  1.00  0.00     0.039 C 
ATOM      8  C   UNL     1       7.633 -33.161  14.812  1.00  0.00    -0.023 CG0
ATOM      9  G   UNL     1       8.905 -32.510  14.326  1.00  0.00     0.000 G0
ENDBRANCH   5   6
ENDBRANCH   4   5
ENDBRANCH   2   4
BRANCH   1  10
ATOM     10  C   UNL     1       8.258 -29.277  15.538  1.00  0.00     0.111 C 
BRANCH  10  11
ATOM     11  C   UNL     1       9.110 -29.951  14.495  1.00  0.00     0.163 C 
ATOM     12  O   UNL     1      10.254 -29.487  14.245  1.00  0.00    -0.294 OA
BRANCH  11  13
ATOM     13  C   UNL     1       8.621 -31.119  13.721  1.00  0.00    -0.002 C 
ATOM     14  C   UNL     1       7.858 -30.935  12.609  1.00  0.00    -0.069 C 
ATOM     15  C   UNL     1       7.239 -32.101  11.875  1.00  0.00     0.039 C 
ATOM     16  C   UNL     1       7.608 -29.549  12.061  1.00  0.00     0.039 C 
BRANCH  13  17
ATOM     17  C   UNL     1       8.891 -32.502  14.295  1.00  0.00     0.066 CG0
ATOM     18  G   UNL     1       7.627 -33.149  14.807  1.00  0.00     0.000 G0
ENDBRANCH  13  17
ENDBRANCH  11  13
ENDBRANCH  10  11
ENDBRANCH   1  10
TORSDOF 0
ENDMDL
MODEL 4
REMARK VINA RESULT:    -3.079      1.723      3.741
REMARK INTER + INTRA:          -4.111
REMARK INTER:                  -4.695
REMARK INTRA:                   0.585
REMARK UNBOUND:                 0.229
REMARK SMILES CC1=CCC(=C(C)C)C(=O)CC(C)=CCC1
REMARK SMILES IDX 12 1 14 2 13 3 15 4 16 5 2 6 1 7 3 8 11 10 9 11 10 12 5 13
REMARK SMILES IDX 6 14 7 15 8 16 4 17
REMARK H PARENT
REMARK Flexibility Score: 60.00
ROOT
ATOM      1  C   UNL     1      10.481 -29.456  13.736  1.00  0.00    -0.070 C 
ATOM      2  C   UNL     1      11.022 -30.250  12.785  1.00  0.00    -0.027 C 
ATOM      3  C   UNL     1      11.394 -28.507  14.472  1.00  0.00     0.039 C 
ENDROOT
BRANCH   2   4
ATOM      4  C   UNL     1      10.272 -31.281  11.973  1.00  0.00     0.032 C 
BRANCH   4   5
ATOM      5  C   UNL     1      10.430 -32.695  12.565  1.00  0.00     0.034 C 
BRANCH   5   6
ATOM      6  C   UNL     1       9.100 -33.293  12.990  1.00  0.00    -0.077 C 
ATOM      7  C   UNL     1       8.284 -34.042  11.968  1.00  0.00     0.039 C 
ATOM      8  C   UNL     1       8.600 -33.190  14.244  1.00  0.00    -0.023 CG0
ATOM      9  G   UNL     1       9.234 -32.439  15.390  1.00  0.00     0.000 G0
ENDBRANCH   5   6
ENDBRANCH   4   5
ENDBRANCH   2   4
BRANCH   1  10
ATOM     10  C   UNL     1       9.013 -29.502  14.113  1.00  0.00     0.111 C 
BRANCH  10  11
ATOM     11  C   UNL     1       8.805 -29.924  15.544  1.00  0.00     0.163 C 
ATOM     12  O   UNL     1       9.038 -29.098  16.466  1.00  0.00    -0.294 OA
BRANCH  11  13
ATOM     13  C   UNL     1       8.377 -31.300  15.899  1.00  0.00    -0.002 C 
ATOM     14  C   UNL     1       7.329 -31.497  16.744  1.00  0.00    -0.069 C 
ATOM     15  C   UNL     1       6.952 -32.879  17.225  1.00  0.00     0.039 C 
ATOM     16  C   UNL     1       6.492 -30.334  17.226  1.00  0.00     0.039 C 
BRANCH  13  17
ATOM     17  C   UNL     1       9.236 -32.451  15.396  1.00  0.00     0.066 CG0
ATOM     18  G   UNL     1       8.578 -33.176  14.247  1.00  0.00     0.000 G0
ENDBRANCH  13  17
ENDBRANCH  11  13
ENDBRANCH  10  11
ENDBRANCH   1  10
TORSDOF 0
ENDMDL
MODEL 5
REMARK VINA RESULT:    -3.076      2.083      4.005
REMARK INTER + INTRA:          -4.106
REMARK INTER:                  -4.740
REMARK INTRA:                   0.634
REMARK UNBOUND:                 0.229
REMARK SMILES CC1=CCC(=C(C)C)C(=O)CC(C)=CCC1
REMARK SMILES IDX 12 1 14 2 13 3 15 4 16 5 2 6 1 7 3 8 11 10 9 11 10 12 5 13
REMARK SMILES IDX 6 14 7 15 8 16 4 17
REMARK H PARENT
REMARK Flexibility Score: 60.00
ROOT
ATOM      1  C   UNL     1       8.930 -29.658  17.284  1.00  0.00    -0.070 C 
ATOM      2  C   UNL     1       9.460 -28.962  16.253  1.00  0.00    -0.027 C 
ATOM      3  C   UNL     1       8.835 -28.976  18.626  1.00  0.00     0.039 C 
ENDROOT
BRANCH   2   4
ATOM      4  C   UNL     1       9.665 -29.491  14.852  1.00  0.00     0.032 C 
BRANCH   4   5
ATOM      5  C   UNL     1       8.327 -29.640  14.100  1.00  0.00     0.034 C 
BRANCH   5   6
ATOM      6  C   UNL     1       8.241 -30.948  13.332  1.00  0.00    -0.077 C 
ATOM      7  C   UNL     1       9.294 -31.247  12.294  1.00  0.00     0.039 C 
ATOM      8  C   UNL     1       7.267 -31.866  13.525  1.00  0.00    -0.023 CG0
ATOM      9  G   UNL     1       6.099 -31.732  14.473  1.00  0.00     0.000 G0
ENDBRANCH   5   6
ENDBRANCH   4   5
ENDBRANCH   2   4
BRANCH   1  10
ATOM     10  C   UNL     1       8.461 -31.094  17.156  1.00  0.00     0.111 C 
BRANCH  10  11
ATOM     11  C   UNL     1       6.994 -31.188  16.825  1.00  0.00     0.163 C 
ATOM     12  O   UNL     1       6.186 -30.408  17.395  1.00  0.00    -0.294 OA
BRANCH  11  13
ATOM     13  C   UNL     1       6.469 -32.205  15.880  1.00  0.00    -0.002 C 
ATOM     14  C   UNL     1       6.451 -33.520  16.229  1.00  0.00    -0.069 C 
ATOM     15  C   UNL     1       6.044 -34.591  15.244  1.00  0.00     0.039 C 
ATOM     16  C   UNL     1       6.831 -33.959  17.624  1.00  0.00     0.039 C 
BRANCH  13  17
ATOM     17  C   UNL     1       6.091 -31.735  14.484  1.00  0.00     0.066 CG0
ATOM     18  G   UNL     1       7.248 -31.859  13.522  1.00  0.00     0.000 G0
ENDBRANCH  13  17
ENDBRANCH  11  13
ENDBRANCH  10  11
ENDBRANCH   1  10
TORSDOF 0
ENDMDL
MODEL 6
REMARK VINA RESULT:    -3.010      1.800      3.227
REMARK INTER + INTRA:          -4.013
REMARK INTER:                  -5.040
REMARK INTRA:                   1.027
REMARK UNBOUND:                 0.229
REMARK SMILES CC1=CCC(=C(C)C)C(=O)CC(C)=CCC1
REMARK SMILES IDX 12 1 14 2 13 3 15 4 16 5 2 6 1 7 3 8 11 10 9 11 10 12 5 13
REMARK SMILES IDX 6 14 7 15 8 16 4 17
REMARK H PARENT
REMARK Flexibility Score: 60.00
ROOT
ATOM      1  C   UNL     1       7.332 -33.206  15.929  1.00  0.00    -0.070 C 
ATOM      2  C   UNL     1       7.918 -33.394  14.724  1.00  0.00    -0.027 C 
ATOM      3  C   UNL     1       6.069 -33.973  16.230  1.00  0.00     0.039 C 
ENDROOT
BRANCH   2   4
ATOM      4  C   UNL     1       9.164 -32.691  14.236  1.00  0.00     0.032 C 
BRANCH   4   5
ATOM      5  C   UNL     1       8.898 -31.900  12.940  1.00  0.00     0.034 C 
BRANCH   5   6
ATOM      6  C   UNL     1       7.763 -30.903  13.095  1.00  0.00    -0.077 C 
ATOM      7  C   UNL     1       6.534 -31.067  12.237  1.00  0.00     0.039 C 
ATOM      8  C   UNL     1       7.792 -29.868  13.966  1.00  0.00    -0.023 CG0
ATOM      9  G   UNL     1       8.945 -29.502  14.869  1.00  0.00     0.000 G0
ENDBRANCH   5   6
ENDBRANCH   4   5
ENDBRANCH   2   4
BRANCH   1  10
ATOM     10  C   UNL     1       7.870 -32.239  16.966  1.00  0.00     0.111 C 
BRANCH  10  11
ATOM     11  C   UNL     1       7.559 -30.806  16.626  1.00  0.00     0.163 C 
ATOM     12  O   UNL     1       6.355 -30.445  16.536  1.00  0.00    -0.294 OA
BRANCH  11  13
ATOM     13  C   UNL     1       8.630 -29.817  16.347  1.00  0.00    -0.002 C 
ATOM     14  C   UNL     1       9.209 -29.127  17.367  1.00  0.00    -0.069 C 
ATOM     15  C   UNL     1      10.209 -28.025  17.106  1.00  0.00     0.039 C 
ATOM     16  C   UNL     1       8.878 -29.446  18.807  1.00  0.00     0.039 C 
BRANCH  13  17
ATOM     17  C   UNL     1       8.945 -29.519  14.889  1.00  0.00     0.066 CG0
ATOM     18  G   UNL     1       7.792 -29.880  13.985  1.00  0.00     0.000 G0
ENDBRANCH  13  17
ENDBRANCH  11  13
ENDBRANCH  10  11
ENDBRANCH   1  10
TORSDOF 0
ENDMDL
MODEL 7
REMARK VINA RESULT:    -2.857      2.129      4.982
REMARK INTER + INTRA:          -3.797
REMARK INTER:                  -4.482
REMARK INTRA:                   0.685
REMARK UNBOUND:                 0.229
REMARK SMILES CC1=CCC(=C(C)C)C(=O)CC(C)=CCC1
REMARK SMILES IDX 12 1 14 2 13 3 15 4 16 5 2 6 1 7 3 8 11 10 9 11 10 12 5 13
REMARK SMILES IDX 6 14 7 15 8 16 4 17
REMARK H PARENT
REMARK Flexibility Score: 60.00
ROOT
ATOM      1  C   UNL     1       8.168 -29.628  15.298  1.00  0.00    -0.070 C 
ATOM      2  C   UNL     1       7.387 -30.030  16.327  1.00  0.00    -0.027 C 
ATOM      3  C   UNL     1       9.554 -29.124  15.615  1.00  0.00     0.039 C 
ENDROOT
BRANCH   2   4
ATOM      4  C   UNL     1       5.966 -30.531  16.205  1.00  0.00     0.032 C 
BRANCH   4   5
ATOM      5  C   UNL     1       5.875 -31.762  15.282  1.00  0.00     0.034 C 
BRANCH   5   6
ATOM      6  C   UNL     1       6.927 -32.808  15.612  1.00  0.00    -0.077 C 
ATOM      7  C   UNL     1       6.972 -33.372  17.009  1.00  0.00     0.039 C 
ATOM      8  C   UNL     1       7.834 -33.265  14.717  1.00  0.00    -0.023 CG0
ATOM      9  G   UNL     1       7.988 -32.790  13.293  1.00  0.00     0.000 G0
ENDBRANCH   5   6
ENDBRANCH   4   5
ENDBRANCH   2   4
BRANCH   1  10
ATOM     10  C   UNL     1       7.700 -29.632  13.856  1.00  0.00     0.111 C 
BRANCH  10  11
ATOM     11  C   UNL     1       8.676 -30.325  12.942  1.00  0.00     0.163 C 
ATOM     12  O   UNL     1       9.110 -29.712  11.930  1.00  0.00    -0.294 OA
BRANCH  11  13
ATOM     13  C   UNL     1       9.104 -31.727  13.173  1.00  0.00    -0.002 C 
ATOM     14  C   UNL     1      10.424 -32.054  13.155  1.00  0.00    -0.069 C 
ATOM     15  C   UNL     1      10.883 -33.490  13.259  1.00  0.00     0.039 C 
ATOM     16  C   UNL     1      11.487 -30.985  13.040  1.00  0.00     0.039 C 
BRANCH  13  17
ATOM     17  C   UNL     1       8.013 -32.782  13.290  1.00  0.00     0.066 CG0
ATOM     18  G   UNL     1       7.849 -33.258  14.713  1.00  0.00     0.000 G0
ENDBRANCH  13  17
ENDBRANCH  11  13
ENDBRANCH  10  11
ENDBRANCH   1  10
TORSDOF 0
ENDMDL
MODEL 8
REMARK VINA RESULT:    -2.856      1.896      4.985
REMARK INTER + INTRA:          -3.796
REMARK INTER:                  -4.478
REMARK INTRA:                   0.682
REMARK UNBOUND:                 0.229
REMARK SMILES CC1=CCC(=C(C)C)C(=O)CC(C)=CCC1
REMARK SMILES IDX 12 1 14 2 13 3 15 4 16 5 2 6 1 7 3 8 11 10 9 11 10 12 5 13
REMARK SMILES IDX 6 14 7 15 8 16 4 17
REMARK H PARENT
REMARK Flexibility Score: 60.00
ROOT
ATOM      1  C   UNL     1       7.351 -30.901  17.177  1.00  0.00    -0.070 C 
ATOM      2  C   UNL     1       6.524 -31.950  16.962  1.00  0.00    -0.027 C 
ATOM      3  C   UNL     1       6.795 -29.695  17.891  1.00  0.00     0.039 C 
ENDROOT
BRANCH   2   4
ATOM      4  C   UNL     1       6.894 -33.224  16.237  1.00  0.00     0.032 C 
BRANCH   4   5
ATOM      5  C   UNL     1       6.398 -33.211  14.778  1.00  0.00     0.034 C 
BRANCH   5   6
ATOM      6  C   UNL     1       7.542 -33.268  13.780  1.00  0.00    -0.077 C 
ATOM      7  C   UNL     1       8.038 -34.618  13.326  1.00  0.00     0.039 C 
ATOM      8  C   UNL     1       8.146 -32.169  13.270  1.00  0.00    -0.023 CG0
ATOM      9  G   UNL     1       7.833 -30.738  13.636  1.00  0.00     0.000 G0
ENDBRANCH   5   6
ENDBRANCH   4   5
ENDBRANCH   2   4
BRANCH   1  10
ATOM     10  C   UNL     1       8.791 -30.876  16.704  1.00  0.00     0.111 C 
BRANCH  10  11
ATOM     11  C   UNL     1       9.045 -29.775  15.708  1.00  0.00     0.163 C 
ATOM     12  O   UNL     1       9.220 -28.600  16.125  1.00  0.00    -0.294 OA
BRANCH  11  13
ATOM     13  C   UNL     1       9.048 -30.029  14.246  1.00  0.00    -0.002 C 
ATOM     14  C   UNL     1      10.048 -29.536  13.466  1.00  0.00    -0.069 C 
ATOM     15  C   UNL     1      10.012 -29.667  11.961  1.00  0.00     0.039 C 
ATOM     16  C   UNL     1      11.242 -28.843  14.080  1.00  0.00     0.039 C 
BRANCH  13  17
ATOM     17  C   UNL     1       7.836 -30.733  13.655  1.00  0.00     0.066 CG0
ATOM     18  G   UNL     1       8.151 -32.158  13.270  1.00  0.00     0.000 G0
ENDBRANCH  13  17
ENDBRANCH  11  13
ENDBRANCH  10  11
ENDBRANCH   1  10
TORSDOF 0
ENDMDL
MODEL 9
REMARK VINA RESULT:    -2.756      1.098      1.502
REMARK INTER + INTRA:          -3.655
REMARK INTER:                  -4.311
REMARK INTRA:                   0.656
REMARK UNBOUND:                 0.229
REMARK SMILES CC1=CCC(=C(C)C)C(=O)CC(C)=CCC1
REMARK SMILES IDX 12 1 14 2 13 3 15 4 16 5 2 6 1 7 3 8 11 10 9 11 10 12 5 13
REMARK SMILES IDX 6 14 7 15 8 16 4 17
REMARK H PARENT
REMARK Flexibility Score: 60.00
ROOT
ATOM      1  C   UNL     1      10.196 -32.473  13.242  1.00  0.00    -0.070 C 
ATOM      2  C   UNL     1      10.858 -31.364  12.837  1.00  0.00    -0.027 C 
ATOM      3  C   UNL     1      10.902 -33.416  14.183  1.00  0.00     0.039 C 
ENDROOT
BRANCH   2   4
ATOM      4  C   UNL     1      10.324 -30.328  11.875  1.00  0.00     0.032 C 
BRANCH   4   5
ATOM      5  C   UNL     1       9.813 -29.076  12.615  1.00  0.00     0.034 C 
BRANCH   5   6
ATOM      6  C   UNL     1      10.174 -29.091  14.090  1.00  0.00    -0.077 C 
ATOM      7  C   UNL     1      11.583 -28.739  14.493  1.00  0.00     0.039 C 
ATOM      8  C   UNL     1       9.297 -29.406  15.072  1.00  0.00    -0.023 CG0
ATOM      9  G   UNL     1       7.864 -29.837  14.874  1.00  0.00     0.000 G0
ENDBRANCH   5   6
ENDBRANCH   4   5
ENDBRANCH   2   4
BRANCH   1  10
ATOM     10  C   UNL     1       8.798 -32.818  12.767  1.00  0.00     0.111 C 
BRANCH  10  11
ATOM     11  C   UNL     1       7.772 -31.822  13.240  1.00  0.00     0.163 C 
ATOM     12  O   UNL     1       6.947 -31.352  12.413  1.00  0.00    -0.294 OA
BRANCH  11  13
ATOM     13  C   UNL     1       7.737 -31.344  14.645  1.00  0.00    -0.002 C 
ATOM     14  C   UNL     1       7.497 -32.216  15.661  1.00  0.00    -0.069 C 
ATOM     15  C   UNL     1       7.327 -31.740  17.085  1.00  0.00     0.039 C 
ATOM     16  C   UNL     1       7.399 -33.702  15.402  1.00  0.00     0.039 C 
BRANCH  13  17
ATOM     17  C   UNL     1       7.841 -29.844  14.876  1.00  0.00     0.066 CG0
ATOM     18  G   UNL     1       9.272 -29.409  15.079  1.00  0.00     0.000 G0
ENDBRANCH  13  17
ENDBRANCH  11  13
ENDBRANCH  10  11
ENDBRANCH   1  10
TORSDOF 0
ENDMDL
