MODEL 1
REMARK VINA RESULT:    -4.977      0.000      0.000
REMARK INTER + INTRA:         -10.728
REMARK INTER:                  -9.050
REMARK INTRA:                  -1.678
REMARK UNBOUND:                -1.678
REMARK SMILES CCCCCCCCCCCCCCCC(=O)[O-]
REMARK SMILES IDX 9 1 10 2 11 3 12 4 13 5 14 6 15 7 16 8 17 9 18 10 8 11 7 12
REMARK SMILES IDX 6 13 5 14 4 15 3 16 2 17 1 18
REMARK H PARENT
REMARK Flexibility Score: inf
ROOT
ATOM      1  C   UNL     1     -26.029 -26.851  41.392  1.00  0.00     0.000 C 
ENDROOT
BRANCH   1   2
ATOM      2  C   UNL     1     -24.855 -26.179  42.124  1.00  0.00     0.000 C 
BRANCH   2   3
ATOM      3  C   UNL     1     -24.273 -24.984  41.348  1.00  0.00     0.000 C 
BRANCH   3   4
ATOM      4  C   UNL     1     -22.747 -24.804  41.466  1.00  0.00     0.000 C 
BRANCH   4   5
ATOM      5  C   UNL     1     -22.251 -23.345  41.406  1.00  0.00     0.000 C 
BRANCH   5   6
ATOM      6  C   UNL     1     -21.541 -22.952  40.094  1.00  0.00     0.006 C 
BRANCH   6   7
ATOM      7  C   UNL     1     -22.482 -22.773  38.892  1.00  0.00     0.053 C 
BRANCH   7   8
ATOM      8  C   UNL     1     -23.343 -21.556  39.032  1.00  0.00     0.041 C 
ATOM      9  O   UNL     1     -24.551 -21.669  39.371  1.00  0.00    -0.550 OA
ATOM     10  O   UNL     1     -22.821 -20.299  38.757  1.00  0.00    -0.550 OA
ENDBRANCH   7   8
ENDBRANCH   6   7
ENDBRANCH   5   6
ENDBRANCH   4   5
ENDBRANCH   3   4
ENDBRANCH   2   3
ENDBRANCH   1   2
BRANCH   1  11
ATOM     11  C   UNL     1     -25.609 -28.123  40.632  1.00  0.00     0.000 C 
BRANCH  11  12
ATOM     12  C   UNL     1     -24.446 -28.913  41.265  1.00  0.00    -0.000 C 
BRANCH  12  13
ATOM     13  C   UNL     1     -23.328 -29.327  40.287  1.00  0.00    -0.000 C 
BRANCH  13  14
ATOM     14  C   UNL     1     -22.461 -28.166  39.763  1.00  0.00    -0.000 C 
BRANCH  14  15
ATOM     15  C   UNL     1     -22.191 -28.187  38.245  1.00  0.00    -0.000 C 
BRANCH  15  16
ATOM     16  C   UNL     1     -21.091 -27.222  37.766  1.00  0.00    -0.000 C 
BRANCH  16  17
ATOM     17  C   UNL     1     -20.607 -26.274  38.872  1.00  0.00    -0.003 C 
ATOM     18  C   UNL     1     -19.082 -26.211  38.914  1.00  0.00     0.004 C 
ENDBRANCH  16  17
ENDBRANCH  15  16
ENDBRANCH  14  15
ENDBRANCH  13  14
ENDBRANCH  12  13
ENDBRANCH  11  12
ENDBRANCH   1  11
TORSDOF 14
ENDMDL
MODEL 2
REMARK VINA RESULT:    -4.872      1.138      3.981
REMARK INTER + INTRA:         -10.536
REMARK INTER:                  -8.778
REMARK INTRA:                  -1.758
REMARK UNBOUND:                -1.678
REMARK SMILES CCCCCCCCCCCCCCCC(=O)[O-]
REMARK SMILES IDX 9 1 10 2 11 3 12 4 13 5 14 6 15 7 16 8 17 9 18 10 8 11 7 12
REMARK SMILES IDX 6 13 5 14 4 15 3 16 2 17 1 18
REMARK H PARENT
REMARK Flexibility Score: inf
ROOT
ATOM      1  C   UNL     1     -21.191 -26.605  38.141  1.00  0.00     0.000 C 
ENDROOT
BRANCH   1   2
ATOM      2  C   UNL     1     -20.131 -26.297  39.212  1.00  0.00     0.000 C 
BRANCH   2   3
ATOM      3  C   UNL     1     -20.497 -25.081  40.082  1.00  0.00     0.000 C 
BRANCH   3   4
ATOM      4  C   UNL     1     -21.961 -25.033  40.562  1.00  0.00     0.000 C 
BRANCH   4   5
ATOM      5  C   UNL     1     -22.255 -24.002  41.671  1.00  0.00     0.000 C 
BRANCH   5   6
ATOM      6  C   UNL     1     -22.494 -22.562  41.172  1.00  0.00     0.006 C 
BRANCH   6   7
ATOM      7  C   UNL     1     -23.474 -22.453  39.994  1.00  0.00     0.053 C 
BRANCH   7   8
ATOM      8  C   UNL     1     -22.816 -21.896  38.769  1.00  0.00     0.041 C 
ATOM      9  O   UNL     1     -22.651 -20.654  38.646  1.00  0.00    -0.550 OA
ATOM     10  O   UNL     1     -22.415 -22.748  37.747  1.00  0.00    -0.550 OA
ENDBRANCH   7   8
ENDBRANCH   6   7
ENDBRANCH   5   6
ENDBRANCH   4   5
ENDBRANCH   3   4
ENDBRANCH   2   3
ENDBRANCH   1   2
BRANCH   1  11
ATOM     11  C   UNL     1     -21.573 -28.096  38.089  1.00  0.00     0.000 C 
BRANCH  11  12
ATOM     12  C   UNL     1     -22.904 -28.457  38.778  1.00  0.00    -0.000 C 
BRANCH  12  13
ATOM     13  C   UNL     1     -22.808 -28.703  40.297  1.00  0.00    -0.000 C 
BRANCH  13  14
ATOM     14  C   UNL     1     -23.928 -28.051  41.131  1.00  0.00    -0.000 C 
BRANCH  14  15
ATOM     15  C   UNL     1     -25.361 -28.345  40.643  1.00  0.00    -0.000 C 
BRANCH  15  16
ATOM     16  C   UNL     1     -26.406 -27.276  41.009  1.00  0.00    -0.000 C 
BRANCH  16  17
ATOM     17  C   UNL     1     -25.901 -26.287  42.069  1.00  0.00    -0.003 C 
ATOM     18  C   UNL     1     -25.961 -24.851  41.554  1.00  0.00     0.004 C 
ENDBRANCH  16  17
ENDBRANCH  15  16
ENDBRANCH  14  15
ENDBRANCH  13  14
ENDBRANCH  12  13
ENDBRANCH  11  12
ENDBRANCH   1  11
TORSDOF 14
ENDMDL
MODEL 3
REMARK VINA RESULT:    -4.793      3.488      5.139
REMARK INTER + INTRA:         -10.393
REMARK INTER:                  -9.471
REMARK INTRA:                  -0.921
REMARK UNBOUND:                -1.678
REMARK SMILES CCCCCCCCCCCCCCCC(=O)[O-]
REMARK SMILES IDX 9 1 10 2 11 3 12 4 13 5 14 6 15 7 16 8 17 9 18 10 8 11 7 12
REMARK SMILES IDX 6 13 5 14 4 15 3 16 2 17 1 18
REMARK H PARENT
REMARK Flexibility Score: inf
ROOT
ATOM      1  C   UNL     1     -25.351 -27.795  40.804  1.00  0.00     0.000 C 
ENDROOT
BRANCH   1   2
ATOM      2  C   UNL     1     -24.877 -27.050  42.064  1.00  0.00     0.000 C 
BRANCH   2   3
ATOM      3  C   UNL     1     -24.940 -25.520  41.911  1.00  0.00     0.000 C 
BRANCH   3   4
ATOM      4  C   UNL     1     -26.341 -24.945  41.625  1.00  0.00     0.000 C 
BRANCH   4   5
ATOM      5  C   UNL     1     -27.390 -25.194  42.728  1.00  0.00     0.000 C 
BRANCH   5   6
ATOM      6  C   UNL     1     -28.416 -26.301  42.412  1.00  0.00     0.006 C 
BRANCH   6   7
ATOM      7  C   UNL     1     -29.805 -26.074  43.031  1.00  0.00     0.053 C 
BRANCH   7   8
ATOM      8  C   UNL     1     -30.864 -25.920  41.984  1.00  0.00     0.041 C 
ATOM      9  O   UNL     1     -32.062 -25.721  42.317  1.00  0.00    -0.550 OA
ATOM     10  O   UNL     1     -30.534 -26.029  40.639  1.00  0.00    -0.550 OA
ENDBRANCH   7   8
ENDBRANCH   6   7
ENDBRANCH   5   6
ENDBRANCH   4   5
ENDBRANCH   3   4
ENDBRANCH   2   3
ENDBRANCH   1   2
BRANCH   1  11
ATOM     11  C   UNL     1     -24.818 -29.238  40.727  1.00  0.00     0.000 C 
BRANCH  11  12
ATOM     12  C   UNL     1     -23.839 -29.516  39.569  1.00  0.00    -0.000 C 
BRANCH  12  13
ATOM     13  C   UNL     1     -22.541 -28.684  39.597  1.00  0.00    -0.000 C 
BRANCH  13  14
ATOM     14  C   UNL     1     -22.080 -28.156  38.224  1.00  0.00    -0.000 C 
BRANCH  14  15
ATOM     15  C   UNL     1     -21.142 -26.934  38.278  1.00  0.00    -0.000 C 
BRANCH  15  16
ATOM     16  C   UNL     1     -20.899 -26.360  39.685  1.00  0.00    -0.000 C 
BRANCH  16  17
ATOM     17  C   UNL     1     -20.035 -25.091  39.671  1.00  0.00    -0.003 C 
ATOM     18  C   UNL     1     -18.571 -25.426  39.395  1.00  0.00     0.004 C 
ENDBRANCH  16  17
ENDBRANCH  15  16
ENDBRANCH  14  15
ENDBRANCH  13  14
ENDBRANCH  12  13
ENDBRANCH  11  12
ENDBRANCH   1  11
TORSDOF 14
ENDMDL
MODEL 4
REMARK VINA RESULT:    -4.789      2.874      5.493
REMARK INTER + INTRA:         -10.386
REMARK INTER:                  -8.905
REMARK INTRA:                  -1.481
REMARK UNBOUND:                -1.678
REMARK SMILES CCCCCCCCCCCCCCCC(=O)[O-]
REMARK SMILES IDX 9 1 10 2 11 3 12 4 13 5 14 6 15 7 16 8 17 9 18 10 8 11 7 12
REMARK SMILES IDX 6 13 5 14 4 15 3 16 2 17 1 18
REMARK H PARENT
REMARK Flexibility Score: inf
ROOT
ATOM      1  C   UNL     1     -21.468 -24.446  39.768  1.00  0.00     0.000 C 
ENDROOT
BRANCH   1   2
ATOM      2  C   UNL     1     -22.075 -24.431  41.182  1.00  0.00     0.000 C 
BRANCH   2   3
ATOM      3  C   UNL     1     -23.589 -24.151  41.179  1.00  0.00     0.000 C 
BRANCH   3   4
ATOM      4  C   UNL     1     -24.481 -25.358  41.530  1.00  0.00     0.000 C 
BRANCH   4   5
ATOM      5  C   UNL     1     -25.990 -25.054  41.621  1.00  0.00     0.000 C 
BRANCH   5   6
ATOM      6  C   UNL     1     -26.910 -26.286  41.499  1.00  0.00     0.006 C 
BRANCH   6   7
ATOM      7  C   UNL     1     -28.040 -26.339  42.540  1.00  0.00     0.053 C 
BRANCH   7   8
ATOM      8  C   UNL     1     -29.242 -25.563  42.100  1.00  0.00     0.041 C 
ATOM      9  O   UNL     1     -29.503 -24.447  42.621  1.00  0.00    -0.550 OA
ATOM     10  O   UNL     1     -30.094 -26.088  41.136  1.00  0.00    -0.550 OA
ENDBRANCH   7   8
ENDBRANCH   6   7
ENDBRANCH   5   6
ENDBRANCH   4   5
ENDBRANCH   3   4
ENDBRANCH   2   3
ENDBRANCH   1   2
BRANCH   1  11
ATOM     11  C   UNL     1     -20.089 -25.130  39.716  1.00  0.00     0.000 C 
BRANCH  11  12
ATOM     12  C   UNL     1     -20.038 -26.446  38.915  1.00  0.00    -0.000 C 
BRANCH  12  13
ATOM     13  C   UNL     1     -21.346 -26.822  38.191  1.00  0.00    -0.000 C 
BRANCH  13  14
ATOM     14  C   UNL     1     -22.075 -28.053  38.765  1.00  0.00    -0.000 C 
BRANCH  14  15
ATOM     15  C   UNL     1     -22.317 -28.017  40.287  1.00  0.00    -0.000 C 
BRANCH  15  16
ATOM     16  C   UNL     1     -23.515 -28.850  40.777  1.00  0.00    -0.000 C 
BRANCH  16  17
ATOM     17  C   UNL     1     -24.215 -29.611  39.641  1.00  0.00    -0.003 C 
ATOM     18  C   UNL     1     -25.689 -29.225  39.548  1.00  0.00     0.004 C 
ENDBRANCH  16  17
ENDBRANCH  15  16
ENDBRANCH  14  15
ENDBRANCH  13  14
ENDBRANCH  12  13
ENDBRANCH  11  12
ENDBRANCH   1  11
TORSDOF 14
ENDMDL
MODEL 5
REMARK VINA RESULT:    -4.721      2.865      6.513
REMARK INTER + INTRA:         -10.263
REMARK INTER:                  -8.779
REMARK INTRA:                  -1.484
REMARK UNBOUND:                -1.678
REMARK SMILES CCCCCCCCCCCCCCCC(=O)[O-]
REMARK SMILES IDX 9 1 10 2 11 3 12 4 13 5 14 6 15 7 16 8 17 9 18 10 8 11 7 12
REMARK SMILES IDX 6 13 5 14 4 15 3 16 2 17 1 18
REMARK H PARENT
REMARK Flexibility Score: inf
ROOT
ATOM      1  C   UNL     1     -21.092 -23.794  39.275  1.00  0.00     0.000 C 
ENDROOT
BRANCH   1   2
ATOM      2  C   UNL     1     -19.903 -24.673  39.699  1.00  0.00     0.000 C 
BRANCH   2   3
ATOM      3  C   UNL     1     -20.068 -26.144  39.275  1.00  0.00     0.000 C 
BRANCH   3   4
ATOM      4  C   UNL     1     -21.414 -26.489  38.609  1.00  0.00     0.000 C 
BRANCH   4   5
ATOM      5  C   UNL     1     -21.860 -27.958  38.754  1.00  0.00     0.000 C 
BRANCH   5   6
ATOM      6  C   UNL     1     -22.685 -28.265  40.021  1.00  0.00     0.006 C 
BRANCH   6   7
ATOM      7  C   UNL     1     -23.599 -29.495  39.899  1.00  0.00     0.053 C 
BRANCH   7   8
ATOM      8  C   UNL     1     -24.784 -29.227  39.024  1.00  0.00     0.041 C 
ATOM      9  O   UNL     1     -24.804 -29.644  37.837  1.00  0.00    -0.550 OA
ATOM     10  O   UNL     1     -25.855 -28.487  39.510  1.00  0.00    -0.550 OA
ENDBRANCH   7   8
ENDBRANCH   6   7
ENDBRANCH   5   6
ENDBRANCH   4   5
ENDBRANCH   3   4
ENDBRANCH   2   3
ENDBRANCH   1   2
BRANCH   1  11
ATOM     11  C   UNL     1     -21.844 -23.186  40.474  1.00  0.00     0.000 C 
BRANCH  11  12
ATOM     12  C   UNL     1     -23.345 -22.921  40.242  1.00  0.00    -0.000 C 
BRANCH  12  13
ATOM     13  C   UNL     1     -24.300 -23.748  41.125  1.00  0.00    -0.000 C 
BRANCH  13  14
ATOM     14  C   UNL     1     -23.800 -25.165  41.469  1.00  0.00    -0.000 C 
BRANCH  14  15
ATOM     15  C   UNL     1     -24.807 -26.042  42.240  1.00  0.00    -0.000 C 
BRANCH  15  16
ATOM     16  C   UNL     1     -26.255 -25.981  41.720  1.00  0.00    -0.000 C 
BRANCH  16  17
ATOM     17  C   UNL     1     -27.270 -25.639  42.821  1.00  0.00    -0.003 C 
ATOM     18  C   UNL     1     -27.655 -24.163  42.774  1.00  0.00     0.004 C 
ENDBRANCH  16  17
ENDBRANCH  15  16
ENDBRANCH  14  15
ENDBRANCH  13  14
ENDBRANCH  12  13
ENDBRANCH  11  12
ENDBRANCH   1  11
TORSDOF 14
ENDMDL
MODEL 6
REMARK VINA RESULT:    -4.718      3.196      6.653
REMARK INTER + INTRA:         -10.257
REMARK INTER:                  -8.792
REMARK INTRA:                  -1.465
REMARK UNBOUND:                -1.678
REMARK SMILES CCCCCCCCCCCCCCCC(=O)[O-]
REMARK SMILES IDX 9 1 10 2 11 3 12 4 13 5 14 6 15 7 16 8 17 9 18 10 8 11 7 12
REMARK SMILES IDX 6 13 5 14 4 15 3 16 2 17 1 18
REMARK H PARENT
REMARK Flexibility Score: inf
ROOT
ATOM      1  C   UNL     1     -20.213 -26.034  39.558  1.00  0.00     0.000 C 
ENDROOT
BRANCH   1   2
ATOM      2  C   UNL     1     -21.035 -26.597  38.386  1.00  0.00     0.000 C 
BRANCH   2   3
ATOM      3  C   UNL     1     -21.863 -27.834  38.778  1.00  0.00     0.000 C 
BRANCH   3   4
ATOM      4  C   UNL     1     -22.387 -27.842  40.228  1.00  0.00     0.000 C 
BRANCH   4   5
ATOM      5  C   UNL     1     -22.865 -29.214  40.745  1.00  0.00     0.000 C 
BRANCH   5   6
ATOM      6  C   UNL     1     -24.383 -29.323  40.993  1.00  0.00     0.006 C 
BRANCH   6   7
ATOM      7  C   UNL     1     -25.253 -28.901  39.799  1.00  0.00     0.053 C 
BRANCH   7   8
ATOM      8  C   UNL     1     -25.205 -29.906  38.690  1.00  0.00     0.041 C 
ATOM      9  O   UNL     1     -24.805 -29.569  37.545  1.00  0.00    -0.550 OA
ATOM     10  O   UNL     1     -25.635 -31.208  38.912  1.00  0.00    -0.550 OA
ENDBRANCH   7   8
ENDBRANCH   6   7
ENDBRANCH   5   6
ENDBRANCH   4   5
ENDBRANCH   3   4
ENDBRANCH   2   3
ENDBRANCH   1   2
BRANCH   1  11
ATOM     11  C   UNL     1     -20.337 -24.505  39.696  1.00  0.00     0.000 C 
BRANCH  11  12
ATOM     12  C   UNL     1     -21.420 -23.852  38.813  1.00  0.00    -0.000 C 
BRANCH  12  13
ATOM     13  C   UNL     1     -22.110 -22.619  39.430  1.00  0.00    -0.000 C 
BRANCH  13  14
ATOM     14  C   UNL     1     -23.508 -22.887  40.022  1.00  0.00    -0.000 C 
BRANCH  14  15
ATOM     15  C   UNL     1     -23.513 -23.638  41.368  1.00  0.00    -0.000 C 
BRANCH  15  16
ATOM     16  C   UNL     1     -23.678 -25.165  41.262  1.00  0.00    -0.000 C 
BRANCH  16  17
ATOM     17  C   UNL     1     -25.049 -25.651  41.752  1.00  0.00    -0.003 C 
ATOM     18  C   UNL     1     -26.105 -24.559  41.605  1.00  0.00     0.004 C 
ENDBRANCH  16  17
ENDBRANCH  15  16
ENDBRANCH  14  15
ENDBRANCH  13  14
ENDBRANCH  12  13
ENDBRANCH  11  12
ENDBRANCH   1  11
TORSDOF 14
ENDMDL
MODEL 7
REMARK VINA RESULT:    -4.711      1.402      4.480
REMARK INTER + INTRA:         -10.244
REMARK INTER:                  -8.875
REMARK INTRA:                  -1.369
REMARK UNBOUND:                -1.678
REMARK SMILES CCCCCCCCCCCCCCCC(=O)[O-]
REMARK SMILES IDX 9 1 10 2 11 3 12 4 13 5 14 6 15 7 16 8 17 9 18 10 8 11 7 12
REMARK SMILES IDX 6 13 5 14 4 15 3 16 2 17 1 18
REMARK H PARENT
REMARK Flexibility Score: inf
ROOT
ATOM      1  C   UNL     1     -21.859 -27.906  38.550  1.00  0.00     0.000 C 
ENDROOT
BRANCH   1   2
ATOM      2  C   UNL     1     -21.009 -26.687  38.153  1.00  0.00     0.000 C 
BRANCH   2   3
ATOM      3  C   UNL     1     -19.971 -26.308  39.225  1.00  0.00     0.000 C 
BRANCH   3   4
ATOM      4  C   UNL     1     -20.025 -24.844  39.704  1.00  0.00     0.000 C 
BRANCH   4   5
ATOM      5  C   UNL     1     -21.378 -24.135  39.493  1.00  0.00     0.000 C 
BRANCH   5   6
ATOM      6  C   UNL     1     -22.285 -24.082  40.739  1.00  0.00     0.006 C 
BRANCH   6   7
ATOM      7  C   UNL     1     -22.340 -22.708  41.426  1.00  0.00     0.053 C 
BRANCH   7   8
ATOM      8  C   UNL     1     -23.507 -21.895  40.960  1.00  0.00     0.041 C 
ATOM      9  O   UNL     1     -24.359 -22.397  40.181  1.00  0.00    -0.550 OA
ATOM     10  O   UNL     1     -23.637 -20.571  41.359  1.00  0.00    -0.550 OA
ENDBRANCH   7   8
ENDBRANCH   6   7
ENDBRANCH   5   6
ENDBRANCH   4   5
ENDBRANCH   3   4
ENDBRANCH   2   3
ENDBRANCH   1   2
BRANCH   1  11
ATOM     11  C   UNL     1     -22.384 -27.823  39.996  1.00  0.00     0.000 C 
BRANCH  11  12
ATOM     12  C   UNL     1     -23.066 -29.102  40.521  1.00  0.00    -0.000 C 
BRANCH  12  13
ATOM     13  C   UNL     1     -24.283 -28.865  41.437  1.00  0.00    -0.000 C 
BRANCH  13  14
ATOM     14  C   UNL     1     -24.511 -27.397  41.845  1.00  0.00    -0.000 C 
BRANCH  14  15
ATOM     15  C   UNL     1     -25.787 -26.751  41.268  1.00  0.00    -0.000 C 
BRANCH  15  16
ATOM     16  C   UNL     1     -25.930 -25.241  41.533  1.00  0.00    -0.000 C 
BRANCH  16  17
ATOM     17  C   UNL     1     -27.152 -24.901  42.398  1.00  0.00    -0.003 C 
ATOM     18  C   UNL     1     -28.142 -26.063  42.432  1.00  0.00     0.004 C 
ENDBRANCH  16  17
ENDBRANCH  15  16
ENDBRANCH  14  15
ENDBRANCH  13  14
ENDBRANCH  12  13
ENDBRANCH  11  12
ENDBRANCH   1  11
TORSDOF 14
ENDMDL
MODEL 8
REMARK VINA RESULT:    -4.680      2.510      5.808
REMARK INTER + INTRA:         -10.189
REMARK INTER:                  -8.658
REMARK INTRA:                  -1.531
REMARK UNBOUND:                -1.678
REMARK SMILES CCCCCCCCCCCCCCCC(=O)[O-]
REMARK SMILES IDX 9 1 10 2 11 3 12 4 13 5 14 6 15 7 16 8 17 9 18 10 8 11 7 12
REMARK SMILES IDX 6 13 5 14 4 15 3 16 2 17 1 18
REMARK H PARENT
REMARK Flexibility Score: inf
ROOT
ATOM      1  C   UNL     1     -21.075 -26.343  39.999  1.00  0.00     0.000 C 
ENDROOT
BRANCH   1   2
ATOM      2  C   UNL     1     -21.164 -26.670  38.499  1.00  0.00     0.000 C 
BRANCH   2   3
ATOM      3  C   UNL     1     -21.650 -28.106  38.228  1.00  0.00     0.000 C 
BRANCH   3   4
ATOM      4  C   UNL     1     -23.038 -28.449  38.802  1.00  0.00     0.000 C 
BRANCH   4   5
ATOM      5  C   UNL     1     -23.024 -29.288  40.096  1.00  0.00     0.000 C 
BRANCH   5   6
ATOM      6  C   UNL     1     -24.294 -29.170  40.963  1.00  0.00     0.006 C 
BRANCH   6   7
ATOM      7  C   UNL     1     -25.371 -28.238  40.385  1.00  0.00     0.053 C 
BRANCH   7   8
ATOM      8  C   UNL     1     -25.815 -27.211  41.381  1.00  0.00     0.041 C 
ATOM      9  O   UNL     1     -26.912 -26.614  41.230  1.00  0.00    -0.550 OA
ATOM     10  O   UNL     1     -24.999 -26.890  42.458  1.00  0.00    -0.550 OA
ENDBRANCH   7   8
ENDBRANCH   6   7
ENDBRANCH   5   6
ENDBRANCH   4   5
ENDBRANCH   3   4
ENDBRANCH   2   3
ENDBRANCH   1   2
BRANCH   1  11
ATOM     11  C   UNL     1     -20.816 -24.850  40.272  1.00  0.00     0.000 C 
BRANCH  11  12
ATOM     12  C   UNL     1     -21.810 -24.177  41.239  1.00  0.00    -0.000 C 
BRANCH  12  13
ATOM     13  C   UNL     1     -23.298 -24.443  40.937  1.00  0.00    -0.000 C 
BRANCH  13  14
ATOM     14  C   UNL     1     -24.174 -23.179  40.827  1.00  0.00    -0.000 C 
BRANCH  14  15
ATOM     15  C   UNL     1     -23.447 -21.926  40.299  1.00  0.00    -0.000 C 
BRANCH  15  16
ATOM     16  C   UNL     1     -23.571 -21.692  38.783  1.00  0.00    -0.000 C 
BRANCH  16  17
ATOM     17  C   UNL     1     -22.463 -22.389  37.980  1.00  0.00    -0.003 C 
ATOM     18  C   UNL     1     -21.095 -21.790  38.296  1.00  0.00     0.004 C 
ENDBRANCH  16  17
ENDBRANCH  15  16
ENDBRANCH  14  15
ENDBRANCH  13  14
ENDBRANCH  12  13
ENDBRANCH  11  12
ENDBRANCH   1  11
TORSDOF 14
ENDMDL
MODEL 9
REMARK VINA RESULT:    -4.644      2.685      5.645
REMARK INTER + INTRA:         -10.122
REMARK INTER:                  -8.599
REMARK INTRA:                  -1.522
REMARK UNBOUND:                -1.678
REMARK SMILES CCCCCCCCCCCCCCCC(=O)[O-]
REMARK SMILES IDX 9 1 10 2 11 3 12 4 13 5 14 6 15 7 16 8 17 9 18 10 8 11 7 12
REMARK SMILES IDX 6 13 5 14 4 15 3 16 2 17 1 18
REMARK H PARENT
REMARK Flexibility Score: inf
ROOT
ATOM      1  C   UNL     1     -21.763 -28.204  38.103  1.00  0.00     0.000 C 
ENDROOT
BRANCH   1   2
ATOM      2  C   UNL     1     -23.105 -28.613  38.734  1.00  0.00     0.000 C 
BRANCH   2   3
ATOM      3  C   UNL     1     -22.932 -29.423  40.032  1.00  0.00     0.000 C 
BRANCH   3   4
ATOM      4  C   UNL     1     -23.467 -28.742  41.307  1.00  0.00     0.000 C 
BRANCH   4   5
ATOM      5  C   UNL     1     -24.764 -27.929  41.121  1.00  0.00     0.000 C 
BRANCH   5   6
ATOM      6  C   UNL     1     -24.726 -26.501  41.705  1.00  0.00     0.006 C 
BRANCH   6   7
ATOM      7  C   UNL     1     -25.961 -25.649  41.376  1.00  0.00     0.053 C 
BRANCH   7   8
ATOM      8  C   UNL     1     -27.053 -25.832  42.385  1.00  0.00     0.041 C 
ATOM      9  O   UNL     1     -26.834 -25.608  43.604  1.00  0.00    -0.550 OA
ATOM     10  O   UNL     1     -28.303 -26.282  41.982  1.00  0.00    -0.550 OA
ENDBRANCH   7   8
ENDBRANCH   6   7
ENDBRANCH   5   6
ENDBRANCH   4   5
ENDBRANCH   3   4
ENDBRANCH   2   3
ENDBRANCH   1   2
BRANCH   1  11
ATOM     11  C   UNL     1     -21.398 -26.733  38.372  1.00  0.00     0.000 C 
BRANCH  11  12
ATOM     12  C   UNL     1     -20.817 -26.446  39.771  1.00  0.00    -0.000 C 
BRANCH  12  13
ATOM     13  C   UNL     1     -20.115 -25.082  39.921  1.00  0.00    -0.000 C 
BRANCH  13  14
ATOM     14  C   UNL     1     -21.060 -23.866  39.956  1.00  0.00    -0.000 C 
BRANCH  14  15
ATOM     15  C   UNL     1     -22.185 -23.945  41.007  1.00  0.00    -0.000 C 
BRANCH  15  16
ATOM     16  C   UNL     1     -23.046 -22.675  41.137  1.00  0.00    -0.000 C 
BRANCH  16  17
ATOM     17  C   UNL     1     -24.153 -22.595  40.075  1.00  0.00    -0.003 C 
ATOM     18  C   UNL     1     -25.407 -21.930  40.638  1.00  0.00     0.004 C 
ENDBRANCH  16  17
ENDBRANCH  15  16
ENDBRANCH  14  15
ENDBRANCH  13  14
ENDBRANCH  12  13
ENDBRANCH  11  12
ENDBRANCH   1  11
TORSDOF 14
ENDMDL
