MODEL 1
REMARK VINA RESULT:    -4.357      0.000      0.000
REMARK INTER + INTRA:          -4.853
REMARK INTER:                  -4.612
REMARK INTRA:                  -0.241
REMARK UNBOUND:                -0.241
REMARK SMILES O=c1cc(-c2ccccc2)oc2ccccc12
REMARK SMILES IDX 4 1 3 2 2 3 1 4 17 5 16 6 15 7 14 8 13 9 12 10 11 11 5 12
REMARK SMILES IDX 8 13 7 14 9 15 6 16 10 17
REMARK H PARENT
REMARK Flexibility Score: inf
ROOT
ATOM      1  C   UNL     1      -8.586   8.399   0.646  1.00  0.00     0.138 A 
ATOM      2  C   UNL     1      -9.544   8.048  -0.328  1.00  0.00     0.100 A 
ATOM      3  C   UNL     1      -9.266   8.265  -1.678  1.00  0.00     0.193 A 
ATOM      4  O   UNL     1     -10.124   7.951  -2.548  1.00  0.00    -0.289 OA
ATOM      5  C   UNL     1      -8.037   8.831  -2.047  1.00  0.00     0.065 A 
ATOM      6  C   UNL     1      -7.695   9.076  -3.390  1.00  0.00     0.016 A 
ATOM      7  C   UNL     1      -6.455   9.643  -3.703  1.00  0.00     0.001 A 
ATOM      8  C   UNL     1      -5.553   9.966  -2.686  1.00  0.00     0.004 A 
ATOM      9  C   UNL     1      -5.885   9.725  -1.349  1.00  0.00     0.048 A 
ATOM     10  C   UNL     1      -7.123   9.159  -1.025  1.00  0.00     0.138 A 
ATOM     11  O   UNL     1      -7.429   8.935   0.249  1.00  0.00    -0.456 OA
ENDROOT
BRANCH   1  12
ATOM     12  C   UNL     1      -8.803   8.201   2.112  1.00  0.00     0.017 A 
ATOM     13  C   UNL     1      -9.128   7.780   4.884  1.00  0.00     0.000 A 
ATOM     14  C   UNL     1      -7.972   7.339   4.242  1.00  0.00     0.001 A 
ATOM     15  C   UNL     1     -10.123   8.431   4.155  1.00  0.00     0.001 A 
ATOM     16  C   UNL     1      -7.809   7.544   2.869  1.00  0.00     0.012 A 
ATOM     17  C   UNL     1      -9.968   8.642   2.782  1.00  0.00     0.012 A 
ENDBRANCH   1  12
TORSDOF 1
ENDMDL
MODEL 2
REMARK VINA RESULT:    -4.251     10.115     12.176
REMARK INTER + INTRA:          -4.740
REMARK INTER:                  -4.500
REMARK INTRA:                  -0.240
REMARK UNBOUND:                -0.241
REMARK SMILES O=c1cc(-c2ccccc2)oc2ccccc12
REMARK SMILES IDX 4 1 3 2 2 3 1 4 17 5 16 6 15 7 14 8 13 9 12 10 11 11 5 12
REMARK SMILES IDX 8 13 7 14 9 15 6 16 10 17
REMARK H PARENT
REMARK Flexibility Score: inf
ROOT
ATOM      1  C   UNL     1      -8.751   0.268   7.336  1.00  0.00     0.138 A 
ATOM      2  C   UNL     1      -9.191   0.310   5.997  1.00  0.00     0.100 A 
ATOM      3  C   UNL     1      -9.533  -0.877   5.347  1.00  0.00     0.193 A 
ATOM      4  O   UNL     1      -9.926  -0.839   4.148  1.00  0.00    -0.289 OA
ATOM      5  C   UNL     1      -9.433  -2.095   6.035  1.00  0.00     0.065 A 
ATOM      6  C   UNL     1      -9.761  -3.326   5.437  1.00  0.00     0.016 A 
ATOM      7  C   UNL     1      -9.644  -4.512   6.170  1.00  0.00     0.001 A 
ATOM      8  C   UNL     1      -9.201  -4.478   7.495  1.00  0.00     0.004 A 
ATOM      9  C   UNL     1      -8.872  -3.259   8.096  1.00  0.00     0.048 A 
ATOM     10  C   UNL     1      -8.987  -2.067   7.372  1.00  0.00     0.138 A 
ATOM     11  O   UNL     1      -8.672  -0.913   7.952  1.00  0.00    -0.456 OA
ENDROOT
BRANCH   1  12
ATOM     12  C   UNL     1      -8.365   1.490   8.106  1.00  0.00     0.017 A 
ATOM     13  C   UNL     1      -7.699   3.772   9.628  1.00  0.00     0.000 A 
ATOM     14  C   UNL     1      -8.620   2.849  10.122  1.00  0.00     0.001 A 
ATOM     15  C   UNL     1      -7.107   3.567   8.383  1.00  0.00     0.001 A 
ATOM     16  C   UNL     1      -8.952   1.718   9.369  1.00  0.00     0.012 A 
ATOM     17  C   UNL     1      -7.433   2.439   7.623  1.00  0.00     0.012 A 
ENDBRANCH   1  12
TORSDOF 1
ENDMDL
MODEL 3
REMARK VINA RESULT:    -4.236     16.644     18.114
REMARK INTER + INTRA:          -4.725
REMARK INTER:                  -4.483
REMARK INTRA:                  -0.242
REMARK UNBOUND:                -0.241
REMARK SMILES O=c1cc(-c2ccccc2)oc2ccccc12
REMARK SMILES IDX 4 1 3 2 2 3 1 4 17 5 16 6 15 7 14 8 13 9 12 10 11 11 5 12
REMARK SMILES IDX 8 13 7 14 9 15 6 16 10 17
REMARK H PARENT
REMARK Flexibility Score: inf
ROOT
ATOM      1  C   UNL     1      -8.526  -8.298  -1.570  1.00  0.00     0.138 A 
ATOM      2  C   UNL     1      -9.497  -7.968  -0.601  1.00  0.00     0.100 A 
ATOM      3  C   UNL     1      -9.257  -8.263   0.741  1.00  0.00     0.193 A 
ATOM      4  O   UNL     1     -10.125  -7.969   1.608  1.00  0.00    -0.289 OA
ATOM      5  C   UNL     1      -8.054  -8.884   1.108  1.00  0.00     0.065 A 
ATOM      6  C   UNL     1      -7.751  -9.208   2.443  1.00  0.00     0.016 A 
ATOM      7  C   UNL     1      -6.535  -9.827   2.754  1.00  0.00     0.001 A 
ATOM      8  C   UNL     1      -5.619 -10.125   1.741  1.00  0.00     0.004 A 
ATOM      9  C   UNL     1      -5.913  -9.806   0.412  1.00  0.00     0.048 A 
ATOM     10  C   UNL     1      -7.125  -9.186   0.090  1.00  0.00     0.138 A 
ATOM     11  O   UNL     1      -7.395  -8.888  -1.176  1.00  0.00    -0.456 OA
ENDROOT
BRANCH   1  12
ATOM     12  C   UNL     1      -8.703  -8.018  -3.029  1.00  0.00     0.017 A 
ATOM     13  C   UNL     1      -9.124  -7.531  -5.777  1.00  0.00     0.000 A 
ATOM     14  C   UNL     1     -10.120  -8.142  -5.016  1.00  0.00     0.001 A 
ATOM     15  C   UNL     1      -7.920  -7.161  -5.178  1.00  0.00     0.001 A 
ATOM     16  C   UNL     1      -9.913  -8.385  -3.655  1.00  0.00     0.012 A 
ATOM     17  C   UNL     1      -7.705  -7.400  -3.818  1.00  0.00     0.012 A 
ENDBRANCH   1  12
TORSDOF 1
ENDMDL
MODEL 4
REMARK VINA RESULT:    -4.230      9.504     11.960
REMARK INTER + INTRA:          -4.719
REMARK INTER:                  -4.481
REMARK INTRA:                  -0.238
REMARK UNBOUND:                -0.241
REMARK SMILES O=c1cc(-c2ccccc2)oc2ccccc12
REMARK SMILES IDX 4 1 3 2 2 3 1 4 17 5 16 6 15 7 14 8 13 9 12 10 11 11 5 12
REMARK SMILES IDX 8 13 7 14 9 15 6 16 10 17
REMARK H PARENT
REMARK Flexibility Score: inf
ROOT
ATOM      1  C   UNL     1      -8.126   1.421   8.607  1.00  0.00     0.138 A 
ATOM      2  C   UNL     1      -7.799   0.436   9.562  1.00  0.00     0.100 A 
ATOM      3  C   UNL     1      -8.030  -0.909   9.270  1.00  0.00     0.193 A 
ATOM      4  O   UNL     1      -7.739  -1.791  10.125  1.00  0.00    -0.289 OA
ATOM      5  C   UNL     1      -8.584  -1.262   8.031  1.00  0.00     0.065 A 
ATOM      6  C   UNL     1      -8.842  -2.599   7.675  1.00  0.00     0.016 A 
ATOM      7  C   UNL     1      -9.396  -2.895   6.425  1.00  0.00     0.001 A 
ATOM      8  C   UNL     1      -9.695  -1.866   5.527  1.00  0.00     0.004 A 
ATOM      9  C   UNL     1      -9.441  -0.536   5.873  1.00  0.00     0.048 A 
ATOM     10  C   UNL     1      -8.887  -0.228   7.121  1.00  0.00     0.138 A 
ATOM     11  O   UNL     1      -8.650   1.040   7.440  1.00  0.00    -0.456 OA
ENDROOT
BRANCH   1  12
ATOM     12  C   UNL     1      -7.911   2.883   8.838  1.00  0.00     0.017 A 
ATOM     13  C   UNL     1      -7.452   5.645   9.195  1.00  0.00     0.000 A 
ATOM     14  C   UNL     1      -6.917   4.986   8.089  1.00  0.00     0.001 A 
ATOM     15  C   UNL     1      -8.216   4.938  10.123  1.00  0.00     0.001 A 
ATOM     16  C   UNL     1      -7.141   3.617   7.910  1.00  0.00     0.012 A 
ATOM     17  C   UNL     1      -8.446   3.570   9.953  1.00  0.00     0.012 A 
ENDBRANCH   1  12
TORSDOF 1
ENDMDL
MODEL 5
REMARK VINA RESULT:    -4.137     17.422     19.522
REMARK INTER + INTRA:          -4.620
REMARK INTER:                  -4.360
REMARK INTRA:                  -0.260
REMARK UNBOUND:                -0.241
REMARK SMILES O=c1cc(-c2ccccc2)oc2ccccc12
REMARK SMILES IDX 4 1 3 2 2 3 1 4 17 5 16 6 15 7 14 8 13 9 12 10 11 11 5 12
REMARK SMILES IDX 8 13 7 14 9 15 6 16 10 17
REMARK H PARENT
REMARK Flexibility Score: inf
ROOT
ATOM      1  C   UNL     1      -3.291  -7.023   9.289  1.00  0.00     0.138 A 
ATOM      2  C   UNL     1      -2.338  -6.030   9.601  1.00  0.00     0.100 A 
ATOM      3  C   UNL     1      -0.979  -6.308   9.449  1.00  0.00     0.193 A 
ATOM      4  O   UNL     1      -0.127  -5.420   9.729  1.00  0.00    -0.289 OA
ATOM      5  C   UNL     1      -0.579  -7.571   8.990  1.00  0.00     0.065 A 
ATOM      6  C   UNL     1       0.774  -7.915   8.815  1.00  0.00     0.016 A 
ATOM      7  C   UNL     1       1.118  -9.190   8.353  1.00  0.00     0.001 A 
ATOM      8  C   UNL     1       0.120 -10.125   8.063  1.00  0.00     0.004 A 
ATOM      9  C   UNL     1      -1.227  -9.791   8.233  1.00  0.00     0.048 A 
ATOM     10  C   UNL     1      -1.582  -8.518   8.695  1.00  0.00     0.138 A 
ATOM     11  O   UNL     1      -2.865  -8.211   8.854  1.00  0.00    -0.456 OA
ENDROOT
BRANCH   1  12
ATOM     12  C   UNL     1      -4.764  -6.809   9.423  1.00  0.00     0.017 A 
ATOM     13  C   UNL     1      -7.559  -6.502   9.680  1.00  0.00     0.000 A 
ATOM     14  C   UNL     1      -6.992  -7.776   9.695  1.00  0.00     0.001 A 
ATOM     15  C   UNL     1      -6.743  -5.380   9.538  1.00  0.00     0.001 A 
ATOM     16  C   UNL     1      -5.609  -7.931   9.567  1.00  0.00     0.012 A 
ATOM     17  C   UNL     1      -5.358  -5.526   9.409  1.00  0.00     0.012 A 
ENDBRANCH   1  12
TORSDOF 1
ENDMDL
MODEL 6
REMARK VINA RESULT:    -4.118      4.329      5.910
REMARK INTER + INTRA:          -4.600
REMARK INTER:                  -4.333
REMARK INTRA:                  -0.266
REMARK UNBOUND:                -0.241
REMARK SMILES O=c1cc(-c2ccccc2)oc2ccccc12
REMARK SMILES IDX 4 1 3 2 2 3 1 4 17 5 16 6 15 7 14 8 13 9 12 10 11 11 5 12
REMARK SMILES IDX 8 13 7 14 9 15 6 16 10 17
REMARK H PARENT
REMARK Flexibility Score: inf
ROOT
ATOM      1  C   UNL     1     -10.025   6.142  -3.047  1.00  0.00     0.138 A 
ATOM      2  C   UNL     1     -10.059   6.804  -4.292  1.00  0.00     0.100 A 
ATOM      3  C   UNL     1     -10.093   6.056  -5.470  1.00  0.00     0.193 A 
ATOM      4  O   UNL     1     -10.123   6.649  -6.583  1.00  0.00    -0.289 OA
ATOM      5  C   UNL     1     -10.092   4.655  -5.398  1.00  0.00     0.065 A 
ATOM      6  C   UNL     1     -10.125   3.843  -6.547  1.00  0.00     0.016 A 
ATOM      7  C   UNL     1     -10.123   2.450  -6.418  1.00  0.00     0.001 A 
ATOM      8  C   UNL     1     -10.088   1.861  -5.151  1.00  0.00     0.004 A 
ATOM      9  C   UNL     1     -10.055   2.661  -4.005  1.00  0.00     0.048 A 
ATOM     10  C   UNL     1     -10.057   4.056  -4.122  1.00  0.00     0.138 A 
ATOM     11  O   UNL     1     -10.026   4.807  -3.027  1.00  0.00    -0.456 OA
ENDROOT
BRANCH   1  12
ATOM     12  C   UNL     1      -9.986   6.866  -1.740  1.00  0.00     0.017 A 
ATOM     13  C   UNL     1      -9.912   8.317   0.681  1.00  0.00     0.000 A 
ATOM     14  C   UNL     1      -9.929   8.993  -0.539  1.00  0.00     0.001 A 
ATOM     15  C   UNL     1      -9.933   6.923   0.703  1.00  0.00     0.001 A 
ATOM     16  C   UNL     1      -9.965   8.277  -1.739  1.00  0.00     0.012 A 
ATOM     17  C   UNL     1      -9.969   6.198  -0.493  1.00  0.00     0.012 A 
ENDBRANCH   1  12
TORSDOF 1
ENDMDL
MODEL 7
REMARK VINA RESULT:    -4.099     17.160     18.213
REMARK INTER + INTRA:          -4.580
REMARK INTER:                  -4.315
REMARK INTRA:                  -0.265
REMARK UNBOUND:                -0.241
REMARK SMILES O=c1cc(-c2ccccc2)oc2ccccc12
REMARK SMILES IDX 4 1 3 2 2 3 1 4 17 5 16 6 15 7 14 8 13 9 12 10 11 11 5 12
REMARK SMILES IDX 8 13 7 14 9 15 6 16 10 17
REMARK H PARENT
REMARK Flexibility Score: inf
ROOT
ATOM      1  C   UNL     1      -7.373  -9.316   3.721  1.00  0.00     0.138 A 
ATOM      2  C   UNL     1      -6.338  -9.743   2.864  1.00  0.00     0.100 A 
ATOM      3  C   UNL     1      -6.505  -9.647   1.481  1.00  0.00     0.193 A 
ATOM      4  O   UNL     1      -5.579 -10.029   0.714  1.00  0.00    -0.289 OA
ATOM      5  C   UNL     1      -7.700  -9.126   0.965  1.00  0.00     0.065 A 
ATOM      6  C   UNL     1      -7.931  -9.002  -0.418  1.00  0.00     0.016 A 
ATOM      7  C   UNL     1      -9.143  -8.475  -0.879  1.00  0.00     0.001 A 
ATOM      8  C   UNL     1     -10.125  -8.071   0.029  1.00  0.00     0.004 A 
ATOM      9  C   UNL     1      -9.902  -8.191   1.404  1.00  0.00     0.048 A 
ATOM     10  C   UNL     1      -8.695  -8.716   1.877  1.00  0.00     0.138 A 
ATOM     11  O   UNL     1      -8.494  -8.827   3.186  1.00  0.00    -0.456 OA
ENDROOT
BRANCH   1  12
ATOM     12  C   UNL     1      -7.277  -9.386   5.212  1.00  0.00     0.017 A 
ATOM     13  C   UNL     1      -7.174  -9.460   8.032  1.00  0.00     0.000 A 
ATOM     14  C   UNL     1      -8.195  -8.760   7.389  1.00  0.00     0.001 A 
ATOM     15  C   UNL     1      -6.205 -10.124   7.280  1.00  0.00     0.001 A 
ATOM     16  C   UNL     1      -8.247  -8.721   5.992  1.00  0.00     0.012 A 
ATOM     17  C   UNL     1      -6.251 -10.090   5.883  1.00  0.00     0.012 A 
ENDBRANCH   1  12
TORSDOF 1
ENDMDL
MODEL 8
REMARK VINA RESULT:    -4.085      1.431      2.873
REMARK INTER + INTRA:          -4.566
REMARK INTER:                  -4.335
REMARK INTRA:                  -0.230
REMARK UNBOUND:                -0.241
REMARK SMILES O=c1cc(-c2ccccc2)oc2ccccc12
REMARK SMILES IDX 4 1 3 2 2 3 1 4 17 5 16 6 15 7 14 8 13 9 12 10 11 11 5 12
REMARK SMILES IDX 8 13 7 14 9 15 6 16 10 17
REMARK H PARENT
REMARK Flexibility Score: inf
ROOT
ATOM      1  C   UNL     1      -8.507   8.070   0.789  1.00  0.00     0.138 A 
ATOM      2  C   UNL     1      -7.593   8.937   0.155  1.00  0.00     0.100 A 
ATOM      3  C   UNL     1      -7.528   8.970  -1.239  1.00  0.00     0.193 A 
ATOM      4  O   UNL     1      -6.710   9.745  -1.806  1.00  0.00    -0.289 OA
ATOM      5  C   UNL     1      -8.373   8.140  -1.989  1.00  0.00     0.065 A 
ATOM      6  C   UNL     1      -8.357   8.124  -3.396  1.00  0.00     0.016 A 
ATOM      7  C   UNL     1      -9.222   7.276  -4.096  1.00  0.00     0.001 A 
ATOM      8  C   UNL     1     -10.103   6.443  -3.402  1.00  0.00     0.004 A 
ATOM      9  C   UNL     1     -10.125   6.452  -2.004  1.00  0.00     0.048 A 
ATOM     10  C   UNL     1      -9.264   7.297  -1.294  1.00  0.00     0.138 A 
ATOM     11  O   UNL     1      -9.293   7.298   0.035  1.00  0.00    -0.456 OA
ENDROOT
BRANCH   1  12
ATOM     12  C   UNL     1      -8.641   7.972   2.275  1.00  0.00     0.017 A 
ATOM     13  C   UNL     1      -8.984   7.823   5.073  1.00  0.00     0.000 A 
ATOM     14  C   UNL     1     -10.022   8.286   4.266  1.00  0.00     0.001 A 
ATOM     15  C   UNL     1      -7.776   7.432   4.495  1.00  0.00     0.001 A 
ATOM     16  C   UNL     1      -9.855   8.362   2.881  1.00  0.00     0.012 A 
ATOM     17  C   UNL     1      -7.600   7.504   3.110  1.00  0.00     0.012 A 
ENDBRANCH   1  12
TORSDOF 1
ENDMDL
MODEL 9
REMARK VINA RESULT:    -4.030      2.683      3.510
REMARK INTER + INTRA:          -4.506
REMARK INTER:                  -4.269
REMARK INTRA:                  -0.237
REMARK UNBOUND:                -0.241
REMARK SMILES O=c1cc(-c2ccccc2)oc2ccccc12
REMARK SMILES IDX 4 1 3 2 2 3 1 4 17 5 16 6 15 7 14 8 13 9 12 10 11 11 5 12
REMARK SMILES IDX 8 13 7 14 9 15 6 16 10 17
REMARK H PARENT
REMARK Flexibility Score: inf
ROOT
ATOM      1  C   UNL     1      -9.454   7.265   2.966  1.00  0.00     0.138 A 
ATOM      2  C   UNL     1      -9.523   5.899   2.617  1.00  0.00     0.100 A 
ATOM      3  C   UNL     1      -9.709   5.539   1.281  1.00  0.00     0.193 A 
ATOM      4  O   UNL     1      -9.772   4.318   0.969  1.00  0.00    -0.289 OA
ATOM      5  C   UNL     1      -9.825   6.539   0.305  1.00  0.00     0.065 A 
ATOM      6  C   UNL     1     -10.014   6.243  -1.057  1.00  0.00     0.016 A 
ATOM      7  C   UNL     1     -10.123   7.281  -1.990  1.00  0.00     0.001 A 
ATOM      8  C   UNL     1     -10.045   8.612  -1.572  1.00  0.00     0.004 A 
ATOM      9  C   UNL     1      -9.857   8.914  -0.220  1.00  0.00     0.048 A 
ATOM     10  C   UNL     1      -9.747   7.885   0.721  1.00  0.00     0.138 A 
ATOM     11  O   UNL     1      -9.569   8.183   2.004  1.00  0.00    -0.456 OA
ENDROOT
BRANCH   1  12
ATOM     12  C   UNL     1      -9.258   7.737   4.371  1.00  0.00     0.017 A 
ATOM     13  C   UNL     1      -8.810   8.572   7.030  1.00  0.00     0.000 A 
ATOM     14  C   UNL     1      -7.943   7.659   6.429  1.00  0.00     0.001 A 
ATOM     15  C   UNL     1      -9.897   9.073   6.315  1.00  0.00     0.001 A 
ATOM     16  C   UNL     1      -8.164   7.243   5.113  1.00  0.00     0.012 A 
ATOM     17  C   UNL     1     -10.125   8.662   4.997  1.00  0.00     0.012 A 
ENDBRANCH   1  12
TORSDOF 1
ENDMDL
