MODEL 1
REMARK VINA RESULT:    -4.461      0.000      0.000
REMARK INTER + INTRA:          -6.792
REMARK INTER:                  -6.547
REMARK INTRA:                  -0.245
REMARK UNBOUND:                -0.245
REMARK SMILES O=C([O-])CCCCCCCC(=O)[O-]
REMARK SMILES IDX 7 1 6 2 5 3 4 4 2 5 1 6 3 7 8 8 9 9 10 10 11 11 12 12 13 13
REMARK H PARENT
REMARK Flexibility Score: inf
ROOT
ATOM      1  C   UNL     1       4.591 -36.628  19.302  1.00  0.00     0.000 C 
ENDROOT
BRANCH   1   2
ATOM      2  C   UNL     1       4.533 -35.927  20.667  1.00  0.00     0.000 C 
BRANCH   2   3
ATOM      3  C   UNL     1       5.913 -35.815  21.335  1.00  0.00     0.006 C 
BRANCH   3   4
ATOM      4  C   UNL     1       5.984 -36.561  22.674  1.00  0.00     0.053 C 
BRANCH   4   5
ATOM      5  C   UNL     1       5.647 -35.640  23.803  1.00  0.00     0.041 C 
ATOM      6  O   UNL     1       5.512 -34.406  23.595  1.00  0.00    -0.550 OA
ATOM      7  O   UNL     1       5.530 -36.137  25.096  1.00  0.00    -0.550 OA
ENDBRANCH   4   5
ENDBRANCH   3   4
ENDBRANCH   2   3
ENDBRANCH   1   2
BRANCH   1   8
ATOM      8  C   UNL     1       3.469 -37.668  19.171  1.00  0.00     0.000 C 
BRANCH   8   9
ATOM      9  C   UNL     1       2.711 -37.565  17.834  1.00  0.00     0.006 C 
BRANCH   9  10
ATOM     10  C   UNL     1       3.414 -36.706  16.771  1.00  0.00     0.053 C 
BRANCH  10  11
ATOM     11  C   UNL     1       3.156 -37.207  15.384  1.00  0.00     0.041 C 
ATOM     12  O   UNL     1       2.347 -36.602  14.632  1.00  0.00    -0.550 OA
ATOM     13  O   UNL     1       3.835 -38.322  14.908  1.00  0.00    -0.550 OA
ENDBRANCH  10  11
ENDBRANCH   9  10
ENDBRANCH   8   9
ENDBRANCH   1   8
TORSDOF 8
ENDMDL
MODEL 2
REMARK VINA RESULT:    -4.456      0.328      7.412
REMARK INTER + INTRA:          -6.784
REMARK INTER:                  -6.510
REMARK INTRA:                  -0.274
REMARK UNBOUND:                -0.245
REMARK SMILES O=C([O-])CCCCCCCC(=O)[O-]
REMARK SMILES IDX 7 1 6 2 5 3 4 4 2 5 1 6 3 7 8 8 9 9 10 10 11 11 12 12 13 13
REMARK H PARENT
REMARK Flexibility Score: inf
ROOT
ATOM      1  C   UNL     1       4.554 -36.848  19.441  1.00  0.00     0.000 C 
ENDROOT
BRANCH   1   2
ATOM      2  C   UNL     1       3.277 -37.690  19.308  1.00  0.00     0.000 C 
BRANCH   2   3
ATOM      3  C   UNL     1       2.653 -37.601  17.905  1.00  0.00     0.006 C 
BRANCH   3   4
ATOM      4  C   UNL     1       3.485 -36.748  16.940  1.00  0.00     0.053 C 
BRANCH   4   5
ATOM      5  C   UNL     1       3.045 -36.978  15.528  1.00  0.00     0.041 C 
ATOM      6  O   UNL     1       1.896 -36.623  15.158  1.00  0.00    -0.550 OA
ATOM      7  O   UNL     1       3.886 -37.631  14.635  1.00  0.00    -0.550 OA
ENDBRANCH   4   5
ENDBRANCH   3   4
ENDBRANCH   2   3
ENDBRANCH   1   2
BRANCH   1   8
ATOM      8  C   UNL     1       4.506 -35.976  20.705  1.00  0.00     0.000 C 
BRANCH   8   9
ATOM      9  C   UNL     1       5.895 -35.758  21.333  1.00  0.00     0.006 C 
BRANCH   9  10
ATOM     10  C   UNL     1       6.093 -36.450  22.691  1.00  0.00     0.053 C 
BRANCH  10  11
ATOM     11  C   UNL     1       5.674 -35.577  23.834  1.00  0.00     0.041 C 
ATOM     12  O   UNL     1       5.613 -34.328  23.687  1.00  0.00    -0.550 OA
ATOM     13  O   UNL     1       5.317 -36.145  25.050  1.00  0.00    -0.550 OA
ENDBRANCH  10  11
ENDBRANCH   9  10
ENDBRANCH   8   9
ENDBRANCH   1   8
TORSDOF 8
ENDMDL
MODEL 3
REMARK VINA RESULT:    -4.385      1.005      1.573
REMARK INTER + INTRA:          -6.681
REMARK INTER:                  -6.431
REMARK INTRA:                  -0.250
REMARK UNBOUND:                -0.245
REMARK SMILES O=C([O-])CCCCCCCC(=O)[O-]
REMARK SMILES IDX 7 1 6 2 5 3 4 4 2 5 1 6 3 7 8 8 9 9 10 10 11 11 12 12 13 13
REMARK H PARENT
REMARK Flexibility Score: inf
ROOT
ATOM      1  C   UNL     1       3.147 -37.751  19.623  1.00  0.00     0.000 C 
ENDROOT
BRANCH   1   2
ATOM      2  C   UNL     1       4.368 -36.830  19.484  1.00  0.00     0.000 C 
BRANCH   2   3
ATOM      3  C   UNL     1       5.364 -36.988  20.645  1.00  0.00     0.006 C 
BRANCH   3   4
ATOM      4  C   UNL     1       5.745 -35.647  21.285  1.00  0.00     0.053 C 
BRANCH   4   5
ATOM      5  C   UNL     1       5.803 -35.779  22.775  1.00  0.00     0.041 C 
ATOM      6  O   UNL     1       6.125 -36.876  23.302  1.00  0.00    -0.550 OA
ATOM      7  O   UNL     1       5.451 -34.704  23.582  1.00  0.00    -0.550 OA
ENDBRANCH   4   5
ENDBRANCH   3   4
ENDBRANCH   2   3
ENDBRANCH   1   2
BRANCH   1   8
ATOM      8  C   UNL     1       2.381 -37.850  18.295  1.00  0.00     0.000 C 
BRANCH   8   9
ATOM      9  C   UNL     1       3.126 -37.182  17.125  1.00  0.00     0.006 C 
BRANCH   9  10
ATOM     10  C   UNL     1       2.529 -37.479  15.740  1.00  0.00     0.053 C 
BRANCH  10  11
ATOM     11  C   UNL     1       3.585 -37.577  14.682  1.00  0.00     0.041 C 
ATOM     12  O   UNL     1       3.910 -36.560  14.015  1.00  0.00    -0.550 OA
ATOM     13  O   UNL     1       4.234 -38.784  14.455  1.00  0.00    -0.550 OA
ENDBRANCH  10  11
ENDBRANCH   9  10
ENDBRANCH   8   9
ENDBRANCH   1   8
TORSDOF 8
ENDMDL
MODEL 4
REMARK VINA RESULT:    -4.303      0.564      1.380
REMARK INTER + INTRA:          -6.560
REMARK INTER:                  -6.313
REMARK INTRA:                  -0.247
REMARK UNBOUND:                -0.245
REMARK SMILES O=C([O-])CCCCCCCC(=O)[O-]
REMARK SMILES IDX 7 1 6 2 5 3 4 4 2 5 1 6 3 7 8 8 9 9 10 10 11 11 12 12 13 13
REMARK H PARENT
REMARK Flexibility Score: inf
ROOT
ATOM      1  C   UNL     1       4.619 -36.253  19.291  1.00  0.00     0.000 C 
ENDROOT
BRANCH   1   2
ATOM      2  C   UNL     1       5.717 -36.396  20.354  1.00  0.00     0.000 C 
BRANCH   2   3
ATOM      3  C   UNL     1       5.327 -35.760  21.699  1.00  0.00     0.006 C 
BRANCH   3   4
ATOM      4  C   UNL     1       6.124 -36.333  22.878  1.00  0.00     0.053 C 
BRANCH   4   5
ATOM      5  C   UNL     1       6.046 -35.413  24.056  1.00  0.00     0.041 C 
ATOM      6  O   UNL     1       6.043 -35.880  25.224  1.00  0.00    -0.550 OA
ATOM      7  O   UNL     1       5.924 -34.042  23.861  1.00  0.00    -0.550 OA
ENDBRANCH   4   5
ENDBRANCH   3   4
ENDBRANCH   2   3
ENDBRANCH   1   2
BRANCH   1   8
ATOM      8  C   UNL     1       3.611 -37.407  19.385  1.00  0.00     0.000 C 
BRANCH   8   9
ATOM      9  C   UNL     1       2.951 -37.737  18.033  1.00  0.00     0.006 C 
BRANCH   9  10
ATOM     10  C   UNL     1       3.117 -36.645  16.963  1.00  0.00     0.053 C 
BRANCH  10  11
ATOM     11  C   UNL     1       3.068 -37.206  15.576  1.00  0.00     0.041 C 
ATOM     12  O   UNL     1       3.596 -38.322  15.325  1.00  0.00    -0.550 OA
ATOM     13  O   UNL     1       2.412 -36.514  14.566  1.00  0.00    -0.550 OA
ENDBRANCH  10  11
ENDBRANCH   9  10
ENDBRANCH   8   9
ENDBRANCH   1   8
TORSDOF 8
ENDMDL
MODEL 5
REMARK VINA RESULT:    -4.209      0.999      7.344
REMARK INTER + INTRA:          -6.422
REMARK INTER:                  -6.171
REMARK INTRA:                  -0.252
REMARK UNBOUND:                -0.245
REMARK SMILES O=C([O-])CCCCCCCC(=O)[O-]
REMARK SMILES IDX 7 1 6 2 5 3 4 4 2 5 1 6 3 7 8 8 9 9 10 10 11 11 12 12 13 13
REMARK H PARENT
REMARK Flexibility Score: inf
ROOT
ATOM      1  C   UNL     1       3.629 -37.434  19.596  1.00  0.00     0.000 C 
ENDROOT
BRANCH   1   2
ATOM      2  C   UNL     1       3.627 -37.028  18.114  1.00  0.00     0.000 C 
BRANCH   2   3
ATOM      3  C   UNL     1       2.404 -37.567  17.354  1.00  0.00     0.006 C 
BRANCH   3   4
ATOM      4  C   UNL     1       2.149 -36.821  16.038  1.00  0.00     0.053 C 
BRANCH   4   5
ATOM      5  C   UNL     1       3.159 -37.218  15.009  1.00  0.00     0.041 C 
ATOM      6  O   UNL     1       3.473 -36.420  14.088  1.00  0.00    -0.550 OA
ATOM      7  O   UNL     1       3.718 -38.490  15.037  1.00  0.00    -0.550 OA
ENDBRANCH   4   5
ENDBRANCH   3   4
ENDBRANCH   2   3
ENDBRANCH   1   2
BRANCH   1   8
ATOM      8  C   UNL     1       5.059 -37.692  20.091  1.00  0.00     0.000 C 
BRANCH   8   9
ATOM      9  C   UNL     1       5.730 -36.430  20.665  1.00  0.00     0.006 C 
BRANCH   9  10
ATOM     10  C   UNL     1       4.891 -35.687  21.716  1.00  0.00     0.053 C 
BRANCH  10  11
ATOM     11  C   UNL     1       5.612 -35.559  23.023  1.00  0.00     0.041 C 
ATOM     12  O   UNL     1       6.125 -36.574  23.565  1.00  0.00    -0.550 OA
ATOM     13  O   UNL     1       5.747 -34.315  23.625  1.00  0.00    -0.550 OA
ENDBRANCH  10  11
ENDBRANCH   9  10
ENDBRANCH   8   9
ENDBRANCH   1   8
TORSDOF 8
ENDMDL
MODEL 6
REMARK VINA RESULT:    -3.667      2.274      2.642
REMARK INTER + INTRA:          -5.627
REMARK INTER:                  -5.293
REMARK INTRA:                  -0.334
REMARK UNBOUND:                -0.245
REMARK SMILES O=C([O-])CCCCCCCC(=O)[O-]
REMARK SMILES IDX 7 1 6 2 5 3 4 4 2 5 1 6 3 7 8 8 9 9 10 10 11 11 12 12 13 13
REMARK H PARENT
REMARK Flexibility Score: inf
ROOT
ATOM      1  C   UNL     1       4.313 -36.295  19.043  1.00  0.00     0.000 C 
ENDROOT
BRANCH   1   2
ATOM      2  C   UNL     1       5.373 -36.545  20.126  1.00  0.00     0.000 C 
BRANCH   2   3
ATOM      3  C   UNL     1       5.410 -38.010  20.592  1.00  0.00     0.006 C 
BRANCH   3   4
ATOM      4  C   UNL     1       5.570 -38.144  22.112  1.00  0.00     0.053 C 
BRANCH   4   5
ATOM      5  C   UNL     1       5.624 -39.587  22.505  1.00  0.00     0.041 C 
ATOM      6  O   UNL     1       5.268 -39.942  23.659  1.00  0.00    -0.550 OA
ATOM      7  O   UNL     1       6.114 -40.533  21.613  1.00  0.00    -0.550 OA
ENDBRANCH   4   5
ENDBRANCH   3   4
ENDBRANCH   2   3
ENDBRANCH   1   2
BRANCH   1   8
ATOM      8  C   UNL     1       3.385 -37.509  18.893  1.00  0.00     0.000 C 
BRANCH   8   9
ATOM      9  C   UNL     1       2.699 -37.570  17.516  1.00  0.00     0.006 C 
BRANCH   9  10
ATOM     10  C   UNL     1       3.304 -36.628  16.463  1.00  0.00     0.053 C 
BRANCH  10  11
ATOM     11  C   UNL     1       3.141 -37.161  15.072  1.00  0.00     0.041 C 
ATOM     12  O   UNL     1       2.236 -36.708  14.323  1.00  0.00    -0.550 OA
ATOM     13  O   UNL     1       4.009 -38.133  14.592  1.00  0.00    -0.550 OA
ENDBRANCH  10  11
ENDBRANCH   9  10
ENDBRANCH   8   9
ENDBRANCH   1   8
TORSDOF 8
ENDMDL
MODEL 7
REMARK VINA RESULT:    -3.511      1.137      7.634
REMARK INTER + INTRA:          -5.398
REMARK INTER:                  -5.308
REMARK INTRA:                  -0.090
REMARK UNBOUND:                -0.245
REMARK SMILES O=C([O-])CCCCCCCC(=O)[O-]
REMARK SMILES IDX 7 1 6 2 5 3 4 4 2 5 1 6 3 7 8 8 9 9 10 10 11 11 12 12 13 13
REMARK H PARENT
REMARK Flexibility Score: inf
ROOT
ATOM      1  C   UNL     1       4.687 -35.974  20.377  1.00  0.00     0.000 C 
ENDROOT
BRANCH   1   2
ATOM      2  C   UNL     1       4.342 -37.170  19.478  1.00  0.00     0.000 C 
BRANCH   2   3
ATOM      3  C   UNL     1       3.993 -36.750  18.041  1.00  0.00     0.006 C 
BRANCH   3   4
ATOM      4  C   UNL     1       2.932 -37.654  17.401  1.00  0.00     0.053 C 
BRANCH   4   5
ATOM      5  C   UNL     1       2.697 -37.257  15.978  1.00  0.00     0.041 C 
ATOM      6  O   UNL     1       3.342 -37.812  15.050  1.00  0.00    -0.550 OA
ATOM      7  O   UNL     1       1.802 -36.236  15.679  1.00  0.00    -0.550 OA
ENDBRANCH   4   5
ENDBRANCH   3   4
ENDBRANCH   2   3
ENDBRANCH   1   2
BRANCH   1   8
ATOM      8  C   UNL     1       5.732 -36.364  21.432  1.00  0.00     0.000 C 
BRANCH   8   9
ATOM      9  C   UNL     1       5.988 -35.248  22.462  1.00  0.00     0.006 C 
BRANCH   9  10
ATOM     10  C   UNL     1       5.132 -35.350  23.735  1.00  0.00     0.053 C 
BRANCH  10  11
ATOM     11  C   UNL     1       5.737 -36.273  24.747  1.00  0.00     0.041 C 
ATOM     12  O   UNL     1       6.125 -35.827  25.859  1.00  0.00    -0.550 OA
ATOM     13  O   UNL     1       5.841 -37.632  24.476  1.00  0.00    -0.550 OA
ENDBRANCH  10  11
ENDBRANCH   9  10
ENDBRANCH   8   9
ENDBRANCH   1   8
TORSDOF 8
ENDMDL
MODEL 8
REMARK VINA RESULT:    -2.907      1.960      2.812
REMARK INTER + INTRA:          -4.511
REMARK INTER:                  -4.377
REMARK INTRA:                  -0.134
REMARK UNBOUND:                -0.245
REMARK SMILES O=C([O-])CCCCCCCC(=O)[O-]
REMARK SMILES IDX 7 1 6 2 5 3 4 4 2 5 1 6 3 7 8 8 9 9 10 10 11 11 12 12 13 13
REMARK H PARENT
REMARK Flexibility Score: inf
ROOT
ATOM      1  C   UNL     1       4.962 -36.014  21.261  1.00  0.00     0.000 C 
ENDROOT
BRANCH   1   2
ATOM      2  C   UNL     1       6.107 -35.588  22.192  1.00  0.00     0.000 C 
BRANCH   2   3
ATOM      3  C   UNL     1       5.607 -34.884  23.464  1.00  0.00     0.006 C 
BRANCH   3   4
ATOM      4  C   UNL     1       6.125 -35.544  24.748  1.00  0.00     0.053 C 
BRANCH   4   5
ATOM      5  C   UNL     1       5.437 -36.853  24.977  1.00  0.00     0.041 C 
ATOM      6  O   UNL     1       4.603 -36.975  25.911  1.00  0.00    -0.550 OA
ATOM      7  O   UNL     1       5.755 -37.952  24.189  1.00  0.00    -0.550 OA
ENDBRANCH   4   5
ENDBRANCH   3   4
ENDBRANCH   2   3
ENDBRANCH   1   2
BRANCH   1   8
ATOM      8  C   UNL     1       5.190 -35.489  19.836  1.00  0.00     0.000 C 
BRANCH   8   9
ATOM      9  C   UNL     1       4.589 -36.409  18.757  1.00  0.00     0.006 C 
BRANCH   9  10
ATOM     10  C   UNL     1       3.763 -37.582  19.311  1.00  0.00     0.053 C 
BRANCH  10  11
ATOM     11  C   UNL     1       2.511 -37.809  18.523  1.00  0.00     0.041 C 
ATOM     12  O   UNL     1       1.476 -38.249  19.091  1.00  0.00    -0.550 OA
ATOM     13  O   UNL     1       2.474 -37.503  17.168  1.00  0.00    -0.550 OA
ENDBRANCH  10  11
ENDBRANCH   9  10
ENDBRANCH   8   9
ENDBRANCH   1   8
TORSDOF 8
ENDMDL
