MODEL 1
REMARK VINA RESULT:    -4.538      0.000      0.000
REMARK INTER + INTRA:          -5.385
REMARK INTER:                  -5.201
REMARK INTRA:                  -0.184
REMARK UNBOUND:                -0.184
REMARK SMILES CC=Cc1ccc(O)c(OC)c1
REMARK SMILES IDX 4 1 12 2 9 3 7 4 6 5 5 6 3 7 1 8 2 9 10 10 11 11 8 12
REMARK H PARENT 8 13
REMARK Flexibility Score: inf
ROOT
ATOM      1  C   UNL     1      17.244  19.478  17.042  1.00  0.00    -0.022 A 
ATOM      2  C   UNL     1      16.176  18.569  16.991  1.00  0.00     0.058 A 
ATOM      3  C   UNL     1      15.187  18.678  15.993  1.00  0.00     0.161 A 
ATOM      4  C   UNL     1      15.292  19.699  15.031  1.00  0.00     0.157 A 
ATOM      5  C   UNL     1      16.373  20.586  15.067  1.00  0.00     0.051 A 
ATOM      6  C   UNL     1      17.348  20.472  16.058  1.00  0.00     0.012 A 
ENDROOT
BRANCH   1   7
ATOM      7  C   UNL     1      18.277  19.317  18.086  1.00  0.00     0.003 C 
ATOM      8  C   UNL     1      17.503  21.272  19.453  1.00  0.00     0.035 C 
ATOM      9  C   UNL     1      18.414  20.122  19.148  1.00  0.00    -0.030 C 
ENDBRANCH   1   7
BRANCH   3  10
ATOM     10  O   UNL     1      14.096  17.796  15.928  1.00  0.00    -0.493 OA
ATOM     11  C   UNL     1      14.201  16.376  15.968  1.00  0.00     0.278 C 
ENDBRANCH   3  10
BRANCH   4  12
ATOM     12  O   UNL     1      14.334  19.845  14.027  1.00  0.00    -0.504 OA
ATOM     13  H   UNL     1      14.172  19.132  13.328  1.00  0.00     0.293 HD
ENDBRANCH   4  12
TORSDOF 3
ENDMDL
MODEL 2
REMARK VINA RESULT:    -4.534      8.245     10.076
REMARK INTER + INTRA:          -5.381
REMARK INTER:                  -5.165
REMARK INTRA:                  -0.216
REMARK UNBOUND:                -0.184
REMARK SMILES CC=Cc1ccc(O)c(OC)c1
REMARK SMILES IDX 4 1 12 2 9 3 7 4 6 5 5 6 3 7 1 8 2 9 10 10 11 11 8 12
REMARK H PARENT 8 13
REMARK Flexibility Score: inf
ROOT
ATOM      1  C   UNL     1      19.855  24.898   8.656  1.00  0.00    -0.022 A 
ATOM      2  C   UNL     1      19.234  23.775   9.224  1.00  0.00     0.058 A 
ATOM      3  C   UNL     1      17.829  23.677   9.270  1.00  0.00     0.161 A 
ATOM      4  C   UNL     1      17.051  24.711   8.720  1.00  0.00     0.157 A 
ATOM      5  C   UNL     1      17.672  25.816   8.128  1.00  0.00     0.051 A 
ATOM      6  C   UNL     1      19.064  25.906   8.086  1.00  0.00     0.012 A 
ENDROOT
BRANCH   1   7
ATOM      7  C   UNL     1      21.331  24.954   8.600  1.00  0.00     0.003 C 
ATOM      8  C   UNL     1      21.484  24.112   6.242  1.00  0.00     0.035 C 
ATOM      9  C   UNL     1      22.064  24.586   7.541  1.00  0.00    -0.030 C 
ENDBRANCH   1   7
BRANCH   3  10
ATOM     10  O   UNL     1      17.179  22.575   9.849  1.00  0.00    -0.493 OA
ATOM     11  C   UNL     1      17.187  21.257   9.311  1.00  0.00     0.278 C 
ENDBRANCH   3  10
BRANCH   4  12
ATOM     12  O   UNL     1      15.657  24.657   8.746  1.00  0.00    -0.504 OA
ATOM     13  H   UNL     1      15.089  25.004   7.983  1.00  0.00     0.293 HD
ENDBRANCH   4  12
TORSDOF 3
ENDMDL
MODEL 3
REMARK VINA RESULT:    -4.517      2.804      4.905
REMARK INTER + INTRA:          -5.362
REMARK INTER:                  -5.267
REMARK INTRA:                  -0.095
REMARK UNBOUND:                -0.184
REMARK SMILES CC=Cc1ccc(O)c(OC)c1
REMARK SMILES IDX 4 1 12 2 9 3 7 4 6 5 5 6 3 7 1 8 2 9 10 10 11 11 8 12
REMARK H PARENT 8 13
REMARK Flexibility Score: inf
ROOT
ATOM      1  C   UNL     1      17.093  19.551  15.950  1.00  0.00    -0.022 A 
ATOM      2  C   UNL     1      17.354  20.431  17.011  1.00  0.00     0.058 A 
ATOM      3  C   UNL     1      17.775  19.940  18.264  1.00  0.00     0.161 A 
ATOM      4  C   UNL     1      17.952  18.555  18.435  1.00  0.00     0.157 A 
ATOM      5  C   UNL     1      17.719  17.683  17.366  1.00  0.00     0.051 A 
ATOM      6  C   UNL     1      17.302  18.176  16.129  1.00  0.00     0.012 A 
ENDROOT
BRANCH   1   7
ATOM      7  C   UNL     1      16.680  20.103  14.643  1.00  0.00     0.003 C 
ATOM      8  C   UNL     1      14.400  19.057  14.684  1.00  0.00     0.035 C 
ATOM      9  C   UNL     1      15.495  19.871  14.062  1.00  0.00    -0.030 C 
ENDBRANCH   1   7
BRANCH   3  10
ATOM     10  O   UNL     1      18.025  20.794  19.351  1.00  0.00    -0.493 OA
ATOM     11  C   UNL     1      17.280  21.973  19.640  1.00  0.00     0.278 C 
ENDBRANCH   3  10
BRANCH   4  12
ATOM     12  O   UNL     1      18.365  18.026  19.657  1.00  0.00    -0.504 OA
ATOM     13  H   UNL     1      19.177  18.375  20.150  1.00  0.00     0.293 HD
ENDBRANCH   4  12
TORSDOF 3
ENDMDL
MODEL 4
REMARK VINA RESULT:    -4.465      2.458      4.545
REMARK INTER + INTRA:          -5.302
REMARK INTER:                  -5.065
REMARK INTRA:                  -0.237
REMARK UNBOUND:                -0.184
REMARK SMILES CC=Cc1ccc(O)c(OC)c1
REMARK SMILES IDX 4 1 12 2 9 3 7 4 6 5 5 6 3 7 1 8 2 9 10 10 11 11 8 12
REMARK H PARENT 8 13
REMARK Flexibility Score: inf
ROOT
ATOM      1  C   UNL     1      15.132  17.965  16.422  1.00  0.00    -0.022 A 
ATOM      2  C   UNL     1      16.067  17.717  17.438  1.00  0.00     0.058 A 
ATOM      3  C   UNL     1      17.200  18.542  17.589  1.00  0.00     0.161 A 
ATOM      4  C   UNL     1      17.374  19.634  16.720  1.00  0.00     0.157 A 
ATOM      5  C   UNL     1      16.425  19.896  15.726  1.00  0.00     0.051 A 
ATOM      6  C   UNL     1      15.306  19.074  15.583  1.00  0.00     0.012 A 
ENDROOT
BRANCH   1   7
ATOM      7  C   UNL     1      13.942  17.096  16.311  1.00  0.00     0.003 C 
ATOM      8  C   UNL     1      14.997  15.500  14.689  1.00  0.00     0.035 C 
ATOM      9  C   UNL     1      13.865  16.012  15.527  1.00  0.00    -0.030 C 
ENDBRANCH   1   7
BRANCH   3  10
ATOM     10  O   UNL     1      18.163  18.307  18.583  1.00  0.00    -0.493 OA
ATOM     11  C   UNL     1      17.955  17.498  19.736  1.00  0.00     0.278 C 
ENDBRANCH   3  10
BRANCH   4  12
ATOM     12  O   UNL     1      18.481  20.475  16.831  1.00  0.00    -0.504 OA
ATOM     13  H   UNL     1      18.552  21.345  16.319  1.00  0.00     0.293 HD
ENDBRANCH   4  12
TORSDOF 3
ENDMDL
MODEL 5
REMARK VINA RESULT:    -4.396      2.077      3.905
REMARK INTER + INTRA:          -5.222
REMARK INTER:                  -5.048
REMARK INTRA:                  -0.174
REMARK UNBOUND:                -0.184
REMARK SMILES CC=Cc1ccc(O)c(OC)c1
REMARK SMILES IDX 4 1 12 2 9 3 7 4 6 5 5 6 3 7 1 8 2 9 10 10 11 11 8 12
REMARK H PARENT 8 13
REMARK Flexibility Score: inf
ROOT
ATOM      1  C   UNL     1      16.737  19.859  16.267  1.00  0.00    -0.022 A 
ATOM      2  C   UNL     1      15.754  18.936  16.654  1.00  0.00     0.058 A 
ATOM      3  C   UNL     1      16.014  17.990  17.667  1.00  0.00     0.161 A 
ATOM      4  C   UNL     1      17.269  17.995  18.303  1.00  0.00     0.157 A 
ATOM      5  C   UNL     1      18.237  18.935  17.936  1.00  0.00     0.051 A 
ATOM      6  C   UNL     1      17.972  19.868  16.932  1.00  0.00     0.012 A 
ENDROOT
BRANCH   1   7
ATOM      7  C   UNL     1      16.419  20.853  15.222  1.00  0.00     0.003 C 
ATOM      8  C   UNL     1      16.787  19.273  13.309  1.00  0.00     0.035 C 
ATOM      9  C   UNL     1      16.460  20.609  13.905  1.00  0.00    -0.030 C 
ENDBRANCH   1   7
BRANCH   3  10
ATOM     10  O   UNL     1      15.058  17.041  18.061  1.00  0.00    -0.493 OA
ATOM     11  C   UNL     1      13.663  17.139  17.793  1.00  0.00     0.278 C 
ENDBRANCH   3  10
BRANCH   4  12
ATOM     12  O   UNL     1      17.570  17.076  19.308  1.00  0.00    -0.504 OA
ATOM     13  H   UNL     1      18.149  17.316  20.103  1.00  0.00     0.293 HD
ENDBRANCH   4  12
TORSDOF 3
ENDMDL
MODEL 6
REMARK VINA RESULT:    -4.371      7.273      8.922
REMARK INTER + INTRA:          -5.194
REMARK INTER:                  -5.164
REMARK INTRA:                  -0.030
REMARK UNBOUND:                -0.184
REMARK SMILES CC=Cc1ccc(O)c(OC)c1
REMARK SMILES IDX 4 1 12 2 9 3 7 4 6 5 5 6 3 7 1 8 2 9 10 10 11 11 8 12
REMARK H PARENT 8 13
REMARK Flexibility Score: inf
ROOT
ATOM      1  C   UNL     1      17.324  12.879  13.000  1.00  0.00    -0.022 A 
ATOM      2  C   UNL     1      18.383  13.340  12.203  1.00  0.00     0.058 A 
ATOM      3  C   UNL     1      19.146  12.440  11.432  1.00  0.00     0.161 A 
ATOM      4  C   UNL     1      18.822  11.072  11.453  1.00  0.00     0.157 A 
ATOM      5  C   UNL     1      17.747  10.619  12.226  1.00  0.00     0.051 A 
ATOM      6  C   UNL     1      16.997  11.516  12.987  1.00  0.00     0.012 A 
ENDROOT
BRANCH   1   7
ATOM      7  C   UNL     1      16.529  13.855  13.774  1.00  0.00     0.003 C 
ATOM      8  C   UNL     1      18.398  14.464  15.331  1.00  0.00     0.035 C 
ATOM      9  C   UNL     1      16.990  14.547  14.824  1.00  0.00    -0.030 C 
ENDBRANCH   1   7
BRANCH   3  10
ATOM     10  O   UNL     1      20.224  12.868  10.640  1.00  0.00    -0.493 OA
ATOM     11  C   UNL     1      20.884  14.122  10.783  1.00  0.00     0.278 C 
ENDBRANCH   3  10
BRANCH   4  12
ATOM     12  O   UNL     1      19.551  10.146  10.708  1.00  0.00    -0.504 OA
ATOM     13  H   UNL     1      19.965  10.378   9.814  1.00  0.00     0.293 HD
ENDBRANCH   4  12
TORSDOF 3
ENDMDL
MODEL 7
REMARK VINA RESULT:    -4.365      2.389      3.230
REMARK INTER + INTRA:          -5.187
REMARK INTER:                  -4.975
REMARK INTRA:                  -0.212
REMARK UNBOUND:                -0.184
REMARK SMILES CC=Cc1ccc(O)c(OC)c1
REMARK SMILES IDX 4 1 12 2 9 3 7 4 6 5 5 6 3 7 1 8 2 9 10 10 11 11 8 12
REMARK H PARENT 8 13
REMARK Flexibility Score: inf
ROOT
ATOM      1  C   UNL     1      16.871  18.124  16.756  1.00  0.00    -0.022 A 
ATOM      2  C   UNL     1      17.424  17.064  16.023  1.00  0.00     0.058 A 
ATOM      3  C   UNL     1      16.594  16.162  15.326  1.00  0.00     0.161 A 
ATOM      4  C   UNL     1      15.200  16.350  15.356  1.00  0.00     0.157 A 
ATOM      5  C   UNL     1      14.653  17.426  16.063  1.00  0.00     0.051 A 
ATOM      6  C   UNL     1      15.482  18.313  16.751  1.00  0.00     0.012 A 
ENDROOT
BRANCH   1   7
ATOM      7  C   UNL     1      17.773  19.066  17.451  1.00  0.00     0.003 C 
ATOM      8  C   UNL     1      17.990  17.662  19.518  1.00  0.00     0.035 C 
ATOM      9  C   UNL     1      18.257  18.880  18.686  1.00  0.00    -0.030 C 
ENDBRANCH   1   7
BRANCH   3  10
ATOM     10  O   UNL     1      17.116  15.080  14.600  1.00  0.00    -0.493 OA
ATOM     11  C   UNL     1      18.361  14.446  14.877  1.00  0.00     0.278 C 
ENDBRANCH   3  10
BRANCH   4  12
ATOM     12  O   UNL     1      14.341  15.481  14.683  1.00  0.00    -0.504 OA
ATOM     13  H   UNL     1      14.682  14.705  14.130  1.00  0.00     0.293 HD
ENDBRANCH   4  12
TORSDOF 3
ENDMDL
MODEL 8
REMARK VINA RESULT:    -4.331      1.915      2.664
REMARK INTER + INTRA:          -5.148
REMARK INTER:                  -4.919
REMARK INTRA:                  -0.230
REMARK UNBOUND:                -0.184
REMARK SMILES CC=Cc1ccc(O)c(OC)c1
REMARK SMILES IDX 4 1 12 2 9 3 7 4 6 5 5 6 3 7 1 8 2 9 10 10 11 11 8 12
REMARK H PARENT 8 13
REMARK Flexibility Score: inf
ROOT
ATOM      1  C   UNL     1      16.928  18.231  16.762  1.00  0.00    -0.022 A 
ATOM      2  C   UNL     1      15.552  18.398  16.979  1.00  0.00     0.058 A 
ATOM      3  C   UNL     1      14.618  17.551  16.349  1.00  0.00     0.161 A 
ATOM      4  C   UNL     1      15.082  16.519  15.513  1.00  0.00     0.157 A 
ATOM      5  C   UNL     1      16.455  16.336  15.322  1.00  0.00     0.051 A 
ATOM      6  C   UNL     1      17.374  17.179  15.949  1.00  0.00     0.012 A 
ENDROOT
BRANCH   1   7
ATOM      7  C   UNL     1      17.880  19.120  17.461  1.00  0.00     0.003 C 
ATOM      8  C   UNL     1      18.034  17.690  19.516  1.00  0.00     0.035 C 
ATOM      9  C   UNL     1      18.359  18.900  18.693  1.00  0.00    -0.030 C 
ENDBRANCH   1   7
BRANCH   3  10
ATOM     10  O   UNL     1      13.234  17.706  16.530  1.00  0.00    -0.493 OA
ATOM     11  C   UNL     1      12.548  17.472  17.756  1.00  0.00     0.278 C 
ENDBRANCH   3  10
BRANCH   4  12
ATOM     12  O   UNL     1      14.193  15.659  14.868  1.00  0.00    -0.504 OA
ATOM     13  H   UNL     1      13.477  15.148  15.368  1.00  0.00     0.293 HD
ENDBRANCH   4  12
TORSDOF 3
ENDMDL
MODEL 9
REMARK VINA RESULT:    -4.292      7.037      7.980
REMARK INTER + INTRA:          -5.104
REMARK INTER:                  -4.845
REMARK INTRA:                  -0.258
REMARK UNBOUND:                -0.184
REMARK SMILES CC=Cc1ccc(O)c(OC)c1
REMARK SMILES IDX 4 1 12 2 9 3 7 4 6 5 5 6 3 7 1 8 2 9 10 10 11 11 8 12
REMARK H PARENT 8 13
REMARK Flexibility Score: inf
ROOT
ATOM      1  C   UNL     1      19.771  23.317   9.964  1.00  0.00    -0.022 A 
ATOM      2  C   UNL     1      18.802  22.353  10.280  1.00  0.00     0.058 A 
ATOM      3  C   UNL     1      17.454  22.540   9.911  1.00  0.00     0.161 A 
ATOM      4  C   UNL     1      17.092  23.700   9.202  1.00  0.00     0.157 A 
ATOM      5  C   UNL     1      18.065  24.646   8.863  1.00  0.00     0.051 A 
ATOM      6  C   UNL     1      19.397  24.453   9.232  1.00  0.00     0.012 A 
ENDROOT
BRANCH   1   7
ATOM      7  C   UNL     1      21.179  23.075  10.343  1.00  0.00     0.003 C 
ATOM      8  C   UNL     1      21.008  24.247  12.553  1.00  0.00     0.035 C 
ATOM      9  C   UNL     1      21.743  23.503  11.480  1.00  0.00    -0.030 C 
ENDBRANCH   1   7
BRANCH   3  10
ATOM     10  O   UNL     1      16.459  21.603  10.231  1.00  0.00    -0.493 OA
ATOM     11  C   UNL     1      16.287  20.351   9.575  1.00  0.00     0.278 C 
ENDBRANCH   3  10
BRANCH   4  12
ATOM     12  O   UNL     1      15.770  23.927   8.819  1.00  0.00    -0.504 OA
ATOM     13  H   UNL     1      15.016  23.984   9.491  1.00  0.00     0.293 HD
ENDBRANCH   4  12
TORSDOF 3
ENDMDL
