MODEL 1
REMARK VINA RESULT:    -2.079      0.000      0.000
REMARK INTER + INTRA:          -2.483
REMARK INTER:                  -2.444
REMARK INTRA:                  -0.039
REMARK UNBOUND:                -0.039
REMARK SMILES O=C([O-])CCC(=O)[O-]
REMARK SMILES IDX 4 1 2 2 1 3 3 4 5 5 6 6 7 7 8 8
REMARK H PARENT
REMARK Flexibility Score: inf
ROOT
ATOM      1  C   UNL     1     -17.842   5.534  -2.994  1.00  0.00     0.059 C 
ENDROOT
BRANCH   1   2
ATOM      2  C   UNL     1     -17.853   7.024  -3.121  1.00  0.00     0.042 C 
ATOM      3  O   UNL     1     -16.816   7.637  -3.490  1.00  0.00    -0.550 OA
ATOM      4  O   UNL     1     -19.022   7.734  -2.878  1.00  0.00    -0.550 OA
ENDBRANCH   1   2
BRANCH   1   5
ATOM      5  C   UNL     1     -19.268   4.995  -2.881  1.00  0.00     0.059 C 
BRANCH   5   6
ATOM      6  C   UNL     1     -19.297   3.527  -3.162  1.00  0.00     0.042 C 
ATOM      7  O   UNL     1     -18.221   2.875  -3.242  1.00  0.00    -0.550 OA
ATOM      8  O   UNL     1     -20.508   2.884  -3.385  1.00  0.00    -0.550 OA
ENDBRANCH   5   6
ENDBRANCH   1   5
TORSDOF 3
ENDMDL
MODEL 2
REMARK VINA RESULT:    -1.533     21.681     22.360
REMARK INTER + INTRA:          -1.841
REMARK INTER:                  -2.146
REMARK INTRA:                   0.305
REMARK UNBOUND:                -0.039
REMARK SMILES O=C([O-])CCC(=O)[O-]
REMARK SMILES IDX 4 1 2 2 1 3 3 4 5 5 6 6 7 7 8 8
REMARK H PARENT
REMARK Flexibility Score: inf
ROOT
ATOM      1  C   UNL     1      -8.371   4.726 -21.180  1.00  0.00     0.059 C 
ENDROOT
BRANCH   1   2
ATOM      2  C   UNL     1      -9.051   4.774 -22.512  1.00  0.00     0.042 C 
ATOM      3  O   UNL     1      -9.384   3.707 -23.092  1.00  0.00    -0.550 OA
ATOM      4  O   UNL     1      -9.360   5.997 -23.092  1.00  0.00    -0.550 OA
ENDBRANCH   1   2
BRANCH   1   5
ATOM      5  C   UNL     1      -7.207   3.737 -21.208  1.00  0.00     0.059 C 
BRANCH   5   6
ATOM      6  C   UNL     1      -6.417   3.891 -22.469  1.00  0.00     0.042 C 
ATOM      7  O   UNL     1      -6.062   2.875 -23.123  1.00  0.00    -0.550 OA
ATOM      8  O   UNL     1      -6.030   5.154 -22.897  1.00  0.00    -0.550 OA
ENDBRANCH   5   6
ENDBRANCH   1   5
TORSDOF 3
ENDMDL
MODEL 3
REMARK VINA RESULT:    -1.252     21.671     22.343
REMARK INTER + INTRA:          -1.510
REMARK INTER:                  -1.738
REMARK INTRA:                   0.228
REMARK UNBOUND:                -0.039
REMARK SMILES O=C([O-])CCC(=O)[O-]
REMARK SMILES IDX 4 1 2 2 1 3 3 4 5 5 6 6 7 7 8 8
REMARK H PARENT
REMARK Flexibility Score: inf
ROOT
ATOM      1  C   UNL     1      -7.479   3.458 -21.570  1.00  0.00     0.059 C 
ENDROOT
BRANCH   1   2
ATOM      2  C   UNL     1      -6.406   3.771 -22.563  1.00  0.00     0.042 C 
ATOM      3  O   UNL     1      -5.599   2.875 -22.928  1.00  0.00    -0.550 OA
ATOM      4  O   UNL     1      -6.326   5.038 -23.125  1.00  0.00    -0.550 OA
ENDBRANCH   1   2
BRANCH   1   5
ATOM      5  C   UNL     1      -8.326   4.698 -21.287  1.00  0.00     0.059 C 
BRANCH   5   6
ATOM      6  C   UNL     1      -9.229   4.991 -22.442  1.00  0.00     0.042 C 
ATOM      7  O   UNL     1      -9.710   4.049 -23.125  1.00  0.00    -0.550 OA
ATOM      8  O   UNL     1      -9.501   6.306 -22.797  1.00  0.00    -0.550 OA
ENDBRANCH   5   6
ENDBRANCH   1   5
TORSDOF 3
ENDMDL
MODEL 4
REMARK VINA RESULT:    -1.041     21.368     22.049
REMARK INTER + INTRA:          -1.262
REMARK INTER:                  -1.851
REMARK INTRA:                   0.589
REMARK UNBOUND:                -0.039
REMARK SMILES O=C([O-])CCC(=O)[O-]
REMARK SMILES IDX 4 1 2 2 1 3 3 4 5 5 6 6 7 7 8 8
REMARK H PARENT
REMARK Flexibility Score: inf
ROOT
ATOM      1  C   UNL     1      -8.158   4.008 -23.116  1.00  0.00     0.059 C 
ENDROOT
BRANCH   1   2
ATOM      2  C   UNL     1      -6.664   4.058 -23.125  1.00  0.00     0.042 C 
ATOM      3  O   UNL     1      -6.066   5.167 -23.111  1.00  0.00    -0.550 OA
ATOM      4  O   UNL     1      -5.927   2.881 -23.100  1.00  0.00    -0.550 OA
ENDBRANCH   1   2
BRANCH   1   5
ATOM      5  C   UNL     1      -8.717   4.894 -22.002  1.00  0.00     0.059 C 
BRANCH   5   6
ATOM      6  C   UNL     1      -8.203   4.449 -20.671  1.00  0.00     0.042 C 
ATOM      7  O   UNL     1      -8.385   5.163 -19.649  1.00  0.00    -0.550 OA
ATOM      8  O   UNL     1      -7.478   3.269 -20.563  1.00  0.00    -0.550 OA
ENDBRANCH   5   6
ENDBRANCH   1   5
TORSDOF 3
ENDMDL
MODEL 5
REMARK VINA RESULT:    -0.647     20.784     21.476
REMARK INTER + INTRA:          -0.799
REMARK INTER:                  -1.259
REMARK INTRA:                   0.459
REMARK UNBOUND:                -0.039
REMARK SMILES O=C([O-])CCC(=O)[O-]
REMARK SMILES IDX 4 1 2 2 1 3 3 4 5 5 6 6 7 7 8 8
REMARK H PARENT
REMARK Flexibility Score: inf
ROOT
ATOM      1  C   UNL     1      -7.297   3.975 -21.778  1.00  0.00     0.059 C 
ENDROOT
BRANCH   1   2
ATOM      2  C   UNL     1      -8.205   4.305 -20.637  1.00  0.00     0.042 C 
ATOM      3  O   UNL     1      -9.342   3.769 -20.556  1.00  0.00    -0.550 OA
ATOM      4  O   UNL     1      -7.779   5.166 -19.635  1.00  0.00    -0.550 OA
ENDBRANCH   1   2
BRANCH   1   5
ATOM      5  C   UNL     1      -8.060   4.026 -23.102  1.00  0.00     0.059 C 
BRANCH   5   6
ATOM      6  C   UNL     1      -8.991   5.196 -23.125  1.00  0.00     0.042 C 
ATOM      7  O   UNL     1      -8.535   6.370 -23.100  1.00  0.00    -0.550 OA
ATOM      8  O   UNL     1     -10.365   4.992 -23.125  1.00  0.00    -0.550 OA
ENDBRANCH   5   6
ENDBRANCH   1   5
TORSDOF 3
ENDMDL
MODEL 6
REMARK VINA RESULT:    -0.467     15.823     17.343
REMARK INTER + INTRA:          -0.588
REMARK INTER:                  -0.540
REMARK INTRA:                  -0.047
REMARK UNBOUND:                -0.039
REMARK SMILES O=C([O-])CCC(=O)[O-]
REMARK SMILES IDX 4 1 2 2 1 3 3 4 5 5 6 6 7 7 8 8
REMARK H PARENT
REMARK Flexibility Score: inf
ROOT
ATOM      1  C   UNL     1     -13.178  19.653 -10.565  1.00  0.00     0.059 C 
ENDROOT
BRANCH   1   2
ATOM      2  C   UNL     1     -12.852  19.063  -9.231  1.00  0.00     0.042 C 
ATOM      3  O   UNL     1     -12.538  17.847  -9.135  1.00  0.00    -0.550 OA
ATOM      4  O   UNL     1     -12.846  19.866  -8.097  1.00  0.00    -0.550 OA
ENDBRANCH   1   2
BRANCH   1   5
ATOM      5  C   UNL     1     -12.972  18.620 -11.673  1.00  0.00     0.059 C 
BRANCH   5   6
ATOM      6  C   UNL     1     -12.655  19.296 -12.968  1.00  0.00     0.042 C 
ATOM      7  O   UNL     1     -11.716  20.133 -13.033  1.00  0.00    -0.550 OA
ATOM      8  O   UNL     1     -13.426  19.040 -14.095  1.00  0.00    -0.550 OA
ENDBRANCH   5   6
ENDBRANCH   1   5
TORSDOF 3
ENDMDL
MODEL 7
REMARK VINA RESULT:    -0.465     15.841     17.314
REMARK INTER + INTRA:          -0.586
REMARK INTER:                  -0.546
REMARK INTRA:                  -0.040
REMARK UNBOUND:                -0.039
REMARK SMILES O=C([O-])CCC(=O)[O-]
REMARK SMILES IDX 4 1 2 2 1 3 3 4 5 5 6 6 7 7 8 8
REMARK H PARENT
REMARK Flexibility Score: inf
ROOT
ATOM      1  C   UNL     1     -12.846  18.571 -11.695  1.00  0.00     0.059 C 
ENDROOT
BRANCH   1   2
ATOM      2  C   UNL     1     -12.647  19.318 -12.975  1.00  0.00     0.042 C 
ATOM      3  O   UNL     1     -11.631  20.046 -13.133  1.00  0.00    -0.550 OA
ATOM      4  O   UNL     1     -13.558  19.174 -14.014  1.00  0.00    -0.550 OA
ENDBRANCH   1   2
BRANCH   1   5
ATOM      5  C   UNL     1     -13.398  19.498 -10.613  1.00  0.00     0.059 C 
BRANCH   5   6
ATOM      6  C   UNL     1     -12.885  19.097  -9.267  1.00  0.00     0.042 C 
ATOM      7  O   UNL     1     -12.553  17.902  -9.045  1.00  0.00    -0.550 OA
ATOM      8  O   UNL     1     -12.818  20.030  -8.240  1.00  0.00    -0.550 OA
ENDBRANCH   5   6
ENDBRANCH   1   5
TORSDOF 3
ENDMDL
