MODEL 1
REMARK VINA RESULT:    -3.207      0.000      0.000
REMARK INTER + INTRA:          -3.624
REMARK INTER:                  -3.581
REMARK INTRA:                  -0.043
REMARK UNBOUND:                -0.043
REMARK SMILES CCCC(=O)[O-]
REMARK SMILES IDX 3 1 4 2 5 3 6 4 2 5 1 6
REMARK H PARENT
REMARK Flexibility Score: inf
ROOT
ATOM      1  C   UNL     1       6.380  23.733  -7.382  1.00  0.00     0.052 C 
ENDROOT
BRANCH   1   2
ATOM      2  C   UNL     1       6.770  24.063  -5.974  1.00  0.00     0.041 C 
ATOM      3  O   UNL     1       7.257  23.175  -5.226  1.00  0.00    -0.550 OA
ATOM      4  O   UNL     1       6.627  25.361  -5.497  1.00  0.00    -0.550 OA
ENDBRANCH   1   2
BRANCH   1   5
ATOM      5  C   UNL     1       7.346  24.351  -8.400  1.00  0.00     0.003 C 
ATOM      6  C   UNL     1       8.516  23.424  -8.730  1.00  0.00     0.004 C 
ENDBRANCH   1   5
TORSDOF 2
ENDMDL
MODEL 2
REMARK VINA RESULT:    -3.188      4.599      5.317
REMARK INTER + INTRA:          -3.603
REMARK INTER:                  -3.588
REMARK INTRA:                  -0.016
REMARK UNBOUND:                -0.043
REMARK SMILES CCCC(=O)[O-]
REMARK SMILES IDX 3 1 4 2 5 3 6 4 2 5 1 6
REMARK H PARENT
REMARK Flexibility Score: inf
ROOT
ATOM      1  C   UNL     1      11.155  23.064  -8.667  1.00  0.00     0.052 C 
ENDROOT
BRANCH   1   2
ATOM      2  C   UNL     1      12.108  24.192  -8.917  1.00  0.00     0.041 C 
ATOM      3  O   UNL     1      12.958  24.508  -8.044  1.00  0.00    -0.550 OA
ATOM      4  O   UNL     1      12.080  24.873 -10.128  1.00  0.00    -0.550 OA
ENDBRANCH   1   2
BRANCH   1   5
ATOM      5  C   UNL     1      10.206  22.847  -9.852  1.00  0.00     0.003 C 
ATOM      6  C   UNL     1       8.783  22.512  -9.404  1.00  0.00     0.004 C 
ENDBRANCH   1   5
TORSDOF 2
ENDMDL
MODEL 3
REMARK VINA RESULT:    -3.142      3.579      4.463
REMARK INTER + INTRA:          -3.552
REMARK INTER:                  -3.483
REMARK INTRA:                  -0.069
REMARK UNBOUND:                -0.043
REMARK SMILES CCCC(=O)[O-]
REMARK SMILES IDX 3 1 4 2 5 3 6 4 2 5 1 6
REMARK H PARENT
REMARK Flexibility Score: inf
ROOT
ATOM      1  C   UNL     1       9.699  22.788  -9.497  1.00  0.00     0.052 C 
ENDROOT
BRANCH   1   2
ATOM      2  C   UNL     1      10.051  22.073  -8.229  1.00  0.00     0.041 C 
ATOM      3  O   UNL     1       9.500  22.396  -7.145  1.00  0.00    -0.550 OA
ATOM      4  O   UNL     1      10.963  21.024  -8.251  1.00  0.00    -0.550 OA
ENDBRANCH   1   2
BRANCH   1   5
ATOM      5  C   UNL     1      10.946  23.300 -10.228  1.00  0.00     0.003 C 
ATOM      6  C   UNL     1      11.668  24.398  -9.447  1.00  0.00     0.004 C 
ENDBRANCH   1   5
TORSDOF 2
ENDMDL
MODEL 4
REMARK VINA RESULT:    -3.128      3.688      4.680
REMARK INTER + INTRA:          -3.536
REMARK INTER:                  -3.528
REMARK INTRA:                  -0.008
REMARK UNBOUND:                -0.043
REMARK SMILES CCCC(=O)[O-]
REMARK SMILES IDX 3 1 4 2 5 3 6 4 2 5 1 6
REMARK H PARENT
REMARK Flexibility Score: inf
ROOT
ATOM      1  C   UNL     1       8.873  22.687  -9.659  1.00  0.00     0.052 C 
ENDROOT
BRANCH   1   2
ATOM      2  C   UNL     1      10.367  22.570  -9.685  1.00  0.00     0.041 C 
ATOM      3  O   UNL     1      11.041  23.253 -10.500  1.00  0.00    -0.550 OA
ATOM      4  O   UNL     1      11.016  21.734  -8.785  1.00  0.00    -0.550 OA
ENDBRANCH   1   2
BRANCH   1   5
ATOM      5  C   UNL     1       8.367  23.222  -8.314  1.00  0.00     0.003 C 
ATOM      6  C   UNL     1       7.349  24.350  -8.482  1.00  0.00     0.004 C 
ENDBRANCH   1   5
TORSDOF 2
ENDMDL
MODEL 5
REMARK VINA RESULT:    -3.127      3.651      4.503
REMARK INTER + INTRA:          -3.536
REMARK INTER:                  -3.528
REMARK INTRA:                  -0.008
REMARK UNBOUND:                -0.043
REMARK SMILES CCCC(=O)[O-]
REMARK SMILES IDX 3 1 4 2 5 3 6 4 2 5 1 6
REMARK H PARENT
REMARK Flexibility Score: inf
ROOT
ATOM      1  C   UNL     1       8.805  22.654  -9.616  1.00  0.00     0.052 C 
ENDROOT
BRANCH   1   2
ATOM      2  C   UNL     1      10.301  22.571  -9.623  1.00  0.00     0.041 C 
ATOM      3  O   UNL     1      10.895  21.788  -8.838  1.00  0.00    -0.550 OA
ATOM      4  O   UNL     1      11.037  23.335 -10.521  1.00  0.00    -0.550 OA
ENDBRANCH   1   2
BRANCH   1   5
ATOM      5  C   UNL     1       8.273  23.228  -8.298  1.00  0.00     0.003 C 
ATOM      6  C   UNL     1       7.271  24.362  -8.519  1.00  0.00     0.004 C 
ENDBRANCH   1   5
TORSDOF 2
ENDMDL
MODEL 6
REMARK VINA RESULT:    -3.059      3.730      4.199
REMARK INTER + INTRA:          -3.460
REMARK INTER:                  -3.393
REMARK INTRA:                  -0.067
REMARK UNBOUND:                -0.043
REMARK SMILES CCCC(=O)[O-]
REMARK SMILES IDX 3 1 4 2 5 3 6 4 2 5 1 6
REMARK H PARENT
REMARK Flexibility Score: inf
ROOT
ATOM      1  C   UNL     1       9.285  22.534  -7.887  1.00  0.00     0.052 C 
ENDROOT
BRANCH   1   2
ATOM      2  C   UNL     1      10.258  21.600  -7.233  1.00  0.00     0.041 C 
ATOM      3  O   UNL     1      11.208  22.056  -6.545  1.00  0.00    -0.550 OA
ATOM      4  O   UNL     1      10.094  20.226  -7.354  1.00  0.00    -0.550 OA
ENDBRANCH   1   2
BRANCH   1   5
ATOM      5  C   UNL     1       9.344  22.438  -9.416  1.00  0.00     0.003 C 
ATOM      6  C   UNL     1      10.714  22.830  -9.971  1.00  0.00     0.004 C 
ENDBRANCH   1   5
TORSDOF 2
ENDMDL
MODEL 7
REMARK VINA RESULT:    -3.058      3.059      3.897
REMARK INTER + INTRA:          -3.458
REMARK INTER:                  -3.440
REMARK INTRA:                  -0.018
REMARK UNBOUND:                -0.043
REMARK SMILES CCCC(=O)[O-]
REMARK SMILES IDX 3 1 4 2 5 3 6 4 2 5 1 6
REMARK H PARENT
REMARK Flexibility Score: inf
ROOT
ATOM      1  C   UNL     1       7.556  22.329 -10.110  1.00  0.00     0.052 C 
ENDROOT
BRANCH   1   2
ATOM      2  C   UNL     1       8.792  22.550  -9.294  1.00  0.00     0.041 C 
ATOM      3  O   UNL     1       9.928  22.480  -9.832  1.00  0.00    -0.550 OA
ATOM      4  O   UNL     1       8.688  22.867  -7.944  1.00  0.00    -0.550 OA
ENDBRANCH   1   2
BRANCH   1   5
ATOM      5  C   UNL     1       6.395  23.211  -9.636  1.00  0.00     0.003 C 
ATOM      6  C   UNL     1       5.045  22.501  -9.738  1.00  0.00     0.004 C 
ENDBRANCH   1   5
TORSDOF 2
ENDMDL
MODEL 8
REMARK VINA RESULT:    -3.022      3.008      3.679
REMARK INTER + INTRA:          -3.418
REMARK INTER:                  -3.387
REMARK INTRA:                  -0.031
REMARK UNBOUND:                -0.043
REMARK SMILES CCCC(=O)[O-]
REMARK SMILES IDX 3 1 4 2 5 3 6 4 2 5 1 6
REMARK H PARENT
REMARK Flexibility Score: inf
ROOT
ATOM      1  C   UNL     1       9.861  21.923  -8.676  1.00  0.00     0.052 C 
ENDROOT
BRANCH   1   2
ATOM      2  C   UNL     1      10.019  22.073  -7.194  1.00  0.00     0.041 C 
ATOM      3  O   UNL     1       9.005  22.193  -6.458  1.00  0.00    -0.550 OA
ATOM      4  O   UNL     1      11.285  22.047  -6.622  1.00  0.00    -0.550 OA
ENDBRANCH   1   2
BRANCH   1   5
ATOM      5  C   UNL     1       8.897  22.965  -9.255  1.00  0.00     0.003 C 
ATOM      6  C   UNL     1       7.794  22.330 -10.103  1.00  0.00     0.004 C 
ENDBRANCH   1   5
TORSDOF 2
ENDMDL
MODEL 9
REMARK VINA RESULT:    -3.011      4.270      4.958
REMARK INTER + INTRA:          -3.406
REMARK INTER:                  -3.341
REMARK INTRA:                  -0.065
REMARK UNBOUND:                -0.043
REMARK SMILES CCCC(=O)[O-]
REMARK SMILES IDX 3 1 4 2 5 3 6 4 2 5 1 6
REMARK H PARENT
REMARK Flexibility Score: inf
ROOT
ATOM      1  C   UNL     1       9.578  22.647  -8.321  1.00  0.00     0.052 C 
ENDROOT
BRANCH   1   2
ATOM      2  C   UNL     1      10.855  22.947  -9.043  1.00  0.00     0.041 C 
ATOM      3  O   UNL     1      10.934  22.780 -10.288  1.00  0.00    -0.550 OA
ATOM      4  O   UNL     1      11.949  23.446  -8.345  1.00  0.00    -0.550 OA
ENDBRANCH   1   2
BRANCH   1   5
ATOM      5  C   UNL     1       9.821  21.821  -7.052  1.00  0.00     0.003 C 
ATOM      6  C   UNL     1      10.266  20.392  -7.363  1.00  0.00     0.004 C 
ENDBRANCH   1   5
TORSDOF 2
ENDMDL
