MODEL 1
REMARK VINA RESULT:    -3.720      0.000      0.000
REMARK INTER + INTRA:          -4.344
REMARK INTER:                  -4.264
REMARK INTRA:                  -0.080
REMARK UNBOUND:                -0.080
REMARK SMILES COc1cc(C(=O)[O-])ccc1O
REMARK SMILES IDX 5 1 9 2 4 3 10 4 3 5 11 6 6 7 7 8 8 9 2 10 1 11 12 12
REMARK H PARENT 12 13
REMARK Flexibility Score: inf
ROOT
ATOM      1  C   UNL     1      16.971   7.757 -19.490  1.00  0.00     0.001 A 
ATOM      2  C   UNL     1      16.740   6.383 -19.655  1.00  0.00     0.014 A 
ATOM      3  C   UNL     1      18.286   8.208 -19.271  1.00  0.00     0.060 A 
ATOM      4  C   UNL     1      17.801   5.477 -19.605  1.00  0.00     0.051 A 
ATOM      5  C   UNL     1      19.360   7.297 -19.219  1.00  0.00     0.161 A 
ATOM      6  C   UNL     1      19.106   5.925 -19.388  1.00  0.00     0.157 A 
ENDROOT
BRANCH   1   7
ATOM      7  C   UNL     1      15.843   8.714 -19.545  1.00  0.00     0.072 C 
ATOM      8  O   UNL     1      15.966   9.877 -19.077  1.00  0.00    -0.545 OA
ATOM      9  O   UNL     1      14.631   8.342 -20.115  1.00  0.00    -0.545 OA
ENDBRANCH   1   7
BRANCH   5  10
ATOM     10  O   UNL     1      20.683   7.718 -19.002  1.00  0.00    -0.493 OA
ATOM     11  C   UNL     1      21.116   9.075 -19.035  1.00  0.00     0.278 C 
ENDBRANCH   5  10
BRANCH   6  12
ATOM     12  O   UNL     1      20.140   4.989 -19.343  1.00  0.00    -0.504 OA
ATOM     13  H   UNL     1      19.965   3.992 -19.337  1.00  0.00     0.293 HD
ENDBRANCH   6  12
TORSDOF 3
ENDMDL
MODEL 2
REMARK VINA RESULT:    -3.716     13.155     13.878
REMARK INTER + INTRA:          -4.339
REMARK INTER:                  -4.260
REMARK INTRA:                  -0.079
REMARK UNBOUND:                -0.080
REMARK SMILES COc1cc(C(=O)[O-])ccc1O
REMARK SMILES IDX 5 1 9 2 4 3 10 4 3 5 11 6 6 7 7 8 8 9 2 10 1 11 12 12
REMARK H PARENT 12 13
REMARK Flexibility Score: inf
ROOT
ATOM      1  C   UNL     1      21.188  14.477 -30.532  1.00  0.00     0.001 A 
ATOM      2  C   UNL     1      22.388  14.002 -31.081  1.00  0.00     0.014 A 
ATOM      3  C   UNL     1      19.999  13.760 -30.763  1.00  0.00     0.060 A 
ATOM      4  C   UNL     1      22.403  12.833 -31.844  1.00  0.00     0.051 A 
ATOM      5  C   UNL     1      20.009  12.580 -31.534  1.00  0.00     0.161 A 
ATOM      6  C   UNL     1      21.223  12.122 -32.074  1.00  0.00     0.157 A 
ENDROOT
BRANCH   1   7
ATOM      7  C   UNL     1      21.178  15.717 -29.723  1.00  0.00     0.072 C 
ATOM      8  O   UNL     1      20.109  16.362 -29.553  1.00  0.00    -0.545 OA
ATOM      9  O   UNL     1      22.348  16.186 -29.139  1.00  0.00    -0.545 OA
ENDBRANCH   1   7
BRANCH   5  10
ATOM     10  O   UNL     1      18.838  11.843 -31.781  1.00  0.00    -0.493 OA
ATOM     11  C   UNL     1      17.528  12.254 -31.400  1.00  0.00     0.278 C 
ENDBRANCH   5  10
BRANCH   6  12
ATOM     12  O   UNL     1      21.278  10.959 -32.842  1.00  0.00    -0.504 OA
ATOM     13  H   UNL     1      21.486  10.975 -33.833  1.00  0.00     0.293 HD
ENDBRANCH   6  12
TORSDOF 3
ENDMDL
MODEL 3
REMARK VINA RESULT:    -3.693     12.975     13.862
REMARK INTER + INTRA:          -4.313
REMARK INTER:                  -4.231
REMARK INTRA:                  -0.082
REMARK UNBOUND:                -0.080
REMARK SMILES COc1cc(C(=O)[O-])ccc1O
REMARK SMILES IDX 5 1 9 2 4 3 10 4 3 5 11 6 6 7 7 8 8 9 2 10 1 11 12 12
REMARK H PARENT 12 13
REMARK Flexibility Score: inf
ROOT
ATOM      1  C   UNL     1      21.199  12.866 -31.499  1.00  0.00     0.001 A 
ATOM      2  C   UNL     1      20.326  13.879 -31.919  1.00  0.00     0.014 A 
ATOM      3  C   UNL     1      22.143  13.148 -30.494  1.00  0.00     0.060 A 
ATOM      4  C   UNL     1      20.391  15.151 -31.346  1.00  0.00     0.051 A 
ATOM      5  C   UNL     1      22.213  14.431 -29.913  1.00  0.00     0.161 A 
ATOM      6  C   UNL     1      21.327  15.432 -30.349  1.00  0.00     0.157 A 
ENDROOT
BRANCH   1   7
ATOM      7  C   UNL     1      21.126  11.518 -32.109  1.00  0.00     0.072 C 
ATOM      8  O   UNL     1      22.135  10.765 -32.123  1.00  0.00    -0.545 OA
ATOM      9  O   UNL     1      19.940  11.066 -32.675  1.00  0.00    -0.545 OA
ENDBRANCH   1   7
BRANCH   5  10
ATOM     10  O   UNL     1      23.144  14.742 -28.908  1.00  0.00    -0.493 OA
ATOM     11  C   UNL     1      23.631  13.816 -27.941  1.00  0.00     0.278 C 
ENDBRANCH   5  10
BRANCH   6  12
ATOM     12  O   UNL     1      21.362  16.714 -29.801  1.00  0.00    -0.504 OA
ATOM     13  H   UNL     1      20.906  16.941 -28.926  1.00  0.00     0.293 HD
ENDBRANCH   6  12
TORSDOF 3
ENDMDL
MODEL 4
REMARK VINA RESULT:    -3.674      1.454      4.819
REMARK INTER + INTRA:          -4.291
REMARK INTER:                  -4.210
REMARK INTRA:                  -0.081
REMARK UNBOUND:                -0.080
REMARK SMILES COc1cc(C(=O)[O-])ccc1O
REMARK SMILES IDX 5 1 9 2 4 3 10 4 3 5 11 6 6 7 7 8 8 9 2 10 1 11 12 12
REMARK H PARENT 12 13
REMARK Flexibility Score: inf
ROOT
ATOM      1  C   UNL     1      18.494   6.597 -19.460  1.00  0.00     0.001 A 
ATOM      2  C   UNL     1      18.265   7.562 -18.469  1.00  0.00     0.014 A 
ATOM      3  C   UNL     1      17.506   6.370 -20.436  1.00  0.00     0.060 A 
ATOM      4  C   UNL     1      17.074   8.289 -18.452  1.00  0.00     0.051 A 
ATOM      5  C   UNL     1      16.301   7.101 -20.423  1.00  0.00     0.161 A 
ATOM      6  C   UNL     1      16.092   8.065 -19.420  1.00  0.00     0.157 A 
ENDROOT
BRANCH   1   7
ATOM      7  C   UNL     1      19.761   5.829 -19.474  1.00  0.00     0.072 C 
ATOM      8  O   UNL     1      20.780   6.264 -18.877  1.00  0.00    -0.545 OA
ATOM      9  O   UNL     1      19.841   4.616 -20.148  1.00  0.00    -0.545 OA
ENDBRANCH   1   7
BRANCH   5  10
ATOM     10  O   UNL     1      15.297   6.897 -21.384  1.00  0.00    -0.493 OA
ATOM     11  C   UNL     1      15.518   6.355 -22.683  1.00  0.00     0.278 C 
ENDBRANCH   5  10
BRANCH   6  12
ATOM     12  O   UNL     1      14.915   8.810 -19.370  1.00  0.00    -0.504 OA
ATOM     13  H   UNL     1      14.098   8.567 -19.917  1.00  0.00     0.293 HD
ENDBRANCH   6  12
TORSDOF 3
ENDMDL
MODEL 5
REMARK VINA RESULT:    -3.544      1.334      4.396
REMARK INTER + INTRA:          -4.142
REMARK INTER:                  -4.054
REMARK INTRA:                  -0.088
REMARK UNBOUND:                -0.080
REMARK SMILES COc1cc(C(=O)[O-])ccc1O
REMARK SMILES IDX 5 1 9 2 4 3 10 4 3 5 11 6 6 7 7 8 8 9 2 10 1 11 12 12
REMARK H PARENT 12 13
REMARK Flexibility Score: inf
ROOT
ATOM      1  C   UNL     1      18.737   8.266 -19.123  1.00  0.00     0.001 A 
ATOM      2  C   UNL     1      18.028   7.059 -19.204  1.00  0.00     0.014 A 
ATOM      3  C   UNL     1      18.026   9.480 -19.141  1.00  0.00     0.060 A 
ATOM      4  C   UNL     1      16.635   7.062 -19.299  1.00  0.00     0.051 A 
ATOM      5  C   UNL     1      16.619   9.489 -19.237  1.00  0.00     0.161 A 
ATOM      6  C   UNL     1      15.928   8.266 -19.317  1.00  0.00     0.157 A 
ENDROOT
BRANCH   1   7
ATOM      7  C   UNL     1      20.214   8.257 -19.021  1.00  0.00     0.072 C 
ATOM      8  O   UNL     1      20.851   9.331 -18.859  1.00  0.00    -0.545 OA
ATOM      9  O   UNL     1      20.918   7.061 -19.102  1.00  0.00    -0.545 OA
ENDBRANCH   1   7
BRANCH   5  10
ATOM     10  O   UNL     1      15.882  10.685 -19.257  1.00  0.00    -0.493 OA
ATOM     11  C   UNL     1      16.208  11.822 -20.050  1.00  0.00     0.278 C 
ENDBRANCH   5  10
BRANCH   6  12
ATOM     12  O   UNL     1      14.538   8.230 -19.414  1.00  0.00    -0.504 OA
ATOM     13  H   UNL     1      13.968   7.658 -18.802  1.00  0.00     0.293 HD
ENDBRANCH   6  12
TORSDOF 3
ENDMDL
MODEL 6
REMARK VINA RESULT:    -3.536     13.068     13.546
REMARK INTER + INTRA:          -4.133
REMARK INTER:                  -4.035
REMARK INTRA:                  -0.098
REMARK UNBOUND:                -0.080
REMARK SMILES COc1cc(C(=O)[O-])ccc1O
REMARK SMILES IDX 5 1 9 2 4 3 10 4 3 5 11 6 6 7 7 8 8 9 2 10 1 11 12 12
REMARK H PARENT 12 13
REMARK Flexibility Score: inf
ROOT
ATOM      1  C   UNL     1      19.639  11.987 -31.598  1.00  0.00     0.001 A 
ATOM      2  C   UNL     1      20.777  11.174 -31.696  1.00  0.00     0.014 A 
ATOM      3  C   UNL     1      19.801  13.366 -31.369  1.00  0.00     0.060 A 
ATOM      4  C   UNL     1      22.053  11.725 -31.569  1.00  0.00     0.051 A 
ATOM      5  C   UNL     1      21.087  13.928 -31.240  1.00  0.00     0.161 A 
ATOM      6  C   UNL     1      22.215  13.094 -31.342  1.00  0.00     0.157 A 
ENDROOT
BRANCH   1   7
ATOM      7  C   UNL     1      18.287  11.397 -31.733  1.00  0.00     0.072 C 
ATOM      8  O   UNL     1      17.266  12.134 -31.752  1.00  0.00    -0.545 OA
ATOM      9  O   UNL     1      18.128  10.021 -31.842  1.00  0.00    -0.545 OA
ENDBRANCH   1   7
BRANCH   5  10
ATOM     10  O   UNL     1      21.280  15.301 -31.012  1.00  0.00    -0.493 OA
ATOM     11  C   UNL     1      20.857  15.993 -29.841  1.00  0.00     0.278 C 
ENDBRANCH   5  10
BRANCH   6  12
ATOM     12  O   UNL     1      23.505  13.608 -31.221  1.00  0.00    -0.504 OA
ATOM     13  H   UNL     1      23.985  13.659 -30.330  1.00  0.00     0.293 HD
ENDBRANCH   6  12
TORSDOF 3
ENDMDL
MODEL 7
REMARK VINA RESULT:    -3.448     12.405     13.118
REMARK INTER + INTRA:          -4.032
REMARK INTER:                  -3.928
REMARK INTRA:                  -0.104
REMARK UNBOUND:                -0.080
REMARK SMILES COc1cc(C(=O)[O-])ccc1O
REMARK SMILES IDX 5 1 9 2 4 3 10 4 3 5 11 6 6 7 7 8 8 9 2 10 1 11 12 12
REMARK H PARENT 12 13
REMARK Flexibility Score: inf
ROOT
ATOM      1  C   UNL     1      18.241  14.241 -29.441  1.00  0.00     0.001 A 
ATOM      2  C   UNL     1      18.601  15.241 -28.526  1.00  0.00     0.014 A 
ATOM      3  C   UNL     1      19.028  14.050 -30.591  1.00  0.00     0.060 A 
ATOM      4  C   UNL     1      19.727  16.035 -28.753  1.00  0.00     0.051 A 
ATOM      5  C   UNL     1      20.165  14.849 -30.826  1.00  0.00     0.161 A 
ATOM      6  C   UNL     1      20.509  15.846 -29.895  1.00  0.00     0.157 A 
ENDROOT
BRANCH   1   7
ATOM      7  C   UNL     1      17.046  13.401 -29.195  1.00  0.00     0.072 C 
ATOM      8  O   UNL     1      16.505  13.376 -28.058  1.00  0.00    -0.545 OA
ATOM      9  O   UNL     1      16.506  12.629 -30.216  1.00  0.00    -0.545 OA
ENDBRANCH   1   7
BRANCH   5  10
ATOM     10  O   UNL     1      20.970  14.682 -31.965  1.00  0.00    -0.493 OA
ATOM     11  C   UNL     1      21.986  13.693 -32.100  1.00  0.00     0.278 C 
ENDBRANCH   5  10
BRANCH   6  12
ATOM     12  O   UNL     1      21.625  16.659 -30.089  1.00  0.00    -0.504 OA
ATOM     13  H   UNL     1      22.301  16.832 -29.354  1.00  0.00     0.293 HD
ENDBRANCH   6  12
TORSDOF 3
ENDMDL
MODEL 8
REMARK VINA RESULT:    -3.411      1.919      3.091
REMARK INTER + INTRA:          -3.989
REMARK INTER:                  -3.910
REMARK INTRA:                  -0.080
REMARK UNBOUND:                -0.080
REMARK SMILES COc1cc(C(=O)[O-])ccc1O
REMARK SMILES IDX 5 1 9 2 4 3 10 4 3 5 11 6 6 7 7 8 8 9 2 10 1 11 12 12
REMARK H PARENT 12 13
REMARK Flexibility Score: inf
ROOT
ATOM      1  C   UNL     1      16.238   7.289 -20.805  1.00  0.00     0.001 A 
ATOM      2  C   UNL     1      15.873   8.428 -20.071  1.00  0.00     0.014 A 
ATOM      3  C   UNL     1      17.421   6.607 -20.466  1.00  0.00     0.060 A 
ATOM      4  C   UNL     1      16.672   8.877 -19.019  1.00  0.00     0.051 A 
ATOM      5  C   UNL     1      18.232   7.057 -19.405  1.00  0.00     0.161 A 
ATOM      6  C   UNL     1      17.847   8.200 -18.682  1.00  0.00     0.157 A 
ENDROOT
BRANCH   1   7
ATOM      7  C   UNL     1      15.386   6.816 -21.920  1.00  0.00     0.072 C 
ATOM      8  O   UNL     1      15.862   6.074 -22.819  1.00  0.00    -0.545 OA
ATOM      9  O   UNL     1      14.048   7.186 -21.989  1.00  0.00    -0.545 OA
ENDBRANCH   1   7
BRANCH   5  10
ATOM     10  O   UNL     1      19.418   6.397 -19.043  1.00  0.00    -0.493 OA
ATOM     11  C   UNL     1      20.071   5.413 -19.840  1.00  0.00     0.278 C 
ENDBRANCH   5  10
BRANCH   6  12
ATOM     12  O   UNL     1      18.620   8.679 -17.625  1.00  0.00    -0.504 OA
ATOM     13  H   UNL     1      18.341   9.480 -17.072  1.00  0.00     0.293 HD
ENDBRANCH   6  12
TORSDOF 3
ENDMDL
MODEL 9
REMARK VINA RESULT:    -3.396     12.993     13.797
REMARK INTER + INTRA:          -3.973
REMARK INTER:                  -3.875
REMARK INTRA:                  -0.098
REMARK UNBOUND:                -0.080
REMARK SMILES COc1cc(C(=O)[O-])ccc1O
REMARK SMILES IDX 5 1 9 2 4 3 10 4 3 5 11 6 6 7 7 8 8 9 2 10 1 11 12 12
REMARK H PARENT 12 13
REMARK Flexibility Score: inf
ROOT
ATOM      1  C   UNL     1      21.856  15.089 -29.304  1.00  0.00     0.001 A 
ATOM      2  C   UNL     1      20.556  15.557 -29.062  1.00  0.00     0.014 A 
ATOM      3  C   UNL     1      22.075  14.195 -30.368  1.00  0.00     0.060 A 
ATOM      4  C   UNL     1      19.495  15.143 -29.869  1.00  0.00     0.051 A 
ATOM      5  C   UNL     1      21.007  13.773 -31.185  1.00  0.00     0.161 A 
ATOM      6  C   UNL     1      19.711  14.255 -30.925  1.00  0.00     0.157 A 
ENDROOT
BRANCH   1   7
ATOM      7  C   UNL     1      22.979  15.532 -28.446  1.00  0.00     0.072 C 
ATOM      8  O   UNL     1      23.059  16.730 -28.064  1.00  0.00    -0.545 OA
ATOM      9  O   UNL     1      23.961  14.631 -28.050  1.00  0.00    -0.545 OA
ENDBRANCH   1   7
BRANCH   5  10
ATOM     10  O   UNL     1      21.194  12.881 -32.254  1.00  0.00    -0.493 OA
ATOM     11  C   UNL     1      21.477  11.493 -32.110  1.00  0.00     0.278 C 
ENDBRANCH   5  10
BRANCH   6  12
ATOM     12  O   UNL     1      18.626  13.864 -31.708  1.00  0.00    -0.504 OA
ATOM     13  H   UNL     1      18.036  14.533 -32.188  1.00  0.00     0.293 HD
ENDBRANCH   6  12
TORSDOF 3
ENDMDL
