MODEL 1
REMARK VINA RESULT:    -3.510      0.000      0.000
REMARK INTER + INTRA:          -5.628
REMARK INTER:                  -5.357
REMARK INTRA:                  -0.272
REMARK UNBOUND:                -0.272
REMARK SMILES CC1=CCC[C@H](C)C(=O)C[C@H](C(C)C)C(=O)C1
REMARK SMILES IDX 8 1 9 2 6 3 7 4 5 5 4 6 3 7 2 8 1 9 10 11 11 12 15 13 16 14
REMARK SMILES IDX 17 15 12 17 13 18 14 19
REMARK H PARENT
REMARK Flexibility Score: 70.00
ROOT
ATOM      1  C   UNL     1       0.848  10.710  19.097  1.00  0.00     0.136 C 
ATOM      2  O   UNL     1      -0.208  11.063  18.591  1.00  0.00    -0.299 OA
ENDROOT
BRANCH   1   3
ATOM      3  C   UNL     1       1.390   9.332  18.766  1.00  0.00     0.053 C 
ATOM      4  C   UNL     1       0.713   8.253  19.622  1.00  0.00     0.016 C 
BRANCH   3   5
ATOM      5  C   UNL     1       1.254   9.017  17.265  1.00  0.00     0.015 C 
BRANCH   5   6
ATOM      6  C   UNL     1       2.537   9.366  16.487  1.00  0.00     0.028 C 
BRANCH   6   7
ATOM      7  C   UNL     1       2.361  10.630  15.687  1.00  0.00    -0.028 C 
ATOM      8  C   UNL     1       2.945  11.815  15.983  1.00  0.00    -0.070 CG0
ATOM      9  C   UNL     1       2.631  12.999  15.104  1.00  0.00     0.039 C 
ATOM     10  G   UNL     1       3.901  11.998  17.152  1.00  0.00     0.000 G0
ENDBRANCH   6   7
ENDBRANCH   5   6
ENDBRANCH   3   5
ENDBRANCH   1   3
BRANCH   1  11
ATOM     11  C   UNL     1       1.577  11.679  20.002  1.00  0.00     0.087 C 
BRANCH  11  12
ATOM     12  C   UNL     1       3.085  11.794  19.649  1.00  0.00     0.066 C 
BRANCH  12  13
ATOM     13  C   UNL     1       3.240  12.594  18.364  1.00  0.00     0.140 C 
ATOM     14  O   UNL     1       2.898  13.769  18.344  1.00  0.00    -0.299 OA
BRANCH  13  15
ATOM     15  C   UNL     1       3.913  11.997  17.153  1.00  0.00     0.106 CG0
ATOM     16  G   UNL     1       2.946  11.797  15.997  1.00  0.00     0.000 G0
ENDBRANCH  13  15
ENDBRANCH  12  13
BRANCH  12  17
ATOM     17  C   UNL     1       3.925  12.440  20.801  1.00  0.00    -0.006 C 
ATOM     18  C   UNL     1       3.530  11.893  22.187  1.00  0.00     0.008 C 
ATOM     19  C   UNL     1       5.435  12.205  20.597  1.00  0.00     0.008 C 
ENDBRANCH  12  17
ENDBRANCH  11  12
ENDBRANCH   1  11
TORSDOF 1
ENDMDL
MODEL 2
REMARK VINA RESULT:    -3.500      2.688      4.650
REMARK INTER + INTRA:          -5.614
REMARK INTER:                  -5.200
REMARK INTRA:                  -0.414
REMARK UNBOUND:                -0.272
REMARK SMILES CC1=CCC[C@H](C)C(=O)C[C@H](C(C)C)C(=O)C1
REMARK SMILES IDX 8 1 9 2 6 3 7 4 5 5 4 6 3 7 2 8 1 9 10 11 11 12 15 13 16 14
REMARK SMILES IDX 17 15 12 17 13 18 14 19
REMARK H PARENT
REMARK Flexibility Score: 70.00
ROOT
ATOM      1  C   UNL     1       2.863  11.082  17.964  1.00  0.00     0.136 C 
ATOM      2  O   UNL     1       3.999  11.111  17.514  1.00  0.00    -0.299 OA
ENDROOT
BRANCH   1   3
ATOM      3  C   UNL     1       1.775  10.401  17.154  1.00  0.00     0.053 C 
ATOM      4  C   UNL     1       2.007  10.593  15.649  1.00  0.00     0.016 C 
BRANCH   3   5
ATOM      5  C   UNL     1       1.656   8.907  17.512  1.00  0.00     0.015 C 
BRANCH   5   6
ATOM      6  C   UNL     1       0.405   8.620  18.363  1.00  0.00     0.028 C 
BRANCH   6   7
ATOM      7  C   UNL     1       0.783   8.179  19.753  1.00  0.00    -0.028 C 
ATOM      8  C   UNL     1       0.517   8.879  20.880  1.00  0.00    -0.070 CG0
ATOM      9  C   UNL     1       1.002   8.319  22.194  1.00  0.00     0.039 C 
ATOM     10  G   UNL     1      -0.251  10.192  20.878  1.00  0.00     0.000 G0
ENDBRANCH   6   7
ENDBRANCH   5   6
ENDBRANCH   3   5
ENDBRANCH   1   3
BRANCH   1  11
ATOM     11  C   UNL     1       2.605  11.698  19.322  1.00  0.00     0.087 C 
BRANCH  11  12
ATOM     12  C   UNL     1       1.099  12.004  19.553  1.00  0.00     0.066 C 
BRANCH  12  13
ATOM     13  C   UNL     1       0.658  11.388  20.872  1.00  0.00     0.140 C 
ATOM     14  O   UNL     1       0.972  11.932  21.923  1.00  0.00    -0.299 OA
BRANCH  13  15
ATOM     15  C   UNL     1      -0.253  10.187  20.901  1.00  0.00     0.106 CG0
ATOM     16  G   UNL     1       0.520   8.877  20.876  1.00  0.00     0.000 G0
ENDBRANCH  13  15
ENDBRANCH  12  13
BRANCH  12  17
ATOM     17  C   UNL     1       0.788  13.538  19.533  1.00  0.00    -0.006 C 
ATOM     18  C   UNL     1       2.067  14.393  19.636  1.00  0.00     0.008 C 
ATOM     19  C   UNL     1       0.032  13.943  18.252  1.00  0.00     0.008 C 
ENDBRANCH  12  17
ENDBRANCH  11  12
ENDBRANCH   1  11
TORSDOF 1
ENDMDL
MODEL 3
REMARK VINA RESULT:    -3.412      3.606      6.587
REMARK INTER + INTRA:          -5.478
REMARK INTER:                  -5.244
REMARK INTRA:                  -0.234
REMARK UNBOUND:                -0.272
REMARK SMILES CC1=CCC[C@H](C)C(=O)C[C@H](C(C)C)C(=O)C1
REMARK SMILES IDX 8 1 9 2 6 3 7 4 5 5 4 6 3 7 2 8 1 9 10 11 11 12 15 13 16 14
REMARK SMILES IDX 17 15 12 17 13 18 14 19
REMARK H PARENT
REMARK Flexibility Score: 70.00
ROOT
ATOM      1  C   UNL     1       1.520  15.378  20.122  1.00  0.00     0.136 C 
ATOM      2  O   UNL     1       1.999  15.376  18.997  1.00  0.00    -0.299 OA
ENDROOT
BRANCH   1   3
ATOM      3  C   UNL     1       1.843  16.536  21.049  1.00  0.00     0.053 C 
ATOM      4  C   UNL     1       0.605  16.966  21.846  1.00  0.00     0.016 C 
BRANCH   3   5
ATOM      5  C   UNL     1       3.018  16.198  21.986  1.00  0.00     0.015 C 
BRANCH   5   6
ATOM      6  C   UNL     1       2.531  15.635  23.335  1.00  0.00     0.028 C 
BRANCH   6   7
ATOM      7  C   UNL     1       3.228  14.341  23.666  1.00  0.00    -0.028 C 
ATOM      8  C   UNL     1       2.664  13.115  23.560  1.00  0.00    -0.070 CG0
ATOM      9  C   UNL     1       3.485  11.919  23.973  1.00  0.00     0.039 C 
ATOM     10  G   UNL     1       1.252  12.895  23.040  1.00  0.00     0.000 G0
ENDBRANCH   6   7
ENDBRANCH   5   6
ENDBRANCH   3   5
ENDBRANCH   1   3
BRANCH   1  11
ATOM     11  C   UNL     1       0.604  14.243  20.523  1.00  0.00     0.087 C 
BRANCH  11  12
ATOM     12  C   UNL     1       1.296  12.857  20.403  1.00  0.00     0.066 C 
BRANCH  12  13
ATOM     13  C   UNL     1       1.205  12.133  21.738  1.00  0.00     0.140 C 
ATOM     14  O   UNL     1       1.190  10.910  21.758  1.00  0.00    -0.299 OA
BRANCH  13  15
ATOM     15  C   UNL     1       1.250  12.896  23.039  1.00  0.00     0.106 CG0
ATOM     16  G   UNL     1       2.673  13.113  23.530  1.00  0.00     0.000 G0
ENDBRANCH  13  15
ENDBRANCH  12  13
BRANCH  12  17
ATOM     17  C   UNL     1       0.687  11.978  19.261  1.00  0.00    -0.006 C 
ATOM     18  C   UNL     1      -0.616  12.578  18.695  1.00  0.00     0.008 C 
ATOM     19  C   UNL     1       1.683  11.794  18.099  1.00  0.00     0.008 C 
ENDBRANCH  12  17
ENDBRANCH  11  12
ENDBRANCH   1  11
TORSDOF 1
ENDMDL
MODEL 4
REMARK VINA RESULT:    -3.407      2.487      4.481
REMARK INTER + INTRA:          -5.471
REMARK INTER:                  -5.054
REMARK INTRA:                  -0.417
REMARK UNBOUND:                -0.272
REMARK SMILES CC1=CCC[C@H](C)C(=O)C[C@H](C(C)C)C(=O)C1
REMARK SMILES IDX 8 1 9 2 6 3 7 4 5 5 4 6 3 7 2 8 1 9 10 11 11 12 15 13 16 14
REMARK SMILES IDX 17 15 12 17 13 18 14 19
REMARK H PARENT
REMARK Flexibility Score: 70.00
ROOT
ATOM      1  C   UNL     1       3.205  11.528  17.253  1.00  0.00     0.136 C 
ATOM      2  O   UNL     1       4.378  11.406  16.930  1.00  0.00    -0.299 OA
ENDROOT
BRANCH   1   3
ATOM      3  C   UNL     1       2.163  10.679  16.550  1.00  0.00     0.053 C 
ATOM      4  C   UNL     1       2.325  10.757  15.026  1.00  0.00     0.016 C 
BRANCH   3   5
ATOM      5  C   UNL     1       2.201   9.219  17.039  1.00  0.00     0.015 C 
BRANCH   5   6
ATOM      6  C   UNL     1       0.976   8.873  17.908  1.00  0.00     0.028 C 
BRANCH   6   7
ATOM      7  C   UNL     1       1.376   8.638  19.341  1.00  0.00    -0.028 C 
ATOM      8  C   UNL     1       1.070   9.463  20.369  1.00  0.00    -0.070 CG0
ATOM      9  C   UNL     1       1.583   9.106  21.742  1.00  0.00     0.039 C 
ATOM     10  G   UNL     1       0.231  10.721  20.201  1.00  0.00     0.000 G0
ENDBRANCH   6   7
ENDBRANCH   5   6
ENDBRANCH   3   5
ENDBRANCH   1   3
BRANCH   1  11
ATOM     11  C   UNL     1       2.856  12.498  18.362  1.00  0.00     0.087 C 
BRANCH  11  12
ATOM     12  C   UNL     1       1.331  12.535  18.653  1.00  0.00     0.066 C 
BRANCH  12  13
ATOM     13  C   UNL     1       1.070  11.965  20.039  1.00  0.00     0.140 C 
ATOM     14  O   UNL     1       1.477  12.568  21.022  1.00  0.00    -0.299 OA
BRANCH  13  15
ATOM     15  C   UNL     1       0.221  10.731  20.224  1.00  0.00     0.106 CG0
ATOM     16  G   UNL     1       1.059   9.469  20.354  1.00  0.00     0.000 G0
ENDBRANCH  13  15
ENDBRANCH  12  13
BRANCH  12  17
ATOM     17  C   UNL     1       0.731  13.975  18.531  1.00  0.00    -0.006 C 
ATOM     18  C   UNL     1       1.811  15.033  18.233  1.00  0.00     0.008 C 
ATOM     19  C   UNL     1      -0.341  14.047  17.425  1.00  0.00     0.008 C 
ENDBRANCH  12  17
ENDBRANCH  11  12
ENDBRANCH   1  11
TORSDOF 1
ENDMDL
MODEL 5
REMARK VINA RESULT:    -3.361      3.490      5.542
REMARK INTER + INTRA:          -5.401
REMARK INTER:                  -5.128
REMARK INTRA:                  -0.273
REMARK UNBOUND:                -0.272
REMARK SMILES CC1=CCC[C@H](C)C(=O)C[C@H](C(C)C)C(=O)C1
REMARK SMILES IDX 8 1 9 2 6 3 7 4 5 5 4 6 3 7 2 8 1 9 10 11 11 12 15 13 16 14
REMARK SMILES IDX 17 15 12 17 13 18 14 19
REMARK H PARENT
REMARK Flexibility Score: 70.00
ROOT
ATOM      1  C   UNL     1       1.188  13.309  19.743  1.00  0.00     0.136 C 
ATOM      2  O   UNL     1       0.094  13.783  19.473  1.00  0.00    -0.299 OA
ENDROOT
BRANCH   1   3
ATOM      3  C   UNL     1       1.374  11.805  19.648  1.00  0.00     0.053 C 
ATOM      4  C   UNL     1       2.787  11.455  19.161  1.00  0.00     0.016 C 
BRANCH   3   5
ATOM      5  C   UNL     1       1.060  11.111  20.986  1.00  0.00     0.015 C 
BRANCH   5   6
ATOM      6  C   UNL     1       2.340  10.657  21.712  1.00  0.00     0.028 C 
BRANCH   6   7
ATOM      7  C   UNL     1       2.383  11.187  23.121  1.00  0.00    -0.028 C 
ATOM      8  C   UNL     1       3.032  12.313  23.500  1.00  0.00    -0.070 CG0
ATOM      9  C   UNL     1       3.014  12.684  24.961  1.00  0.00     0.039 C 
ATOM     10  G   UNL     1       3.767  13.215  22.520  1.00  0.00     0.000 G0
ENDBRANCH   6   7
ENDBRANCH   5   6
ENDBRANCH   3   5
ENDBRANCH   1   3
BRANCH   1  11
ATOM     11  C   UNL     1       2.310  14.248  20.129  1.00  0.00     0.087 C 
BRANCH  11  12
ATOM     12  C   UNL     1       2.054  14.942  21.495  1.00  0.00     0.066 C 
BRANCH  12  13
ATOM     13  C   UNL     1       3.198  14.618  22.444  1.00  0.00     0.140 C 
ATOM     14  O   UNL     1       3.589  15.474  23.226  1.00  0.00    -0.299 OA
BRANCH  13  15
ATOM     15  C   UNL     1       3.776  13.226  22.517  1.00  0.00     0.106 CG0
ATOM     16  G   UNL     1       3.022  12.339  23.495  1.00  0.00     0.000 G0
ENDBRANCH  13  15
ENDBRANCH  12  13
BRANCH  12  17
ATOM     17  C   UNL     1       1.877  16.490  21.358  1.00  0.00    -0.006 C 
ATOM     18  C   UNL     1       1.939  16.957  19.890  1.00  0.00     0.008 C 
ATOM     19  C   UNL     1       0.539  16.960  21.963  1.00  0.00     0.008 C 
ENDBRANCH  12  17
ENDBRANCH  11  12
ENDBRANCH   1  11
TORSDOF 1
ENDMDL
MODEL 6
REMARK VINA RESULT:    -3.342      3.797      6.717
REMARK INTER + INTRA:          -5.371
REMARK INTER:                  -4.973
REMARK INTRA:                  -0.398
REMARK UNBOUND:                -0.272
REMARK SMILES CC1=CCC[C@H](C)C(=O)C[C@H](C(C)C)C(=O)C1
REMARK SMILES IDX 8 1 9 2 6 3 7 4 5 5 4 6 3 7 2 8 1 9 10 11 11 12 15 13 16 14
REMARK SMILES IDX 17 15 12 17 13 18 14 19
REMARK H PARENT
REMARK Flexibility Score: 70.00
ROOT
ATOM      1  C   UNL     1       1.220  14.136  22.068  1.00  0.00     0.136 C 
ATOM      2  O   UNL     1       0.158  14.741  22.070  1.00  0.00    -0.299 OA
ENDROOT
BRANCH   1   3
ATOM      3  C   UNL     1       2.505  14.921  21.879  1.00  0.00     0.053 C 
ATOM      4  C   UNL     1       2.454  15.763  20.598  1.00  0.00     0.016 C 
BRANCH   3   5
ATOM      5  C   UNL     1       2.817  15.796  23.107  1.00  0.00     0.015 C 
BRANCH   5   6
ATOM      6  C   UNL     1       2.988  14.952  24.385  1.00  0.00     0.028 C 
BRANCH   6   7
ATOM      7  C   UNL     1       4.315  14.239  24.392  1.00  0.00    -0.028 C 
ATOM      8  C   UNL     1       4.465  12.894  24.359  1.00  0.00    -0.070 CG0
ATOM      9  C   UNL     1       5.865  12.336  24.415  1.00  0.00     0.039 C 
ATOM     10  G   UNL     1       3.292  11.932  24.262  1.00  0.00     0.000 G0
ENDBRANCH   6   7
ENDBRANCH   5   6
ENDBRANCH   3   5
ENDBRANCH   1   3
BRANCH   1  11
ATOM     11  C   UNL     1       1.203  12.638  22.284  1.00  0.00     0.087 C 
BRANCH  11  12
ATOM     12  C   UNL     1       2.491  11.951  21.754  1.00  0.00     0.066 C 
BRANCH  12  13
ATOM     13  C   UNL     1       3.201  11.257  22.907  1.00  0.00     0.140 C 
ATOM     14  O   UNL     1       3.784  10.201  22.705  1.00  0.00    -0.299 OA
BRANCH  13  15
ATOM     15  C   UNL     1       3.295  11.908  24.266  1.00  0.00     0.106 CG0
ATOM     16  G   UNL     1       4.466  12.873  24.362  1.00  0.00     0.000 G0
ENDBRANCH  13  15
ENDBRANCH  12  13
BRANCH  12  17
ATOM     17  C   UNL     1       2.200  10.936  20.600  1.00  0.00    -0.006 C 
ATOM     18  C   UNL     1       0.692  10.806  20.304  1.00  0.00     0.008 C 
ATOM     19  C   UNL     1       2.919  11.341  19.298  1.00  0.00     0.008 C 
ENDBRANCH  12  17
ENDBRANCH  11  12
ENDBRANCH   1  11
TORSDOF 1
ENDMDL
MODEL 7
REMARK VINA RESULT:    -3.291      1.712      2.355
REMARK INTER + INTRA:          -5.294
REMARK INTER:                  -5.072
REMARK INTRA:                  -0.223
REMARK UNBOUND:                -0.272
REMARK SMILES CC1=CCC[C@H](C)C(=O)C[C@H](C(C)C)C(=O)C1
REMARK SMILES IDX 8 1 9 2 6 3 7 4 5 5 4 6 3 7 2 8 1 9 10 11 11 12 15 13 16 14
REMARK SMILES IDX 17 15 12 17 13 18 14 19
REMARK H PARENT
REMARK Flexibility Score: 70.00
ROOT
ATOM      1  C   UNL     1       1.345  10.159  17.939  1.00  0.00     0.136 C 
ATOM      2  O   UNL     1       0.692   9.162  18.210  1.00  0.00    -0.299 OA
ENDROOT
BRANCH   1   3
ATOM      3  C   UNL     1       2.446  10.048  16.901  1.00  0.00     0.053 C 
ATOM      4  C   UNL     1       3.051   8.638  16.887  1.00  0.00     0.016 C 
BRANCH   3   5
ATOM      5  C   UNL     1       1.946  10.451  15.501  1.00  0.00     0.015 C 
BRANCH   5   6
ATOM      6  C   UNL     1       2.795  11.583  14.892  1.00  0.00     0.028 C 
BRANCH   6   7
ATOM      7  C   UNL     1       1.927  12.717  14.414  1.00  0.00    -0.028 C 
ATOM      8  C   UNL     1       1.717  13.866  15.100  1.00  0.00    -0.070 CG0
ATOM      9  C   UNL     1       0.783  14.887  14.501  1.00  0.00     0.039 C 
ATOM     10  G   UNL     1       2.382  14.168  16.433  1.00  0.00     0.000 G0
ENDBRANCH   6   7
ENDBRANCH   5   6
ENDBRANCH   3   5
ENDBRANCH   1   3
BRANCH   1  11
ATOM     11  C   UNL     1       1.001  11.462  18.628  1.00  0.00     0.087 C 
BRANCH  11  12
ATOM     12  C   UNL     1       2.120  12.527  18.466  1.00  0.00     0.066 C 
BRANCH  12  13
ATOM     13  C   UNL     1       1.600  13.677  17.616  1.00  0.00     0.140 C 
ATOM     14  O   UNL     1       0.575  14.255  17.952  1.00  0.00    -0.299 OA
BRANCH  13  15
ATOM     15  C   UNL     1       2.388  14.188  16.435  1.00  0.00     0.106 CG0
ATOM     16  G   UNL     1       1.717  13.859  15.111  1.00  0.00     0.000 G0
ENDBRANCH  13  15
ENDBRANCH  12  13
BRANCH  12  17
ATOM     17  C   UNL     1       2.648  13.057  19.840  1.00  0.00    -0.006 C 
ATOM     18  C   UNL     1       1.709  12.691  21.007  1.00  0.00     0.008 C 
ATOM     19  C   UNL     1       4.053  12.506  20.155  1.00  0.00     0.008 C 
ENDBRANCH  12  17
ENDBRANCH  11  12
ENDBRANCH   1  11
TORSDOF 1
ENDMDL
MODEL 8
REMARK VINA RESULT:    -3.262      3.294      5.030
REMARK INTER + INTRA:          -5.250
REMARK INTER:                  -5.053
REMARK INTRA:                  -0.198
REMARK UNBOUND:                -0.272
REMARK SMILES CC1=CCC[C@H](C)C(=O)C[C@H](C(C)C)C(=O)C1
REMARK SMILES IDX 8 1 9 2 6 3 7 4 5 5 4 6 3 7 2 8 1 9 10 11 11 12 15 13 16 14
REMARK SMILES IDX 17 15 12 17 13 18 14 19
REMARK H PARENT
REMARK Flexibility Score: 70.00
ROOT
ATOM      1  C   UNL     1       2.585  15.615  21.605  1.00  0.00     0.136 C 
ATOM      2  O   UNL     1       3.277  16.279  22.365  1.00  0.00    -0.299 OA
ENDROOT
BRANCH   1   3
ATOM      3  C   UNL     1       1.221  16.149  21.207  1.00  0.00     0.053 C 
ATOM      4  C   UNL     1       0.526  16.826  22.396  1.00  0.00     0.016 C 
BRANCH   3   5
ATOM      5  C   UNL     1       1.318  17.104  20.003  1.00  0.00     0.015 C 
BRANCH   5   6
ATOM      6  C   UNL     1       2.058  16.458  18.817  1.00  0.00     0.028 C 
BRANCH   6   7
ATOM      7  C   UNL     1       1.133  15.586  18.010  1.00  0.00    -0.028 C 
ATOM      8  C   UNL     1       1.353  14.278  17.736  1.00  0.00    -0.070 CG0
ATOM      9  C   UNL     1       0.348  13.555  16.876  1.00  0.00     0.039 C 
ATOM     10  G   UNL     1       2.558  13.513  18.262  1.00  0.00     0.000 G0
ENDBRANCH   6   7
ENDBRANCH   5   6
ENDBRANCH   3   5
ENDBRANCH   1   3
BRANCH   1  11
ATOM     11  C   UNL     1       3.137  14.310  21.074  1.00  0.00     0.087 C 
BRANCH  11  12
ATOM     12  C   UNL     1       2.022  13.257  20.826  1.00  0.00     0.066 C 
BRANCH  12  13
ATOM     13  C   UNL     1       2.210  12.643  19.447  1.00  0.00     0.140 C 
ATOM     14  O   UNL     1       1.984  11.451  19.284  1.00  0.00    -0.299 OA
BRANCH  13  15
ATOM     15  C   UNL     1       2.558  13.501  18.256  1.00  0.00     0.106 CG0
ATOM     16  G   UNL     1       1.361  14.287  17.743  1.00  0.00     0.000 G0
ENDBRANCH  13  15
ENDBRANCH  12  13
BRANCH  12  17
ATOM     17  C   UNL     1       1.994  12.142  21.923  1.00  0.00    -0.006 C 
ATOM     18  C   UNL     1       3.246  12.177  22.823  1.00  0.00     0.008 C 
ATOM     19  C   UNL     1       0.746  12.264  22.819  1.00  0.00     0.008 C 
ENDBRANCH  12  17
ENDBRANCH  11  12
ENDBRANCH   1  11
TORSDOF 1
ENDMDL
MODEL 9
REMARK VINA RESULT:    -3.201      3.047      4.911
REMARK INTER + INTRA:          -5.158
REMARK INTER:                  -4.822
REMARK INTRA:                  -0.336
REMARK UNBOUND:                -0.272
REMARK SMILES CC1=CCC[C@H](C)C(=O)C[C@H](C(C)C)C(=O)C1
REMARK SMILES IDX 8 1 9 2 6 3 7 4 5 5 4 6 3 7 2 8 1 9 10 11 11 12 15 13 16 14
REMARK SMILES IDX 17 15 12 17 13 18 14 19
REMARK H PARENT
REMARK Flexibility Score: 70.00
ROOT
ATOM      1  C   UNL     1       0.748  11.057  18.904  1.00  0.00     0.136 C 
ATOM      2  O   UNL     1      -0.076  11.917  18.626  1.00  0.00    -0.299 OA
ENDROOT
BRANCH   1   3
ATOM      3  C   UNL     1       0.638   9.700  18.233  1.00  0.00     0.053 C 
ATOM      4  C   UNL     1       2.024   9.159  17.853  1.00  0.00     0.016 C 
BRANCH   3   5
ATOM      5  C   UNL     1      -0.129   8.695  19.112  1.00  0.00     0.015 C 
BRANCH   5   6
ATOM      6  C   UNL     1       0.825   7.793  19.918  1.00  0.00     0.028 C 
BRANCH   6   7
ATOM      7  C   UNL     1       0.474   7.803  21.382  1.00  0.00    -0.028 C 
ATOM      8  C   UNL     1       1.174   8.461  22.336  1.00  0.00    -0.070 CG0
ATOM      9  C   UNL     1       0.715   8.335  23.767  1.00  0.00     0.039 C 
ATOM     10  G   UNL     1       2.390   9.320  22.026  1.00  0.00     0.000 G0
ENDBRANCH   6   7
ENDBRANCH   5   6
ENDBRANCH   3   5
ENDBRANCH   1   3
BRANCH   1  11
ATOM     11  C   UNL     1       1.853  11.398  19.879  1.00  0.00     0.087 C 
BRANCH  11  12
ATOM     12  C   UNL     1       1.320  11.612  21.323  1.00  0.00     0.066 C 
BRANCH  12  13
ATOM     13  C   UNL     1       2.154  10.788  22.293  1.00  0.00     0.140 C 
ATOM     14  O   UNL     1       2.550  11.302  23.330  1.00  0.00    -0.299 OA
BRANCH  13  15
ATOM     15  C   UNL     1       2.402   9.320  22.051  1.00  0.00     0.106 CG0
ATOM     16  G   UNL     1       1.166   8.475  22.321  1.00  0.00     0.000 G0
ENDBRANCH  13  15
ENDBRANCH  12  13
BRANCH  12  17
ATOM     17  C   UNL     1       1.316  13.118  21.745  1.00  0.00    -0.006 C 
ATOM     18  C   UNL     1       2.146  13.995  20.786  1.00  0.00     0.008 C 
ATOM     19  C   UNL     1      -0.117  13.683  21.805  1.00  0.00     0.008 C 
ENDBRANCH  12  17
ENDBRANCH  11  12
ENDBRANCH   1  11
TORSDOF 1
ENDMDL
