MODEL 1
REMARK VINA RESULT:    -3.994      0.000      0.000
REMARK INTER + INTRA:          -6.478
REMARK INTER:                  -5.862
REMARK INTRA:                  -0.616
REMARK UNBOUND:                -0.616
REMARK SMILES O=C([O-])CCCCCCCC(=O)[O-]
REMARK SMILES IDX 7 1 6 2 5 3 4 4 2 5 1 6 3 7 8 8 9 9 10 10 11 11 12 12 13 13
REMARK H PARENT
REMARK Flexibility Score: inf
ROOT
ATOM      1  C   UNL     1       4.568   4.750   1.774  1.00  0.00     0.000 C 
ENDROOT
BRANCH   1   2
ATOM      2  C   UNL     1       5.612   4.124   0.832  1.00  0.00     0.000 C 
BRANCH   2   3
ATOM      3  C   UNL     1       7.053   4.343   1.321  1.00  0.00     0.006 C 
BRANCH   3   4
ATOM      4  C   UNL     1       7.917   5.087   0.296  1.00  0.00     0.053 C 
BRANCH   4   5
ATOM      5  C   UNL     1       7.491   6.518   0.195  1.00  0.00     0.041 C 
ATOM      6  O   UNL     1       7.023   6.965  -0.885  1.00  0.00    -0.550 OA
ATOM      7  O   UNL     1       7.658   7.372   1.278  1.00  0.00    -0.550 OA
ENDBRANCH   4   5
ENDBRANCH   3   4
ENDBRANCH   2   3
ENDBRANCH   1   2
BRANCH   1   8
ATOM      8  C   UNL     1       3.981   6.058   1.219  1.00  0.00     0.000 C 
BRANCH   8   9
ATOM      9  C   UNL     1       4.170   7.243   2.177  1.00  0.00     0.006 C 
BRANCH   9  10
ATOM     10  C   UNL     1       2.827   7.895   2.516  1.00  0.00     0.053 C 
BRANCH  10  11
ATOM     11  C   UNL     1       2.437   7.592   3.928  1.00  0.00     0.041 C 
ATOM     12  O   UNL     1       1.345   8.016   4.389  1.00  0.00    -0.550 OA
ATOM     13  O   UNL     1       3.304   6.884   4.751  1.00  0.00    -0.550 OA
ENDBRANCH  10  11
ENDBRANCH   9  10
ENDBRANCH   8   9
ENDBRANCH   1   8
TORSDOF 8
ENDMDL
MODEL 2
REMARK VINA RESULT:    -3.957      0.272      5.564
REMARK INTER + INTRA:          -6.424
REMARK INTER:                  -5.820
REMARK INTRA:                  -0.604
REMARK UNBOUND:                -0.616
REMARK SMILES O=C([O-])CCCCCCCC(=O)[O-]
REMARK SMILES IDX 7 1 6 2 5 3 4 4 2 5 1 6 3 7 8 8 9 9 10 10 11 11 12 12 13 13
REMARK H PARENT
REMARK Flexibility Score: inf
ROOT
ATOM      1  C   UNL     1       4.367   5.091   1.729  1.00  0.00     0.000 C 
ENDROOT
BRANCH   1   2
ATOM      2  C   UNL     1       3.996   6.473   1.161  1.00  0.00     0.000 C 
BRANCH   2   3
ATOM      3  C   UNL     1       4.056   7.581   2.224  1.00  0.00     0.006 C 
BRANCH   3   4
ATOM      4  C   UNL     1       2.664   8.072   2.642  1.00  0.00     0.053 C 
BRANCH   4   5
ATOM      5  C   UNL     1       2.356   7.638   4.041  1.00  0.00     0.041 C 
ATOM      6  O   UNL     1       1.278   7.986   4.589  1.00  0.00    -0.550 OA
ATOM      7  O   UNL     1       3.283   6.891   4.757  1.00  0.00    -0.550 OA
ENDBRANCH   4   5
ENDBRANCH   3   4
ENDBRANCH   2   3
ENDBRANCH   1   2
BRANCH   1   8
ATOM      8  C   UNL     1       5.359   4.331   0.833  1.00  0.00     0.000 C 
BRANCH   8   9
ATOM      9  C   UNL     1       6.806   4.425   1.341  1.00  0.00     0.006 C 
BRANCH   9  10
ATOM     10  C   UNL     1       7.723   5.034   0.277  1.00  0.00     0.053 C 
BRANCH  10  11
ATOM     11  C   UNL     1       7.520   6.513   0.192  1.00  0.00     0.041 C 
ATOM     12  O   UNL     1       7.354   7.068  -0.926  1.00  0.00    -0.550 OA
ATOM     13  O   UNL     1       7.565   7.288   1.345  1.00  0.00    -0.550 OA
ENDBRANCH  10  11
ENDBRANCH   9  10
ENDBRANCH   8   9
ENDBRANCH   1   8
TORSDOF 8
ENDMDL
MODEL 3
REMARK VINA RESULT:    -3.713      0.684      1.614
REMARK INTER + INTRA:          -6.065
REMARK INTER:                  -5.403
REMARK INTRA:                  -0.662
REMARK UNBOUND:                -0.616
REMARK SMILES O=C([O-])CCCCCCCC(=O)[O-]
REMARK SMILES IDX 7 1 6 2 5 3 4 4 2 5 1 6 3 7 8 8 9 9 10 10 11 11 12 12 13 13
REMARK H PARENT
REMARK Flexibility Score: inf
ROOT
ATOM      1  C   UNL     1       3.997   5.706   0.903  1.00  0.00     0.000 C 
ENDROOT
BRANCH   1   2
ATOM      2  C   UNL     1       4.899   4.843   1.805  1.00  0.00     0.000 C 
BRANCH   2   3
ATOM      3  C   UNL     1       5.924   4.025   1.003  1.00  0.00     0.006 C 
BRANCH   3   4
ATOM      4  C   UNL     1       7.372   4.367   1.376  1.00  0.00     0.053 C 
BRANCH   4   5
ATOM      5  C   UNL     1       7.707   5.760   0.943  1.00  0.00     0.041 C 
ATOM      6  O   UNL     1       7.980   6.641   1.799  1.00  0.00    -0.550 OA
ATOM      7  O   UNL     1       7.670   6.097  -0.404  1.00  0.00    -0.550 OA
ENDBRANCH   4   5
ENDBRANCH   3   4
ENDBRANCH   2   3
ENDBRANCH   1   2
BRANCH   1   8
ATOM      8  C   UNL     1       4.343   7.202   0.980  1.00  0.00     0.000 C 
BRANCH   8   9
ATOM      9  C   UNL     1       4.308   7.743   2.417  1.00  0.00     0.006 C 
BRANCH   9  10
ATOM     10  C   UNL     1       2.880   8.106   2.832  1.00  0.00     0.053 C 
BRANCH  10  11
ATOM     11  C   UNL     1       2.584   7.590   4.203  1.00  0.00     0.041 C 
ATOM     12  O   UNL     1       3.367   6.774   4.757  1.00  0.00    -0.550 OA
ATOM     13  O   UNL     1       1.415   7.969   4.852  1.00  0.00    -0.550 OA
ENDBRANCH  10  11
ENDBRANCH   9  10
ENDBRANCH   8   9
ENDBRANCH   1   8
TORSDOF 8
ENDMDL
MODEL 4
REMARK VINA RESULT:    -3.614      1.998      2.752
REMARK INTER + INTRA:          -5.919
REMARK INTER:                  -5.362
REMARK INTRA:                  -0.557
REMARK UNBOUND:                -0.616
REMARK SMILES O=C([O-])CCCCCCCC(=O)[O-]
REMARK SMILES IDX 7 1 6 2 5 3 4 4 2 5 1 6 3 7 8 8 9 9 10 10 11 11 12 12 13 13
REMARK H PARENT
REMARK Flexibility Score: inf
ROOT
ATOM      1  C   UNL     1       7.572   6.519   2.556  1.00  0.00     0.000 C 
ENDROOT
BRANCH   1   2
ATOM      2  C   UNL     1       7.982   6.213   1.104  1.00  0.00     0.000 C 
BRANCH   2   3
ATOM      3  C   UNL     1       7.578   4.797   0.664  1.00  0.00     0.006 C 
BRANCH   3   4
ATOM      4  C   UNL     1       6.216   4.371   1.226  1.00  0.00     0.053 C 
BRANCH   4   5
ATOM      5  C   UNL     1       5.111   4.876   0.353  1.00  0.00     0.041 C 
ATOM      6  O   UNL     1       3.910   4.664   0.665  1.00  0.00    -0.550 OA
ATOM      7  O   UNL     1       5.408   5.539  -0.831  1.00  0.00    -0.550 OA
ENDBRANCH   4   5
ENDBRANCH   3   4
ENDBRANCH   2   3
ENDBRANCH   1   2
BRANCH   1   8
ATOM      8  C   UNL     1       7.132   7.979   2.750  1.00  0.00     0.000 C 
BRANCH   8   9
ATOM      9  C   UNL     1       5.759   8.098   3.428  1.00  0.00     0.006 C 
BRANCH   9  10
ATOM     10  C   UNL     1       4.636   7.703   2.464  1.00  0.00     0.053 C 
BRANCH  10  11
ATOM     11  C   UNL     1       3.488   7.105   3.212  1.00  0.00     0.041 C 
ATOM     12  O   UNL     1       2.420   6.817   2.610  1.00  0.00    -0.550 OA
ATOM     13  O   UNL     1       3.578   6.911   4.585  1.00  0.00    -0.550 OA
ENDBRANCH  10  11
ENDBRANCH   9  10
ENDBRANCH   8   9
ENDBRANCH   1   8
TORSDOF 8
ENDMDL
MODEL 5
REMARK VINA RESULT:    -3.596      1.919      5.175
REMARK INTER + INTRA:          -5.894
REMARK INTER:                  -5.402
REMARK INTRA:                  -0.492
REMARK UNBOUND:                -0.616
REMARK SMILES O=C([O-])CCCCCCCC(=O)[O-]
REMARK SMILES IDX 7 1 6 2 5 3 4 4 2 5 1 6 3 7 8 8 9 9 10 10 11 11 12 12 13 13
REMARK H PARENT
REMARK Flexibility Score: inf
ROOT
ATOM      1  C   UNL     1       7.652   7.104   1.396  1.00  0.00     0.000 C 
ENDROOT
BRANCH   1   2
ATOM      2  C   UNL     1       6.895   7.929   2.453  1.00  0.00     0.000 C 
BRANCH   2   3
ATOM      3  C   UNL     1       5.369   7.802   2.317  1.00  0.00     0.006 C 
BRANCH   3   4
ATOM      4  C   UNL     1       4.643   7.968   3.658  1.00  0.00     0.053 C 
BRANCH   4   5
ATOM      5  C   UNL     1       3.422   7.103   3.700  1.00  0.00     0.041 C 
ATOM      6  O   UNL     1       3.068   6.558   4.778  1.00  0.00    -0.550 OA
ATOM      7  O   UNL     1       2.703   6.858   2.537  1.00  0.00    -0.550 OA
ENDBRANCH   4   5
ENDBRANCH   3   4
ENDBRANCH   2   3
ENDBRANCH   1   2
BRANCH   1   8
ATOM      8  C   UNL     1       7.987   5.685   1.884  1.00  0.00     0.000 C 
BRANCH   8   9
ATOM      9  C   UNL     1       7.539   4.599   0.896  1.00  0.00     0.006 C 
BRANCH   9  10
ATOM     10  C   UNL     1       6.119   4.121   1.213  1.00  0.00     0.053 C 
BRANCH  10  11
ATOM     11  C   UNL     1       5.131   4.765   0.293  1.00  0.00     0.041 C 
ATOM     12  O   UNL     1       5.528   5.409  -0.714  1.00  0.00    -0.550 OA
ATOM     13  O   UNL     1       3.772   4.696   0.575  1.00  0.00    -0.550 OA
ENDBRANCH  10  11
ENDBRANCH   9  10
ENDBRANCH   8   9
ENDBRANCH   1   8
TORSDOF 8
ENDMDL
MODEL 6
REMARK VINA RESULT:    -3.343      1.772      5.128
REMARK INTER + INTRA:          -5.522
REMARK INTER:                  -4.807
REMARK INTRA:                  -0.716
REMARK UNBOUND:                -0.616
REMARK SMILES O=C([O-])CCCCCCCC(=O)[O-]
REMARK SMILES IDX 7 1 6 2 5 3 4 4 2 5 1 6 3 7 8 8 9 9 10 10 11 11 12 12 13 13
REMARK H PARENT
REMARK Flexibility Score: inf
ROOT
ATOM      1  C   UNL     1       7.084   4.998   1.662  1.00  0.00     0.000 C 
ENDROOT
BRANCH   1   2
ATOM      2  C   UNL     1       6.326   4.714   0.352  1.00  0.00     0.000 C 
BRANCH   2   3
ATOM      3  C   UNL     1       4.800   4.755   0.534  1.00  0.00     0.006 C 
BRANCH   3   4
ATOM      4  C   UNL     1       4.385   5.257   1.922  1.00  0.00     0.053 C 
BRANCH   4   5
ATOM      5  C   UNL     1       3.575   6.510   1.804  1.00  0.00     0.041 C 
ATOM      6  O   UNL     1       3.893   7.393   0.967  1.00  0.00    -0.550 OA
ATOM      7  O   UNL     1       2.497   6.723   2.654  1.00  0.00    -0.550 OA
ENDBRANCH   4   5
ENDBRANCH   3   4
ENDBRANCH   2   3
ENDBRANCH   1   2
BRANCH   1   8
ATOM      8  C   UNL     1       8.022   6.211   1.549  1.00  0.00     0.000 C 
BRANCH   8   9
ATOM      9  C   UNL     1       7.313   7.458   1.002  1.00  0.00     0.006 C 
BRANCH   9  10
ATOM     10  C   UNL     1       8.125   8.101  -0.126  1.00  0.00     0.053 C 
BRANCH  10  11
ATOM     11  C   UNL     1       7.412   7.960  -1.433  1.00  0.00     0.041 C 
ATOM     12  O   UNL     1       6.174   7.732  -1.459  1.00  0.00    -0.550 OA
ATOM     13  O   UNL     1       8.125   8.029  -2.624  1.00  0.00    -0.550 OA
ENDBRANCH  10  11
ENDBRANCH   9  10
ENDBRANCH   8   9
ENDBRANCH   1   8
TORSDOF 8
ENDMDL
MODEL 7
REMARK VINA RESULT:    -3.167      1.316      5.383
REMARK INTER + INTRA:          -5.264
REMARK INTER:                  -5.299
REMARK INTRA:                   0.035
REMARK UNBOUND:                -0.616
REMARK SMILES O=C([O-])CCCCCCCC(=O)[O-]
REMARK SMILES IDX 7 1 6 2 5 3 4 4 2 5 1 6 3 7 8 8 9 9 10 10 11 11 12 12 13 13
REMARK H PARENT
REMARK Flexibility Score: inf
ROOT
ATOM      1  C   UNL     1       4.757   4.791   1.636  1.00  0.00     0.000 C 
ENDROOT
BRANCH   1   2
ATOM      2  C   UNL     1       3.532   5.704   1.819  1.00  0.00     0.000 C 
BRANCH   2   3
ATOM      3  C   UNL     1       3.921   7.171   2.063  1.00  0.00     0.006 C 
BRANCH   3   4
ATOM      4  C   UNL     1       2.748   8.014   2.576  1.00  0.00     0.053 C 
BRANCH   4   5
ATOM      5  C   UNL     1       2.355   7.579   3.953  1.00  0.00     0.041 C 
ATOM      6  O   UNL     1       1.214   7.858   4.405  1.00  0.00    -0.550 OA
ATOM      7  O   UNL     1       3.269   6.909   4.758  1.00  0.00    -0.550 OA
ENDBRANCH   4   5
ENDBRANCH   3   4
ENDBRANCH   2   3
ENDBRANCH   1   2
BRANCH   1   8
ATOM      8  C   UNL     1       5.373   4.903   0.231  1.00  0.00     0.000 C 
BRANCH   8   9
ATOM      9  C   UNL     1       6.412   6.029   0.130  1.00  0.00     0.006 C 
BRANCH   9  10
ATOM     10  C   UNL     1       7.812   5.517   0.482  1.00  0.00     0.053 C 
BRANCH  10  11
ATOM     11  C   UNL     1       7.980   5.429   1.965  1.00  0.00     0.041 C 
ATOM     12  O   UNL     1       8.042   6.477   2.661  1.00  0.00    -0.550 OA
ATOM     13  O   UNL     1       8.122   4.189   2.576  1.00  0.00    -0.550 OA
ENDBRANCH  10  11
ENDBRANCH   9  10
ENDBRANCH   8   9
ENDBRANCH   1   8
TORSDOF 8
ENDMDL
MODEL 8
REMARK VINA RESULT:    -2.978     21.523     22.854
REMARK INTER + INTRA:          -4.987
REMARK INTER:                  -4.712
REMARK INTRA:                  -0.275
REMARK UNBOUND:                -0.616
REMARK SMILES O=C([O-])CCCCCCCC(=O)[O-]
REMARK SMILES IDX 7 1 6 2 5 3 4 4 2 5 1 6 3 7 8 8 9 9 10 10 11 11 12 12 13 13
REMARK H PARENT
REMARK Flexibility Score: inf
ROOT
ATOM      1  C   UNL     1      -9.088 -11.771  -0.019  1.00  0.00     0.000 C 
ENDROOT
BRANCH   1   2
ATOM      2  C   UNL     1     -10.601 -11.483  -0.000  1.00  0.00     0.000 C 
BRANCH   2   3
ATOM      3  C   UNL     1     -11.123 -10.986  -1.358  1.00  0.00     0.006 C 
BRANCH   3   4
ATOM      4  C   UNL     1     -10.890 -11.998  -2.486  1.00  0.00     0.053 C 
BRANCH   4   5
ATOM      5  C   UNL     1     -10.156 -11.355  -3.621  1.00  0.00     0.041 C 
ATOM      6  O   UNL     1      -9.169 -10.607  -3.394  1.00  0.00    -0.550 OA
ATOM      7  O   UNL     1     -10.592 -11.542  -4.926  1.00  0.00    -0.550 OA
ENDBRANCH   4   5
ENDBRANCH   3   4
ENDBRANCH   2   3
ENDBRANCH   1   2
BRANCH   1   8
ATOM      8  C   UNL     1      -8.537 -12.125   1.371  1.00  0.00     0.000 C 
BRANCH   8   9
ATOM      9  C   UNL     1      -7.049 -11.776   1.524  1.00  0.00     0.006 C 
BRANCH   9  10
ATOM     10  C   UNL     1      -6.558 -12.078   2.942  1.00  0.00     0.053 C 
BRANCH  10  11
ATOM     11  C   UNL     1      -5.611 -11.018   3.407  1.00  0.00     0.041 C 
ATOM     12  O   UNL     1      -5.054 -10.255   2.574  1.00  0.00    -0.550 OA
ATOM     13  O   UNL     1      -5.303 -10.904   4.757  1.00  0.00    -0.550 OA
ENDBRANCH  10  11
ENDBRANCH   9  10
ENDBRANCH   8   9
ENDBRANCH   1   8
TORSDOF 8
ENDMDL
MODEL 9
REMARK VINA RESULT:    -2.965      1.570      5.684
REMARK INTER + INTRA:          -4.967
REMARK INTER:                  -4.726
REMARK INTRA:                  -0.241
REMARK UNBOUND:                -0.616
REMARK SMILES O=C([O-])CCCCCCCC(=O)[O-]
REMARK SMILES IDX 7 1 6 2 5 3 4 4 2 5 1 6 3 7 8 8 9 9 10 10 11 11 12 12 13 13
REMARK H PARENT
REMARK Flexibility Score: inf
ROOT
ATOM      1  C   UNL     1       5.917   7.511   2.326  1.00  0.00     0.000 C 
ENDROOT
BRANCH   1   2
ATOM      2  C   UNL     1       4.621   8.125   1.767  1.00  0.00     0.000 C 
BRANCH   2   3
ATOM      3  C   UNL     1       3.389   7.245   2.036  1.00  0.00     0.006 C 
BRANCH   3   4
ATOM      4  C   UNL     1       2.266   8.006   2.751  1.00  0.00     0.053 C 
BRANCH   4   5
ATOM      5  C   UNL     1       2.196   7.602   4.191  1.00  0.00     0.041 C 
ATOM      6  O   UNL     1       3.181   7.044   4.740  1.00  0.00    -0.550 OA
ATOM      7  O   UNL     1       1.025   7.797   4.912  1.00  0.00    -0.550 OA
ENDBRANCH   4   5
ENDBRANCH   3   4
ENDBRANCH   2   3
ENDBRANCH   1   2
BRANCH   1   8
ATOM      8  C   UNL     1       7.165   7.957   1.547  1.00  0.00     0.000 C 
BRANCH   8   9
ATOM      9  C   UNL     1       7.726   6.849   0.644  1.00  0.00     0.006 C 
BRANCH   9  10
ATOM     10  C   UNL     1       7.429   5.464   1.228  1.00  0.00     0.053 C 
BRANCH  10  11
ATOM     11  C   UNL     1       6.219   4.870   0.581  1.00  0.00     0.041 C 
ATOM     12  O   UNL     1       5.739   3.787   1.007  1.00  0.00    -0.550 OA
ATOM     13  O   UNL     1       5.650   5.487  -0.527  1.00  0.00    -0.550 OA
ENDBRANCH  10  11
ENDBRANCH   9  10
ENDBRANCH   8   9
ENDBRANCH   1   8
TORSDOF 8
ENDMDL
