MODEL 1
REMARK VINA RESULT:    -3.671      0.000      0.000
REMARK INTER + INTRA:          -4.691
REMARK INTER:                  -5.173
REMARK INTRA:                   0.482
REMARK UNBOUND:                 0.482
REMARK SMILES CC1=CCC(=C(C)C)C(=O)CC(C)=CCC1
REMARK SMILES IDX 12 1 14 2 13 3 15 4 16 5 2 6 1 7 3 8 11 10 9 11 10 12 5 13
REMARK SMILES IDX 6 14 7 15 8 16 4 17
REMARK H PARENT
REMARK Flexibility Score: 60.00
ROOT
ATOM      1  C   UNL     1      49.095 -20.212  14.131  1.00  0.00    -0.070 C 
ATOM      2  C   UNL     1      49.803 -19.065  14.261  1.00  0.00    -0.027 C 
ATOM      3  C   UNL     1      47.875 -20.380  15.005  1.00  0.00     0.039 C 
ENDROOT
BRANCH   2   4
ATOM      4  C   UNL     1      50.986 -18.646  13.421  1.00  0.00     0.032 C 
BRANCH   4   5
ATOM      5  C   UNL     1      52.230 -19.519  13.672  1.00  0.00     0.034 C 
BRANCH   5   6
ATOM      6  C   UNL     1      52.737 -20.172  12.401  1.00  0.00    -0.077 C 
ATOM      7  C   UNL     1      53.037 -19.291  11.215  1.00  0.00     0.039 C 
ATOM      8  C   UNL     1      52.912 -21.506  12.259  1.00  0.00    -0.023 CG0
ATOM      9  G   UNL     1      52.634 -22.549  13.316  1.00  0.00     0.000 G0
ENDBRANCH   5   6
ENDBRANCH   4   5
ENDBRANCH   2   4
BRANCH   1  10
ATOM     10  C   UNL     1      49.422 -21.297  13.118  1.00  0.00     0.111 C 
BRANCH  10  11
ATOM     11  C   UNL     1      50.104 -22.476  13.767  1.00  0.00     0.163 C 
ATOM     12  O   UNL     1      49.700 -22.844  14.903  1.00  0.00    -0.294 OA
BRANCH  11  13
ATOM     13  C   UNL     1      51.265 -23.170  13.126  1.00  0.00    -0.002 C 
ATOM     14  C   UNL     1      51.096 -24.275  12.339  1.00  0.00    -0.069 C 
ATOM     15  C   UNL     1      52.278 -24.993  11.726  1.00  0.00     0.039 C 
ATOM     16  C   UNL     1      49.721 -24.813  12.013  1.00  0.00     0.039 C 
BRANCH  13  17
ATOM     17  C   UNL     1      52.636 -22.550  13.327  1.00  0.00     0.066 CG0
ATOM     18  G   UNL     1      52.890 -21.514  12.258  1.00  0.00     0.000 G0
ENDBRANCH  13  17
ENDBRANCH  11  13
ENDBRANCH  10  11
ENDBRANCH   1  10
TORSDOF 0
ENDMDL
MODEL 2
REMARK VINA RESULT:    -3.667      1.439      1.563
REMARK INTER + INTRA:          -4.686
REMARK INTER:                  -5.586
REMARK INTRA:                   0.900
REMARK UNBOUND:                 0.482
REMARK SMILES CC1=CCC(=C(C)C)C(=O)CC(C)=CCC1
REMARK SMILES IDX 12 1 14 2 13 3 15 4 16 5 2 6 1 7 3 8 11 10 9 11 10 12 5 13
REMARK SMILES IDX 6 14 7 15 8 16 4 17
REMARK H PARENT
REMARK Flexibility Score: 60.00
ROOT
ATOM      1  C   UNL     1      49.316 -20.249  13.953  1.00  0.00    -0.070 C 
ATOM      2  C   UNL     1      50.124 -19.241  14.359  1.00  0.00    -0.027 C 
ATOM      3  C   UNL     1      48.390 -20.855  14.981  1.00  0.00     0.039 C 
ENDROOT
BRANCH   2   4
ATOM      4  C   UNL     1      51.045 -18.427  13.482  1.00  0.00     0.032 C 
BRANCH   4   5
ATOM      5  C   UNL     1      52.470 -19.009  13.418  1.00  0.00     0.034 C 
BRANCH   5   6
ATOM      6  C   UNL     1      52.666 -19.916  12.219  1.00  0.00    -0.077 C 
ATOM      7  C   UNL     1      52.933 -19.280  10.878  1.00  0.00     0.039 C 
ATOM      8  C   UNL     1      52.588 -21.264  12.277  1.00  0.00    -0.023 CG0
ATOM      9  G   UNL     1      52.296 -22.079  13.515  1.00  0.00     0.000 G0
ENDBRANCH   5   6
ENDBRANCH   4   5
ENDBRANCH   2   4
BRANCH   1  10
ATOM     10  C   UNL     1      49.246 -20.753  12.521  1.00  0.00     0.111 C 
BRANCH  10  11
ATOM     11  C   UNL     1      49.975 -22.064  12.357  1.00  0.00     0.163 C 
ATOM     12  O   UNL     1      49.790 -22.716  11.294  1.00  0.00    -0.294 OA
BRANCH  11  13
ATOM     13  C   UNL     1      50.854 -22.621  13.433  1.00  0.00    -0.002 C 
ATOM     14  C   UNL     1      50.419 -23.601  14.281  1.00  0.00    -0.069 C 
ATOM     15  C   UNL     1      51.301 -24.131  15.390  1.00  0.00     0.039 C 
ATOM     16  C   UNL     1      49.051 -24.229  14.131  1.00  0.00     0.039 C 
BRANCH  13  17
ATOM     17  C   UNL     1      52.279 -22.102  13.496  1.00  0.00     0.066 CG0
ATOM     18  G   UNL     1      52.580 -21.280  12.265  1.00  0.00     0.000 G0
ENDBRANCH  13  17
ENDBRANCH  11  13
ENDBRANCH  10  11
ENDBRANCH   1  10
TORSDOF 0
ENDMDL
MODEL 3
REMARK VINA RESULT:    -3.360      1.699      3.866
REMARK INTER + INTRA:          -4.253
REMARK INTER:                  -4.992
REMARK INTRA:                   0.739
REMARK UNBOUND:                 0.482
REMARK SMILES CC1=CCC(=C(C)C)C(=O)CC(C)=CCC1
REMARK SMILES IDX 12 1 14 2 13 3 15 4 16 5 2 6 1 7 3 8 11 10 9 11 10 12 5 13
REMARK SMILES IDX 6 14 7 15 8 16 4 17
REMARK H PARENT
REMARK Flexibility Score: 60.00
ROOT
ATOM      1  C   UNL     1      48.833 -20.964  14.209  1.00  0.00    -0.070 C 
ATOM      2  C   UNL     1      49.020 -21.915  15.155  1.00  0.00    -0.027 C 
ATOM      3  C   UNL     1      49.084 -19.529  14.606  1.00  0.00     0.039 C 
ENDROOT
BRANCH   2   4
ATOM      4  C   UNL     1      48.931 -23.408  14.951  1.00  0.00     0.032 C 
BRANCH   4   5
ATOM      5  C   UNL     1      50.300 -24.106  15.070  1.00  0.00     0.034 C 
BRANCH   5   6
ATOM      6  C   UNL     1      50.885 -24.452  13.715  1.00  0.00    -0.077 C 
ATOM      7  C   UNL     1      50.754 -25.870  13.221  1.00  0.00     0.039 C 
ATOM      8  C   UNL     1      51.545 -23.567  12.934  1.00  0.00    -0.023 CG0
ATOM      9  G   UNL     1      51.809 -22.119  13.270  1.00  0.00     0.000 G0
ENDBRANCH   5   6
ENDBRANCH   4   5
ENDBRANCH   2   4
BRANCH   1  10
ATOM     10  C   UNL     1      48.452 -21.268  12.770  1.00  0.00     0.111 C 
BRANCH  10  11
ATOM     11  C   UNL     1      49.658 -21.631  11.940  1.00  0.00     0.163 C 
ATOM     12  O   UNL     1      49.483 -22.357  10.924  1.00  0.00    -0.294 OA
BRANCH  11  13
ATOM     13  C   UNL     1      51.040 -21.199  12.320  1.00  0.00    -0.002 C 
ATOM     14  C   UNL     1      51.565 -20.011  11.893  1.00  0.00    -0.069 C 
ATOM     15  C   UNL     1      52.976 -19.600  12.251  1.00  0.00     0.039 C 
ATOM     16  C   UNL     1      50.752 -19.034  11.073  1.00  0.00     0.039 C 
BRANCH  13  17
ATOM     17  C   UNL     1      51.810 -22.104  13.265  1.00  0.00     0.066 CG0
ATOM     18  G   UNL     1      51.533 -23.550  12.927  1.00  0.00     0.000 G0
ENDBRANCH  13  17
ENDBRANCH  11  13
ENDBRANCH  10  11
ENDBRANCH   1  10
TORSDOF 0
ENDMDL
MODEL 4
REMARK VINA RESULT:    -3.348      2.163      5.025
REMARK INTER + INTRA:          -4.237
REMARK INTER:                  -4.944
REMARK INTRA:                   0.707
REMARK UNBOUND:                 0.482
REMARK SMILES CC1=CCC(=C(C)C)C(=O)CC(C)=CCC1
REMARK SMILES IDX 12 1 14 2 13 3 15 4 16 5 2 6 1 7 3 8 11 10 9 11 10 12 5 13
REMARK SMILES IDX 6 14 7 15 8 16 4 17
REMARK H PARENT
REMARK Flexibility Score: 60.00
ROOT
ATOM      1  C   UNL     1      52.394 -21.815  12.402  1.00  0.00    -0.070 C 
ATOM      2  C   UNL     1      52.324 -23.165  12.474  1.00  0.00    -0.027 C 
ATOM      3  C   UNL     1      53.070 -21.091  13.541  1.00  0.00     0.039 C 
ENDROOT
BRANCH   2   4
ATOM      4  C   UNL     1      51.790 -24.090  11.407  1.00  0.00     0.032 C 
BRANCH   4   5
ATOM      5  C   UNL     1      50.250 -24.125  11.369  1.00  0.00     0.034 C 
BRANCH   5   6
ATOM      6  C   UNL     1      49.639 -23.935  12.744  1.00  0.00    -0.077 C 
ATOM      7  C   UNL     1      49.736 -25.069  13.733  1.00  0.00     0.039 C 
ATOM      8  C   UNL     1      48.987 -22.814  13.127  1.00  0.00    -0.023 CG0
ATOM      9  G   UNL     1      48.756 -21.592  12.271  1.00  0.00     0.000 G0
ENDBRANCH   5   6
ENDBRANCH   4   5
ENDBRANCH   2   4
BRANCH   1  10
ATOM     10  C   UNL     1      51.891 -21.004  11.218  1.00  0.00     0.111 C 
BRANCH  10  11
ATOM     11  C   UNL     1      50.753 -20.096  11.611  1.00  0.00     0.163 C 
ATOM     12  O   UNL     1      50.687 -18.959  11.070  1.00  0.00    -0.294 OA
BRANCH  11  13
ATOM     13  C   UNL     1      49.749 -20.488  12.649  1.00  0.00    -0.002 C 
ATOM     14  C   UNL     1      49.687 -19.860  13.862  1.00  0.00    -0.069 C 
ATOM     15  C   UNL     1      48.693 -20.288  14.920  1.00  0.00     0.039 C 
ATOM     16  C   UNL     1      50.580 -18.686  14.193  1.00  0.00     0.039 C 
BRANCH  13  17
ATOM     17  C   UNL     1      48.750 -21.566  12.270  1.00  0.00     0.066 CG0
ATOM     18  G   UNL     1      48.989 -22.801  13.107  1.00  0.00     0.000 G0
ENDBRANCH  13  17
ENDBRANCH  11  13
ENDBRANCH  10  11
ENDBRANCH   1  10
TORSDOF 0
ENDMDL
MODEL 5
REMARK VINA RESULT:    -3.319      1.730      4.209
REMARK INTER + INTRA:          -4.195
REMARK INTER:                  -4.561
REMARK INTRA:                   0.366
REMARK UNBOUND:                 0.482
REMARK SMILES CC1=CCC(=C(C)C)C(=O)CC(C)=CCC1
REMARK SMILES IDX 12 1 14 2 13 3 15 4 16 5 2 6 1 7 3 8 11 10 9 11 10 12 5 13
REMARK SMILES IDX 6 14 7 15 8 16 4 17
REMARK H PARENT
REMARK Flexibility Score: 60.00
ROOT
ATOM      1  C   UNL     1      48.089 -22.153  12.136  1.00  0.00    -0.070 C 
ATOM      2  C   UNL     1      48.430 -23.444  11.912  1.00  0.00    -0.027 C 
ATOM      3  C   UNL     1      46.791 -21.663  11.539  1.00  0.00     0.039 C 
ENDROOT
BRANCH   2   4
ATOM      4  C   UNL     1      49.619 -24.167  12.497  1.00  0.00     0.032 C 
BRANCH   4   5
ATOM      5  C   UNL     1      50.948 -23.758  11.831  1.00  0.00     0.034 C 
BRANCH   5   6
ATOM      6  C   UNL     1      52.016 -23.413  12.849  1.00  0.00    -0.077 C 
ATOM      7  C   UNL     1      52.404 -24.460  13.862  1.00  0.00     0.039 C 
ATOM      8  C   UNL     1      52.625 -22.207  12.920  1.00  0.00    -0.023 CG0
ATOM      9  G   UNL     1      52.348 -21.025  12.021  1.00  0.00     0.000 G0
ENDBRANCH   5   6
ENDBRANCH   4   5
ENDBRANCH   2   4
BRANCH   1  10
ATOM     10  C   UNL     1      48.900 -21.201  12.999  1.00  0.00     0.111 C 
BRANCH  10  11
ATOM     11  C   UNL     1      49.862 -20.384  12.173  1.00  0.00     0.163 C 
ATOM     12  O   UNL     1      49.466 -19.950  11.058  1.00  0.00    -0.294 OA
BRANCH  11  13
ATOM     13  C   UNL     1      51.268 -20.129  12.617  1.00  0.00    -0.002 C 
ATOM     14  C   UNL     1      51.563 -19.186  13.564  1.00  0.00    -0.069 C 
ATOM     15  C   UNL     1      52.991 -18.908  13.979  1.00  0.00     0.039 C 
ATOM     16  C   UNL     1      50.478 -18.403  14.267  1.00  0.00     0.039 C 
BRANCH  13  17
ATOM     17  C   UNL     1      52.351 -21.013  12.025  1.00  0.00     0.066 CG0
ATOM     18  G   UNL     1      52.598 -22.195  12.932  1.00  0.00     0.000 G0
ENDBRANCH  13  17
ENDBRANCH  11  13
ENDBRANCH  10  11
ENDBRANCH   1  10
TORSDOF 0
ENDMDL
MODEL 6
REMARK VINA RESULT:    -2.985      1.563      4.174
REMARK INTER + INTRA:          -3.725
REMARK INTER:                  -4.364
REMARK INTRA:                   0.639
REMARK UNBOUND:                 0.482
REMARK SMILES CC1=CCC(=C(C)C)C(=O)CC(C)=CCC1
REMARK SMILES IDX 12 1 14 2 13 3 15 4 16 5 2 6 1 7 3 8 11 10 9 11 10 12 5 13
REMARK SMILES IDX 6 14 7 15 8 16 4 17
REMARK H PARENT
REMARK Flexibility Score: 60.00
ROOT
ATOM      1  C   UNL     1      49.596 -24.189  14.391  1.00  0.00    -0.070 C 
ATOM      2  C   UNL     1      50.723 -24.921  14.219  1.00  0.00    -0.027 C 
ATOM      3  C   UNL     1      48.275 -24.876  14.141  1.00  0.00     0.039 C 
ENDROOT
BRANCH   2   4
ATOM      4  C   UNL     1      52.134 -24.471  14.512  1.00  0.00     0.032 C 
BRANCH   4   5
ATOM      5  C   UNL     1      53.001 -24.376  13.242  1.00  0.00     0.034 C 
BRANCH   5   6
ATOM      6  C   UNL     1      52.246 -23.769  12.076  1.00  0.00    -0.077 C 
ATOM      7  C   UNL     1      51.918 -24.653  10.899  1.00  0.00     0.039 C 
ATOM      8  C   UNL     1      51.870 -22.472  12.018  1.00  0.00    -0.023 CG0
ATOM      9  G   UNL     1      52.138 -21.428  13.076  1.00  0.00     0.000 G0
ENDBRANCH   5   6
ENDBRANCH   4   5
ENDBRANCH   2   4
BRANCH   1  10
ATOM     10  C   UNL     1      49.590 -22.750  14.880  1.00  0.00     0.111 C 
BRANCH  10  11
ATOM     11  C   UNL     1      49.669 -21.773  13.733  1.00  0.00     0.163 C 
ATOM     12  O   UNL     1      48.754 -21.800  12.866  1.00  0.00    -0.294 OA
BRANCH  11  13
ATOM     13  C   UNL     1      50.819 -20.828  13.576  1.00  0.00    -0.002 C 
ATOM     14  C   UNL     1      50.716 -19.508  13.920  1.00  0.00    -0.069 C 
ATOM     15  C   UNL     1      51.872 -18.551  13.722  1.00  0.00     0.039 C 
ATOM     16  C   UNL     1      49.459 -18.948  14.545  1.00  0.00     0.039 C 
BRANCH  13  17
ATOM     17  C   UNL     1      52.132 -21.413  13.088  1.00  0.00     0.066 CG0
ATOM     18  G   UNL     1      51.864 -22.454  12.026  1.00  0.00     0.000 G0
ENDBRANCH  13  17
ENDBRANCH  11  13
ENDBRANCH  10  11
ENDBRANCH   1  10
TORSDOF 0
ENDMDL
MODEL 7
REMARK VINA RESULT:    -2.753      2.245      5.102
REMARK INTER + INTRA:          -3.397
REMARK INTER:                  -4.100
REMARK INTRA:                   0.703
REMARK UNBOUND:                 0.482
REMARK SMILES CC1=CCC(=C(C)C)C(=O)CC(C)=CCC1
REMARK SMILES IDX 12 1 14 2 13 3 15 4 16 5 2 6 1 7 3 8 11 10 9 11 10 12 5 13
REMARK SMILES IDX 6 14 7 15 8 16 4 17
REMARK H PARENT
REMARK Flexibility Score: 60.00
ROOT
ATOM      1  C   UNL     1      49.088 -23.405  11.535  1.00  0.00    -0.070 C 
ATOM      2  C   UNL     1      48.647 -24.553  12.102  1.00  0.00    -0.027 C 
ATOM      3  C   UNL     1      48.053 -22.478  10.945  1.00  0.00     0.039 C 
ENDROOT
BRANCH   2   4
ATOM      4  C   UNL     1      49.489 -25.567  12.839  1.00  0.00     0.032 C 
BRANCH   4   5
ATOM      5  C   UNL     1      49.099 -25.694  14.324  1.00  0.00     0.034 C 
BRANCH   5   6
ATOM      6  C   UNL     1      50.098 -25.014  15.239  1.00  0.00    -0.077 C 
ATOM      7  C   UNL     1      51.058 -25.877  16.017  1.00  0.00     0.039 C 
ATOM      8  C   UNL     1      50.161 -23.675  15.420  1.00  0.00    -0.023 CG0
ATOM      9  G   UNL     1      49.265 -22.653  14.761  1.00  0.00     0.000 G0
ENDBRANCH   5   6
ENDBRANCH   4   5
ENDBRANCH   2   4
BRANCH   1  10
ATOM     10  C   UNL     1      50.546 -22.977  11.518  1.00  0.00     0.111 C 
BRANCH  10  11
ATOM     11  C   UNL     1      50.993 -22.477  12.870  1.00  0.00     0.163 C 
ATOM     12  O   UNL     1      52.180 -22.710  13.225  1.00  0.00    -0.294 OA
BRANCH  11  13
ATOM     13  C   UNL     1      50.059 -21.771  13.802  1.00  0.00    -0.002 C 
ATOM     14  C   UNL     1      49.873 -20.418  13.744  1.00  0.00    -0.069 C 
ATOM     15  C   UNL     1      48.956 -19.707  14.715  1.00  0.00     0.039 C 
ATOM     16  C   UNL     1      50.544 -19.570  12.687  1.00  0.00     0.039 C 
BRANCH  13  17
ATOM     17  C   UNL     1      49.268 -22.633  14.769  1.00  0.00     0.066 CG0
ATOM     18  G   UNL     1      50.181 -23.652  15.410  1.00  0.00     0.000 G0
ENDBRANCH  13  17
ENDBRANCH  11  13
ENDBRANCH  10  11
ENDBRANCH   1  10
TORSDOF 0
ENDMDL
MODEL 8
REMARK VINA RESULT:    -2.673      2.014      3.132
REMARK INTER + INTRA:          -3.285
REMARK INTER:                  -3.895
REMARK INTRA:                   0.610
REMARK UNBOUND:                 0.482
REMARK SMILES CC1=CCC(=C(C)C)C(=O)CC(C)=CCC1
REMARK SMILES IDX 12 1 14 2 13 3 15 4 16 5 2 6 1 7 3 8 11 10 9 11 10 12 5 13
REMARK SMILES IDX 6 14 7 15 8 16 4 17
REMARK H PARENT
REMARK Flexibility Score: 60.00
ROOT
ATOM      1  C   UNL     1      49.695 -23.560  15.009  1.00  0.00    -0.070 C 
ATOM      2  C   UNL     1      49.690 -22.235  15.290  1.00  0.00    -0.027 C 
ATOM      3  C   UNL     1      50.712 -24.418  15.722  1.00  0.00     0.039 C 
ENDROOT
BRANCH   2   4
ATOM      4  C   UNL     1      48.699 -21.217  14.778  1.00  0.00     0.032 C 
BRANCH   4   5
ATOM      5  C   UNL     1      48.607 -21.203  13.239  1.00  0.00     0.034 C 
BRANCH   5   6
ATOM      6  C   UNL     1      49.945 -20.912  12.588  1.00  0.00    -0.077 C 
ATOM      7  C   UNL     1      50.635 -19.613  12.920  1.00  0.00     0.039 C 
ATOM      8  C   UNL     1      50.545 -21.739  11.703  1.00  0.00    -0.023 CG0
ATOM      9  G   UNL     1      49.996 -23.061  11.219  1.00  0.00     0.000 G0
ENDBRANCH   5   6
ENDBRANCH   4   5
ENDBRANCH   2   4
BRANCH   1  10
ATOM     10  C   UNL     1      48.701 -24.229  14.075  1.00  0.00     0.111 C 
BRANCH  10  11
ATOM     11  C   UNL     1      49.393 -24.903  12.916  1.00  0.00     0.163 C 
ATOM     12  O   UNL     1      49.096 -26.101  12.662  1.00  0.00    -0.294 OA
BRANCH  11  13
ATOM     13  C   UNL     1      50.446 -24.207  12.111  1.00  0.00    -0.002 C 
ATOM     14  C   UNL     1      51.751 -24.617  12.127  1.00  0.00    -0.069 C 
ATOM     15  C   UNL     1      52.815 -23.884  11.340  1.00  0.00     0.039 C 
ATOM     16  C   UNL     1      52.188 -25.840  12.901  1.00  0.00     0.039 C 
BRANCH  13  17
ATOM     17  C   UNL     1      49.990 -23.070  11.215  1.00  0.00     0.066 CG0
ATOM     18  G   UNL     1      50.555 -21.763  11.720  1.00  0.00     0.000 G0
ENDBRANCH  13  17
ENDBRANCH  11  13
ENDBRANCH  10  11
ENDBRANCH   1  10
TORSDOF 0
ENDMDL
MODEL 9
REMARK VINA RESULT:    -2.492      2.026      3.680
REMARK INTER + INTRA:          -3.030
REMARK INTER:                  -3.424
REMARK INTRA:                   0.394
REMARK UNBOUND:                 0.482
REMARK SMILES CC1=CCC(=C(C)C)C(=O)CC(C)=CCC1
REMARK SMILES IDX 12 1 14 2 13 3 15 4 16 5 2 6 1 7 3 8 11 10 9 11 10 12 5 13
REMARK SMILES IDX 6 14 7 15 8 16 4 17
REMARK H PARENT
REMARK Flexibility Score: 60.00
ROOT
ATOM      1  C   UNL     1      50.034 -20.565  13.455  1.00  0.00    -0.070 C 
ATOM      2  C   UNL     1      49.095 -20.414  12.490  1.00  0.00    -0.027 C 
ATOM      3  C   UNL     1      50.639 -19.311  14.038  1.00  0.00     0.039 C 
ENDROOT
BRANCH   2   4
ATOM      4  C   UNL     1      48.290 -21.518  11.848  1.00  0.00     0.032 C 
BRANCH   4   5
ATOM      5  C   UNL     1      49.133 -22.392  10.900  1.00  0.00     0.034 C 
BRANCH   5   6
ATOM      6  C   UNL     1      49.017 -23.868  11.226  1.00  0.00    -0.077 C 
ATOM      7  C   UNL     1      47.642 -24.486  11.263  1.00  0.00     0.039 C 
ATOM      8  C   UNL     1      50.075 -24.660  11.513  1.00  0.00    -0.023 CG0
ATOM      9  G   UNL     1      51.519 -24.219  11.563  1.00  0.00     0.000 G0
ENDBRANCH   5   6
ENDBRANCH   4   5
ENDBRANCH   2   4
BRANCH   1  10
ATOM     10  C   UNL     1      50.458 -21.911  14.018  1.00  0.00     0.111 C 
BRANCH  10  11
ATOM     11  C   UNL     1      51.725 -22.411  13.369  1.00  0.00     0.163 C 
ATOM     12  O   UNL     1      52.630 -21.572  13.110  1.00  0.00    -0.294 OA
BRANCH  11  13
ATOM     13  C   UNL     1      51.906 -23.846  12.986  1.00  0.00    -0.002 C 
ATOM     14  C   UNL     1      52.326 -24.784  13.888  1.00  0.00    -0.069 C 
ATOM     15  C   UNL     1      52.542 -26.225  13.481  1.00  0.00     0.039 C 
ATOM     16  C   UNL     1      52.561 -24.437  15.341  1.00  0.00     0.039 C 
BRANCH  13  17
ATOM     17  C   UNL     1      51.530 -24.233  11.567  1.00  0.00     0.066 CG0
ATOM     18  G   UNL     1      50.079 -24.650  11.517  1.00  0.00     0.000 G0
ENDBRANCH  13  17
ENDBRANCH  11  13
ENDBRANCH  10  11
ENDBRANCH   1  10
TORSDOF 0
ENDMDL
