MODEL 1
REMARK VINA RESULT:    -5.293      0.000      0.000
REMARK INTER + INTRA:          -6.045
REMARK INTER:                  -5.912
REMARK INTRA:                  -0.133
REMARK UNBOUND:                -0.133
REMARK SMILES COc1cc2ccc(=O)oc2cc1OC
REMARK SMILES IDX 3 1 13 2 12 3 11 4 5 5 4 6 6 7 7 8 8 9 9 10 10 11 2 12 1 13
REMARK SMILES IDX 14 14 15 15
REMARK H PARENT
REMARK Flexibility Score: inf
ROOT
ATOM      1  C   UNL     1      48.508 -27.025   5.234  1.00  0.00     0.161 A 
ATOM      2  C   UNL     1      49.196 -26.764   6.431  1.00  0.00     0.164 A 
ATOM      3  C   UNL     1      48.556 -26.979   7.668  1.00  0.00     0.098 A 
ATOM      4  C   UNL     1      47.241 -27.449   7.711  1.00  0.00     0.142 A 
ATOM      5  C   UNL     1      46.549 -27.711   6.511  1.00  0.00     0.022 A 
ATOM      6  C   UNL     1      47.181 -27.499   5.279  1.00  0.00     0.062 A 
ATOM      7  C   UNL     1      45.234 -28.181   6.588  1.00  0.00     0.019 A 
ATOM      8  C   UNL     1      44.648 -28.376   7.838  1.00  0.00     0.094 A 
ATOM      9  C   UNL     1      45.395 -28.095   8.987  1.00  0.00     0.336 A 
ATOM     10  O   UNL     1      44.885 -28.264  10.125  1.00  0.00    -0.246 OA
ATOM     11  O   UNL     1      46.645 -27.649   8.885  1.00  0.00    -0.423 OA
ENDROOT
BRANCH   1  12
ATOM     12  O   UNL     1      49.176 -26.799   4.021  1.00  0.00    -0.493 OA
ATOM     13  C   UNL     1      49.000 -25.646   3.203  1.00  0.00     0.278 C 
ENDBRANCH   1  12
BRANCH   2  14
ATOM     14  O   UNL     1      50.516 -26.292   6.351  1.00  0.00    -0.493 OA
ATOM     15  C   UNL     1      51.658 -27.004   6.814  1.00  0.00     0.278 C 
ENDBRANCH   2  14
TORSDOF 2
ENDMDL
MODEL 2
REMARK VINA RESULT:    -5.183     13.895     16.400
REMARK INTER + INTRA:          -5.922
REMARK INTER:                  -5.758
REMARK INTRA:                  -0.164
REMARK UNBOUND:                -0.133
REMARK SMILES COc1cc2ccc(=O)oc2cc1OC
REMARK SMILES IDX 3 1 13 2 12 3 11 4 5 5 4 6 6 7 7 8 8 9 9 10 10 11 2 12 1 13
REMARK SMILES IDX 14 14 15 15
REMARK H PARENT
REMARK Flexibility Score: inf
ROOT
ATOM      1  C   UNL     1      38.883 -24.848  -4.335  1.00  0.00     0.161 A 
ATOM      2  C   UNL     1      37.940 -24.189  -5.142  1.00  0.00     0.164 A 
ATOM      3  C   UNL     1      38.230 -23.945  -6.500  1.00  0.00     0.098 A 
ATOM      4  C   UNL     1      39.448 -24.353  -7.047  1.00  0.00     0.142 A 
ATOM      5  C   UNL     1      40.395 -25.014  -6.238  1.00  0.00     0.022 A 
ATOM      6  C   UNL     1      40.113 -25.259  -4.888  1.00  0.00     0.062 A 
ATOM      7  C   UNL     1      41.605 -25.411  -6.816  1.00  0.00     0.019 A 
ATOM      8  C   UNL     1      41.841 -25.144  -8.165  1.00  0.00     0.094 A 
ATOM      9  C   UNL     1      40.855 -24.484  -8.906  1.00  0.00     0.336 A 
ATOM     10  O   UNL     1      41.048 -24.233 -10.124  1.00  0.00    -0.246 OA
ATOM     11  O   UNL     1      39.712 -24.118  -8.331  1.00  0.00    -0.423 OA
ENDROOT
BRANCH   1  12
ATOM     12  O   UNL     1      38.561 -25.074  -2.988  1.00  0.00    -0.493 OA
ATOM     13  C   UNL     1      39.101 -24.339  -1.893  1.00  0.00     0.278 C 
ENDBRANCH   1  12
BRANCH   2  14
ATOM     14  O   UNL     1      36.726 -23.792  -4.559  1.00  0.00    -0.493 OA
ATOM     15  C   UNL     1      36.399 -22.452  -4.206  1.00  0.00     0.278 C 
ENDBRANCH   2  14
TORSDOF 2
ENDMDL
MODEL 3
REMARK VINA RESULT:    -5.076     14.450     16.011
REMARK INTER + INTRA:          -5.802
REMARK INTER:                  -5.666
REMARK INTRA:                  -0.136
REMARK UNBOUND:                -0.133
REMARK SMILES COc1cc2ccc(=O)oc2cc1OC
REMARK SMILES IDX 3 1 13 2 12 3 11 4 5 5 4 6 6 7 7 8 8 9 9 10 10 11 2 12 1 13
REMARK SMILES IDX 14 14 15 15
REMARK H PARENT
REMARK Flexibility Score: inf
ROOT
ATOM      1  C   UNL     1      41.121 -24.978  -7.548  1.00  0.00     0.161 A 
ATOM      2  C   UNL     1      40.156 -24.195  -8.204  1.00  0.00     0.164 A 
ATOM      3  C   UNL     1      39.014 -23.758  -7.504  1.00  0.00     0.098 A 
ATOM      4  C   UNL     1      38.836 -24.098  -6.161  1.00  0.00     0.142 A 
ATOM      5  C   UNL     1      39.803 -24.883  -5.501  1.00  0.00     0.022 A 
ATOM      6  C   UNL     1      40.939 -25.321  -6.193  1.00  0.00     0.062 A 
ATOM      7  C   UNL     1      39.595 -25.207  -4.156  1.00  0.00     0.019 A 
ATOM      8  C   UNL     1      38.448 -24.748  -3.510  1.00  0.00     0.094 A 
ATOM      9  C   UNL     1      37.532 -23.972  -4.228  1.00  0.00     0.336 A 
ATOM     10  O   UNL     1      36.489 -23.549  -3.664  1.00  0.00    -0.246 OA
ATOM     11  O   UNL     1      37.754 -23.680  -5.507  1.00  0.00    -0.423 OA
ENDROOT
BRANCH   1  12
ATOM     12  O   UNL     1      42.245 -25.396  -8.276  1.00  0.00    -0.493 OA
ATOM     13  C   UNL     1      42.519 -26.748  -8.635  1.00  0.00     0.278 C 
ENDBRANCH   1  12
BRANCH   2  14
ATOM     14  O   UNL     1      40.368 -23.873  -9.554  1.00  0.00    -0.493 OA
ATOM     15  C   UNL     1      40.807 -22.601 -10.022  1.00  0.00     0.278 C 
ENDBRANCH   2  14
TORSDOF 2
ENDMDL
MODEL 4
REMARK VINA RESULT:    -4.966     13.672     16.040
REMARK INTER + INTRA:          -5.679
REMARK INTER:                  -5.520
REMARK INTRA:                  -0.160
REMARK UNBOUND:                -0.133
REMARK SMILES COc1cc2ccc(=O)oc2cc1OC
REMARK SMILES IDX 3 1 13 2 12 3 11 4 5 5 4 6 6 7 7 8 8 9 9 10 10 11 2 12 1 13
REMARK SMILES IDX 14 14 15 15
REMARK H PARENT
REMARK Flexibility Score: inf
ROOT
ATOM      1  C   UNL     1      37.990 -23.921  -5.230  1.00  0.00     0.161 A 
ATOM      2  C   UNL     1      38.810 -24.680  -4.378  1.00  0.00     0.164 A 
ATOM      3  C   UNL     1      39.996 -25.256  -4.877  1.00  0.00     0.098 A 
ATOM      4  C   UNL     1      40.361 -25.076  -6.213  1.00  0.00     0.142 A 
ATOM      5  C   UNL     1      39.540 -24.315  -7.069  1.00  0.00     0.022 A 
ATOM      6  C   UNL     1      38.360 -23.741  -6.579  1.00  0.00     0.062 A 
ATOM      7  C   UNL     1      39.933 -24.153  -8.402  1.00  0.00     0.019 A 
ATOM      8  C   UNL     1      41.116 -24.744  -8.843  1.00  0.00     0.094 A 
ATOM      9  C   UNL     1      41.881 -25.486  -7.937  1.00  0.00     0.336 A 
ATOM     10  O   UNL     1      42.952 -26.028  -8.316  1.00  0.00    -0.246 OA
ATOM     11  O   UNL     1      41.483 -25.623  -6.675  1.00  0.00    -0.423 OA
ENDROOT
BRANCH   1  12
ATOM     12  O   UNL     1      36.817 -23.363  -4.700  1.00  0.00    -0.493 OA
ATOM     13  C   UNL     1      36.664 -21.992  -4.342  1.00  0.00     0.278 C 
ENDBRANCH   1  12
BRANCH   2  14
ATOM     14  O   UNL     1      38.412 -24.841  -3.041  1.00  0.00    -0.493 OA
ATOM     15  C   UNL     1      39.074 -24.252  -1.926  1.00  0.00     0.278 C 
ENDBRANCH   2  14
TORSDOF 2
ENDMDL
MODEL 5
REMARK VINA RESULT:    -4.945      0.971      2.704
REMARK INTER + INTRA:          -5.657
REMARK INTER:                  -5.529
REMARK INTRA:                  -0.128
REMARK UNBOUND:                -0.133
REMARK SMILES COc1cc2ccc(=O)oc2cc1OC
REMARK SMILES IDX 3 1 13 2 12 3 11 4 5 5 4 6 6 7 7 8 8 9 9 10 10 11 2 12 1 13
REMARK SMILES IDX 14 14 15 15
REMARK H PARENT
REMARK Flexibility Score: inf
ROOT
ATOM      1  C   UNL     1      49.422 -26.729   6.604  1.00  0.00     0.161 A 
ATOM      2  C   UNL     1      48.662 -27.049   5.467  1.00  0.00     0.164 A 
ATOM      3  C   UNL     1      47.338 -27.508   5.616  1.00  0.00     0.098 A 
ATOM      4  C   UNL     1      46.777 -27.646   6.888  1.00  0.00     0.142 A 
ATOM      5  C   UNL     1      47.539 -27.326   8.030  1.00  0.00     0.022 A 
ATOM      6  C   UNL     1      48.855 -26.870   7.887  1.00  0.00     0.062 A 
ATOM      7  C   UNL     1      46.948 -27.475   9.289  1.00  0.00     0.019 A 
ATOM      8  C   UNL     1      45.634 -27.933   9.380  1.00  0.00     0.094 A 
ATOM      9  C   UNL     1      44.939 -28.232   8.204  1.00  0.00     0.336 A 
ATOM     10  O   UNL     1      43.753 -28.647   8.263  1.00  0.00    -0.246 OA
ATOM     11  O   UNL     1      45.525 -28.081   7.019  1.00  0.00    -0.423 OA
ENDROOT
BRANCH   1  12
ATOM     12  O   UNL     1      50.737 -26.275   6.418  1.00  0.00    -0.493 OA
ATOM     13  C   UNL     1      51.879 -26.810   7.082  1.00  0.00     0.278 C 
ENDBRANCH   1  12
BRANCH   2  14
ATOM     14  O   UNL     1      49.258 -26.898   4.204  1.00  0.00    -0.493 OA
ATOM     15  C   UNL     1      49.015 -25.807   3.322  1.00  0.00     0.278 C 
ENDBRANCH   2  14
TORSDOF 2
ENDMDL
MODEL 6
REMARK VINA RESULT:    -4.831     11.002     12.305
REMARK INTER + INTRA:          -5.529
REMARK INTER:                  -5.427
REMARK INTRA:                  -0.101
REMARK UNBOUND:                -0.133
REMARK SMILES COc1cc2ccc(=O)oc2cc1OC
REMARK SMILES IDX 3 1 13 2 12 3 11 4 5 5 4 6 6 7 7 8 8 9 9 10 10 11 2 12 1 13
REMARK SMILES IDX 14 14 15 15
REMARK H PARENT
REMARK Flexibility Score: inf
ROOT
ATOM      1  C   UNL     1      38.768 -22.408  -1.388  1.00  0.00     0.161 A 
ATOM      2  C   UNL     1      37.575 -22.613  -0.674  1.00  0.00     0.164 A 
ATOM      3  C   UNL     1      37.544 -23.541   0.385  1.00  0.00     0.098 A 
ATOM      4  C   UNL     1      38.692 -24.260   0.730  1.00  0.00     0.142 A 
ATOM      5  C   UNL     1      39.889 -24.056   0.014  1.00  0.00     0.022 A 
ATOM      6  C   UNL     1      39.925 -23.134  -1.040  1.00  0.00     0.062 A 
ATOM      7  C   UNL     1      41.021 -24.790   0.383  1.00  0.00     0.019 A 
ATOM      8  C   UNL     1      40.934 -25.696   1.440  1.00  0.00     0.094 A 
ATOM      9  C   UNL     1      39.713 -25.846   2.104  1.00  0.00     0.336 A 
ATOM     10  O   UNL     1      39.614 -26.660   3.060  1.00  0.00    -0.246 OA
ATOM     11  O   UNL     1      38.652 -25.135   1.732  1.00  0.00    -0.423 OA
ENDROOT
BRANCH   1  12
ATOM     12  O   UNL     1      38.763 -21.476  -2.437  1.00  0.00    -0.493 OA
ATOM     13  C   UNL     1      38.463 -21.788  -3.794  1.00  0.00     0.278 C 
ENDBRANCH   1  12
BRANCH   2  14
ATOM     14  O   UNL     1      36.441 -21.874  -1.048  1.00  0.00    -0.493 OA
ATOM     15  C   UNL     1      36.030 -20.658  -0.430  1.00  0.00     0.278 C 
ENDBRANCH   2  14
TORSDOF 2
ENDMDL
MODEL 7
REMARK VINA RESULT:    -4.825      1.697      5.561
REMARK INTER + INTRA:          -5.522
REMARK INTER:                  -5.406
REMARK INTRA:                  -0.116
REMARK UNBOUND:                -0.133
REMARK SMILES COc1cc2ccc(=O)oc2cc1OC
REMARK SMILES IDX 3 1 13 2 12 3 11 4 5 5 4 6 6 7 7 8 8 9 9 10 10 11 2 12 1 13
REMARK SMILES IDX 14 14 15 15
REMARK H PARENT
REMARK Flexibility Score: inf
ROOT
ATOM      1  C   UNL     1      46.886 -27.450   8.441  1.00  0.00     0.161 A 
ATOM      2  C   UNL     1      46.867 -27.883   7.104  1.00  0.00     0.164 A 
ATOM      3  C   UNL     1      48.058 -27.882   6.351  1.00  0.00     0.098 A 
ATOM      4  C   UNL     1      49.257 -27.453   6.925  1.00  0.00     0.142 A 
ATOM      5  C   UNL     1      49.277 -27.018   8.266  1.00  0.00     0.022 A 
ATOM      6  C   UNL     1      48.096 -27.017   9.019  1.00  0.00     0.062 A 
ATOM      7  C   UNL     1      50.493 -26.595   8.811  1.00  0.00     0.019 A 
ATOM      8  C   UNL     1      51.643 -26.614   8.021  1.00  0.00     0.094 A 
ATOM      9  C   UNL     1      51.547 -27.059   6.699  1.00  0.00     0.336 A 
ATOM     10  O   UNL     1      52.572 -27.084   5.969  1.00  0.00    -0.246 OA
ATOM     11  O   UNL     1      50.377 -27.456   6.205  1.00  0.00    -0.423 OA
ENDROOT
BRANCH   1  12
ATOM     12  O   UNL     1      45.681 -27.464   9.161  1.00  0.00    -0.493 OA
ATOM     13  C   UNL     1      45.308 -28.476  10.092  1.00  0.00     0.278 C 
ENDBRANCH   1  12
BRANCH   2  14
ATOM     14  O   UNL     1      45.644 -28.307   6.559  1.00  0.00    -0.493 OA
ATOM     15  C   UNL     1      45.446 -28.658   5.194  1.00  0.00     0.278 C 
ENDBRANCH   2  14
TORSDOF 2
ENDMDL
MODEL 8
REMARK VINA RESULT:    -4.785     10.589     12.115
REMARK INTER + INTRA:          -5.478
REMARK INTER:                  -5.371
REMARK INTRA:                  -0.107
REMARK UNBOUND:                -0.133
REMARK SMILES COc1cc2ccc(=O)oc2cc1OC
REMARK SMILES IDX 3 1 13 2 12 3 11 4 5 5 4 6 6 7 7 8 8 9 9 10 10 11 2 12 1 13
REMARK SMILES IDX 14 14 15 15
REMARK H PARENT
REMARK Flexibility Score: inf
ROOT
ATOM      1  C   UNL     1      37.329 -22.745   0.299  1.00  0.00     0.161 A 
ATOM      2  C   UNL     1      38.251 -22.787  -0.762  1.00  0.00     0.164 A 
ATOM      3  C   UNL     1      39.370 -23.640  -0.684  1.00  0.00     0.098 A 
ATOM      4  C   UNL     1      39.569 -24.443   0.442  1.00  0.00     0.142 A 
ATOM      5  C   UNL     1      38.646 -24.402   1.507  1.00  0.00     0.022 A 
ATOM      6  C   UNL     1      37.532 -23.556   1.434  1.00  0.00     0.062 A 
ATOM      7  C   UNL     1      38.874 -25.218   2.619  1.00  0.00     0.019 A 
ATOM      8  C   UNL     1      39.998 -26.043   2.645  1.00  0.00     0.094 A 
ATOM      9  C   UNL     1      40.870 -26.032   1.552  1.00  0.00     0.336 A 
ATOM     10  O   UNL     1      41.891 -26.769   1.556  1.00  0.00    -0.246 OA
ATOM     11  O   UNL     1      40.629 -25.246   0.507  1.00  0.00    -0.423 OA
ENDROOT
BRANCH   1  12
ATOM     12  O   UNL     1      36.227 -21.884   0.187  1.00  0.00    -0.493 OA
ATOM     13  C   UNL     1      36.175 -20.564   0.720  1.00  0.00     0.278 C 
ENDBRANCH   1  12
BRANCH   2  14
ATOM     14  O   UNL     1      38.019 -21.967  -1.877  1.00  0.00    -0.493 OA
ATOM     15  C   UNL     1      38.450 -22.263  -3.201  1.00  0.00     0.278 C 
ENDBRANCH   2  14
TORSDOF 2
ENDMDL
MODEL 9
REMARK VINA RESULT:    -4.680     14.301     16.649
REMARK INTER + INTRA:          -5.361
REMARK INTER:                  -5.206
REMARK INTRA:                  -0.155
REMARK UNBOUND:                -0.133
REMARK SMILES COc1cc2ccc(=O)oc2cc1OC
REMARK SMILES IDX 3 1 13 2 12 3 11 4 5 5 4 6 6 7 7 8 8 9 9 10 10 11 2 12 1 13
REMARK SMILES IDX 14 14 15 15
REMARK H PARENT
REMARK Flexibility Score: inf
ROOT
ATOM      1  C   UNL     1      51.541 -32.758  -6.862  1.00  0.00     0.161 A 
ATOM      2  C   UNL     1      51.991 -33.076  -8.155  1.00  0.00     0.164 A 
ATOM      3  C   UNL     1      51.829 -34.385  -8.651  1.00  0.00     0.098 A 
ATOM      4  C   UNL     1      51.225 -35.369  -7.865  1.00  0.00     0.142 A 
ATOM      5  C   UNL     1      50.774 -35.052  -6.567  1.00  0.00     0.022 A 
ATOM      6  C   UNL     1      50.932 -33.752  -6.070  1.00  0.00     0.062 A 
ATOM      7  C   UNL     1      50.173 -36.059  -5.805  1.00  0.00     0.019 A 
ATOM      8  C   UNL     1      50.038 -37.338  -6.345  1.00  0.00     0.094 A 
ATOM      9  C   UNL     1      50.510 -37.580  -7.639  1.00  0.00     0.336 A 
ATOM     10  O   UNL     1      50.399 -38.727  -8.144  1.00  0.00    -0.246 OA
ATOM     11  O   UNL     1      51.078 -36.603  -8.342  1.00  0.00    -0.423 OA
ENDROOT
BRANCH   1  12
ATOM     12  O   UNL     1      51.717 -31.445  -6.401  1.00  0.00    -0.493 OA
ATOM     13  C   UNL     1      52.775 -31.024  -5.544  1.00  0.00     0.278 C 
ENDBRANCH   1  12
BRANCH   2  14
ATOM     14  O   UNL     1      52.593 -32.062  -8.917  1.00  0.00    -0.493 OA
ATOM     15  C   UNL     1      53.962 -32.053  -9.312  1.00  0.00     0.278 C 
ENDBRANCH   2  14
TORSDOF 2
ENDMDL
