MODEL 1
REMARK VINA RESULT:     6.194      0.000      0.000
REMARK INTER + INTRA:           7.430
REMARK INTER:                   6.556
REMARK INTRA:                   0.874
REMARK UNBOUND:                 0.874
REMARK SMILES CC1=C[C@H]2C(=C(C)CC[C@@H]2C(C)C)CC1
REMARK SMILES IDX 1 1 2 2 3 3 4 4 10 5 9 6 8 7 6 8 5 9 14 10 15 11 7 12 11 13
REMARK SMILES IDX 12 14 13 15
REMARK H PARENT
REMARK Flexibility Score: inf
ROOT
ATOM      1  C   UNL     1       2.616   6.275  13.082  1.00  0.00     0.039 C 
ATOM      2  C   UNL     1       4.107   6.227  13.273  1.00  0.00    -0.076 C 
ATOM      3  C   UNL     1       4.791   7.390  13.394  1.00  0.00    -0.020 C 
ATOM      4  C   UNL     1       6.290   7.435  13.641  1.00  0.00     0.041 C 
ATOM      5  C   UNL     1       6.928   8.759  13.119  1.00  0.00     0.003 C 
ATOM      6  C   UNL     1       7.164   8.615  11.600  1.00  0.00     0.009 C 
ATOM      7  C   UNL     1       8.123   7.462  11.298  1.00  0.00     0.031 C 
ATOM      8  C   UNL     1       7.679   6.167  11.946  1.00  0.00    -0.073 C 
ATOM      9  C   UNL     1       6.915   6.168  13.075  1.00  0.00    -0.064 C 
ATOM     10  C   UNL     1       6.278   4.917  13.630  1.00  0.00     0.036 C 
ATOM     11  C   UNL     1       4.811   4.879  13.173  1.00  0.00     0.035 C 
ATOM     12  C   UNL     1       8.172   4.880  11.329  1.00  0.00     0.039 C 
ENDROOT
BRANCH   5  13
ATOM     13  C   UNL     1       8.210   9.164  13.932  1.00  0.00    -0.013 C 
ATOM     14  C   UNL     1       8.136   8.746  15.416  1.00  0.00     0.007 C 
ATOM     15  C   UNL     1       9.485   8.533  13.331  1.00  0.00     0.007 C 
ENDBRANCH   5  13
TORSDOF 1
ENDMDL
MODEL 2
REMARK VINA RESULT:     7.006      1.282      2.284
REMARK INTER + INTRA:           8.289
REMARK INTER:                   7.777
REMARK INTRA:                   0.512
REMARK UNBOUND:                 0.874
REMARK SMILES CC1=C[C@H]2C(=C(C)CC[C@@H]2C(C)C)CC1
REMARK SMILES IDX 1 1 2 2 3 3 4 4 10 5 9 6 8 7 6 8 5 9 14 10 15 11 7 12 11 13
REMARK SMILES IDX 12 14 13 15
REMARK H PARENT
REMARK Flexibility Score: inf
ROOT
ATOM      1  C   UNL     1       3.540   9.128  10.875  1.00  0.00     0.039 C 
ATOM      2  C   UNL     1       4.459   8.662  11.971  1.00  0.00    -0.076 C 
ATOM      3  C   UNL     1       5.773   8.985  11.909  1.00  0.00    -0.020 C 
ATOM      4  C   UNL     1       6.762   8.601  12.997  1.00  0.00     0.041 C 
ATOM      5  C   UNL     1       8.218   8.494  12.449  1.00  0.00     0.003 C 
ATOM      6  C   UNL     1       8.384   7.109  11.785  1.00  0.00     0.009 C 
ATOM      7  C   UNL     1       8.160   5.983  12.796  1.00  0.00     0.031 C 
ATOM      8  C   UNL     1       6.842   6.127  13.527  1.00  0.00    -0.073 C 
ATOM      9  C   UNL     1       6.256   7.347  13.694  1.00  0.00    -0.064 C 
ATOM     10  C   UNL     1       4.852   7.512  14.225  1.00  0.00     0.036 C 
ATOM     11  C   UNL     1       3.906   7.717  13.031  1.00  0.00     0.035 C 
ATOM     12  C   UNL     1       6.238   4.875  14.119  1.00  0.00     0.039 C 
ENDROOT
BRANCH   5  13
ATOM     13  C   UNL     1       9.294   8.809  13.551  1.00  0.00    -0.013 C 
ATOM     14  C   UNL     1       8.765   8.594  14.985  1.00  0.00     0.007 C 
ATOM     15  C   UNL     1      10.554   7.932  13.381  1.00  0.00     0.007 C 
ENDBRANCH   5  13
TORSDOF 1
ENDMDL
