MODEL 1
REMARK VINA RESULT:    -5.086      0.000      0.000
REMARK INTER + INTRA:          -7.328
REMARK INTER:                  -6.275
REMARK INTRA:                  -1.053
REMARK UNBOUND:                -1.053
REMARK SMILES CC(C)=CCC[C@H](C)c1ccc(C)cc1
REMARK SMILES IDX 6 1 7 2 8 3 9 4 13 5 12 6 11 7 14 8 10 9 15 10 5 11 4 12
REMARK SMILES IDX 2 13 1 14 3 15
REMARK H PARENT
REMARK Flexibility Score: inf
ROOT
ATOM      1  C   UNL     1      10.330  13.017  41.489  1.00  0.00     0.012 C 
ENDROOT
BRANCH   1   2
ATOM      2  C   UNL     1       9.330  14.183  41.661  1.00  0.00     0.016 C 
ATOM      3  C   UNL     1       9.686  15.085  42.853  1.00  0.00     0.013 C 
BRANCH   2   4
ATOM      4  C   UNL     1       7.917  13.649  41.809  1.00  0.00    -0.045 A 
ATOM      5  C   UNL     1       3.876  12.177  42.222  1.00  0.00     0.044 C 
ATOM      6  C   UNL     1       5.288  12.669  42.101  1.00  0.00    -0.051 A 
ATOM      7  C   UNL     1       6.181  12.047  41.216  1.00  0.00     0.004 A 
ATOM      8  C   UNL     1       5.706  13.799  42.819  1.00  0.00     0.004 A 
ATOM      9  C   UNL     1       7.485  12.527  41.076  1.00  0.00     0.004 A 
ATOM     10  C   UNL     1       7.011  14.281  42.679  1.00  0.00     0.004 A 
ENDBRANCH   2   4
ENDBRANCH   1   2
BRANCH   1  11
ATOM     11  C   UNL     1      11.243  13.195  40.266  1.00  0.00     0.028 C 
BRANCH  11  12
ATOM     12  C   UNL     1      10.452  13.689  39.081  1.00  0.00    -0.028 C 
ATOM     13  C   UNL     1       9.731  12.895  38.258  1.00  0.00    -0.080 C 
ATOM     14  C   UNL     1       8.959  13.537  37.134  1.00  0.00     0.039 C 
ATOM     15  C   UNL     1       9.695  11.394  38.424  1.00  0.00     0.039 C 
ENDBRANCH  11  12
ENDBRANCH   1  11
TORSDOF 4
ENDMDL
MODEL 2
REMARK VINA RESULT:    -5.047      1.495      3.272
REMARK INTER + INTRA:          -7.281
REMARK INTER:                  -6.063
REMARK INTRA:                  -1.218
REMARK UNBOUND:                -1.053
REMARK SMILES CC(C)=CCC[C@H](C)c1ccc(C)cc1
REMARK SMILES IDX 6 1 7 2 8 3 9 4 13 5 12 6 11 7 14 8 10 9 15 10 5 11 4 12
REMARK SMILES IDX 2 13 1 14 3 15
REMARK H PARENT
REMARK Flexibility Score: inf
ROOT
ATOM      1  C   UNL     1      10.672  11.812  39.099  1.00  0.00     0.012 C 
ENDROOT
BRANCH   1   2
ATOM      2  C   UNL     1       9.175  11.601  38.774  1.00  0.00     0.016 C 
ATOM      3  C   UNL     1       8.742  12.361  37.511  1.00  0.00     0.013 C 
BRANCH   2   4
ATOM      4  C   UNL     1       8.315  12.010  39.956  1.00  0.00    -0.045 A 
ATOM      5  C   UNL     1       5.853  13.125  43.326  1.00  0.00     0.044 C 
ATOM      6  C   UNL     1       6.700  12.764  42.142  1.00  0.00    -0.051 A 
ATOM      7  C   UNL     1       8.049  13.143  42.096  1.00  0.00     0.004 A 
ATOM      8  C   UNL     1       6.168  11.986  41.104  1.00  0.00     0.004 A 
ATOM      9  C   UNL     1       8.849  12.775  41.011  1.00  0.00     0.004 A 
ATOM     10  C   UNL     1       6.967  11.617  40.017  1.00  0.00     0.004 A 
ENDBRANCH   2   4
ENDBRANCH   1   2
BRANCH   1  11
ATOM     11  C   UNL     1      11.296  12.962  38.294  1.00  0.00     0.028 C 
BRANCH  11  12
ATOM     12  C   UNL     1      11.843  14.022  39.217  1.00  0.00    -0.028 C 
ATOM     13  C   UNL     1      11.223  15.192  39.491  1.00  0.00    -0.080 C 
ATOM     14  C   UNL     1      11.874  16.139  40.465  1.00  0.00     0.039 C 
ATOM     15  C   UNL     1       9.917  15.578  38.836  1.00  0.00     0.039 C 
ENDBRANCH  11  12
ENDBRANCH   1  11
TORSDOF 4
ENDMDL
MODEL 3
REMARK VINA RESULT:    -4.994      1.589      5.628
REMARK INTER + INTRA:          -7.215
REMARK INTER:                  -6.393
REMARK INTRA:                  -0.822
REMARK UNBOUND:                -1.053
REMARK SMILES CC(C)=CCC[C@H](C)c1ccc(C)cc1
REMARK SMILES IDX 6 1 7 2 8 3 9 4 13 5 12 6 11 7 14 8 10 9 15 10 5 11 4 12
REMARK SMILES IDX 2 13 1 14 3 15
REMARK H PARENT
REMARK Flexibility Score: inf
ROOT
ATOM      1  C   UNL     1       7.562  11.984  39.461  1.00  0.00     0.012 C 
ENDROOT
BRANCH   1   2
ATOM      2  C   UNL     1       8.636  13.096  39.433  1.00  0.00     0.016 C 
ATOM      3  C   UNL     1       8.783  13.727  38.040  1.00  0.00     0.013 C 
BRANCH   2   4
ATOM      4  C   UNL     1       9.971  12.553  39.909  1.00  0.00    -0.045 A 
ATOM      5  C   UNL     1      13.751  11.000  41.311  1.00  0.00     0.044 C 
ATOM      6  C   UNL     1      12.453  11.559  40.806  1.00  0.00    -0.051 A 
ATOM      7  C   UNL     1      11.833  10.999  39.680  1.00  0.00     0.004 A 
ATOM      8  C   UNL     1      11.817  12.600  41.497  1.00  0.00     0.004 A 
ATOM      9  C   UNL     1      10.606  11.495  39.231  1.00  0.00     0.004 A 
ATOM     10  C   UNL     1      10.588  13.097  41.049  1.00  0.00     0.004 A 
ENDBRANCH   2   4
ENDBRANCH   1   2
BRANCH   1  11
ATOM     11  C   UNL     1       7.204  11.544  40.888  1.00  0.00     0.028 C 
BRANCH  11  12
ATOM     12  C   UNL     1       6.964  12.743  41.771  1.00  0.00    -0.028 C 
ATOM     13  C   UNL     1       5.761  13.090  42.281  1.00  0.00    -0.080 C 
ATOM     14  C   UNL     1       5.682  14.296  43.181  1.00  0.00     0.039 C 
ATOM     15  C   UNL     1       4.503  12.316  41.960  1.00  0.00     0.039 C 
ENDBRANCH  11  12
ENDBRANCH   1  11
TORSDOF 4
ENDMDL
MODEL 4
REMARK VINA RESULT:    -4.839      1.300      4.752
REMARK INTER + INTRA:          -7.023
REMARK INTER:                  -5.591
REMARK INTRA:                  -1.432
REMARK UNBOUND:                -1.053
REMARK SMILES CC(C)=CCC[C@H](C)c1ccc(C)cc1
REMARK SMILES IDX 6 1 7 2 8 3 9 4 13 5 12 6 11 7 14 8 10 9 15 10 5 11 4 12
REMARK SMILES IDX 2 13 1 14 3 15
REMARK H PARENT
REMARK Flexibility Score: inf
ROOT
ATOM      1  C   UNL     1       8.005  12.339  39.175  1.00  0.00     0.012 C 
ENDROOT
BRANCH   1   2
ATOM      2  C   UNL     1       9.466  12.825  39.314  1.00  0.00     0.016 C 
ATOM      3  C   UNL     1      10.474  11.669  39.217  1.00  0.00     0.013 C 
BRANCH   2   4
ATOM      4  C   UNL     1       9.651  13.576  40.619  1.00  0.00    -0.045 A 
ATOM      5  C   UNL     1      10.124  15.719  44.341  1.00  0.00     0.044 C 
ATOM      6  C   UNL     1       9.984  14.989  43.037  1.00  0.00    -0.051 A 
ATOM      7  C   UNL     1      10.633  13.763  42.840  1.00  0.00     0.004 A 
ATOM      8  C   UNL     1       9.147  15.495  42.032  1.00  0.00     0.004 A 
ATOM      9  C   UNL     1      10.474  13.064  41.641  1.00  0.00     0.004 A 
ATOM     10  C   UNL     1       8.986  14.797  40.831  1.00  0.00     0.004 A 
ENDBRANCH   2   4
ENDBRANCH   1   2
BRANCH   1  11
ATOM     11  C   UNL     1       7.526  11.544  40.399  1.00  0.00     0.028 C 
BRANCH  11  12
ATOM     12  C   UNL     1       6.196  12.064  40.884  1.00  0.00    -0.028 C 
ATOM     13  C   UNL     1       5.979  12.575  42.117  1.00  0.00    -0.080 C 
ATOM     14  C   UNL     1       4.603  13.093  42.447  1.00  0.00     0.039 C 
ATOM     15  C   UNL     1       7.064  12.622  43.167  1.00  0.00     0.039 C 
ENDBRANCH  11  12
ENDBRANCH   1  11
TORSDOF 4
ENDMDL
MODEL 5
REMARK VINA RESULT:    -4.830      1.454      3.440
REMARK INTER + INTRA:          -7.013
REMARK INTER:                  -5.801
REMARK INTRA:                  -1.212
REMARK UNBOUND:                -1.053
REMARK SMILES CC(C)=CCC[C@H](C)c1ccc(C)cc1
REMARK SMILES IDX 6 1 7 2 8 3 9 4 13 5 12 6 11 7 14 8 10 9 15 10 5 11 4 12
REMARK SMILES IDX 2 13 1 14 3 15
REMARK H PARENT
REMARK Flexibility Score: inf
ROOT
ATOM      1  C   UNL     1       9.815  11.490  38.439  1.00  0.00     0.012 C 
ENDROOT
BRANCH   1   2
ATOM      2  C   UNL     1       8.630  12.479  38.355  1.00  0.00     0.016 C 
ATOM      3  C   UNL     1       9.052  13.847  37.799  1.00  0.00     0.013 C 
BRANCH   2   4
ATOM      4  C   UNL     1       7.979  12.641  39.716  1.00  0.00    -0.045 A 
ATOM      5  C   UNL     1       6.139  13.052  43.603  1.00  0.00     0.044 C 
ATOM      6  C   UNL     1       6.757  12.928  42.242  1.00  0.00    -0.051 A 
ATOM      7  C   UNL     1       7.774  13.807  41.845  1.00  0.00     0.004 A 
ATOM      8  C   UNL     1       6.371  11.889  41.383  1.00  0.00     0.004 A 
ATOM      9  C   UNL     1       8.376  13.670  40.591  1.00  0.00     0.004 A 
ATOM     10  C   UNL     1       6.973  11.750  40.128  1.00  0.00     0.004 A 
ENDBRANCH   2   4
ENDBRANCH   1   2
BRANCH   1  11
ATOM     11  C   UNL     1      11.158  12.196  38.683  1.00  0.00     0.028 C 
BRANCH  11  12
ATOM     12  C   UNL     1      11.667  11.905  40.073  1.00  0.00    -0.028 C 
ATOM     13  C   UNL     1      11.993  12.851  40.982  1.00  0.00    -0.080 C 
ATOM     14  C   UNL     1      12.452  12.408  42.347  1.00  0.00     0.039 C 
ATOM     15  C   UNL     1      11.927  14.326  40.660  1.00  0.00     0.039 C 
ENDBRANCH  11  12
ENDBRANCH   1  11
TORSDOF 4
ENDMDL
MODEL 6
REMARK VINA RESULT:    -4.810      1.363      3.086
REMARK INTER + INTRA:          -6.988
REMARK INTER:                  -6.027
REMARK INTRA:                  -0.961
REMARK UNBOUND:                -1.053
REMARK SMILES CC(C)=CCC[C@H](C)c1ccc(C)cc1
REMARK SMILES IDX 6 1 7 2 8 3 9 4 13 5 12 6 11 7 14 8 10 9 15 10 5 11 4 12
REMARK SMILES IDX 2 13 1 14 3 15
REMARK H PARENT
REMARK Flexibility Score: inf
ROOT
ATOM      1  C   UNL     1      10.031  14.119  38.769  1.00  0.00     0.012 C 
ENDROOT
BRANCH   1   2
ATOM      2  C   UNL     1       9.375  12.725  38.895  1.00  0.00     0.016 C 
ATOM      3  C   UNL     1       8.764  12.248  37.569  1.00  0.00     0.013 C 
BRANCH   2   4
ATOM      4  C   UNL     1       8.320  12.735  39.987  1.00  0.00    -0.045 A 
ATOM      5  C   UNL     1       5.311  12.816  43.086  1.00  0.00     0.044 C 
ATOM      6  C   UNL     1       6.372  12.767  42.026  1.00  0.00    -0.051 A 
ATOM      7  C   UNL     1       6.266  11.861  40.961  1.00  0.00     0.004 A 
ATOM      8  C   UNL     1       7.440  13.674  42.054  1.00  0.00     0.004 A 
ATOM      9  C   UNL     1       7.234  11.839  39.954  1.00  0.00     0.004 A 
ATOM     10  C   UNL     1       8.410  13.655  41.046  1.00  0.00     0.004 A 
ENDBRANCH   2   4
ENDBRANCH   1   2
BRANCH   1  11
ATOM     11  C   UNL     1      11.519  14.109  39.154  1.00  0.00     0.028 C 
BRANCH  11  12
ATOM     12  C   UNL     1      12.042  12.696  39.220  1.00  0.00    -0.028 C 
ATOM     13  C   UNL     1      12.264  12.016  40.368  1.00  0.00    -0.080 C 
ATOM     14  C   UNL     1      12.752  10.593  40.276  1.00  0.00     0.039 C 
ATOM     15  C   UNL     1      12.056  12.646  41.725  1.00  0.00     0.039 C 
ENDBRANCH  11  12
ENDBRANCH   1  11
TORSDOF 4
ENDMDL
MODEL 7
REMARK VINA RESULT:    -4.756      1.698      6.257
REMARK INTER + INTRA:          -6.921
REMARK INTER:                  -6.299
REMARK INTRA:                  -0.623
REMARK UNBOUND:                -1.053
REMARK SMILES CC(C)=CCC[C@H](C)c1ccc(C)cc1
REMARK SMILES IDX 6 1 7 2 8 3 9 4 13 5 12 6 11 7 14 8 10 9 15 10 5 11 4 12
REMARK SMILES IDX 2 13 1 14 3 15
REMARK H PARENT
REMARK Flexibility Score: inf
ROOT
ATOM      1  C   UNL     1       8.145  11.551  39.184  1.00  0.00     0.012 C 
ENDROOT
BRANCH   1   2
ATOM      2  C   UNL     1       8.794  12.803  38.551  1.00  0.00     0.016 C 
ATOM      3  C   UNL     1       8.448  12.946  37.061  1.00  0.00     0.013 C 
BRANCH   2   4
ATOM      4  C   UNL     1      10.300  12.771  38.741  1.00  0.00    -0.045 A 
ATOM      5  C   UNL     1      14.584  12.626  39.279  1.00  0.00     0.044 C 
ATOM      6  C   UNL     1      13.095  12.699  39.112  1.00  0.00    -0.051 A 
ATOM      7  C   UNL     1      12.533  13.529  38.132  1.00  0.00     0.004 A 
ATOM      8  C   UNL     1      12.257  11.886  39.889  1.00  0.00     0.004 A 
ATOM      9  C   UNL     1      11.148  13.570  37.951  1.00  0.00     0.004 A 
ATOM     10  C   UNL     1      10.870  11.926  39.709  1.00  0.00     0.004 A 
ENDBRANCH   2   4
ENDBRANCH   1   2
BRANCH   1  11
ATOM     11  C   UNL     1       6.903  11.889  40.024  1.00  0.00     0.028 C 
BRANCH  11  12
ATOM     12  C   UNL     1       7.298  12.254  41.433  1.00  0.00    -0.028 C 
ATOM     13  C   UNL     1       6.423  12.565  42.416  1.00  0.00    -0.080 C 
ATOM     14  C   UNL     1       6.964  12.872  43.788  1.00  0.00     0.039 C 
ATOM     15  C   UNL     1       4.934  12.629  42.171  1.00  0.00     0.039 C 
ENDBRANCH  11  12
ENDBRANCH   1  11
TORSDOF 4
ENDMDL
MODEL 8
REMARK VINA RESULT:    -4.737      1.405      4.091
REMARK INTER + INTRA:          -6.898
REMARK INTER:                  -5.488
REMARK INTRA:                  -1.410
REMARK UNBOUND:                -1.053
REMARK SMILES CC(C)=CCC[C@H](C)c1ccc(C)cc1
REMARK SMILES IDX 6 1 7 2 8 3 9 4 13 5 12 6 11 7 14 8 10 9 15 10 5 11 4 12
REMARK SMILES IDX 2 13 1 14 3 15
REMARK H PARENT
REMARK Flexibility Score: inf
ROOT
ATOM      1  C   UNL     1       6.235  12.550  41.625  1.00  0.00     0.012 C 
ENDROOT
BRANCH   1   2
ATOM      2  C   UNL     1       6.754  13.152  42.952  1.00  0.00     0.016 C 
ATOM      3  C   UNL     1       5.766  14.161  43.557  1.00  0.00     0.013 C 
BRANCH   2   4
ATOM      4  C   UNL     1       8.109  13.801  42.743  1.00  0.00    -0.045 A 
ATOM      5  C   UNL     1      11.947  15.698  42.156  1.00  0.00     0.044 C 
ATOM      6  C   UNL     1      10.621  15.019  42.338  1.00  0.00    -0.051 A 
ATOM      7  C   UNL     1      10.483  13.973  43.261  1.00  0.00     0.004 A 
ATOM      8  C   UNL     1       9.494  15.471  41.637  1.00  0.00     0.004 A 
ATOM      9  C   UNL     1       9.241  13.364  43.458  1.00  0.00     0.004 A 
ATOM     10  C   UNL     1       8.250  14.864  41.833  1.00  0.00     0.004 A 
ENDBRANCH   2   4
ENDBRANCH   1   2
BRANCH   1  11
ATOM     11  C   UNL     1       7.221  11.549  41.004  1.00  0.00     0.028 C 
BRANCH  11  12
ATOM     12  C   UNL     1       7.444  11.859  39.544  1.00  0.00    -0.028 C 
ATOM     13  C   UNL     1       8.652  12.117  38.993  1.00  0.00    -0.080 C 
ATOM     14  C   UNL     1       8.724  12.372  37.510  1.00  0.00     0.039 C 
ATOM     15  C   UNL     1       9.914  12.175  39.822  1.00  0.00     0.039 C 
ENDBRANCH  11  12
ENDBRANCH   1  11
TORSDOF 4
ENDMDL
MODEL 9
REMARK VINA RESULT:    -4.610      1.648      3.461
REMARK INTER + INTRA:          -6.741
REMARK INTER:                  -5.639
REMARK INTRA:                  -1.102
REMARK UNBOUND:                -1.053
REMARK SMILES CC(C)=CCC[C@H](C)c1ccc(C)cc1
REMARK SMILES IDX 6 1 7 2 8 3 9 4 13 5 12 6 11 7 14 8 10 9 15 10 5 11 4 12
REMARK SMILES IDX 2 13 1 14 3 15
REMARK H PARENT
REMARK Flexibility Score: inf
ROOT
ATOM      1  C   UNL     1       9.120  13.996  38.026  1.00  0.00     0.012 C 
ENDROOT
BRANCH   1   2
ATOM      2  C   UNL     1       9.379  12.870  39.053  1.00  0.00     0.016 C 
ATOM      3  C   UNL     1       9.500  11.491  38.386  1.00  0.00     0.013 C 
BRANCH   2   4
ATOM      4  C   UNL     1       8.284  12.852  40.104  1.00  0.00    -0.045 A 
ATOM      5  C   UNL     1       5.175  12.750  43.102  1.00  0.00     0.044 C 
ATOM      6  C   UNL     1       6.238  12.806  42.045  1.00  0.00    -0.051 A 
ATOM      7  C   UNL     1       7.279  13.740  42.138  1.00  0.00     0.004 A 
ATOM      8  C   UNL     1       6.237  11.878  40.994  1.00  0.00     0.004 A 
ATOM      9  C   UNL     1       8.290  13.768  41.173  1.00  0.00     0.004 A 
ATOM     10  C   UNL     1       7.248  11.905  40.028  1.00  0.00     0.004 A 
ENDBRANCH   2   4
ENDBRANCH   1   2
BRANCH   1  11
ATOM     11  C   UNL     1      10.243  15.044  38.002  1.00  0.00     0.028 C 
BRANCH  11  12
ATOM     12  C   UNL     1       9.947  16.162  38.970  1.00  0.00    -0.028 C 
ATOM     13  C   UNL     1      10.592  16.349  40.143  1.00  0.00    -0.080 C 
ATOM     14  C   UNL     1      10.213  17.536  40.991  1.00  0.00     0.039 C 
ATOM     15  C   UNL     1      11.660  15.396  40.630  1.00  0.00     0.039 C 
ENDBRANCH  11  12
ENDBRANCH   1  11
TORSDOF 4
ENDMDL
