MODEL 1
REMARK VINA RESULT:    -3.667      0.000      0.000
REMARK INTER + INTRA:          -4.374
REMARK INTER:                  -4.203
REMARK INTRA:                  -0.171
REMARK UNBOUND:                -0.171
REMARK SMILES CC=Cc1ccc(O)c(OC)c1
REMARK SMILES IDX 4 1 12 2 9 3 7 4 6 5 5 6 3 7 1 8 2 9 10 10 11 11 8 12
REMARK H PARENT 8 13
REMARK Flexibility Score: inf
ROOT
ATOM      1  C   UNL     1     146.584 142.377 137.878  1.00  0.00    -0.022 A 
ATOM      2  C   UNL     1     147.038 143.658 138.234  1.00  0.00     0.058 A 
ATOM      3  C   UNL     1     148.406 143.987 138.156  1.00  0.00     0.161 A 
ATOM      4  C   UNL     1     149.319 143.025 137.705  1.00  0.00     0.157 A 
ATOM      5  C   UNL     1     148.871 141.751 137.335  1.00  0.00     0.051 A 
ATOM      6  C   UNL     1     147.515 141.428 137.415  1.00  0.00     0.012 A 
ENDROOT
BRANCH   1   7
ATOM      7  C   UNL     1     145.131 142.088 137.973  1.00  0.00     0.003 C 
ATOM      8  C   UNL     1     142.867 141.677 137.092  1.00  0.00     0.035 C 
ATOM      9  C   UNL     1     144.320 141.984 136.914  1.00  0.00    -0.030 C 
ENDBRANCH   1   7
BRANCH   3  10
ATOM     10  O   UNL     1     148.893 145.255 138.514  1.00  0.00    -0.493 OA
ATOM     11  C   UNL     1     148.800 146.416 137.695  1.00  0.00     0.278 C 
ENDBRANCH   3  10
BRANCH   4  12
ATOM     12  O   UNL     1     150.675 143.343 137.626  1.00  0.00    -0.504 OA
ATOM     13  H   UNL     1     150.989 144.298 137.503  1.00  0.00     0.293 HD
ENDBRANCH   4  12
TORSDOF 3
ENDMDL
MODEL 2
REMARK VINA RESULT:    -3.652      8.615     10.538
REMARK INTER + INTRA:          -4.357
REMARK INTER:                  -4.186
REMARK INTRA:                  -0.170
REMARK UNBOUND:                -0.171
REMARK SMILES CC=Cc1ccc(O)c(OC)c1
REMARK SMILES IDX 4 1 12 2 9 3 7 4 6 5 5 6 3 7 1 8 2 9 10 10 11 11 8 12
REMARK H PARENT 8 13
REMARK Flexibility Score: inf
ROOT
ATOM      1  C   UNL     1     142.367 135.011 137.895  1.00  0.00    -0.022 A 
ATOM      2  C   UNL     1     143.616 134.523 138.315  1.00  0.00     0.058 A 
ATOM      3  C   UNL     1     143.939 133.157 138.184  1.00  0.00     0.161 A 
ATOM      4  C   UNL     1     143.003 132.281 137.618  1.00  0.00     0.157 A 
ATOM      5  C   UNL     1     141.763 132.764 137.184  1.00  0.00     0.051 A 
ATOM      6  C   UNL     1     141.446 134.117 137.315  1.00  0.00     0.012 A 
ENDROOT
BRANCH   1   7
ATOM      7  C   UNL     1     142.083 136.459 138.049  1.00  0.00     0.003 C 
ATOM      8  C   UNL     1     141.786 138.778 137.271  1.00  0.00     0.035 C 
ATOM      9  C   UNL     1     142.096 137.335 137.036  1.00  0.00    -0.030 C 
ENDBRANCH   1   7
BRANCH   3  10
ATOM     10  O   UNL     1     145.174 132.636 138.603  1.00  0.00    -0.493 OA
ATOM     11  C   UNL     1     146.388 132.747 137.867  1.00  0.00     0.278 C 
ENDBRANCH   3  10
BRANCH   4  12
ATOM     12  O   UNL     1     143.316 130.929 137.486  1.00  0.00    -0.504 OA
ATOM     13  H   UNL     1     142.664 130.205 137.761  1.00  0.00     0.293 HD
ENDBRANCH   4  12
TORSDOF 3
ENDMDL
MODEL 3
REMARK VINA RESULT:    -3.645      8.713     10.610
REMARK INTER + INTRA:          -4.348
REMARK INTER:                  -4.175
REMARK INTRA:                  -0.173
REMARK UNBOUND:                -0.171
REMARK SMILES CC=Cc1ccc(O)c(OC)c1
REMARK SMILES IDX 4 1 12 2 9 3 7 4 6 5 5 6 3 7 1 8 2 9 10 10 11 11 8 12
REMARK H PARENT 8 13
REMARK Flexibility Score: inf
ROOT
ATOM      1  C   UNL     1     139.058 146.566 137.914  1.00  0.00    -0.022 A 
ATOM      2  C   UNL     1     137.805 147.080 138.289  1.00  0.00     0.058 A 
ATOM      3  C   UNL     1     137.517 148.453 138.152  1.00  0.00     0.161 A 
ATOM      4  C   UNL     1     138.492 149.310 137.625  1.00  0.00     0.157 A 
ATOM      5  C   UNL     1     139.737 148.802 137.236  1.00  0.00     0.051 A 
ATOM      6  C   UNL     1     140.019 147.441 137.373  1.00  0.00     0.012 A 
ENDROOT
BRANCH   1   7
ATOM      7  C   UNL     1     139.304 145.111 138.071  1.00  0.00     0.003 C 
ATOM      8  C   UNL     1     139.757 142.819 137.291  1.00  0.00     0.035 C 
ATOM      9  C   UNL     1     139.502 144.272 137.048  1.00  0.00    -0.030 C 
ENDBRANCH   1   7
BRANCH   3  10
ATOM     10  O   UNL     1     136.279 148.999 138.527  1.00  0.00    -0.493 OA
ATOM     11  C   UNL     1     135.095 148.930 137.740  1.00  0.00     0.278 C 
ENDBRANCH   3  10
BRANCH   4  12
ATOM     12  O   UNL     1     138.214 150.670 137.488  1.00  0.00    -0.504 OA
ATOM     13  H   UNL     1     137.554 151.010 136.800  1.00  0.00     0.293 HD
ENDBRANCH   4  12
TORSDOF 3
ENDMDL
MODEL 4
REMARK VINA RESULT:    -3.632     11.298     14.878
REMARK INTER + INTRA:          -4.333
REMARK INTER:                  -4.163
REMARK INTRA:                  -0.170
REMARK UNBOUND:                -0.171
REMARK SMILES CC=Cc1ccc(O)c(OC)c1
REMARK SMILES IDX 4 1 12 2 9 3 7 4 6 5 5 6 3 7 1 8 2 9 10 10 11 11 8 12
REMARK H PARENT 8 13
REMARK Flexibility Score: inf
ROOT
ATOM      1  C   UNL     1     135.020 139.218 137.885  1.00  0.00    -0.022 A 
ATOM      2  C   UNL     1     134.544 137.960 138.294  1.00  0.00     0.058 A 
ATOM      3  C   UNL     1     133.177 137.636 138.188  1.00  0.00     0.161 A 
ATOM      4  C   UNL     1     132.287 138.578 137.657  1.00  0.00     0.157 A 
ATOM      5  C   UNL     1     132.757 139.827 137.233  1.00  0.00     0.051 A 
ATOM      6  C   UNL     1     134.112 140.146 137.340  1.00  0.00     0.012 A 
ENDROOT
BRANCH   1   7
ATOM      7  C   UNL     1     136.471 139.503 138.011  1.00  0.00     0.003 C 
ATOM      8  C   UNL     1     138.772 139.816 137.188  1.00  0.00     0.035 C 
ATOM      9  C   UNL     1     137.325 139.505 136.980  1.00  0.00    -0.030 C 
ENDBRANCH   1   7
BRANCH   3  10
ATOM     10  O   UNL     1     132.669 136.392 138.597  1.00  0.00    -0.493 OA
ATOM     11  C   UNL     1     132.779 135.189 137.846  1.00  0.00     0.278 C 
ENDBRANCH   3  10
BRANCH   4  12
ATOM     12  O   UNL     1     130.932 138.264 137.550  1.00  0.00    -0.504 OA
ATOM     13  H   UNL     1     130.455 138.273 136.658  1.00  0.00     0.293 HD
ENDBRANCH   4  12
TORSDOF 3
ENDMDL
MODEL 5
REMARK VINA RESULT:    -3.613      9.250     10.724
REMARK INTER + INTRA:          -4.312
REMARK INTER:                  -4.146
REMARK INTRA:                  -0.166
REMARK UNBOUND:                -0.171
REMARK SMILES CC=Cc1ccc(O)c(OC)c1
REMARK SMILES IDX 4 1 12 2 9 3 7 4 6 5 5 6 3 7 1 8 2 9 10 10 11 11 8 12
REMARK H PARENT 8 13
REMARK Flexibility Score: inf
ROOT
ATOM      1  C   UNL     1     138.320 145.869 138.670  1.00  0.00    -0.022 A 
ATOM      2  C   UNL     1     137.287 146.818 138.743  1.00  0.00     0.058 A 
ATOM      3  C   UNL     1     137.444 148.101 138.181  1.00  0.00     0.161 A 
ATOM      4  C   UNL     1     138.644 148.425 137.534  1.00  0.00     0.157 A 
ATOM      5  C   UNL     1     139.672 147.478 137.445  1.00  0.00     0.051 A 
ATOM      6  C   UNL     1     139.513 146.208 138.004  1.00  0.00     0.012 A 
ENDROOT
BRANCH   1   7
ATOM      7  C   UNL     1     138.097 144.530 139.272  1.00  0.00     0.003 C 
ATOM      8  C   UNL     1     136.818 142.485 139.773  1.00  0.00     0.035 C 
ATOM      9  C   UNL     1     136.960 143.835 139.147  1.00  0.00    -0.030 C 
ENDBRANCH   1   7
BRANCH   3  10
ATOM     10  O   UNL     1     136.435 149.076 138.245  1.00  0.00    -0.493 OA
ATOM     11  C   UNL     1     135.130 148.923 137.698  1.00  0.00     0.278 C 
ENDBRANCH   3  10
BRANCH   4  12
ATOM     12  O   UNL     1     138.807 149.693 136.976  1.00  0.00    -0.504 OA
ATOM     13  H   UNL     1     139.559 149.895 136.330  1.00  0.00     0.293 HD
ENDBRANCH   4  12
TORSDOF 3
ENDMDL
MODEL 6
REMARK VINA RESULT:    -3.550      8.448     10.347
REMARK INTER + INTRA:          -4.239
REMARK INTER:                  -4.065
REMARK INTRA:                  -0.174
REMARK UNBOUND:                -0.171
REMARK SMILES CC=Cc1ccc(O)c(OC)c1
REMARK SMILES IDX 4 1 12 2 9 3 7 4 6 5 5 6 3 7 1 8 2 9 10 10 11 11 8 12
REMARK H PARENT 8 13
REMARK Flexibility Score: inf
ROOT
ATOM      1  C   UNL     1     143.071 135.635 138.402  1.00  0.00    -0.022 A 
ATOM      2  C   UNL     1     144.022 134.650 138.720  1.00  0.00     0.058 A 
ATOM      3  C   UNL     1     143.826 133.307 138.340  1.00  0.00     0.161 A 
ATOM      4  C   UNL     1     142.672 132.957 137.627  1.00  0.00     0.157 A 
ATOM      5  C   UNL     1     141.728 133.936 137.293  1.00  0.00     0.051 A 
ATOM      6  C   UNL     1     141.925 135.265 137.672  1.00  0.00     0.012 A 
ENDROOT
BRANCH   1   7
ATOM      7  C   UNL     1     143.332 137.035 138.820  1.00  0.00     0.003 C 
ATOM      8  C   UNL     1     144.730 138.942 139.510  1.00  0.00     0.035 C 
ATOM      9  C   UNL     1     144.548 137.513 139.109  1.00  0.00    -0.030 C 
ENDBRANCH   1   7
BRANCH   3  10
ATOM     10  O   UNL     1     144.752 132.298 138.652  1.00  0.00    -0.493 OA
ATOM     11  C   UNL     1     145.978 132.087 137.961  1.00  0.00     0.278 C 
ENDBRANCH   3  10
BRANCH   4  12
ATOM     12  O   UNL     1     142.472 131.630 137.248  1.00  0.00    -0.504 OA
ATOM     13  H   UNL     1     142.553 130.871 137.913  1.00  0.00     0.293 HD
ENDBRANCH   4  12
TORSDOF 3
ENDMDL
MODEL 7
REMARK VINA RESULT:    -3.494      1.722      1.879
REMARK INTER + INTRA:          -4.175
REMARK INTER:                  -4.006
REMARK INTRA:                  -0.170
REMARK UNBOUND:                -0.171
REMARK SMILES CC=Cc1ccc(O)c(OC)c1
REMARK SMILES IDX 4 1 12 2 9 3 7 4 6 5 5 6 3 7 1 8 2 9 10 10 11 11 8 12
REMARK H PARENT 8 13
REMARK Flexibility Score: inf
ROOT
ATOM      1  C   UNL     1     145.858 143.269 138.701  1.00  0.00    -0.022 A 
ATOM      2  C   UNL     1     146.872 144.233 138.835  1.00  0.00     0.058 A 
ATOM      3  C   UNL     1     148.132 144.044 138.234  1.00  0.00     0.161 A 
ATOM      4  C   UNL     1     148.369 142.884 137.485  1.00  0.00     0.157 A 
ATOM      5  C   UNL     1     147.358 141.927 137.335  1.00  0.00     0.051 A 
ATOM      6  C   UNL     1     146.110 142.117 137.932  1.00  0.00     0.012 A 
ENDROOT
BRANCH   1   7
ATOM      7  C   UNL     1     144.547 143.524 139.348  1.00  0.00     0.003 C 
ATOM      8  C   UNL     1     142.393 144.677 139.667  1.00  0.00     0.035 C 
ATOM      9  C   UNL     1     143.704 144.493 138.971  1.00  0.00    -0.030 C 
ENDBRANCH   1   7
BRANCH   3  10
ATOM     10  O   UNL     1     149.170 144.983 138.359  1.00  0.00    -0.493 OA
ATOM     11  C   UNL     1     149.225 146.221 137.659  1.00  0.00     0.278 C 
ENDBRANCH   3  10
BRANCH   4  12
ATOM     12  O   UNL     1     149.615 142.690 136.889  1.00  0.00    -0.504 OA
ATOM     13  H   UNL     1     150.388 142.281 137.397  1.00  0.00     0.293 HD
ENDBRANCH   4  12
TORSDOF 3
ENDMDL
MODEL 8
REMARK VINA RESULT:    -3.414      7.749      9.418
REMARK INTER + INTRA:          -4.084
REMARK INTER:                  -3.928
REMARK INTRA:                  -0.156
REMARK UNBOUND:                -0.171
REMARK SMILES CC=Cc1ccc(O)c(OC)c1
REMARK SMILES IDX 4 1 12 2 9 3 7 4 6 5 5 6 3 7 1 8 2 9 10 10 11 11 8 12
REMARK H PARENT 8 13
REMARK Flexibility Score: inf
ROOT
ATOM      1  C   UNL     1     143.015 135.688 138.749  1.00  0.00    -0.022 A 
ATOM      2  C   UNL     1     143.473 134.363 138.657  1.00  0.00     0.058 A 
ATOM      3  C   UNL     1     144.830 134.050 138.874  1.00  0.00     0.161 A 
ATOM      4  C   UNL     1     145.728 135.077 139.195  1.00  0.00     0.157 A 
ATOM      5  C   UNL     1     145.275 136.397 139.304  1.00  0.00     0.051 A 
ATOM      6  C   UNL     1     143.930 136.703 139.087  1.00  0.00     0.012 A 
ENDROOT
BRANCH   1   7
ATOM      7  C   UNL     1     141.574 135.958 138.519  1.00  0.00     0.003 C 
ATOM      8  C   UNL     1     139.330 136.788 139.105  1.00  0.00     0.035 C 
ATOM      9  C   UNL     1     140.770 136.538 139.418  1.00  0.00    -0.030 C 
ENDBRANCH   1   7
BRANCH   3  10
ATOM     10  O   UNL     1     145.321 132.738 138.779  1.00  0.00    -0.493 OA
ATOM     11  C   UNL     1     144.668 131.681 138.085  1.00  0.00     0.278 C 
ENDBRANCH   3  10
BRANCH   4  12
ATOM     12  O   UNL     1     147.072 134.775 139.410  1.00  0.00    -0.504 OA
ATOM     13  H   UNL     1     147.456 134.698 140.344  1.00  0.00     0.293 HD
ENDBRANCH   4  12
TORSDOF 3
ENDMDL
MODEL 9
REMARK VINA RESULT:    -3.382      8.538     10.980
REMARK INTER + INTRA:          -4.047
REMARK INTER:                  -3.883
REMARK INTRA:                  -0.165
REMARK UNBOUND:                -0.171
REMARK SMILES CC=Cc1ccc(O)c(OC)c1
REMARK SMILES IDX 4 1 12 2 9 3 7 4 6 5 5 6 3 7 1 8 2 9 10 10 11 11 8 12
REMARK H PARENT 8 13
REMARK Flexibility Score: inf
ROOT
ATOM      1  C   UNL     1     138.786 145.985 138.894  1.00  0.00    -0.022 A 
ATOM      2  C   UNL     1     138.259 147.280 138.752  1.00  0.00     0.058 A 
ATOM      3  C   UNL     1     136.875 147.514 138.878  1.00  0.00     0.161 A 
ATOM      4  C   UNL     1     136.019 146.441 139.161  1.00  0.00     0.157 A 
ATOM      5  C   UNL     1     136.540 145.151 139.319  1.00  0.00     0.051 A 
ATOM      6  C   UNL     1     137.912 144.922 139.192  1.00  0.00     0.012 A 
ENDROOT
BRANCH   1   7
ATOM      7  C   UNL     1     140.252 145.797 138.759  1.00  0.00     0.003 C 
ATOM      8  C   UNL     1     142.402 144.640 139.089  1.00  0.00     0.035 C 
ATOM      9  C   UNL     1     140.924 144.764 139.282  1.00  0.00    -0.030 C 
ENDBRANCH   1   7
BRANCH   3  10
ATOM     10  O   UNL     1     136.316 148.794 138.731  1.00  0.00    -0.493 OA
ATOM     11  C   UNL     1     136.976 149.898 138.123  1.00  0.00     0.278 C 
ENDBRANCH   3  10
BRANCH   4  12
ATOM     12  O   UNL     1     134.649 146.666 139.287  1.00  0.00    -0.504 OA
ATOM     13  H   UNL     1     134.069 146.867 138.482  1.00  0.00     0.293 HD
ENDBRANCH   4  12
TORSDOF 3
ENDMDL
