MODEL 1
REMARK VINA RESULT:    -3.741      0.000      0.000
REMARK INTER + INTRA:          -5.106
REMARK INTER:                  -4.835
REMARK INTRA:                  -0.271
REMARK UNBOUND:                -0.271
REMARK SMILES CCCCCCC(=O)[O-]
REMARK SMILES IDX 5 1 6 2 7 3 8 4 9 5 4 6 3 7 2 8 1 9
REMARK H PARENT
REMARK Flexibility Score: inf
ROOT
ATOM      1  C   UNL     1      11.035 -11.113 -44.549  1.00  0.00     0.006 C 
ENDROOT
BRANCH   1   2
ATOM      2  C   UNL     1      12.374 -10.720 -43.911  1.00  0.00     0.053 C 
BRANCH   2   3
ATOM      3  C   UNL     1      13.099 -11.910 -43.360  1.00  0.00     0.041 C 
ATOM      4  O   UNL     1      12.473 -12.974 -43.115  1.00  0.00    -0.550 OA
ATOM      5  O   UNL     1      14.459 -11.832 -43.087  1.00  0.00    -0.550 OA
ENDBRANCH   2   3
ENDBRANCH   1   2
BRANCH   1   6
ATOM      6  C   UNL     1      10.137  -9.895 -44.816  1.00  0.00     0.000 C 
BRANCH   6   7
ATOM      7  C   UNL     1      10.866  -8.591 -44.476  1.00  0.00    -0.000 C 
BRANCH   7   8
ATOM      8  C   UNL     1      10.041  -7.736 -43.507  1.00  0.00    -0.003 C 
ATOM      9  C   UNL     1      10.348  -8.095 -42.055  1.00  0.00     0.004 C 
ENDBRANCH   7   8
ENDBRANCH   6   7
ENDBRANCH   1   6
TORSDOF 5
ENDMDL
MODEL 2
REMARK VINA RESULT:    -3.682      3.643      4.224
REMARK INTER + INTRA:          -5.030
REMARK INTER:                  -4.874
REMARK INTRA:                  -0.156
REMARK UNBOUND:                -0.271
REMARK SMILES CCCCCCC(=O)[O-]
REMARK SMILES IDX 5 1 6 2 7 3 8 4 9 5 4 6 3 7 2 8 1 9
REMARK H PARENT
REMARK Flexibility Score: inf
ROOT
ATOM      1  C   UNL     1       9.317 -10.278 -45.080  1.00  0.00     0.006 C 
ENDROOT
BRANCH   1   2
ATOM      2  C   UNL     1       9.301 -11.361 -46.168  1.00  0.00     0.053 C 
BRANCH   2   3
ATOM      3  C   UNL     1       7.916 -11.873 -46.423  1.00  0.00     0.041 C 
ATOM      4  O   UNL     1       6.952 -11.463 -45.727  1.00  0.00    -0.550 OA
ATOM      5  O   UNL     1       7.698 -12.827 -47.409  1.00  0.00    -0.550 OA
ENDBRANCH   2   3
ENDBRANCH   1   2
BRANCH   1   6
ATOM      6  C   UNL     1      10.738  -9.973 -44.583  1.00  0.00     0.000 C 
BRANCH   6   7
ATOM      7  C   UNL     1      11.010  -8.465 -44.589  1.00  0.00    -0.000 C 
BRANCH   7   8
ATOM      8  C   UNL     1      10.095  -7.737 -43.598  1.00  0.00    -0.003 C 
ATOM      9  C   UNL     1      10.403  -8.145 -42.160  1.00  0.00     0.004 C 
ENDBRANCH   7   8
ENDBRANCH   6   7
ENDBRANCH   1   6
TORSDOF 5
ENDMDL
MODEL 3
REMARK VINA RESULT:    -3.674      1.077      1.449
REMARK INTER + INTRA:          -5.019
REMARK INTER:                  -4.803
REMARK INTRA:                  -0.216
REMARK UNBOUND:                -0.271
REMARK SMILES CCCCCCC(=O)[O-]
REMARK SMILES IDX 5 1 6 2 7 3 8 4 9 5 4 6 3 7 2 8 1 9
REMARK H PARENT
REMARK Flexibility Score: inf
ROOT
ATOM      1  C   UNL     1      11.229 -10.758 -44.000  1.00  0.00     0.006 C 
ENDROOT
BRANCH   1   2
ATOM      2  C   UNL     1      11.948 -11.800 -43.132  1.00  0.00     0.053 C 
BRANCH   2   3
ATOM      3  C   UNL     1      13.291 -12.158 -43.690  1.00  0.00     0.041 C 
ATOM      4  O   UNL     1      14.339 -11.838 -43.072  1.00  0.00    -0.550 OA
ATOM      5  O   UNL     1      13.385 -12.815 -44.911  1.00  0.00    -0.550 OA
ENDBRANCH   2   3
ENDBRANCH   1   2
BRANCH   1   6
ATOM      6  C   UNL     1      12.112  -9.537 -44.295  1.00  0.00     0.000 C 
BRANCH   6   7
ATOM      7  C   UNL     1      11.265  -8.342 -44.744  1.00  0.00    -0.000 C 
BRANCH   7   8
ATOM      8  C   UNL     1       9.911  -8.326 -44.024  1.00  0.00    -0.003 C 
ATOM      9  C   UNL     1       9.998  -7.572 -42.700  1.00  0.00     0.004 C 
ENDBRANCH   7   8
ENDBRANCH   6   7
ENDBRANCH   1   6
TORSDOF 5
ENDMDL
MODEL 4
REMARK VINA RESULT:    -3.655      1.889      2.302
REMARK INTER + INTRA:          -4.995
REMARK INTER:                  -4.736
REMARK INTRA:                  -0.259
REMARK UNBOUND:                -0.271
REMARK SMILES CCCCCCC(=O)[O-]
REMARK SMILES IDX 5 1 6 2 7 3 8 4 9 5 4 6 3 7 2 8 1 9
REMARK H PARENT
REMARK Flexibility Score: inf
ROOT
ATOM      1  C   UNL     1      12.039 -10.120 -44.231  1.00  0.00     0.006 C 
ENDROOT
BRANCH   1   2
ATOM      2  C   UNL     1      10.928 -11.074 -43.772  1.00  0.00     0.053 C 
BRANCH   2   3
ATOM      3  C   UNL     1      10.538 -12.034 -44.854  1.00  0.00     0.041 C 
ATOM      4  O   UNL     1       9.323 -12.267 -45.086  1.00  0.00    -0.550 OA
ATOM      5  O   UNL     1      11.518 -12.698 -45.582  1.00  0.00    -0.550 OA
ENDBRANCH   2   3
ENDBRANCH   1   2
BRANCH   1   6
ATOM      6  C   UNL     1      11.506  -8.716 -44.553  1.00  0.00     0.000 C 
BRANCH   6   7
ATOM      7  C   UNL     1      10.040  -8.575 -44.128  1.00  0.00    -0.000 C 
BRANCH   7   8
ATOM      8  C   UNL     1       9.887  -7.523 -43.023  1.00  0.00    -0.003 C 
ATOM      9  C   UNL     1      10.237  -8.104 -41.655  1.00  0.00     0.004 C 
ENDBRANCH   7   8
ENDBRANCH   6   7
ENDBRANCH   1   6
TORSDOF 5
ENDMDL
MODEL 5
REMARK VINA RESULT:    -3.649      3.019      3.450
REMARK INTER + INTRA:          -4.987
REMARK INTER:                  -4.596
REMARK INTRA:                  -0.390
REMARK UNBOUND:                -0.271
REMARK SMILES CCCCCCC(=O)[O-]
REMARK SMILES IDX 5 1 6 2 7 3 8 4 9 5 4 6 3 7 2 8 1 9
REMARK H PARENT
REMARK Flexibility Score: inf
ROOT
ATOM      1  C   UNL     1      10.881 -11.650 -43.757  1.00  0.00     0.006 C 
ENDROOT
BRANCH   1   2
ATOM      2  C   UNL     1      10.453 -11.654 -45.231  1.00  0.00     0.053 C 
BRANCH   2   3
ATOM      3  C   UNL     1       8.964 -11.588 -45.378  1.00  0.00     0.041 C 
ATOM      4  O   UNL     1       8.292 -12.646 -45.492  1.00  0.00    -0.550 OA
ATOM      5  O   UNL     1       8.323 -10.356 -45.422  1.00  0.00    -0.550 OA
ENDBRANCH   2   3
ENDBRANCH   1   2
BRANCH   1   6
ATOM      6  C   UNL     1      11.137 -10.231 -43.229  1.00  0.00     0.000 C 
BRANCH   6   7
ATOM      7  C   UNL     1      11.863  -9.378 -44.275  1.00  0.00    -0.000 C 
BRANCH   7   8
ATOM      8  C   UNL     1      11.049  -8.127 -44.626  1.00  0.00    -0.003 C 
ATOM      9  C   UNL     1      10.021  -7.815 -43.541  1.00  0.00     0.004 C 
ENDBRANCH   7   8
ENDBRANCH   6   7
ENDBRANCH   1   6
TORSDOF 5
ENDMDL
MODEL 6
REMARK VINA RESULT:    -3.575      2.868      4.474
REMARK INTER + INTRA:          -4.891
REMARK INTER:                  -4.700
REMARK INTRA:                  -0.190
REMARK UNBOUND:                -0.271
REMARK SMILES CCCCCCC(=O)[O-]
REMARK SMILES IDX 5 1 6 2 7 3 8 4 9 5 4 6 3 7 2 8 1 9
REMARK H PARENT
REMARK Flexibility Score: inf
ROOT
ATOM      1  C   UNL     1      10.265  -9.884 -44.738  1.00  0.00     0.006 C 
ENDROOT
BRANCH   1   2
ATOM      2  C   UNL     1      10.951  -8.596 -44.261  1.00  0.00     0.053 C 
BRANCH   2   3
ATOM      3  C   UNL     1      10.228  -7.975 -43.106  1.00  0.00     0.041 C 
ATOM      4  O   UNL     1       9.390  -7.057 -43.304  1.00  0.00    -0.550 OA
ATOM      5  O   UNL     1      10.504  -8.388 -41.808  1.00  0.00    -0.550 OA
ENDBRANCH   2   3
ENDBRANCH   1   2
BRANCH   1   6
ATOM      6  C   UNL     1      10.958 -11.145 -44.200  1.00  0.00     0.000 C 
BRANCH   6   7
ATOM      7  C   UNL     1      12.394 -10.839 -43.761  1.00  0.00    -0.000 C 
BRANCH   7   8
ATOM      8  C   UNL     1      13.103 -12.109 -43.277  1.00  0.00    -0.003 C 
ATOM      9  C   UNL     1      14.620 -11.953 -43.344  1.00  0.00     0.004 C 
ENDBRANCH   7   8
ENDBRANCH   6   7
ENDBRANCH   1   6
TORSDOF 5
ENDMDL
MODEL 7
REMARK VINA RESULT:    -3.477      3.182      4.503
REMARK INTER + INTRA:          -4.765
REMARK INTER:                  -4.574
REMARK INTRA:                  -0.190
REMARK UNBOUND:                -0.271
REMARK SMILES CCCCCCC(=O)[O-]
REMARK SMILES IDX 5 1 6 2 7 3 8 4 9 5 4 6 3 7 2 8 1 9
REMARK H PARENT
REMARK Flexibility Score: inf
ROOT
ATOM      1  C   UNL     1       9.840  -7.750 -42.400  1.00  0.00     0.006 C 
ENDROOT
BRANCH   1   2
ATOM      2  C   UNL     1      10.645  -8.616 -41.422  1.00  0.00     0.053 C 
BRANCH   2   3
ATOM      3  C   UNL     1      10.066  -8.579 -40.040  1.00  0.00     0.041 C 
ATOM      4  O   UNL     1      10.714  -9.049 -39.070  1.00  0.00    -0.550 OA
ATOM      5  O   UNL     1       8.795  -8.057 -39.832  1.00  0.00    -0.550 OA
ENDBRANCH   2   3
ENDBRANCH   1   2
BRANCH   1   6
ATOM      6  C   UNL     1      10.216  -8.023 -43.864  1.00  0.00     0.000 C 
BRANCH   6   7
ATOM      7  C   UNL     1      11.388  -9.006 -43.956  1.00  0.00    -0.000 C 
BRANCH   7   8
ATOM      8  C   UNL     1      10.929 -10.360 -44.509  1.00  0.00    -0.003 C 
ATOM      9  C   UNL     1       9.517 -10.272 -45.083  1.00  0.00     0.004 C 
ENDBRANCH   7   8
ENDBRANCH   6   7
ENDBRANCH   1   6
TORSDOF 5
ENDMDL
MODEL 8
REMARK VINA RESULT:    -3.409      2.919      4.817
REMARK INTER + INTRA:          -4.676
REMARK INTER:                  -4.534
REMARK INTRA:                  -0.142
REMARK UNBOUND:                -0.271
REMARK SMILES CCCCCCC(=O)[O-]
REMARK SMILES IDX 5 1 6 2 7 3 8 4 9 5 4 6 3 7 2 8 1 9
REMARK H PARENT
REMARK Flexibility Score: inf
ROOT
ATOM      1  C   UNL     1      12.103 -10.555 -44.239  1.00  0.00     0.006 C 
ENDROOT
BRANCH   1   2
ATOM      2  C   UNL     1      10.687  -9.965 -44.202  1.00  0.00     0.053 C 
BRANCH   2   3
ATOM      3  C   UNL     1      10.703  -8.471 -44.306  1.00  0.00     0.041 C 
ATOM      4  O   UNL     1      11.538  -7.898 -45.052  1.00  0.00    -0.550 OA
ATOM      5  O   UNL     1       9.817  -7.711 -43.552  1.00  0.00    -0.550 OA
ENDBRANCH   2   3
ENDBRANCH   1   2
BRANCH   1   6
ATOM      6  C   UNL     1      12.308 -11.645 -43.176  1.00  0.00     0.000 C 
BRANCH   6   7
ATOM      7  C   UNL     1      13.603 -12.424 -43.431  1.00  0.00    -0.000 C 
BRANCH   7   8
ATOM      8  C   UNL     1      14.760 -11.473 -43.759  1.00  0.00    -0.003 C 
ATOM      9  C   UNL     1      15.989 -11.783 -42.907  1.00  0.00     0.004 C 
ENDBRANCH   7   8
ENDBRANCH   6   7
ENDBRANCH   1   6
TORSDOF 5
ENDMDL
MODEL 9
REMARK VINA RESULT:    -3.328      3.346      4.456
REMARK INTER + INTRA:          -4.572
REMARK INTER:                  -4.473
REMARK INTRA:                  -0.099
REMARK UNBOUND:                -0.271
REMARK SMILES CCCCCCC(=O)[O-]
REMARK SMILES IDX 5 1 6 2 7 3 8 4 9 5 4 6 3 7 2 8 1 9
REMARK H PARENT
REMARK Flexibility Score: inf
ROOT
ATOM      1  C   UNL     1      10.995 -10.855 -44.658  1.00  0.00     0.006 C 
ENDROOT
BRANCH   1   2
ATOM      2  C   UNL     1      10.813  -9.828 -43.532  1.00  0.00     0.053 C 
BRANCH   2   3
ATOM      3  C   UNL     1      10.771  -8.426 -44.059  1.00  0.00     0.041 C 
ATOM      4  O   UNL     1      11.506  -8.090 -45.024  1.00  0.00    -0.550 OA
ATOM      5  O   UNL     1       9.944  -7.482 -43.462  1.00  0.00    -0.550 OA
ENDBRANCH   2   3
ENDBRANCH   1   2
BRANCH   1   6
ATOM      6  C   UNL     1       9.702 -11.628 -44.956  1.00  0.00     0.000 C 
BRANCH   6   7
ATOM      7  C   UNL     1       8.660 -10.721 -45.619  1.00  0.00    -0.000 C 
BRANCH   7   8
ATOM      8  C   UNL     1       7.791 -11.512 -46.604  1.00  0.00    -0.003 C 
ATOM      9  C   UNL     1       7.102 -12.686 -45.914  1.00  0.00     0.004 C 
ENDBRANCH   7   8
ENDBRANCH   6   7
ENDBRANCH   1   6
TORSDOF 5
ENDMDL
