MODEL 1
REMARK VINA RESULT:    -4.636      0.000      0.000
REMARK INTER + INTRA:          -9.344
REMARK INTER:                  -7.075
REMARK INTRA:                  -2.268
REMARK UNBOUND:                -2.268
REMARK SMILES CC(=O)CCC=C(C)CCC=C(C)CCC=C(C)C
REMARK SMILES IDX 10 1 11 2 12 3 13 4 14 5 15 6 16 7 18 8 17 9 19 10 9 11 7 12
REMARK SMILES IDX 6 13 8 14 5 15 4 16 2 17 3 18 1 19
REMARK H PARENT
REMARK Flexibility Score: inf
ROOT
ATOM      1  C   UNL     1     199.494 208.966 217.728  1.00  0.00     0.032 C 
ENDROOT
BRANCH   1   2
ATOM      2  C   UNL     1     199.738 209.807 216.500  1.00  0.00    -0.028 C 
ATOM      3  C   UNL     1     198.778 210.495 215.841  1.00  0.00    -0.077 C 
ATOM      4  C   UNL     1     197.344 210.517 216.315  1.00  0.00     0.039 C 
BRANCH   3   5
ATOM      5  C   UNL     1     199.158 211.292 214.611  1.00  0.00     0.034 C 
BRANCH   5   6
ATOM      6  C   UNL     1     199.691 210.391 213.491  1.00  0.00     0.032 C 
BRANCH   6   7
ATOM      7  C   UNL     1     198.759 209.228 213.240  1.00  0.00    -0.028 C 
ATOM      8  C   UNL     1     200.525 207.488 213.610  1.00  0.00     0.039 C 
ATOM      9  C   UNL     1     199.122 207.925 213.263  1.00  0.00    -0.080 C 
ATOM     10  C   UNL     1     198.084 206.886 212.928  1.00  0.00     0.039 C 
ENDBRANCH   6   7
ENDBRANCH   5   6
ENDBRANCH   3   5
ENDBRANCH   1   2
BRANCH   1  11
ATOM     11  C   UNL     1     200.023 207.542 217.527  1.00  0.00     0.034 C 
BRANCH  11  12
ATOM     12  C   UNL     1     198.962 206.657 216.912  1.00  0.00    -0.077 C 
ATOM     13  C   UNL     1     199.319 205.447 216.423  1.00  0.00    -0.028 C 
ATOM     14  C   UNL     1     197.531 207.139 216.882  1.00  0.00     0.039 C 
BRANCH  13  15
ATOM     15  C   UNL     1     198.375 204.483 215.743  1.00  0.00     0.035 C 
BRANCH  15  16
ATOM     16  C   UNL     1     199.072 203.704 214.621  1.00  0.00     0.079 C 
BRANCH  16  17
ATOM     17  C   UNL     1     198.151 202.684 214.000  1.00  0.00     0.130 C 
ATOM     18  O   UNL     1     198.511 202.073 213.006  1.00  0.00    -0.300 OA
ATOM     19  C   UNL     1     196.797 202.401 214.582  1.00  0.00     0.087 C 
ENDBRANCH  16  17
ENDBRANCH  15  16
ENDBRANCH  13  15
ENDBRANCH  11  12
ENDBRANCH   1  11
TORSDOF 9
ENDMDL
MODEL 2
REMARK VINA RESULT:    -4.576      3.219      6.526
REMARK INTER + INTRA:          -9.252
REMARK INTER:                  -7.887
REMARK INTRA:                  -1.365
REMARK UNBOUND:                -2.268
REMARK SMILES CC(=O)CCC=C(C)CCC=C(C)CCC=C(C)C
REMARK SMILES IDX 10 1 11 2 12 3 13 4 14 5 15 6 16 7 18 8 17 9 19 10 9 11 7 12
REMARK SMILES IDX 6 13 8 14 5 15 4 16 2 17 3 18 1 19
REMARK H PARENT
REMARK Flexibility Score: inf
ROOT
ATOM      1  C   UNL     1     200.330 207.538 217.728  1.00  0.00     0.032 C 
ENDROOT
BRANCH   1   2
ATOM      2  C   UNL     1     199.607 206.648 216.748  1.00  0.00    -0.028 C 
ATOM      3  C   UNL     1     199.844 206.625 215.417  1.00  0.00    -0.077 C 
ATOM      4  C   UNL     1     200.916 207.480 214.782  1.00  0.00     0.039 C 
BRANCH   3   5
ATOM      5  C   UNL     1     199.036 205.689 214.542  1.00  0.00     0.034 C 
BRANCH   5   6
ATOM      6  C   UNL     1     199.139 204.235 215.019  1.00  0.00     0.032 C 
BRANCH   6   7
ATOM      7  C   UNL     1     197.795 203.548 214.961  1.00  0.00    -0.028 C 
ATOM      8  C   UNL     1     198.553 201.787 213.347  1.00  0.00     0.039 C 
ATOM      9  C   UNL     1     197.509 202.468 214.198  1.00  0.00    -0.080 C 
ATOM     10  C   UNL     1     196.099 201.939 214.206  1.00  0.00     0.039 C 
ENDBRANCH   6   7
ENDBRANCH   5   6
ENDBRANCH   3   5
ENDBRANCH   1   2
BRANCH   1  11
ATOM     11  C   UNL     1     199.387 208.605 218.294  1.00  0.00     0.034 C 
BRANCH  11  12
ATOM     12  C   UNL     1     198.863 209.498 217.192  1.00  0.00    -0.077 C 
ATOM     13  C   UNL     1     199.701 210.390 216.616  1.00  0.00    -0.028 C 
ATOM     14  C   UNL     1     197.426 209.353 216.751  1.00  0.00     0.039 C 
BRANCH  13  15
ATOM     15  C   UNL     1     199.302 211.372 215.539  1.00  0.00     0.035 C 
BRANCH  15  16
ATOM     16  C   UNL     1     199.048 212.771 216.114  1.00  0.00     0.079 C 
BRANCH  16  17
ATOM     17  C   UNL     1     197.587 213.139 216.052  1.00  0.00     0.130 C 
ATOM     18  O   UNL     1     197.098 213.813 216.946  1.00  0.00    -0.300 OA
ATOM     19  C   UNL     1     196.719 212.696 214.912  1.00  0.00     0.087 C 
ENDBRANCH  16  17
ENDBRANCH  15  16
ENDBRANCH  13  15
ENDBRANCH  11  12
ENDBRANCH   1  11
TORSDOF 9
ENDMDL
MODEL 3
REMARK VINA RESULT:    -4.531     14.225     15.414
REMARK INTER + INTRA:          -9.184
REMARK INTER:                  -7.852
REMARK INTRA:                  -1.331
REMARK UNBOUND:                -2.268
REMARK SMILES CC(=O)CCC=C(C)CCC=C(C)CCC=C(C)C
REMARK SMILES IDX 10 1 11 2 12 3 13 4 14 5 15 6 16 7 18 8 17 9 19 10 9 11 7 12
REMARK SMILES IDX 6 13 8 14 5 15 4 16 2 17 3 18 1 19
REMARK H PARENT
REMARK Flexibility Score: inf
ROOT
ATOM      1  C   UNL     1     211.909 204.849 217.621  1.00  0.00     0.032 C 
ENDROOT
BRANCH   1   2
ATOM      2  C   UNL     1     212.704 206.069 217.227  1.00  0.00    -0.028 C 
ATOM      3  C   UNL     1     212.956 206.438 215.950  1.00  0.00    -0.077 C 
ATOM      4  C   UNL     1     212.410 205.664 214.773  1.00  0.00     0.039 C 
BRANCH   3   5
ATOM      5  C   UNL     1     213.779 207.682 215.694  1.00  0.00     0.034 C 
BRANCH   5   6
ATOM      6  C   UNL     1     214.110 207.848 214.206  1.00  0.00     0.032 C 
BRANCH   6   7
ATOM      7  C   UNL     1     213.780 209.243 213.728  1.00  0.00    -0.028 C 
ATOM      8  C   UNL     1     215.958 210.223 214.490  1.00  0.00     0.039 C 
ATOM      9  C   UNL     1     214.584 210.321 213.872  1.00  0.00    -0.080 C 
ATOM     10  C   UNL     1     214.080 211.659 213.395  1.00  0.00     0.039 C 
ENDBRANCH   6   7
ENDBRANCH   5   6
ENDBRANCH   3   5
ENDBRANCH   1   2
BRANCH   1  11
ATOM     11  C   UNL     1     212.825 203.763 218.194  1.00  0.00     0.034 C 
BRANCH  11  12
ATOM     12  C   UNL     1     213.389 202.897 217.090  1.00  0.00    -0.077 C 
ATOM     13  C   UNL     1     212.555 202.085 216.402  1.00  0.00    -0.028 C 
ATOM     14  C   UNL     1     214.863 202.983 216.771  1.00  0.00     0.039 C 
BRANCH  13  15
ATOM     15  C   UNL     1     212.988 201.136 215.308  1.00  0.00     0.035 C 
BRANCH  15  16
ATOM     16  C   UNL     1     212.935 199.675 215.770  1.00  0.00     0.079 C 
BRANCH  16  17
ATOM     17  C   UNL     1     214.311 199.142 216.084  1.00  0.00     0.130 C 
ATOM     18  O   UNL     1     215.291 199.684 215.599  1.00  0.00    -0.300 OA
ATOM     19  C   UNL     1     214.499 197.957 216.985  1.00  0.00     0.087 C 
ENDBRANCH  16  17
ENDBRANCH  15  16
ENDBRANCH  13  15
ENDBRANCH  11  12
ENDBRANCH   1  11
TORSDOF 9
ENDMDL
MODEL 4
REMARK VINA RESULT:    -4.462     14.682     16.757
REMARK INTER + INTRA:          -9.078
REMARK INTER:                  -7.844
REMARK INTRA:                  -1.234
REMARK UNBOUND:                -2.268
REMARK SMILES CC(=O)CCC=C(C)CCC=C(C)CCC=C(C)C
REMARK SMILES IDX 10 1 11 2 12 3 13 4 14 5 15 6 16 7 18 8 17 9 19 10 9 11 7 12
REMARK SMILES IDX 6 13 8 14 5 15 4 16 2 17 3 18 1 19
REMARK H PARENT
REMARK Flexibility Score: inf
ROOT
ATOM      1  C   UNL     1     212.726 203.730 218.368  1.00  0.00     0.032 C 
ENDROOT
BRANCH   1   2
ATOM      2  C   UNL     1     213.268 202.693 217.415  1.00  0.00    -0.028 C 
ATOM      3  C   UNL     1     214.553 202.640 216.995  1.00  0.00    -0.077 C 
ATOM      4  C   UNL     1     215.597 203.613 217.491  1.00  0.00     0.039 C 
BRANCH   3   5
ATOM      5  C   UNL     1     214.964 201.551 216.027  1.00  0.00     0.034 C 
BRANCH   5   6
ATOM      6  C   UNL     1     213.884 200.470 215.896  1.00  0.00     0.032 C 
BRANCH   6   7
ATOM      7  C   UNL     1     214.434 199.230 215.229  1.00  0.00    -0.028 C 
ATOM      8  C   UNL     1     214.494 197.889 217.345  1.00  0.00     0.039 C 
ATOM      9  C   UNL     1     214.738 198.077 215.867  1.00  0.00    -0.080 C 
ATOM     10  C   UNL     1     215.339 196.952 215.066  1.00  0.00     0.039 C 
ENDBRANCH   6   7
ENDBRANCH   5   6
ENDBRANCH   3   5
ENDBRANCH   1   2
BRANCH   1  11
ATOM     11  C   UNL     1     211.677 204.609 217.677  1.00  0.00     0.034 C 
BRANCH  11  12
ATOM     12  C   UNL     1     212.260 205.282 216.455  1.00  0.00    -0.077 C 
ATOM     13  C   UNL     1     213.241 206.199 216.616  1.00  0.00    -0.028 C 
ATOM     14  C   UNL     1     211.747 204.893 215.088  1.00  0.00     0.039 C 
BRANCH  13  15
ATOM     15  C   UNL     1     213.880 206.980 215.492  1.00  0.00     0.035 C 
BRANCH  15  16
ATOM     16  C   UNL     1     213.124 208.282 215.204  1.00  0.00     0.079 C 
BRANCH  16  17
ATOM     17  C   UNL     1     213.879 209.160 214.236  1.00  0.00     0.130 C 
ATOM     18  O   UNL     1     213.375 209.443 213.161  1.00  0.00    -0.300 OA
ATOM     19  C   UNL     1     215.241 209.695 214.570  1.00  0.00     0.087 C 
ENDBRANCH  16  17
ENDBRANCH  15  16
ENDBRANCH  13  15
ENDBRANCH  11  12
ENDBRANCH   1  11
TORSDOF 9
ENDMDL
MODEL 5
REMARK VINA RESULT:    -4.448      3.543      7.117
REMARK INTER + INTRA:          -9.056
REMARK INTER:                  -7.132
REMARK INTRA:                  -1.925
REMARK UNBOUND:                -2.268
REMARK SMILES CC(=O)CCC=C(C)CCC=C(C)CCC=C(C)C
REMARK SMILES IDX 10 1 11 2 12 3 13 4 14 5 15 6 16 7 18 8 17 9 19 10 9 11 7 12
REMARK SMILES IDX 6 13 8 14 5 15 4 16 2 17 3 18 1 19
REMARK H PARENT
REMARK Flexibility Score: inf
ROOT
ATOM      1  C   UNL     1     199.425 209.154 212.922  1.00  0.00     0.032 C 
ENDROOT
BRANCH   1   2
ATOM      2  C   UNL     1     199.067 207.836 213.562  1.00  0.00    -0.028 C 
ATOM      3  C   UNL     1     199.785 207.244 214.544  1.00  0.00    -0.077 C 
ATOM      4  C   UNL     1     201.018 207.889 215.133  1.00  0.00     0.039 C 
BRANCH   3   5
ATOM      5  C   UNL     1     199.319 205.911 215.092  1.00  0.00     0.034 C 
BRANCH   5   6
ATOM      6  C   UNL     1     198.940 206.008 216.575  1.00  0.00     0.032 C 
BRANCH   6   7
ATOM      7  C   UNL     1     197.760 206.931 216.775  1.00  0.00    -0.028 C 
ATOM      8  C   UNL     1     199.069 208.629 218.074  1.00  0.00     0.039 C 
ATOM      9  C   UNL     1     197.795 208.093 217.465  1.00  0.00    -0.080 C 
ATOM     10  C   UNL     1     196.514 208.869 217.627  1.00  0.00     0.039 C 
ENDBRANCH   6   7
ENDBRANCH   5   6
ENDBRANCH   3   5
ENDBRANCH   1   2
BRANCH   1  11
ATOM     11  C   UNL     1     198.163 209.932 212.534  1.00  0.00     0.034 C 
BRANCH  11  12
ATOM     12  C   UNL     1     197.742 210.864 213.649  1.00  0.00    -0.077 C 
ATOM     13  C   UNL     1     198.418 210.835 214.819  1.00  0.00    -0.028 C 
ATOM     14  C   UNL     1     196.592 211.816 213.414  1.00  0.00     0.039 C 
BRANCH  13  15
ATOM     15  C   UNL     1     198.079 211.675 216.028  1.00  0.00     0.035 C 
BRANCH  15  16
ATOM     16  C   UNL     1     198.860 212.994 216.041  1.00  0.00     0.079 C 
BRANCH  16  17
ATOM     17  C   UNL     1     197.971 214.163 216.385  1.00  0.00     0.130 C 
ATOM     18  O   UNL     1     197.751 214.427 217.557  1.00  0.00    -0.300 OA
ATOM     19  C   UNL     1     197.352 215.012 215.314  1.00  0.00     0.087 C 
ENDBRANCH  16  17
ENDBRANCH  15  16
ENDBRANCH  13  15
ENDBRANCH  11  12
ENDBRANCH   1  11
TORSDOF 9
ENDMDL
MODEL 6
REMARK VINA RESULT:    -4.446      2.528      6.816
REMARK INTER + INTRA:          -9.053
REMARK INTER:                  -7.679
REMARK INTRA:                  -1.374
REMARK UNBOUND:                -2.268
REMARK SMILES CC(=O)CCC=C(C)CCC=C(C)CCC=C(C)C
REMARK SMILES IDX 10 1 11 2 12 3 13 4 14 5 15 6 16 7 18 8 17 9 19 10 9 11 7 12
REMARK SMILES IDX 6 13 8 14 5 15 4 16 2 17 3 18 1 19
REMARK H PARENT
REMARK Flexibility Score: inf
ROOT
ATOM      1  C   UNL     1     199.471 205.087 215.339  1.00  0.00     0.032 C 
ENDROOT
BRANCH   1   2
ATOM      2  C   UNL     1     198.491 204.065 214.818  1.00  0.00    -0.028 C 
ATOM      3  C   UNL     1     197.466 204.346 213.981  1.00  0.00    -0.077 C 
ATOM      4  C   UNL     1     197.233 205.739 213.444  1.00  0.00     0.039 C 
BRANCH   3   5
ATOM      5  C   UNL     1     196.547 203.226 213.543  1.00  0.00     0.034 C 
BRANCH   5   6
ATOM      6  C   UNL     1     196.451 202.122 214.603  1.00  0.00     0.032 C 
BRANCH   6   7
ATOM      7  C   UNL     1     195.876 200.853 214.017  1.00  0.00    -0.028 C 
ATOM      8  C   UNL     1     198.114 199.806 213.602  1.00  0.00     0.039 C 
ATOM      9  C   UNL     1     196.606 199.820 213.540  1.00  0.00    -0.080 C 
ATOM     10  C   UNL     1     195.878 198.651 212.928  1.00  0.00     0.039 C 
ENDBRANCH   6   7
ENDBRANCH   5   6
ENDBRANCH   3   5
ENDBRANCH   1   2
BRANCH   1  11
ATOM     11  C   UNL     1     199.203 205.395 216.816  1.00  0.00     0.034 C 
BRANCH  11  12
ATOM     12  C   UNL     1     199.117 206.887 217.047  1.00  0.00    -0.077 C 
ATOM     13  C   UNL     1     198.000 207.547 216.666  1.00  0.00    -0.028 C 
ATOM     14  C   UNL     1     200.272 207.593 217.718  1.00  0.00     0.039 C 
BRANCH  13  15
ATOM     15  C   UNL     1     197.798 209.038 216.794  1.00  0.00     0.035 C 
BRANCH  15  16
ATOM     16  C   UNL     1     198.117 209.769 215.484  1.00  0.00     0.079 C 
BRANCH  16  17
ATOM     17  C   UNL     1     199.500 210.370 215.506  1.00  0.00     0.130 C 
ATOM     18  O   UNL     1     200.418 209.788 214.951  1.00  0.00    -0.300 OA
ATOM     19  C   UNL     1     199.770 211.675 216.196  1.00  0.00     0.087 C 
ENDBRANCH  16  17
ENDBRANCH  15  16
ENDBRANCH  13  15
ENDBRANCH  11  12
ENDBRANCH   1  11
TORSDOF 9
ENDMDL
MODEL 7
REMARK VINA RESULT:    -4.425      2.183      3.956
REMARK INTER + INTRA:          -9.021
REMARK INTER:                  -7.814
REMARK INTRA:                  -1.207
REMARK UNBOUND:                -2.268
REMARK SMILES CC(=O)CCC=C(C)CCC=C(C)CCC=C(C)C
REMARK SMILES IDX 10 1 11 2 12 3 13 4 14 5 15 6 16 7 18 8 17 9 19 10 9 11 7 12
REMARK SMILES IDX 6 13 8 14 5 15 4 16 2 17 3 18 1 19
REMARK H PARENT
REMARK Flexibility Score: inf
ROOT
ATOM      1  C   UNL     1     199.433 208.884 218.230  1.00  0.00     0.032 C 
ENDROOT
BRANCH   1   2
ATOM      2  C   UNL     1     199.668 210.114 217.390  1.00  0.00    -0.028 C 
ATOM      3  C   UNL     1     198.827 210.552 216.425  1.00  0.00    -0.077 C 
ATOM      4  C   UNL     1     197.522 209.854 216.125  1.00  0.00     0.039 C 
BRANCH   3   5
ATOM      5  C   UNL     1     199.190 211.799 215.645  1.00  0.00     0.034 C 
BRANCH   5   6
ATOM      6  C   UNL     1     197.945 212.601 215.246  1.00  0.00     0.032 C 
BRANCH   6   7
ATOM      7  C   UNL     1     197.473 213.475 216.385  1.00  0.00    -0.028 C 
ATOM      8  C   UNL     1     197.191 215.513 214.954  1.00  0.00     0.039 C 
ATOM      9  C   UNL     1     197.158 214.785 216.276  1.00  0.00    -0.080 C 
ATOM     10  C   UNL     1     196.763 215.533 217.523  1.00  0.00     0.039 C 
ENDBRANCH   6   7
ENDBRANCH   5   6
ENDBRANCH   3   5
ENDBRANCH   1   2
BRANCH   1  11
ATOM     11  C   UNL     1     200.393 207.759 217.829  1.00  0.00     0.034 C 
BRANCH  11  12
ATOM     12  C   UNL     1     199.947 207.105 216.541  1.00  0.00    -0.077 C 
ATOM     13  C   UNL     1     198.884 206.270 216.563  1.00  0.00    -0.028 C 
ATOM     14  C   UNL     1     200.687 207.423 215.263  1.00  0.00     0.039 C 
BRANCH  13  15
ATOM     15  C   UNL     1     198.359 205.516 215.363  1.00  0.00     0.035 C 
BRANCH  15  16
ATOM     16  C   UNL     1     198.945 204.101 215.281  1.00  0.00     0.079 C 
BRANCH  16  17
ATOM     17  C   UNL     1     198.190 203.244 214.296  1.00  0.00     0.130 C 
ATOM     18  O   UNL     1     198.633 203.090 213.169  1.00  0.00    -0.300 OA
ATOM     19  C   UNL     1     196.903 202.572 214.675  1.00  0.00     0.087 C 
ENDBRANCH  16  17
ENDBRANCH  15  16
ENDBRANCH  13  15
ENDBRANCH  11  12
ENDBRANCH   1  11
TORSDOF 9
ENDMDL
MODEL 8
REMARK VINA RESULT:    -4.425     14.119     15.372
REMARK INTER + INTRA:          -9.021
REMARK INTER:                  -7.816
REMARK INTRA:                  -1.205
REMARK UNBOUND:                -2.268
REMARK SMILES CC(=O)CCC=C(C)CCC=C(C)CCC=C(C)C
REMARK SMILES IDX 10 1 11 2 12 3 13 4 14 5 15 6 16 7 18 8 17 9 19 10 9 11 7 12
REMARK SMILES IDX 6 13 8 14 5 15 4 16 2 17 3 18 1 19
REMARK H PARENT
REMARK Flexibility Score: inf
ROOT
ATOM      1  C   UNL     1     212.766 206.975 215.536  1.00  0.00     0.032 C 
ENDROOT
BRANCH   1   2
ATOM      2  C   UNL     1     213.560 208.236 215.308  1.00  0.00    -0.028 C 
ATOM      3  C   UNL     1     214.637 208.324 214.494  1.00  0.00    -0.077 C 
ATOM      4  C   UNL     1     215.126 207.145 213.685  1.00  0.00     0.039 C 
BRANCH   3   5
ATOM      5  C   UNL     1     215.353 209.652 214.364  1.00  0.00     0.034 C 
BRANCH   5   6
ATOM      6  C   UNL     1     214.986 210.370 213.060  1.00  0.00     0.032 C 
BRANCH   6   7
ATOM      7  C   UNL     1     214.037 211.518 213.321  1.00  0.00    -0.028 C 
ATOM      8  C   UNL     1     215.865 213.186 213.715  1.00  0.00     0.039 C 
ATOM      9  C   UNL     1     214.414 212.776 213.641  1.00  0.00    -0.080 C 
ATOM     10  C   UNL     1     213.341 213.793 213.932  1.00  0.00     0.039 C 
ENDBRANCH   6   7
ENDBRANCH   5   6
ENDBRANCH   3   5
ENDBRANCH   1   2
BRANCH   1  11
ATOM     11  C   UNL     1     212.788 206.576 217.016  1.00  0.00     0.034 C 
BRANCH  11  12
ATOM     12  C   UNL     1     213.053 205.095 217.170  1.00  0.00    -0.077 C 
ATOM     13  C   UNL     1     214.203 204.580 216.680  1.00  0.00    -0.028 C 
ATOM     14  C   UNL     1     212.035 204.239 217.886  1.00  0.00     0.039 C 
BRANCH  13  15
ATOM     15  C   UNL     1     214.575 203.116 216.723  1.00  0.00     0.035 C 
BRANCH  15  16
ATOM     16  C   UNL     1     214.228 202.403 215.411  1.00  0.00     0.079 C 
BRANCH  16  17
ATOM     17  C   UNL     1     212.927 201.647 215.517  1.00  0.00     0.130 C 
ATOM     18  O   UNL     1     212.033 201.873 214.716  1.00  0.00    -0.300 OA
ATOM     19  C   UNL     1     212.710 200.618 216.587  1.00  0.00     0.087 C 
ENDBRANCH  16  17
ENDBRANCH  15  16
ENDBRANCH  13  15
ENDBRANCH  11  12
ENDBRANCH   1  11
TORSDOF 9
ENDMDL
MODEL 9
REMARK VINA RESULT:    -4.394      2.189      3.906
REMARK INTER + INTRA:          -8.974
REMARK INTER:                  -7.241
REMARK INTRA:                  -1.733
REMARK UNBOUND:                -2.268
REMARK SMILES CC(=O)CCC=C(C)CCC=C(C)CCC=C(C)C
REMARK SMILES IDX 10 1 11 2 12 3 13 4 14 5 15 6 16 7 18 8 17 9 19 10 9 11 7 12
REMARK SMILES IDX 6 13 8 14 5 15 4 16 2 17 3 18 1 19
REMARK H PARENT
REMARK Flexibility Score: inf
ROOT
ATOM      1  C   UNL     1     200.112 209.899 216.009  1.00  0.00     0.032 C 
ENDROOT
BRANCH   1   2
ATOM      2  C   UNL     1     199.056 210.713 215.304  1.00  0.00    -0.028 C 
ATOM      3  C   UNL     1     198.375 210.299 214.211  1.00  0.00    -0.077 C 
ATOM      4  C   UNL     1     198.585 208.928 213.611  1.00  0.00     0.039 C 
BRANCH   3   5
ATOM      5  C   UNL     1     197.348 211.223 213.592  1.00  0.00     0.034 C 
BRANCH   5   6
ATOM      6  C   UNL     1     196.563 211.996 214.659  1.00  0.00     0.032 C 
BRANCH   6   7
ATOM      7  C   UNL     1     196.582 213.481 214.378  1.00  0.00    -0.028 C 
ATOM      8  C   UNL     1     197.964 214.037 216.393  1.00  0.00     0.039 C 
ATOM      9  C   UNL     1     197.181 214.409 215.158  1.00  0.00    -0.080 C 
ATOM     10  C   UNL     1     197.054 215.860 214.771  1.00  0.00     0.039 C 
ENDBRANCH   6   7
ENDBRANCH   5   6
ENDBRANCH   3   5
ENDBRANCH   1   2
BRANCH   1  11
ATOM     11  C   UNL     1     199.603 209.409 217.370  1.00  0.00     0.034 C 
BRANCH  11  12
ATOM     12  C   UNL     1     198.884 208.086 217.230  1.00  0.00    -0.077 C 
ATOM     13  C   UNL     1     199.609 206.962 217.030  1.00  0.00    -0.028 C 
ATOM     14  C   UNL     1     197.377 208.055 217.341  1.00  0.00     0.039 C 
BRANCH  13  15
ATOM     15  C   UNL     1     199.022 205.585 216.829  1.00  0.00     0.035 C 
BRANCH  15  16
ATOM     16  C   UNL     1     199.337 205.032 215.434  1.00  0.00     0.079 C 
BRANCH  16  17
ATOM     17  C   UNL     1     198.095 204.529 214.742  1.00  0.00     0.130 C 
ATOM     18  O   UNL     1     197.708 203.390 214.952  1.00  0.00    -0.300 OA
ATOM     19  C   UNL     1     197.320 205.404 213.801  1.00  0.00     0.087 C 
ENDBRANCH  16  17
ENDBRANCH  15  16
ENDBRANCH  13  15
ENDBRANCH  11  12
ENDBRANCH   1  11
TORSDOF 9
ENDMDL
