MODEL 1
REMARK VINA RESULT:    -6.602      0.000      0.000
REMARK INTER + INTRA:          -6.988
REMARK INTER:                  -6.988
REMARK INTRA:                   0.000
REMARK UNBOUND:                 0.000
REMARK SMILES O=c1ccc2cc(O)c(O)cc2o1
REMARK SMILES IDX 4 1 3 2 2 3 1 4 13 5 12 6 11 7 9 8 7 9 6 10 5 11 8 12 10 14
REMARK H PARENT 8 13 10 15
REMARK Flexibility Score: inf
ROOT
ATOM      1  C   UNL     1      19.040   7.533  42.146  1.00  0.00     0.019 A 
ATOM      2  C   UNL     1      17.822   7.170  42.721  1.00  0.00     0.094 A 
ATOM      3  C   UNL     1      17.827   6.437  43.913  1.00  0.00     0.336 A 
ATOM      4  O   UNL     1      16.738   6.099  44.447  1.00  0.00    -0.246 OA
ATOM      5  O   UNL     1      18.976   6.093  44.488  1.00  0.00    -0.423 OA
ATOM      6  C   UNL     1      20.159   6.420  43.974  1.00  0.00     0.142 A 
ATOM      7  C   UNL     1      21.335   6.030  44.623  1.00  0.00     0.098 A 
ATOM      8  C   UNL     1      22.585   6.372  44.085  1.00  0.00     0.161 A 
ATOM      9  C   UNL     1      22.658   7.107  42.892  1.00  0.00     0.158 A 
ATOM     10  C   UNL     1      21.482   7.499  42.236  1.00  0.00     0.062 A 
ATOM     11  C   UNL     1      20.232   7.159  42.773  1.00  0.00     0.022 A 
ENDROOT
BRANCH   9  12
ATOM     12  O   UNL     1      23.904   7.441  42.364  1.00  0.00    -0.504 OA
ATOM     13  H   UNL     1      24.314   6.918  41.600  1.00  0.00     0.293 HD
ENDBRANCH   9  12
BRANCH   8  14
ATOM     14  O   UNL     1      23.758   5.985  44.730  1.00  0.00    -0.504 OA
ATOM     15  H   UNL     1      24.656   6.385  44.482  1.00  0.00     0.293 HD
ENDBRANCH   8  14
TORSDOF 2
ENDMDL
MODEL 2
REMARK VINA RESULT:    -6.595      2.454      3.590
REMARK INTER + INTRA:          -6.980
REMARK INTER:                  -6.980
REMARK INTRA:                   0.000
REMARK UNBOUND:                 0.000
REMARK SMILES O=c1ccc2cc(O)c(O)cc2o1
REMARK SMILES IDX 4 1 3 2 2 3 1 4 13 5 12 6 11 7 9 8 7 9 6 10 5 11 8 12 10 14
REMARK H PARENT 8 13 10 15
REMARK Flexibility Score: inf
ROOT
ATOM      1  C   UNL     1      22.542   8.956  40.981  1.00  0.00     0.019 A 
ATOM      2  C   UNL     1      21.593   9.530  40.137  1.00  0.00     0.094 A 
ATOM      3  C   UNL     1      20.256   9.131  40.247  1.00  0.00     0.336 A 
ATOM      4  O   UNL     1      19.385   9.638  39.494  1.00  0.00    -0.246 OA
ATOM      5  O   UNL     1      19.898   8.217  41.146  1.00  0.00    -0.423 OA
ATOM      6  C   UNL     1      20.772   7.645  41.971  1.00  0.00     0.142 A 
ATOM      7  C   UNL     1      20.337   6.689  42.895  1.00  0.00     0.098 A 
ATOM      8  C   UNL     1      21.254   6.083  43.767  1.00  0.00     0.161 A 
ATOM      9  C   UNL     1      22.610   6.434  43.713  1.00  0.00     0.158 A 
ATOM     10  C   UNL     1      23.052   7.391  42.788  1.00  0.00     0.062 A 
ATOM     11  C   UNL     1      22.137   7.998  41.916  1.00  0.00     0.022 A 
ENDROOT
BRANCH   9  12
ATOM     12  O   UNL     1      23.514   5.825  44.583  1.00  0.00    -0.504 OA
ATOM     13  H   UNL     1      24.109   6.370  45.196  1.00  0.00     0.293 HD
ENDBRANCH   9  12
BRANCH   8  14
ATOM     14  O   UNL     1      20.823   5.130  44.689  1.00  0.00    -0.504 OA
ATOM     15  H   UNL     1      21.299   4.996  45.573  1.00  0.00     0.293 HD
ENDBRANCH   8  14
TORSDOF 2
ENDMDL
MODEL 3
REMARK VINA RESULT:    -6.559      1.861      4.142
REMARK INTER + INTRA:          -6.943
REMARK INTER:                  -6.943
REMARK INTRA:                   0.000
REMARK UNBOUND:                 0.000
REMARK SMILES O=c1ccc2cc(O)c(O)cc2o1
REMARK SMILES IDX 4 1 3 2 2 3 1 4 13 5 12 6 11 7 9 8 7 9 6 10 5 11 8 12 10 14
REMARK H PARENT 8 13 10 15
REMARK Flexibility Score: inf
ROOT
ATOM      1  C   UNL     1      22.668   6.815  43.608  1.00  0.00     0.019 A 
ATOM      2  C   UNL     1      22.995   5.991  44.684  1.00  0.00     0.094 A 
ATOM      3  C   UNL     1      21.968   5.334  45.371  1.00  0.00     0.336 A 
ATOM      4  O   UNL     1      22.243   4.586  46.346  1.00  0.00    -0.246 OA
ATOM      5  O   UNL     1      20.700   5.494  45.002  1.00  0.00    -0.423 OA
ATOM      6  C   UNL     1      20.345   6.270  43.981  1.00  0.00     0.142 A 
ATOM      7  C   UNL     1      18.996   6.401  43.638  1.00  0.00     0.098 A 
ATOM      8  C   UNL     1      18.616   7.218  42.562  1.00  0.00     0.161 A 
ATOM      9  C   UNL     1      19.591   7.907  41.827  1.00  0.00     0.158 A 
ATOM     10  C   UNL     1      20.947   7.781  42.166  1.00  0.00     0.062 A 
ATOM     11  C   UNL     1      21.327   6.964  43.241  1.00  0.00     0.022 A 
ENDROOT
BRANCH   9  12
ATOM     12  O   UNL     1      19.205   8.717  40.760  1.00  0.00    -0.504 OA
ATOM     13  H   UNL     1      18.983   8.328  39.852  1.00  0.00     0.293 HD
ENDBRANCH   9  12
BRANCH   8  14
ATOM     14  O   UNL     1      17.272   7.349  42.219  1.00  0.00    -0.504 OA
ATOM     15  H   UNL     1      16.891   6.910  41.388  1.00  0.00     0.293 HD
ENDBRANCH   8  14
TORSDOF 2
ENDMDL
MODEL 4
REMARK VINA RESULT:    -6.529      2.380      4.397
REMARK INTER + INTRA:          -6.910
REMARK INTER:                  -6.910
REMARK INTRA:                   0.000
REMARK UNBOUND:                 0.000
REMARK SMILES O=c1ccc2cc(O)c(O)cc2o1
REMARK SMILES IDX 4 1 3 2 2 3 1 4 13 5 12 6 11 7 9 8 7 9 6 10 5 11 8 12 10 14
REMARK H PARENT 8 13 10 15
REMARK Flexibility Score: inf
ROOT
ATOM      1  C   UNL     1      20.140   6.558  43.427  1.00  0.00     0.019 A 
ATOM      2  C   UNL     1      21.089   6.020  44.295  1.00  0.00     0.094 A 
ATOM      3  C   UNL     1      22.427   6.405  44.161  1.00  0.00     0.336 A 
ATOM      4  O   UNL     1      23.298   5.931  44.935  1.00  0.00    -0.246 OA
ATOM      5  O   UNL     1      22.787   7.273  43.218  1.00  0.00    -0.423 OA
ATOM      6  C   UNL     1      21.913   7.810  42.370  1.00  0.00     0.142 A 
ATOM      7  C   UNL     1      22.350   8.717  41.399  1.00  0.00     0.098 A 
ATOM      8  C   UNL     1      21.433   9.286  40.502  1.00  0.00     0.161 A 
ATOM      9  C   UNL     1      20.074   8.947  40.578  1.00  0.00     0.158 A 
ATOM     10  C   UNL     1      19.631   8.037  41.549  1.00  0.00     0.062 A 
ATOM     11  C   UNL     1      20.546   7.468  42.446  1.00  0.00     0.022 A 
ENDROOT
BRANCH   9  12
ATOM     12  O   UNL     1      19.171   9.517  39.682  1.00  0.00    -0.504 OA
ATOM     13  H   UNL     1      18.475  10.188  39.986  1.00  0.00     0.293 HD
ENDBRANCH   9  12
BRANCH   8  14
ATOM     14  O   UNL     1      21.865  10.191  39.533  1.00  0.00    -0.504 OA
ATOM     15  H   UNL     1      21.209  10.724  38.975  1.00  0.00     0.293 HD
ENDBRANCH   8  14
TORSDOF 2
ENDMDL
MODEL 5
REMARK VINA RESULT:    -6.499      1.945      3.821
REMARK INTER + INTRA:          -6.879
REMARK INTER:                  -6.879
REMARK INTRA:                   0.000
REMARK UNBOUND:                 0.000
REMARK SMILES O=c1ccc2cc(O)c(O)cc2o1
REMARK SMILES IDX 4 1 3 2 2 3 1 4 13 5 12 6 11 7 9 8 7 9 6 10 5 11 8 12 10 14
REMARK H PARENT 8 13 10 15
REMARK Flexibility Score: inf
ROOT
ATOM      1  C   UNL     1      19.621   8.111  41.454  1.00  0.00     0.019 A 
ATOM      2  C   UNL     1      19.983   9.049  40.489  1.00  0.00     0.094 A 
ATOM      3  C   UNL     1      21.335   9.376  40.335  1.00  0.00     0.336 A 
ATOM      4  O   UNL     1      21.682  10.221  39.469  1.00  0.00    -0.246 OA
ATOM      5  O   UNL     1      22.259   8.800  41.100  1.00  0.00    -0.423 OA
ATOM      6  C   UNL     1      21.956   7.900  42.032  1.00  0.00     0.142 A 
ATOM      7  C   UNL     1      22.970   7.328  42.807  1.00  0.00     0.098 A 
ATOM      8  C   UNL     1      22.656   6.378  43.791  1.00  0.00     0.161 A 
ATOM      9  C   UNL     1      21.322   6.001  44.001  1.00  0.00     0.158 A 
ATOM     10  C   UNL     1      20.300   6.572  43.227  1.00  0.00     0.062 A 
ATOM     11  C   UNL     1      20.613   7.520  42.244  1.00  0.00     0.022 A 
ENDROOT
BRANCH   9  12
ATOM     12  O   UNL     1      21.019   5.057  44.981  1.00  0.00    -0.504 OA
ATOM     13  H   UNL     1      20.858   5.326  45.944  1.00  0.00     0.293 HD
ENDBRANCH   9  12
BRANCH   8  14
ATOM     14  O   UNL     1      23.665   5.806  44.564  1.00  0.00    -0.504 OA
ATOM     15  H   UNL     1      24.637   5.851  44.284  1.00  0.00     0.293 HD
ENDBRANCH   8  14
TORSDOF 2
ENDMDL
MODEL 6
REMARK VINA RESULT:    -6.492      2.116      2.626
REMARK INTER + INTRA:          -6.871
REMARK INTER:                  -6.871
REMARK INTRA:                   0.000
REMARK UNBOUND:                 0.000
REMARK SMILES O=c1ccc2cc(O)c(O)cc2o1
REMARK SMILES IDX 4 1 3 2 2 3 1 4 13 5 12 6 11 7 9 8 7 9 6 10 5 11 8 12 10 14
REMARK H PARENT 8 13 10 15
REMARK Flexibility Score: inf
ROOT
ATOM      1  C   UNL     1      20.919   8.703  41.891  1.00  0.00     0.019 A 
ATOM      2  C   UNL     1      19.843   8.698  41.004  1.00  0.00     0.094 A 
ATOM      3  C   UNL     1      19.135   7.508  40.804  1.00  0.00     0.336 A 
ATOM      4  O   UNL     1      18.161   7.483  40.007  1.00  0.00    -0.246 OA
ATOM      5  O   UNL     1      19.485   6.398  41.451  1.00  0.00    -0.423 OA
ATOM      6  C   UNL     1      20.504   6.360  42.306  1.00  0.00     0.142 A 
ATOM      7  C   UNL     1      20.825   5.165  42.957  1.00  0.00     0.098 A 
ATOM      8  C   UNL     1      21.899   5.120  43.859  1.00  0.00     0.161 A 
ATOM      9  C   UNL     1      22.654   6.274  44.110  1.00  0.00     0.158 A 
ATOM     10  C   UNL     1      22.337   7.476  43.459  1.00  0.00     0.062 A 
ATOM     11  C   UNL     1      21.264   7.523  42.558  1.00  0.00     0.022 A 
ENDROOT
BRANCH   9  12
ATOM     12  O   UNL     1      23.719   6.220  45.007  1.00  0.00    -0.504 OA
ATOM     13  H   UNL     1      24.559   6.769  44.868  1.00  0.00     0.293 HD
ENDBRANCH   9  12
BRANCH   8  14
ATOM     14  O   UNL     1      22.221   3.930  44.510  1.00  0.00    -0.504 OA
ATOM     15  H   UNL     1      21.521   3.223  44.699  1.00  0.00     0.293 HD
ENDBRANCH   8  14
TORSDOF 2
ENDMDL
MODEL 7
REMARK VINA RESULT:    -6.376      2.665      4.280
REMARK INTER + INTRA:          -6.749
REMARK INTER:                  -6.749
REMARK INTRA:                   0.000
REMARK UNBOUND:                 0.000
REMARK SMILES O=c1ccc2cc(O)c(O)cc2o1
REMARK SMILES IDX 4 1 3 2 2 3 1 4 13 5 12 6 11 7 9 8 7 9 6 10 5 11 8 12 10 14
REMARK H PARENT 8 13 10 15
REMARK Flexibility Score: inf
ROOT
ATOM      1  C   UNL     1      22.974   7.483  42.754  1.00  0.00     0.019 A 
ATOM      2  C   UNL     1      22.627   6.608  43.782  1.00  0.00     0.094 A 
ATOM      3  C   UNL     1      21.279   6.280  43.967  1.00  0.00     0.336 A 
ATOM      4  O   UNL     1      20.945   5.492  44.890  1.00  0.00    -0.246 OA
ATOM      5  O   UNL     1      20.345   6.797  43.172  1.00  0.00    -0.423 OA
ATOM      6  C   UNL     1      20.634   7.635  42.180  1.00  0.00     0.142 A 
ATOM      7  C   UNL     1      19.609   8.147  41.377  1.00  0.00     0.098 A 
ATOM      8  C   UNL     1      19.908   9.030  40.329  1.00  0.00     0.161 A 
ATOM      9  C   UNL     1      21.238   9.403  40.084  1.00  0.00     0.158 A 
ATOM     10  C   UNL     1      22.270   8.894  40.886  1.00  0.00     0.062 A 
ATOM     11  C   UNL     1      21.972   8.011  41.934  1.00  0.00     0.022 A 
ENDROOT
BRANCH   9  12
ATOM     12  O   UNL     1      21.526  10.283  39.041  1.00  0.00    -0.504 OA
ATOM     13  H   UNL     1      21.047  10.224  38.151  1.00  0.00     0.293 HD
ENDBRANCH   9  12
BRANCH   8  14
ATOM     14  O   UNL     1      18.889   9.542  39.527  1.00  0.00    -0.504 OA
ATOM     15  H   UNL     1      18.153  10.121  39.912  1.00  0.00     0.293 HD
ENDBRANCH   8  14
TORSDOF 2
ENDMDL
MODEL 8
REMARK VINA RESULT:    -6.323      1.120      2.249
REMARK INTER + INTRA:          -6.692
REMARK INTER:                  -6.692
REMARK INTRA:                   0.000
REMARK UNBOUND:                 0.000
REMARK SMILES O=c1ccc2cc(O)c(O)cc2o1
REMARK SMILES IDX 4 1 3 2 2 3 1 4 13 5 12 6 11 7 9 8 7 9 6 10 5 11 8 12 10 14
REMARK H PARENT 8 13 10 15
REMARK Flexibility Score: inf
ROOT
ATOM      1  C   UNL     1      18.891   6.009  44.589  1.00  0.00     0.019 A 
ATOM      2  C   UNL     1      17.735   6.437  43.938  1.00  0.00     0.094 A 
ATOM      3  C   UNL     1      17.857   7.182  42.759  1.00  0.00     0.336 A 
ATOM      4  O   UNL     1      16.825   7.577  42.157  1.00  0.00    -0.246 OA
ATOM      5  O   UNL     1      19.058   7.476  42.269  1.00  0.00    -0.423 OA
ATOM      6  C   UNL     1      20.186   7.086  42.859  1.00  0.00     0.142 A 
ATOM      7  C   UNL     1      21.421   7.426  42.298  1.00  0.00     0.098 A 
ATOM      8  C   UNL     1      22.613   7.017  42.916  1.00  0.00     0.161 A 
ATOM      9  C   UNL     1      22.568   6.268  44.100  1.00  0.00     0.158 A 
ATOM     10  C   UNL     1      21.332   5.925  44.668  1.00  0.00     0.062 A 
ATOM     11  C   UNL     1      20.140   6.332  44.052  1.00  0.00     0.022 A 
ENDROOT
BRANCH   9  12
ATOM     12  O   UNL     1      23.757   5.867  44.708  1.00  0.00    -0.504 OA
ATOM     13  H   UNL     1      24.549   6.494  44.788  1.00  0.00     0.293 HD
ENDBRANCH   9  12
BRANCH   8  14
ATOM     14  O   UNL     1      23.845   7.354  42.358  1.00  0.00    -0.504 OA
ATOM     15  H   UNL     1      24.519   6.645  42.094  1.00  0.00     0.293 HD
ENDBRANCH   8  14
TORSDOF 2
ENDMDL
MODEL 9
REMARK VINA RESULT:    -6.259      1.093      4.592
REMARK INTER + INTRA:          -6.625
REMARK INTER:                  -6.625
REMARK INTRA:                   0.000
REMARK UNBOUND:                 0.000
REMARK SMILES O=c1ccc2cc(O)c(O)cc2o1
REMARK SMILES IDX 4 1 3 2 2 3 1 4 13 5 12 6 11 7 9 8 7 9 6 10 5 11 8 12 10 14
REMARK H PARENT 8 13 10 15
REMARK Flexibility Score: inf
ROOT
ATOM      1  C   UNL     1      21.154   7.511  42.100  1.00  0.00     0.019 A 
ATOM      2  C   UNL     1      22.333   7.161  42.758  1.00  0.00     0.094 A 
ATOM      3  C   UNL     1      22.253   6.572  44.024  1.00  0.00     0.336 A 
ATOM      4  O   UNL     1      23.306   6.249  44.634  1.00  0.00    -0.246 OA
ATOM      5  O   UNL     1      21.070   6.351  44.592  1.00  0.00    -0.423 OA
ATOM      6  C   UNL     1      19.922   6.670  43.999  1.00  0.00     0.142 A 
ATOM      7  C   UNL     1      18.708   6.413  44.644  1.00  0.00     0.098 A 
ATOM      8  C   UNL     1      17.495   6.747  44.024  1.00  0.00     0.161 A 
ATOM      9  C   UNL     1      17.497   7.340  42.753  1.00  0.00     0.158 A 
ATOM     10  C   UNL     1      18.712   7.600  42.101  1.00  0.00     0.062 A 
ATOM     11  C   UNL     1      19.924   7.267  42.720  1.00  0.00     0.022 A 
ENDROOT
BRANCH   9  12
ATOM     12  O   UNL     1      16.287   7.670  42.144  1.00  0.00    -0.504 OA
ATOM     13  H   UNL     1      16.209   8.456  41.510  1.00  0.00     0.293 HD
ENDBRANCH   9  12
BRANCH   8  14
ATOM     14  O   UNL     1      16.283   6.493  44.665  1.00  0.00    -0.504 OA
ATOM     15  H   UNL     1      16.155   5.676  45.250  1.00  0.00     0.293 HD
ENDBRANCH   8  14
TORSDOF 2
ENDMDL
