MODEL 1
REMARK VINA RESULT:    -4.349      0.000      0.000
REMARK INTER + INTRA:          -9.094
REMARK INTER:                  -8.162
REMARK INTRA:                  -0.932
REMARK UNBOUND:                -0.932
REMARK SMILES O=C([O-])CCCCCCCCCCCCCCC(=O)[O-]
REMARK SMILES IDX 10 1 9 2 8 3 7 4 6 5 5 6 4 7 2 8 1 9 3 10 11 11 12 12 13 13
REMARK SMILES IDX 14 14 15 15 16 16 17 17 18 18 19 19 20 20
REMARK H PARENT
REMARK Flexibility Score: inf
ROOT
ATOM      1  C   UNL     1       6.257  -6.816  -9.189  1.00  0.00     0.000 C 
ENDROOT
BRANCH   1   2
ATOM      2  C   UNL     1       6.020  -8.130  -8.420  1.00  0.00     0.000 C 
BRANCH   2   3
ATOM      3  C   UNL     1       4.729  -8.883  -8.798  1.00  0.00     0.000 C 
BRANCH   3   4
ATOM      4  C   UNL     1       3.421  -8.171  -8.409  1.00  0.00     0.000 C 
BRANCH   4   5
ATOM      5  C   UNL     1       2.645  -7.644  -9.625  1.00  0.00     0.000 C 
BRANCH   5   6
ATOM      6  C   UNL     1       2.268  -6.167  -9.438  1.00  0.00     0.006 C 
BRANCH   6   7
ATOM      7  C   UNL     1       2.637  -5.645  -8.043  1.00  0.00     0.053 C 
BRANCH   7   8
ATOM      8  C   UNL     1       1.880  -4.399  -7.697  1.00  0.00     0.041 C 
ATOM      9  O   UNL     1       1.467  -3.635  -8.609  1.00  0.00    -0.550 OA
ATOM     10  O   UNL     1       1.601  -4.100  -6.370  1.00  0.00    -0.550 OA
ENDBRANCH   7   8
ENDBRANCH   6   7
ENDBRANCH   5   6
ENDBRANCH   4   5
ENDBRANCH   3   4
ENDBRANCH   2   3
ENDBRANCH   1   2
BRANCH   1  11
ATOM     11  C   UNL     1       7.701  -6.603  -9.687  1.00  0.00     0.000 C 
BRANCH  11  12
ATOM     12  C   UNL     1       8.109  -5.132  -9.884  1.00  0.00     0.000 C 
BRANCH  12  13
ATOM     13  C   UNL     1       9.004  -4.606  -8.753  1.00  0.00     0.000 C 
BRANCH  13  14
ATOM     14  C   UNL     1       8.953  -3.072  -8.682  1.00  0.00     0.000 C 
BRANCH  14  15
ATOM     15  C   UNL     1       9.270  -2.524  -7.278  1.00  0.00     0.000 C 
BRANCH  15  16
ATOM     16  C   UNL     1       8.082  -1.867  -6.553  1.00  0.00     0.006 C 
BRANCH  16  17
ATOM     17  C   UNL     1       8.465  -1.284  -5.186  1.00  0.00     0.053 C 
BRANCH  17  18
ATOM     18  C   UNL     1       7.294  -1.326  -4.255  1.00  0.00     0.041 C 
ATOM     19  O   UNL     1       7.469  -1.536  -3.027  1.00  0.00    -0.550 OA
ATOM     20  O   UNL     1       6.005  -1.181  -4.752  1.00  0.00    -0.550 OA
ENDBRANCH  17  18
ENDBRANCH  16  17
ENDBRANCH  15  16
ENDBRANCH  14  15
ENDBRANCH  13  14
ENDBRANCH  12  13
ENDBRANCH  11  12
ENDBRANCH   1  11
TORSDOF 15
ENDMDL
MODEL 2
REMARK VINA RESULT:    -3.979     13.688     16.720
REMARK INTER + INTRA:          -8.400
REMARK INTER:                  -6.262
REMARK INTRA:                  -2.138
REMARK UNBOUND:                -0.932
REMARK SMILES O=C([O-])CCCCCCCCCCCCCCC(=O)[O-]
REMARK SMILES IDX 10 1 9 2 8 3 7 4 6 5 5 6 4 7 2 8 1 9 3 10 11 11 12 12 13 13
REMARK SMILES IDX 14 14 15 15 16 16 17 17 18 18 19 19 20 20
REMARK H PARENT
REMARK Flexibility Score: inf
ROOT
ATOM      1  C   UNL     1       4.057   1.756   8.433  1.00  0.00     0.000 C 
ENDROOT
BRANCH   1   2
ATOM      2  C   UNL     1       4.834   0.530   8.950  1.00  0.00     0.000 C 
BRANCH   2   3
ATOM      3  C   UNL     1       6.341   0.762   9.180  1.00  0.00     0.000 C 
BRANCH   3   4
ATOM      4  C   UNL     1       7.242   0.429   7.977  1.00  0.00     0.000 C 
BRANCH   4   5
ATOM      5  C   UNL     1       7.459  -1.080   7.794  1.00  0.00     0.000 C 
BRANCH   5   6
ATOM      6  C   UNL     1       8.468  -1.357   6.670  1.00  0.00     0.006 C 
BRANCH   6   7
ATOM      7  C   UNL     1       8.898  -0.075   5.945  1.00  0.00     0.053 C 
BRANCH   7   8
ATOM      8  C   UNL     1       8.766  -0.206   4.458  1.00  0.00     0.041 C 
ATOM      9  O   UNL     1       8.538  -1.330   3.939  1.00  0.00    -0.550 OA
ATOM     10  O   UNL     1       8.859   0.919   3.650  1.00  0.00    -0.550 OA
ENDBRANCH   7   8
ENDBRANCH   6   7
ENDBRANCH   5   6
ENDBRANCH   4   5
ENDBRANCH   3   4
ENDBRANCH   2   3
ENDBRANCH   1   2
BRANCH   1  11
ATOM     11  C   UNL     1       3.827   2.869   9.474  1.00  0.00     0.000 C 
BRANCH  11  12
ATOM     12  C   UNL     1       4.148   4.293   8.985  1.00  0.00     0.000 C 
BRANCH  12  13
ATOM     13  C   UNL     1       5.656   4.562   8.884  1.00  0.00     0.000 C 
BRANCH  13  14
ATOM     14  C   UNL     1       6.080   4.773   7.422  1.00  0.00     0.000 C 
BRANCH  14  15
ATOM     15  C   UNL     1       7.513   4.290   7.137  1.00  0.00     0.000 C 
BRANCH  15  16
ATOM     16  C   UNL     1       7.681   3.483   5.837  1.00  0.00     0.006 C 
BRANCH  16  17
ATOM     17  C   UNL     1       6.407   2.729   5.433  1.00  0.00     0.053 C 
BRANCH  17  18
ATOM     18  C   UNL     1       6.007   3.089   4.037  1.00  0.00     0.041 C 
ATOM     19  O   UNL     1       5.625   2.196   3.237  1.00  0.00    -0.550 OA
ATOM     20  O   UNL     1       6.104   4.406   3.603  1.00  0.00    -0.550 OA
ENDBRANCH  17  18
ENDBRANCH  16  17
ENDBRANCH  15  16
ENDBRANCH  14  15
ENDBRANCH  13  14
ENDBRANCH  12  13
ENDBRANCH  11  12
ENDBRANCH   1  11
TORSDOF 15
ENDMDL
MODEL 3
REMARK VINA RESULT:    -3.956     14.235     17.481
REMARK INTER + INTRA:          -8.357
REMARK INTER:                  -6.934
REMARK INTRA:                  -1.422
REMARK UNBOUND:                -0.932
REMARK SMILES O=C([O-])CCCCCCCCCCCCCCC(=O)[O-]
REMARK SMILES IDX 10 1 9 2 8 3 7 4 6 5 5 6 4 7 2 8 1 9 3 10 11 11 12 12 13 13
REMARK SMILES IDX 14 14 15 15 16 16 17 17 18 18 19 19 20 20
REMARK H PARENT
REMARK Flexibility Score: inf
ROOT
ATOM      1  C   UNL     1      -8.789   7.065  -1.576  1.00  0.00     0.000 C 
ENDROOT
BRANCH   1   2
ATOM      2  C   UNL     1      -7.866   6.424  -0.522  1.00  0.00     0.000 C 
BRANCH   2   3
ATOM      3  C   UNL     1      -6.412   6.936  -0.531  1.00  0.00     0.000 C 
BRANCH   3   4
ATOM      4  C   UNL     1      -5.334   5.841  -0.435  1.00  0.00     0.000 C 
BRANCH   4   5
ATOM      5  C   UNL     1      -4.876   5.334  -1.810  1.00  0.00     0.000 C 
BRANCH   5   6
ATOM      6  C   UNL     1      -3.530   5.959  -2.205  1.00  0.00     0.006 C 
BRANCH   6   7
ATOM      7  C   UNL     1      -2.415   5.617  -1.208  1.00  0.00     0.053 C 
BRANCH   7   8
ATOM      8  C   UNL     1      -1.085   6.140  -1.660  1.00  0.00     0.041 C 
ATOM      9  O   UNL     1      -0.860   6.322  -2.886  1.00  0.00    -0.550 OA
ATOM     10  O   UNL     1      -0.108   6.458  -0.726  1.00  0.00    -0.550 OA
ENDBRANCH   7   8
ENDBRANCH   6   7
ENDBRANCH   5   6
ENDBRANCH   4   5
ENDBRANCH   3   4
ENDBRANCH   2   3
ENDBRANCH   1   2
BRANCH   1  11
ATOM     11  C   UNL     1      -9.284   6.109  -2.679  1.00  0.00     0.000 C 
BRANCH  11  12
ATOM     12  C   UNL     1      -8.745   6.411  -4.089  1.00  0.00     0.000 C 
BRANCH  12  13
ATOM     13  C   UNL     1      -7.247   6.745  -4.096  1.00  0.00     0.000 C 
BRANCH  13  14
ATOM     14  C   UNL     1      -6.648   6.550  -5.498  1.00  0.00     0.000 C 
BRANCH  14  15
ATOM     15  C   UNL     1      -5.397   5.654  -5.497  1.00  0.00     0.000 C 
BRANCH  15  16
ATOM     16  C   UNL     1      -5.612   4.236  -6.055  1.00  0.00     0.006 C 
BRANCH  16  17
ATOM     17  C   UNL     1      -5.950   4.227  -7.552  1.00  0.00     0.053 C 
BRANCH  17  18
ATOM     18  C   UNL     1      -7.350   3.743  -7.768  1.00  0.00     0.041 C 
ATOM     19  O   UNL     1      -8.149   3.664  -6.800  1.00  0.00    -0.550 OA
ATOM     20  O   UNL     1      -7.756   3.331  -9.031  1.00  0.00    -0.550 OA
ENDBRANCH  17  18
ENDBRANCH  16  17
ENDBRANCH  15  16
ENDBRANCH  14  15
ENDBRANCH  13  14
ENDBRANCH  12  13
ENDBRANCH  11  12
ENDBRANCH   1  11
TORSDOF 15
ENDMDL
MODEL 4
REMARK VINA RESULT:    -3.857     17.796     20.181
REMARK INTER + INTRA:          -8.171
REMARK INTER:                  -7.436
REMARK INTRA:                  -0.735
REMARK UNBOUND:                -0.932
REMARK SMILES O=C([O-])CCCCCCCCCCCCCCC(=O)[O-]
REMARK SMILES IDX 10 1 9 2 8 3 7 4 6 5 5 6 4 7 2 8 1 9 3 10 11 11 12 12 13 13
REMARK SMILES IDX 14 14 15 15 16 16 17 17 18 18 19 19 20 20
REMARK H PARENT
REMARK Flexibility Score: inf
ROOT
ATOM      1  C   UNL     1      -4.653  -7.424   7.379  1.00  0.00     0.000 C 
ENDROOT
BRANCH   1   2
ATOM      2  C   UNL     1      -3.937  -8.788   7.348  1.00  0.00     0.000 C 
BRANCH   2   3
ATOM      3  C   UNL     1      -2.646  -8.866   8.188  1.00  0.00     0.000 C 
BRANCH   3   4
ATOM      4  C   UNL     1      -2.307 -10.266   8.731  1.00  0.00     0.000 C 
BRANCH   4   5
ATOM      5  C   UNL     1      -0.796 -10.495   8.888  1.00  0.00     0.000 C 
BRANCH   5   6
ATOM      6  C   UNL     1      -0.029  -9.167   8.812  1.00  0.00     0.006 C 
BRANCH   6   7
ATOM      7  C   UNL     1       1.426  -9.309   9.279  1.00  0.00     0.053 C 
BRANCH   7   8
ATOM      8  C   UNL     1       2.386  -9.265   8.129  1.00  0.00     0.041 C 
ATOM      9  O   UNL     1       3.591  -8.956   8.321  1.00  0.00    -0.550 OA
ATOM     10  O   UNL     1       1.957  -9.599   6.851  1.00  0.00    -0.550 OA
ENDBRANCH   7   8
ENDBRANCH   6   7
ENDBRANCH   5   6
ENDBRANCH   4   5
ENDBRANCH   3   4
ENDBRANCH   2   3
ENDBRANCH   1   2
BRANCH   1  11
ATOM     11  C   UNL     1      -4.944  -6.871   8.788  1.00  0.00     0.000 C 
BRANCH  11  12
ATOM     12  C   UNL     1      -6.247  -7.382   9.430  1.00  0.00     0.000 C 
BRANCH  12  13
ATOM     13  C   UNL     1      -7.207  -6.247   9.815  1.00  0.00     0.000 C 
BRANCH  13  14
ATOM     14  C   UNL     1      -6.570  -4.875   9.544  1.00  0.00     0.000 C 
BRANCH  14  15
ATOM     15  C   UNL     1      -7.570  -3.850   8.979  1.00  0.00     0.000 C 
BRANCH  15  16
ATOM     16  C   UNL     1      -7.736  -2.572   9.820  1.00  0.00     0.006 C 
BRANCH  16  17
ATOM     17  C   UNL     1      -8.092  -1.342   8.974  1.00  0.00     0.053 C 
BRANCH  17  18
ATOM     18  C   UNL     1      -7.032  -0.295   9.103  1.00  0.00     0.041 C 
ATOM     19  O   UNL     1      -7.290   0.906   8.829  1.00  0.00    -0.550 OA
ATOM     20  O   UNL     1      -5.742  -0.653   9.478  1.00  0.00    -0.550 OA
ENDBRANCH  17  18
ENDBRANCH  16  17
ENDBRANCH  15  16
ENDBRANCH  14  15
ENDBRANCH  13  14
ENDBRANCH  12  13
ENDBRANCH  11  12
ENDBRANCH   1  11
TORSDOF 15
ENDMDL
MODEL 5
REMARK VINA RESULT:    -3.843     18.496     20.294
REMARK INTER + INTRA:          -8.145
REMARK INTER:                  -6.887
REMARK INTRA:                  -1.258
REMARK UNBOUND:                -0.932
REMARK SMILES O=C([O-])CCCCCCCCCCCCCCC(=O)[O-]
REMARK SMILES IDX 10 1 9 2 8 3 7 4 6 5 5 6 4 7 2 8 1 9 3 10 11 11 12 12 13 13
REMARK SMILES IDX 14 14 15 15 16 16 17 17 18 18 19 19 20 20
REMARK H PARENT
REMARK Flexibility Score: inf
ROOT
ATOM      1  C   UNL     1      -3.752  -8.241   7.160  1.00  0.00     0.000 C 
ENDROOT
BRANCH   1   2
ATOM      2  C   UNL     1      -3.060  -8.794   8.421  1.00  0.00     0.000 C 
BRANCH   2   3
ATOM      3  C   UNL     1      -3.190 -10.317   8.622  1.00  0.00     0.000 C 
BRANCH   3   4
ATOM      4  C   UNL     1      -4.524 -10.783   9.233  1.00  0.00     0.000 C 
BRANCH   4   5
ATOM      5  C   UNL     1      -5.260 -11.803   8.351  1.00  0.00     0.000 C 
BRANCH   5   6
ATOM      6  C   UNL     1      -6.719 -11.381   8.125  1.00  0.00     0.006 C 
BRANCH   6   7
ATOM      7  C   UNL     1      -6.849 -10.286   7.058  1.00  0.00     0.053 C 
BRANCH   7   8
ATOM      8  C   UNL     1      -6.857 -10.856   5.673  1.00  0.00     0.041 C 
ATOM      9  O   UNL     1      -5.811 -10.830   4.971  1.00  0.00    -0.550 OA
ATOM     10  O   UNL     1      -8.008 -11.448   5.170  1.00  0.00    -0.550 OA
ENDBRANCH   7   8
ENDBRANCH   6   7
ENDBRANCH   5   6
ENDBRANCH   4   5
ENDBRANCH   3   4
ENDBRANCH   2   3
ENDBRANCH   1   2
BRANCH   1  11
ATOM     11  C   UNL     1      -4.803  -7.144   7.420  1.00  0.00     0.000 C 
BRANCH  11  12
ATOM     12  C   UNL     1      -5.603  -7.307   8.725  1.00  0.00     0.000 C 
BRANCH  12  13
ATOM     13  C   UNL     1      -5.611  -6.033   9.583  1.00  0.00     0.000 C 
BRANCH  13  14
ATOM     14  C   UNL     1      -6.965  -5.314   9.483  1.00  0.00     0.000 C 
BRANCH  14  15
ATOM     15  C   UNL     1      -6.876  -3.817   9.829  1.00  0.00     0.000 C 
BRANCH  15  16
ATOM     16  C   UNL     1      -7.647  -2.883   8.879  1.00  0.00     0.006 C 
BRANCH  16  17
ATOM     17  C   UNL     1      -7.957  -1.517   9.505  1.00  0.00     0.053 C 
BRANCH  17  18
ATOM     18  C   UNL     1      -6.904  -0.521   9.133  1.00  0.00     0.041 C 
ATOM     19  O   UNL     1      -7.152   0.376   8.286  1.00  0.00    -0.550 OA
ATOM     20  O   UNL     1      -5.632  -0.614   9.684  1.00  0.00    -0.550 OA
ENDBRANCH  17  18
ENDBRANCH  16  17
ENDBRANCH  15  16
ENDBRANCH  14  15
ENDBRANCH  13  14
ENDBRANCH  12  13
ENDBRANCH  11  12
ENDBRANCH   1  11
TORSDOF 15
ENDMDL
MODEL 6
REMARK VINA RESULT:    -3.818     12.833     15.497
REMARK INTER + INTRA:          -8.098
REMARK INTER:                  -7.068
REMARK INTRA:                  -1.030
REMARK UNBOUND:                -0.932
REMARK SMILES O=C([O-])CCCCCCCCCCCCCCC(=O)[O-]
REMARK SMILES IDX 10 1 9 2 8 3 7 4 6 5 5 6 4 7 2 8 1 9 3 10 11 11 12 12 13 13
REMARK SMILES IDX 14 14 15 15 16 16 17 17 18 18 19 19 20 20
REMARK H PARENT
REMARK Flexibility Score: inf
ROOT
ATOM      1  C   UNL     1      -8.546  -5.205  -4.781  1.00  0.00     0.000 C 
ENDROOT
BRANCH   1   2
ATOM      2  C   UNL     1      -9.543  -6.277  -4.301  1.00  0.00     0.000 C 
BRANCH   2   3
ATOM      3  C   UNL     1      -8.963  -7.700  -4.179  1.00  0.00     0.000 C 
BRANCH   3   4
ATOM      4  C   UNL     1     -10.009  -8.824  -4.074  1.00  0.00     0.000 C 
BRANCH   4   5
ATOM      5  C   UNL     1      -9.459 -10.193  -4.500  1.00  0.00     0.000 C 
BRANCH   5   6
ATOM      6  C   UNL     1      -9.268 -10.258  -6.023  1.00  0.00     0.006 C 
BRANCH   6   7
ATOM      7  C   UNL     1      -9.560 -11.655  -6.586  1.00  0.00     0.053 C 
BRANCH   7   8
ATOM      8  C   UNL     1      -8.880 -11.879  -7.902  1.00  0.00     0.041 C 
ATOM      9  O   UNL     1      -8.972 -12.993  -8.481  1.00  0.00    -0.550 OA
ATOM     10  O   UNL     1      -8.173 -10.846  -8.504  1.00  0.00    -0.550 OA
ENDBRANCH   7   8
ENDBRANCH   6   7
ENDBRANCH   5   6
ENDBRANCH   4   5
ENDBRANCH   3   4
ENDBRANCH   2   3
ENDBRANCH   1   2
BRANCH   1  11
ATOM     11  C   UNL     1      -8.253  -4.084  -3.764  1.00  0.00     0.000 C 
BRANCH  11  12
ATOM     12  C   UNL     1      -8.141  -2.673  -4.368  1.00  0.00     0.000 C 
BRANCH  12  13
ATOM     13  C   UNL     1      -9.463  -2.177  -4.973  1.00  0.00     0.000 C 
BRANCH  13  14
ATOM     14  C   UNL     1      -9.237  -1.584  -6.373  1.00  0.00     0.000 C 
BRANCH  14  15
ATOM     15  C   UNL     1      -9.864  -2.434  -7.492  1.00  0.00     0.000 C 
BRANCH  15  16
ATOM     16  C   UNL     1      -8.891  -3.389  -8.207  1.00  0.00     0.006 C 
BRANCH  16  17
ATOM     17  C   UNL     1      -7.422  -3.122  -7.850  1.00  0.00     0.053 C 
BRANCH  17  18
ATOM     18  C   UNL     1      -6.541  -3.395  -9.028  1.00  0.00     0.041 C 
ATOM     19  O   UNL     1      -6.936  -4.151  -9.953  1.00  0.00    -0.550 OA
ATOM     20  O   UNL     1      -5.263  -2.852  -9.081  1.00  0.00    -0.550 OA
ENDBRANCH  17  18
ENDBRANCH  16  17
ENDBRANCH  15  16
ENDBRANCH  14  15
ENDBRANCH  13  14
ENDBRANCH  12  13
ENDBRANCH  11  12
ENDBRANCH   1  11
TORSDOF 15
ENDMDL
MODEL 7
REMARK VINA RESULT:    -3.772     13.859     17.099
REMARK INTER + INTRA:          -8.012
REMARK INTER:                  -5.700
REMARK INTRA:                  -2.311
REMARK UNBOUND:                -0.932
REMARK SMILES O=C([O-])CCCCCCCCCCCCCCC(=O)[O-]
REMARK SMILES IDX 10 1 9 2 8 3 7 4 6 5 5 6 4 7 2 8 1 9 3 10 11 11 12 12 13 13
REMARK SMILES IDX 14 14 15 15 16 16 17 17 18 18 19 19 20 20
REMARK H PARENT
REMARK Flexibility Score: inf
ROOT
ATOM      1  C   UNL     1       3.431   2.265   8.974  1.00  0.00     0.000 C 
ENDROOT
BRANCH   1   2
ATOM      2  C   UNL     1       4.106   3.412   9.752  1.00  0.00     0.000 C 
BRANCH   2   3
ATOM      3  C   UNL     1       4.827   4.457   8.878  1.00  0.00     0.000 C 
BRANCH   3   4
ATOM      4  C   UNL     1       6.361   4.465   9.005  1.00  0.00     0.000 C 
BRANCH   4   5
ATOM      5  C   UNL     1       7.072   4.234   7.663  1.00  0.00     0.000 C 
BRANCH   5   6
ATOM      6  C   UNL     1       6.056   3.966   6.543  1.00  0.00     0.006 C 
BRANCH   6   7
ATOM      7  C   UNL     1       6.548   2.901   5.554  1.00  0.00     0.053 C 
BRANCH   7   8
ATOM      8  C   UNL     1       6.226   3.265   4.137  1.00  0.00     0.041 C 
ATOM      9  O   UNL     1       5.903   2.371   3.311  1.00  0.00    -0.550 OA
ATOM     10  O   UNL     1       6.247   4.595   3.738  1.00  0.00    -0.550 OA
ENDBRANCH   7   8
ENDBRANCH   6   7
ENDBRANCH   5   6
ENDBRANCH   4   5
ENDBRANCH   3   4
ENDBRANCH   2   3
ENDBRANCH   1   2
BRANCH   1  11
ATOM     11  C   UNL     1       4.398   1.214   8.393  1.00  0.00     0.000 C 
BRANCH  11  12
ATOM     12  C   UNL     1       4.846   0.126   9.385  1.00  0.00     0.000 C 
BRANCH  12  13
ATOM     13  C   UNL     1       6.289  -0.341   9.146  1.00  0.00     0.000 C 
BRANCH  13  14
ATOM     14  C   UNL     1       7.266   0.844   9.210  1.00  0.00     0.000 C 
BRANCH  14  15
ATOM     15  C   UNL     1       8.515   0.640   8.334  1.00  0.00     0.000 C 
BRANCH  15  16
ATOM     16  C   UNL     1       8.245   0.028   6.948  1.00  0.00     0.006 C 
BRANCH  16  17
ATOM     17  C   UNL     1       9.312   0.404   5.910  1.00  0.00     0.053 C 
BRANCH  17  18
ATOM     18  C   UNL     1       8.854   0.036   4.534  1.00  0.00     0.041 C 
ATOM     19  O   UNL     1       8.160  -0.998   4.353  1.00  0.00    -0.550 OA
ATOM     20  O   UNL     1       9.235   0.809   3.444  1.00  0.00    -0.550 OA
ENDBRANCH  17  18
ENDBRANCH  16  17
ENDBRANCH  15  16
ENDBRANCH  14  15
ENDBRANCH  13  14
ENDBRANCH  12  13
ENDBRANCH  11  12
ENDBRANCH   1  11
TORSDOF 15
ENDMDL
MODEL 8
REMARK VINA RESULT:    -3.768     13.596     16.478
REMARK INTER + INTRA:          -8.003
REMARK INTER:                  -6.914
REMARK INTRA:                  -1.090
REMARK UNBOUND:                -0.932
REMARK SMILES O=C([O-])CCCCCCCCCCCCCCC(=O)[O-]
REMARK SMILES IDX 10 1 9 2 8 3 7 4 6 5 5 6 4 7 2 8 1 9 3 10 11 11 12 12 13 13
REMARK SMILES IDX 14 14 15 15 16 16 17 17 18 18 19 19 20 20
REMARK H PARENT
REMARK Flexibility Score: inf
ROOT
ATOM      1  C   UNL     1      -8.241  -5.831  -4.489  1.00  0.00     0.000 C 
ENDROOT
BRANCH   1   2
ATOM      2  C   UNL     1      -7.859  -4.557  -3.712  1.00  0.00     0.000 C 
BRANCH   2   3
ATOM      3  C   UNL     1      -8.930  -3.448  -3.708  1.00  0.00     0.000 C 
BRANCH   3   4
ATOM      4  C   UNL     1      -8.661  -2.279  -4.673  1.00  0.00     0.000 C 
BRANCH   4   5
ATOM      5  C   UNL     1      -9.699  -2.186  -5.801  1.00  0.00     0.000 C 
BRANCH   5   6
ATOM      6  C   UNL     1      -9.013  -2.136  -7.175  1.00  0.00     0.006 C 
BRANCH   6   7
ATOM      7  C   UNL     1      -7.927  -3.210  -7.322  1.00  0.00     0.053 C 
BRANCH   7   8
ATOM      8  C   UNL     1      -7.241  -3.129  -8.651  1.00  0.00     0.041 C 
ATOM      9  O   UNL     1      -6.504  -4.073  -9.042  1.00  0.00    -0.550 OA
ATOM     10  O   UNL     1      -7.443  -2.029  -9.473  1.00  0.00    -0.550 OA
ENDBRANCH   7   8
ENDBRANCH   6   7
ENDBRANCH   5   6
ENDBRANCH   4   5
ENDBRANCH   3   4
ENDBRANCH   2   3
ENDBRANCH   1   2
BRANCH   1  11
ATOM     11  C   UNL     1      -9.733  -6.214  -4.421  1.00  0.00     0.000 C 
BRANCH  11  12
ATOM     12  C   UNL     1     -10.017  -7.627  -3.880  1.00  0.00     0.000 C 
BRANCH  12  13
ATOM     13  C   UNL     1      -9.391  -8.732  -4.743  1.00  0.00     0.000 C 
BRANCH  13  14
ATOM     14  C   UNL     1      -9.516 -10.101  -4.056  1.00  0.00     0.000 C 
BRANCH  14  15
ATOM     15  C   UNL     1      -9.045 -10.082  -2.590  1.00  0.00     0.000 C 
BRANCH  15  16
ATOM     16  C   UNL     1      -9.818 -11.022  -1.647  1.00  0.00     0.006 C 
BRANCH  16  17
ATOM     17  C   UNL     1      -9.254 -12.449  -1.633  1.00  0.00     0.053 C 
BRANCH  17  18
ATOM     18  C   UNL     1      -7.981 -12.499  -0.848  1.00  0.00     0.041 C 
ATOM     19  O   UNL     1      -7.960 -12.117   0.351  1.00  0.00    -0.550 OA
ATOM     20  O   UNL     1      -6.805 -12.922  -1.455  1.00  0.00    -0.550 OA
ENDBRANCH  17  18
ENDBRANCH  16  17
ENDBRANCH  15  16
ENDBRANCH  14  15
ENDBRANCH  13  14
ENDBRANCH  12  13
ENDBRANCH  11  12
ENDBRANCH   1  11
TORSDOF 15
ENDMDL
