MODEL 1
REMARK VINA RESULT:    -0.669      0.000      0.000
REMARK INTER + INTRA:          -0.487
REMARK INTER:                  -0.747
REMARK INTRA:                   0.260
REMARK UNBOUND:                 0.260
REMARK SMILES O=C([O-])c1ccccc1C(=O)[O-]
REMARK SMILES IDX 4 1 9 2 5 3 8 4 6 5 7 6 2 7 1 8 3 9 10 10 11 11 12 12
REMARK H PARENT
REMARK Flexibility Score: inf
ROOT
ATOM      1  C   UNL     1     138.311 128.030 129.489  1.00  0.00     0.006 A 
ATOM      2  C   UNL     1     137.614 127.753 130.699  1.00  0.00     0.006 A 
ATOM      3  C   UNL     1     139.678 128.356 129.547  1.00  0.00     0.010 A 
ATOM      4  C   UNL     1     138.297 127.877 131.925  1.00  0.00     0.010 A 
ATOM      5  C   UNL     1     140.340 128.452 130.772  1.00  0.00     0.001 A 
ATOM      6  C   UNL     1     139.647 128.224 131.959  1.00  0.00     0.001 A 
ENDROOT
BRANCH   1   7
ATOM      7  C   UNL     1     137.646 128.061 128.167  1.00  0.00     0.072 C 
ATOM      8  O   UNL     1     136.752 127.223 127.874  1.00  0.00    -0.545 OA
ATOM      9  O   UNL     1     137.957 129.062 127.253  1.00  0.00    -0.545 OA
ENDBRANCH   1   7
BRANCH   2  10
ATOM     10  C   UNL     1     136.215 127.269 130.725  1.00  0.00     0.072 C 
ATOM     11  O   UNL     1     135.972 126.037 130.831  1.00  0.00    -0.545 OA
ATOM     12  O   UNL     1     135.156 128.155 130.567  1.00  0.00    -0.545 OA
ENDBRANCH   2  10
TORSDOF 2
ENDMDL
MODEL 2
REMARK VINA RESULT:    -0.594      0.077      2.942
REMARK INTER + INTRA:          -0.403
REMARK INTER:                  -0.620
REMARK INTRA:                   0.217
REMARK UNBOUND:                 0.260
REMARK SMILES O=C([O-])c1ccccc1C(=O)[O-]
REMARK SMILES IDX 4 1 9 2 5 3 8 4 6 5 7 6 2 7 1 8 3 9 10 10 11 11 12 12
REMARK H PARENT
REMARK Flexibility Score: inf
ROOT
ATOM      1  C   UNL     1     137.598 127.770 130.684  1.00  0.00     0.006 A 
ATOM      2  C   UNL     1     138.265 128.046 129.457  1.00  0.00     0.006 A 
ATOM      3  C   UNL     1     138.311 127.886 131.891  1.00  0.00     0.010 A 
ATOM      4  C   UNL     1     139.637 128.364 129.481  1.00  0.00     0.010 A 
ATOM      5  C   UNL     1     139.665 128.223 131.893  1.00  0.00     0.001 A 
ATOM      6  C   UNL     1     140.329 128.450 130.689  1.00  0.00     0.001 A 
ENDROOT
BRANCH   1   7
ATOM      7  C   UNL     1     136.197 127.296 130.749  1.00  0.00     0.072 C 
ATOM      8  O   UNL     1     135.936 126.081 130.956  1.00  0.00    -0.545 OA
ATOM      9  O   UNL     1     135.148 128.203 130.649  1.00  0.00    -0.545 OA
ENDBRANCH   1   7
BRANCH   2  10
ATOM     10  C   UNL     1     137.562 128.085 128.154  1.00  0.00     0.072 C 
ATOM     11  O   UNL     1     136.698 127.212 127.874  1.00  0.00    -0.545 OA
ATOM     12  O   UNL     1     137.891 129.041 127.200  1.00  0.00    -0.545 OA
ENDBRANCH   2  10
TORSDOF 2
ENDMDL
MODEL 3
REMARK VINA RESULT:     0.487      2.512      4.378
REMARK INTER + INTRA:           0.804
REMARK INTER:                   0.597
REMARK INTRA:                   0.207
REMARK UNBOUND:                 0.260
REMARK SMILES O=C([O-])c1ccccc1C(=O)[O-]
REMARK SMILES IDX 4 1 9 2 5 3 8 4 6 5 7 6 2 7 1 8 3 9 10 10 11 11 12 12
REMARK H PARENT
REMARK Flexibility Score: inf
ROOT
ATOM      1  C   UNL     1     138.110 127.694 131.098  1.00  0.00     0.006 A 
ATOM      2  C   UNL     1     138.664 128.119 129.857  1.00  0.00     0.006 A 
ATOM      3  C   UNL     1     136.868 127.034 131.101  1.00  0.00     0.010 A 
ATOM      4  C   UNL     1     137.924 127.925 128.675  1.00  0.00     0.010 A 
ATOM      5  C   UNL     1     136.161 126.833 129.915  1.00  0.00     0.001 A 
ATOM      6  C   UNL     1     136.683 127.288 128.706  1.00  0.00     0.001 A 
ENDROOT
BRANCH   1   7
ATOM      7  C   UNL     1     138.749 127.977 132.403  1.00  0.00     0.072 C 
ATOM      8  O   UNL     1     138.746 127.116 133.323  1.00  0.00    -0.545 OA
ATOM      9  O   UNL     1     139.419 129.178 132.606  1.00  0.00    -0.545 OA
ENDBRANCH   1   7
BRANCH   2  10
ATOM     10  C   UNL     1     140.023 128.695 129.743  1.00  0.00     0.072 C 
ATOM     11  O   UNL     1     141.033 127.942 129.736  1.00  0.00    -0.545 OA
ATOM     12  O   UNL     1     140.208 130.073 129.708  1.00  0.00    -0.545 OA
ENDBRANCH   2  10
TORSDOF 2
ENDMDL
MODEL 4
REMARK VINA RESULT:     0.491      2.505      3.524
REMARK INTER + INTRA:           0.809
REMARK INTER:                   0.580
REMARK INTRA:                   0.229
REMARK UNBOUND:                 0.260
REMARK SMILES O=C([O-])c1ccccc1C(=O)[O-]
REMARK SMILES IDX 4 1 9 2 5 3 8 4 6 5 7 6 2 7 1 8 3 9 10 10 11 11 12 12
REMARK H PARENT
REMARK Flexibility Score: inf
ROOT
ATOM      1  C   UNL     1     138.650 128.165 129.809  1.00  0.00     0.006 A 
ATOM      2  C   UNL     1     138.104 127.732 131.050  1.00  0.00     0.006 A 
ATOM      3  C   UNL     1     137.914 127.958 128.629  1.00  0.00     0.010 A 
ATOM      4  C   UNL     1     136.871 127.050 131.053  1.00  0.00     0.010 A 
ATOM      5  C   UNL     1     136.685 127.299 128.658  1.00  0.00     0.001 A 
ATOM      6  C   UNL     1     136.171 126.836 129.867  1.00  0.00     0.001 A 
ENDROOT
BRANCH   1   7
ATOM      7  C   UNL     1     139.998 128.766 129.690  1.00  0.00     0.072 C 
ATOM      8  O   UNL     1     140.144 130.015 129.619  1.00  0.00    -0.545 OA
ATOM      9  O   UNL     1     141.128 127.956 129.721  1.00  0.00    -0.545 OA
ENDBRANCH   1   7
BRANCH   2  10
ATOM     10  C   UNL     1     138.741 128.030 132.353  1.00  0.00     0.072 C 
ATOM     11  O   UNL     1     139.342 129.122 132.531  1.00  0.00    -0.545 OA
ATOM     12  O   UNL     1     138.741 127.085 133.374  1.00  0.00    -0.545 OA
ENDBRANCH   2  10
TORSDOF 2
ENDMDL
MODEL 5
REMARK VINA RESULT:     2.301      1.703      3.073
REMARK INTER + INTRA:           2.830
REMARK INTER:                   2.386
REMARK INTRA:                   0.444
REMARK UNBOUND:                 0.260
REMARK SMILES O=C([O-])c1ccccc1C(=O)[O-]
REMARK SMILES IDX 4 1 9 2 5 3 8 4 6 5 7 6 2 7 1 8 3 9 10 10 11 11 12 12
REMARK H PARENT
REMARK Flexibility Score: inf
ROOT
ATOM      1  C   UNL     1     137.672 127.750 130.087  1.00  0.00     0.006 A 
ATOM      2  C   UNL     1     138.906 128.123 130.690  1.00  0.00     0.006 A 
ATOM      3  C   UNL     1     136.639 127.250 130.900  1.00  0.00     0.010 A 
ATOM      4  C   UNL     1     139.081 127.921 132.073  1.00  0.00     0.010 A 
ATOM      5  C   UNL     1     136.826 127.078 132.272  1.00  0.00     0.001 A 
ATOM      6  C   UNL     1     138.050 127.402 132.854  1.00  0.00     0.001 A 
ENDROOT
BRANCH   1   7
ATOM      7  C   UNL     1     137.444 127.796 128.625  1.00  0.00     0.072 C 
ATOM      8  O   UNL     1     136.610 127.027 128.078  1.00  0.00    -0.545 OA
ATOM      9  O   UNL     1     138.103 128.741 127.847  1.00  0.00    -0.545 OA
ENDBRANCH   1   7
BRANCH   2  10
ATOM     10  C   UNL     1     139.997 128.785 129.938  1.00  0.00     0.072 C 
ATOM     11  O   UNL     1     140.980 128.114 129.524  1.00  0.00    -0.545 OA
ATOM     12  O   UNL     1     139.986 130.160 129.736  1.00  0.00    -0.545 OA
ENDBRANCH   2  10
TORSDOF 2
ENDMDL
MODEL 6
REMARK VINA RESULT:     2.310      1.722      2.997
REMARK INTER + INTRA:           2.840
REMARK INTER:                   2.279
REMARK INTRA:                   0.562
REMARK UNBOUND:                 0.260
REMARK SMILES O=C([O-])c1ccccc1C(=O)[O-]
REMARK SMILES IDX 4 1 9 2 5 3 8 4 6 5 7 6 2 7 1 8 3 9 10 10 11 11 12 12
REMARK H PARENT
REMARK Flexibility Score: inf
ROOT
ATOM      1  C   UNL     1     138.981 128.141 130.756  1.00  0.00     0.006 A 
ATOM      2  C   UNL     1     137.717 127.759 130.225  1.00  0.00     0.006 A 
ATOM      3  C   UNL     1     139.234 127.945 132.126  1.00  0.00     0.010 A 
ATOM      4  C   UNL     1     136.732 127.257 131.097  1.00  0.00     0.010 A 
ATOM      5  C   UNL     1     138.250 127.426 132.968  1.00  0.00     0.001 A 
ATOM      6  C   UNL     1     136.998 127.094 132.456  1.00  0.00     0.001 A 
ENDROOT
BRANCH   1   7
ATOM      7  C   UNL     1     140.028 128.803 129.945  1.00  0.00     0.072 C 
ATOM      8  O   UNL     1     139.976 130.040 129.710  1.00  0.00    -0.545 OA
ATOM      9  O   UNL     1     141.120 128.076 129.488  1.00  0.00    -0.545 OA
ENDBRANCH   1   7
BRANCH   2  10
ATOM     10  C   UNL     1     137.412 127.799 128.776  1.00  0.00     0.072 C 
ATOM     11  O   UNL     1     136.568 127.004 128.284  1.00  0.00    -0.545 OA
ATOM     12  O   UNL     1     138.096 128.666 127.932  1.00  0.00    -0.545 OA
ENDBRANCH   2  10
TORSDOF 2
ENDMDL
