MODEL 1
REMARK VINA RESULT:    -5.004      0.000      0.000
REMARK INTER + INTRA:          -9.178
REMARK INTER:                  -7.637
REMARK INTRA:                  -1.540
REMARK UNBOUND:                -1.540
REMARK SMILES OC[C@@H]1O[C@H](O[C@]2(CO)O[C@@H](CO)[C@H](O)[C@@H]2O)[C@@H](O)[C@H](O)[C@H]1O
REMARK SMILES IDX 6 1 5 2 3 3 22 4 4 5 20 6 18 7 2 8 1 9 23 11 21 13 19 15
REMARK SMILES IDX 7 17 16 18 10 19 14 20 11 21 8 22 9 23 17 25 15 27 12 29
REMARK SMILES IDX 13 30
REMARK H PARENT 1 10 23 12 21 14 19 16 9 24 17 26 15 28 13 31
REMARK Flexibility Score: inf
ROOT
ATOM      1  O   UNL     1      22.313  23.450  11.691  1.00  0.00    -0.313 OA
ENDROOT
BRANCH   1   2
ATOM      2  C   UNL     1      22.866  24.384  10.771  1.00  0.00     0.285 C 
ATOM      3  C   UNL     1      20.901  24.719   9.416  1.00  0.00     0.178 C 
ATOM      4  C   UNL     1      20.633  26.121  10.037  1.00  0.00     0.177 C 
ATOM      5  O   UNL     1      22.249  24.260   9.496  1.00  0.00    -0.341 OA
ATOM      6  C   UNL     1      21.338  26.327  11.388  1.00  0.00     0.179 C 
ATOM      7  C   UNL     1      22.781  25.817  11.340  1.00  0.00     0.202 C 
BRANCH   3   8
ATOM      8  C   UNL     1      19.862  23.640   9.790  1.00  0.00     0.191 C 
BRANCH   8   9
ATOM      9  O   UNL     1      19.260  23.888  11.028  1.00  0.00    -0.394 OA
ATOM     10  H   UNL     1      19.991  23.892  11.700  1.00  0.00     0.210 HD
ENDBRANCH   8   9
ENDBRANCH   3   8
BRANCH   4  11
ATOM     11  O   UNL     1      21.058  27.125   9.147  1.00  0.00    -0.387 OA
ATOM     12  H   UNL     1      20.242  27.577   8.804  1.00  0.00     0.211 HD
ENDBRANCH   4  11
BRANCH   6  13
ATOM     13  O   UNL     1      20.640  25.670  12.417  1.00  0.00    -0.387 OA
ATOM     14  H   UNL     1      21.167  24.863  12.654  1.00  0.00     0.211 HD
ENDBRANCH   6  13
BRANCH   7  15
ATOM     15  O   UNL     1      23.604  26.707  10.626  1.00  0.00    -0.385 OA
ATOM     16  H   UNL     1      24.037  26.211   9.884  1.00  0.00     0.211 HD
ENDBRANCH   7  15
ENDBRANCH   1   2
BRANCH   1  17
ATOM     17  C   UNL     1      23.272  22.733  12.472  1.00  0.00     0.224 C 
ATOM     18  C   UNL     1      23.383  23.291  13.906  1.00  0.00     0.208 C 
ATOM     19  O   UNL     1      22.806  21.400  12.576  1.00  0.00    -0.337 OA
ATOM     20  C   UNL     1      23.645  22.052  14.722  1.00  0.00     0.180 C 
ATOM     21  C   UNL     1      22.922  20.972  13.917  1.00  0.00     0.179 C 
BRANCH  17  22
ATOM     22  C   UNL     1      24.659  22.671  11.777  1.00  0.00     0.225 C 
BRANCH  22  23
ATOM     23  O   UNL     1      24.745  21.519  10.982  1.00  0.00    -0.391 OA
ATOM     24  H   UNL     1      24.012  21.576  10.313  1.00  0.00     0.210 HD
ENDBRANCH  22  23
ENDBRANCH  17  22
BRANCH  18  25
ATOM     25  O   UNL     1      22.163  23.878  14.292  1.00  0.00    -0.385 OA
ATOM     26  H   UNL     1      22.056  24.703  13.751  1.00  0.00     0.211 HD
ENDBRANCH  18  25
BRANCH  20  27
ATOM     27  O   UNL     1      23.121  22.169  16.022  1.00  0.00    -0.387 OA
ATOM     28  H   UNL     1      22.523  21.389  16.159  1.00  0.00     0.211 HD
ENDBRANCH  20  27
BRANCH  21  29
ATOM     29  C   UNL     1      23.654  19.622  13.957  1.00  0.00     0.191 C 
BRANCH  29  30
ATOM     30  O   UNL     1      23.921  19.155  12.662  1.00  0.00    -0.394 OA
ATOM     31  H   UNL     1      24.306  18.246  12.762  1.00  0.00     0.210 HD
ENDBRANCH  29  30
ENDBRANCH  21  29
ENDBRANCH   1  17
TORSDOF 13
ENDMDL
MODEL 2
REMARK VINA RESULT:    -4.611      1.910      2.963
REMARK INTER + INTRA:          -8.577
REMARK INTER:                  -7.073
REMARK INTRA:                  -1.504
REMARK UNBOUND:                -1.540
REMARK SMILES OC[C@@H]1O[C@H](O[C@]2(CO)O[C@@H](CO)[C@H](O)[C@@H]2O)[C@@H](O)[C@H](O)[C@H]1O
REMARK SMILES IDX 6 1 5 2 3 3 22 4 4 5 20 6 18 7 2 8 1 9 23 11 21 13 19 15
REMARK SMILES IDX 7 17 16 18 10 19 14 20 11 21 8 22 9 23 17 25 15 27 12 29
REMARK SMILES IDX 13 30
REMARK H PARENT 1 10 23 12 21 14 19 16 9 24 17 26 15 28 13 31
REMARK Flexibility Score: inf
ROOT
ATOM      1  O   UNL     1      21.553  24.640  10.944  1.00  0.00    -0.313 OA
ENDROOT
BRANCH   1   2
ATOM      2  C   UNL     1      21.501  24.738   9.526  1.00  0.00     0.285 C 
ATOM      3  C   UNL     1      19.115  24.521   9.263  1.00  0.00     0.178 C 
ATOM      4  C   UNL     1      18.946  26.039   8.959  1.00  0.00     0.177 C 
ATOM      5  O   UNL     1      20.413  23.985   9.007  1.00  0.00    -0.341 OA
ATOM      6  C   UNL     1      20.135  26.886   9.441  1.00  0.00     0.179 C 
ATOM      7  C   UNL     1      21.467  26.218   9.088  1.00  0.00     0.202 C 
BRANCH   3   8
ATOM      8  C   UNL     1      18.518  24.064  10.612  1.00  0.00     0.191 C 
BRANCH   8   9
ATOM      9  O   UNL     1      19.082  22.867  11.064  1.00  0.00    -0.394 OA
ATOM     10  H   UNL     1      19.387  23.034  11.994  1.00  0.00     0.210 HD
ENDBRANCH   8   9
ENDBRANCH   3   8
BRANCH   4  11
ATOM     11  O   UNL     1      18.785  26.231   7.575  1.00  0.00    -0.387 OA
ATOM     12  H   UNL     1      18.749  25.330   7.156  1.00  0.00     0.211 HD
ENDBRANCH   4  11
BRANCH   6  13
ATOM     13  O   UNL     1      20.065  27.094  10.830  1.00  0.00    -0.387 OA
ATOM     14  H   UNL     1      20.832  26.611  11.233  1.00  0.00     0.211 HD
ENDBRANCH   6  13
BRANCH   7  15
ATOM     15  O   UNL     1      21.752  26.361   7.718  1.00  0.00    -0.385 OA
ATOM     16  H   UNL     1      21.554  25.502   7.263  1.00  0.00     0.211 HD
ENDBRANCH   7  15
ENDBRANCH   1   2
BRANCH   1  17
ATOM     17  C   UNL     1      22.830  24.281  11.478  1.00  0.00     0.224 C 
ATOM     18  C   UNL     1      22.742  23.052  12.408  1.00  0.00     0.208 C 
ATOM     19  O   UNL     1      23.650  23.919  10.382  1.00  0.00    -0.337 OA
ATOM     20  C   UNL     1      24.047  22.346  12.144  1.00  0.00     0.180 C 
ATOM     21  C   UNL     1      24.333  22.721  10.690  1.00  0.00     0.179 C 
BRANCH  17  22
ATOM     22  C   UNL     1      23.524  25.478  12.182  1.00  0.00     0.225 C 
BRANCH  22  23
ATOM     23  O   UNL     1      24.293  26.197  11.256  1.00  0.00    -0.391 OA
ATOM     24  H   UNL     1      24.421  27.108  11.635  1.00  0.00     0.210 HD
ENDBRANCH  22  23
ENDBRANCH  17  22
BRANCH  18  25
ATOM     25  O   UNL     1      21.661  22.235  12.028  1.00  0.00    -0.385 OA
ATOM     26  H   UNL     1      21.852  21.912  11.109  1.00  0.00     0.211 HD
ENDBRANCH  18  25
BRANCH  20  27
ATOM     27  O   UNL     1      23.924  20.955  12.307  1.00  0.00    -0.387 OA
ATOM     28  H   UNL     1      24.840  20.604  12.454  1.00  0.00     0.211 HD
ENDBRANCH  20  27
BRANCH  21  29
ATOM     29  C   UNL     1      25.833  22.908  10.416  1.00  0.00     0.191 C 
BRANCH  29  30
ATOM     30  O   UNL     1      26.604  22.399  11.471  1.00  0.00    -0.394 OA
ATOM     31  H   UNL     1      26.750  23.151  12.103  1.00  0.00     0.210 HD
ENDBRANCH  29  30
ENDBRANCH  21  29
ENDBRANCH   1  17
TORSDOF 13
ENDMDL
MODEL 3
REMARK VINA RESULT:    -4.556      1.695      2.260
REMARK INTER + INTRA:          -8.494
REMARK INTER:                  -7.155
REMARK INTRA:                  -1.338
REMARK UNBOUND:                -1.540
REMARK SMILES OC[C@@H]1O[C@H](O[C@]2(CO)O[C@@H](CO)[C@H](O)[C@@H]2O)[C@@H](O)[C@H](O)[C@H]1O
REMARK SMILES IDX 6 1 5 2 3 3 22 4 4 5 20 6 18 7 2 8 1 9 23 11 21 13 19 15
REMARK SMILES IDX 7 17 16 18 10 19 14 20 11 21 8 22 9 23 17 25 15 27 12 29
REMARK SMILES IDX 13 30
REMARK H PARENT 1 10 23 12 21 14 19 16 9 24 17 26 15 28 13 31
REMARK Flexibility Score: inf
ROOT
ATOM      1  O   UNL     1      23.006  22.659  13.158  1.00  0.00    -0.313 OA
ENDROOT
BRANCH   1   2
ATOM      2  C   UNL     1      23.890  23.262  12.221  1.00  0.00     0.285 C 
ATOM      3  C   UNL     1      22.238  23.978  10.619  1.00  0.00     0.178 C 
ATOM      4  C   UNL     1      22.360  25.466  11.061  1.00  0.00     0.177 C 
ATOM      5  O   UNL     1      23.372  23.159  10.901  1.00  0.00    -0.341 OA
ATOM      6  C   UNL     1      22.981  25.630  12.458  1.00  0.00     0.179 C 
ATOM      7  C   UNL     1      24.199  24.718  12.630  1.00  0.00     0.202 C 
BRANCH   3   8
ATOM      8  C   UNL     1      20.893  23.308  10.974  1.00  0.00     0.191 C 
BRANCH   8   9
ATOM      9  O   UNL     1      19.911  24.241  11.323  1.00  0.00    -0.394 OA
ATOM     10  H   UNL     1      19.322  24.339  10.530  1.00  0.00     0.210 HD
ENDBRANCH   8   9
ENDBRANCH   3   8
BRANCH   4  11
ATOM     11  O   UNL     1      23.142  26.176  10.132  1.00  0.00    -0.387 OA
ATOM     12  H   UNL     1      23.341  27.063  10.534  1.00  0.00     0.211 HD
ENDBRANCH   4  11
BRANCH   6  13
ATOM     13  O   UNL     1      22.035  25.346  13.458  1.00  0.00    -0.387 OA
ATOM     14  H   UNL     1      21.167  25.197  13.001  1.00  0.00     0.211 HD
ENDBRANCH   6  13
BRANCH   7  15
ATOM     15  O   UNL     1      25.310  25.228  11.933  1.00  0.00    -0.385 OA
ATOM     16  H   UNL     1      25.401  26.192  12.147  1.00  0.00     0.211 HD
ENDBRANCH   7  15
ENDBRANCH   1   2
BRANCH   1  17
ATOM     17  C   UNL     1      23.645  21.932  14.211  1.00  0.00     0.224 C 
ATOM     18  C   UNL     1      23.724  22.754  15.515  1.00  0.00     0.208 C 
ATOM     19  O   UNL     1      22.842  20.798  14.478  1.00  0.00    -0.337 OA
ATOM     20  C   UNL     1      23.557  21.700  16.578  1.00  0.00     0.180 C 
ATOM     21  C   UNL     1      22.682  20.663  15.875  1.00  0.00     0.179 C 
BRANCH  17  22
ATOM     22  C   UNL     1      25.043  21.404  13.787  1.00  0.00     0.225 C 
BRANCH  22  23
ATOM     23  O   UNL     1      24.952  20.052  13.423  1.00  0.00    -0.391 OA
ATOM     24  H   UNL     1      25.552  19.925  12.640  1.00  0.00     0.210 HD
ENDBRANCH  22  23
ENDBRANCH  17  22
BRANCH  18  25
ATOM     25  O   UNL     1      22.661  23.674  15.571  1.00  0.00    -0.385 OA
ATOM     26  H   UNL     1      22.553  23.933  16.523  1.00  0.00     0.211 HD
ENDBRANCH  18  25
BRANCH  20  27
ATOM     27  O   UNL     1      22.930  22.217  17.725  1.00  0.00    -0.387 OA
ATOM     28  H   UNL     1      23.618  22.241  18.439  1.00  0.00     0.211 HD
ENDBRANCH  20  27
BRANCH  21  29
ATOM     29  C   UNL     1      23.029  19.224  16.288  1.00  0.00     0.191 C 
BRANCH  29  30
ATOM     30  O   UNL     1      23.299  19.146  17.662  1.00  0.00    -0.394 OA
ATOM     31  H   UNL     1      23.740  18.270  17.815  1.00  0.00     0.210 HD
ENDBRANCH  29  30
ENDBRANCH  21  29
ENDBRANCH   1  17
TORSDOF 13
ENDMDL
MODEL 4
REMARK VINA RESULT:    -4.461      1.229      2.146
REMARK INTER + INTRA:          -8.348
REMARK INTER:                  -6.755
REMARK INTRA:                  -1.594
REMARK UNBOUND:                -1.540
REMARK SMILES OC[C@@H]1O[C@H](O[C@]2(CO)O[C@@H](CO)[C@H](O)[C@@H]2O)[C@@H](O)[C@H](O)[C@H]1O
REMARK SMILES IDX 6 1 5 2 3 3 22 4 4 5 20 6 18 7 2 8 1 9 23 11 21 13 19 15
REMARK SMILES IDX 7 17 16 18 10 19 14 20 11 21 8 22 9 23 17 25 15 27 12 29
REMARK SMILES IDX 13 30
REMARK H PARENT 1 10 23 12 21 14 19 16 9 24 17 26 15 28 13 31
REMARK Flexibility Score: inf
ROOT
ATOM      1  O   UNL     1      22.847  24.460  12.294  1.00  0.00    -0.313 OA
ENDROOT
BRANCH   1   2
ATOM      2  C   UNL     1      21.889  24.139  11.294  1.00  0.00     0.285 C 
ATOM      3  C   UNL     1      20.438  26.039  11.601  1.00  0.00     0.178 C 
ATOM      4  C   UNL     1      20.951  26.724  10.300  1.00  0.00     0.177 C 
ATOM      5  O   UNL     1      20.602  24.623  11.655  1.00  0.00    -0.341 OA
ATOM      6  C   UNL     1      22.312  26.182   9.831  1.00  0.00     0.179 C 
ATOM      7  C   UNL     1      22.355  24.654   9.915  1.00  0.00     0.202 C 
BRANCH   3   8
ATOM      8  C   UNL     1      20.843  26.754  12.908  1.00  0.00     0.191 C 
BRANCH   8   9
ATOM      9  O   UNL     1      20.741  25.917  14.025  1.00  0.00    -0.394 OA
ATOM     10  H   UNL     1      21.384  26.266  14.696  1.00  0.00     0.210 HD
ENDBRANCH   8   9
ENDBRANCH   3   8
BRANCH   4  11
ATOM     11  O   UNL     1      20.013  26.546   9.267  1.00  0.00    -0.387 OA
ATOM     12  H   UNL     1      20.126  25.618   8.926  1.00  0.00     0.211 HD
ENDBRANCH   4  11
BRANCH   6  13
ATOM     13  O   UNL     1      23.354  26.726  10.603  1.00  0.00    -0.387 OA
ATOM     14  H   UNL     1      22.934  27.189  11.372  1.00  0.00     0.211 HD
ENDBRANCH   6  13
BRANCH   7  15
ATOM     15  O   UNL     1      21.616  24.073   8.867  1.00  0.00    -0.385 OA
ATOM     16  H   UNL     1      20.858  24.673   8.646  1.00  0.00     0.211 HD
ENDBRANCH   7  15
ENDBRANCH   1   2
BRANCH   1  17
ATOM     17  C   UNL     1      23.645  23.361  12.741  1.00  0.00     0.224 C 
ATOM     18  C   UNL     1      23.639  23.230  14.279  1.00  0.00     0.208 C 
ATOM     19  O   UNL     1      23.057  22.184  12.218  1.00  0.00    -0.337 OA
ATOM     20  C   UNL     1      23.698  21.739  14.482  1.00  0.00     0.180 C 
ATOM     21  C   UNL     1      22.982  21.211  13.239  1.00  0.00     0.179 C 
BRANCH  17  22
ATOM     22  C   UNL     1      25.092  23.427  12.181  1.00  0.00     0.225 C 
BRANCH  22  23
ATOM     23  O   UNL     1      25.356  24.713  11.689  1.00  0.00    -0.391 OA
ATOM     24  H   UNL     1      25.824  25.207  12.413  1.00  0.00     0.210 HD
ENDBRANCH  22  23
ENDBRANCH  17  22
BRANCH  18  25
ATOM     25  O   UNL     1      22.439  23.745  14.803  1.00  0.00    -0.385 OA
ATOM     26  H   UNL     1      21.852  22.970  14.996  1.00  0.00     0.211 HD
ENDBRANCH  18  25
BRANCH  20  27
ATOM     27  O   UNL     1      23.042  21.352  15.664  1.00  0.00    -0.387 OA
ATOM     28  H   UNL     1      22.672  20.447  15.500  1.00  0.00     0.211 HD
ENDBRANCH  20  27
BRANCH  21  29
ATOM     29  C   UNL     1      23.585  19.893  12.729  1.00  0.00     0.191 C 
BRANCH  29  30
ATOM     30  O   UNL     1      23.332  18.844  13.625  1.00  0.00    -0.394 OA
ATOM     31  H   UNL     1      23.429  19.222  14.538  1.00  0.00     0.210 HD
ENDBRANCH  29  30
ENDBRANCH  21  29
ENDBRANCH   1  17
TORSDOF 13
ENDMDL
MODEL 5
REMARK VINA RESULT:    -4.454      1.894      3.013
REMARK INTER + INTRA:          -8.338
REMARK INTER:                  -7.028
REMARK INTRA:                  -1.310
REMARK UNBOUND:                -1.540
REMARK SMILES OC[C@@H]1O[C@H](O[C@]2(CO)O[C@@H](CO)[C@H](O)[C@@H]2O)[C@@H](O)[C@H](O)[C@H]1O
REMARK SMILES IDX 6 1 5 2 3 3 22 4 4 5 20 6 18 7 2 8 1 9 23 11 21 13 19 15
REMARK SMILES IDX 7 17 16 18 10 19 14 20 11 21 8 22 9 23 17 25 15 27 12 29
REMARK SMILES IDX 13 30
REMARK H PARENT 1 10 23 12 21 14 19 16 9 24 17 26 15 28 13 31
REMARK Flexibility Score: inf
ROOT
ATOM      1  O   UNL     1      24.181  23.087  13.136  1.00  0.00    -0.313 OA
ENDROOT
BRANCH   1   2
ATOM      2  C   UNL     1      23.111  23.246  12.213  1.00  0.00     0.285 C 
ATOM      3  C   UNL     1      22.154  25.248  13.153  1.00  0.00     0.178 C 
ATOM      4  C   UNL     1      22.723  26.136  12.008  1.00  0.00     0.177 C 
ATOM      5  O   UNL     1      21.994  23.866  12.836  1.00  0.00    -0.341 OA
ATOM      6  C   UNL     1      23.891  25.475  11.257  1.00  0.00     0.179 C 
ATOM      7  C   UNL     1      23.591  24.004  10.956  1.00  0.00     0.202 C 
BRANCH   3   8
ATOM      8  C   UNL     1      22.796  25.491  14.536  1.00  0.00     0.191 C 
BRANCH   8   9
ATOM      9  O   UNL     1      22.510  24.464  15.442  1.00  0.00    -0.394 OA
ATOM     10  H   UNL     1      22.533  23.618  14.923  1.00  0.00     0.210 HD
ENDBRANCH   8   9
ENDBRANCH   3   8
BRANCH   4  11
ATOM     11  O   UNL     1      21.704  26.434  11.085  1.00  0.00    -0.387 OA
ATOM     12  H   UNL     1      21.706  25.710  10.403  1.00  0.00     0.211 HD
ENDBRANCH   4  11
BRANCH   6  13
ATOM     13  O   UNL     1      25.078  25.570  12.004  1.00  0.00    -0.387 OA
ATOM     14  H   UNL     1      25.679  24.847  11.687  1.00  0.00     0.211 HD
ENDBRANCH   6  13
BRANCH   7  15
ATOM     15  O   UNL     1      22.672  23.886   9.897  1.00  0.00    -0.385 OA
ATOM     16  H   UNL     1      22.866  24.594   9.231  1.00  0.00     0.211 HD
ENDBRANCH   7  15
ENDBRANCH   1   2
BRANCH   1  17
ATOM     17  C   UNL     1      24.633  21.742  13.311  1.00  0.00     0.224 C 
ATOM     18  C   UNL     1      24.186  21.154  14.667  1.00  0.00     0.208 C 
ATOM     19  O   UNL     1      24.024  20.965  12.296  1.00  0.00    -0.337 OA
ATOM     20  C   UNL     1      23.939  19.706  14.331  1.00  0.00     0.180 C 
ATOM     21  C   UNL     1      23.512  19.778  12.866  1.00  0.00     0.179 C 
BRANCH  17  22
ATOM     22  C   UNL     1      26.168  21.613  13.114  1.00  0.00     0.225 C 
BRANCH  22  23
ATOM     23  O   UNL     1      26.570  22.358  11.996  1.00  0.00    -0.391 OA
ATOM     24  H   UNL     1      25.872  22.232  11.300  1.00  0.00     0.210 HD
ENDBRANCH  22  23
ENDBRANCH  17  22
BRANCH  18  25
ATOM     25  O   UNL     1      22.991  21.766  15.088  1.00  0.00    -0.385 OA
ATOM     26  H   UNL     1      22.943  21.659  16.073  1.00  0.00     0.211 HD
ENDBRANCH  18  25
BRANCH  20  27
ATOM     27  O   UNL     1      22.931  19.153  15.140  1.00  0.00    -0.387 OA
ATOM     28  H   UNL     1      23.333  19.004  16.035  1.00  0.00     0.211 HD
ENDBRANCH  20  27
BRANCH  21  29
ATOM     29  C   UNL     1      24.005  18.572  12.051  1.00  0.00     0.191 C 
BRANCH  29  30
ATOM     30  O   UNL     1      23.264  17.421  12.358  1.00  0.00    -0.394 OA
ATOM     31  H   UNL     1      23.798  16.647  12.039  1.00  0.00     0.210 HD
ENDBRANCH  29  30
ENDBRANCH  21  29
ENDBRANCH   1  17
TORSDOF 13
ENDMDL
MODEL 6
REMARK VINA RESULT:    -4.445      1.849      3.112
REMARK INTER + INTRA:          -8.325
REMARK INTER:                  -8.492
REMARK INTRA:                   0.167
REMARK UNBOUND:                -1.540
REMARK SMILES OC[C@@H]1O[C@H](O[C@]2(CO)O[C@@H](CO)[C@H](O)[C@@H]2O)[C@@H](O)[C@H](O)[C@H]1O
REMARK SMILES IDX 6 1 5 2 3 3 22 4 4 5 20 6 18 7 2 8 1 9 23 11 21 13 19 15
REMARK SMILES IDX 7 17 16 18 10 19 14 20 11 21 8 22 9 23 17 25 15 27 12 29
REMARK SMILES IDX 13 30
REMARK H PARENT 1 10 23 12 21 14 19 16 9 24 17 26 15 28 13 31
REMARK Flexibility Score: inf
ROOT
ATOM      1  O   UNL     1      22.897  22.596  13.575  1.00  0.00    -0.313 OA
ENDROOT
BRANCH   1   2
ATOM      2  C   UNL     1      23.254  23.970  13.483  1.00  0.00     0.285 C 
ATOM      3  C   UNL     1      24.191  23.923  11.263  1.00  0.00     0.178 C 
ATOM      4  C   UNL     1      22.947  24.634  10.653  1.00  0.00     0.177 C 
ATOM      5  O   UNL     1      24.399  24.140  12.658  1.00  0.00    -0.341 OA
ATOM      6  C   UNL     1      21.699  24.536  11.546  1.00  0.00     0.179 C 
ATOM      7  C   UNL     1      22.047  24.810  13.012  1.00  0.00     0.202 C 
BRANCH   3   8
ATOM      8  C   UNL     1      24.363  22.449  10.839  1.00  0.00     0.191 C 
BRANCH   8   9
ATOM      9  O   UNL     1      25.569  22.226  10.167  1.00  0.00    -0.394 OA
ATOM     10  H   UNL     1      25.884  23.114   9.854  1.00  0.00     0.210 HD
ENDBRANCH   8   9
ENDBRANCH   3   8
BRANCH   4  11
ATOM     11  O   UNL     1      23.238  25.992  10.429  1.00  0.00    -0.387 OA
ATOM     12  H   UNL     1      22.379  26.443  10.209  1.00  0.00     0.211 HD
ENDBRANCH   4  11
BRANCH   6  13
ATOM     13  O   UNL     1      21.106  23.266  11.432  1.00  0.00    -0.387 OA
ATOM     14  H   UNL     1      21.031  22.899  12.350  1.00  0.00     0.211 HD
ENDBRANCH   6  13
BRANCH   7  15
ATOM     15  O   UNL     1      22.255  26.185  13.229  1.00  0.00    -0.385 OA
ATOM     16  H   UNL     1      23.005  26.485  12.654  1.00  0.00     0.211 HD
ENDBRANCH   7  15
ENDBRANCH   1   2
BRANCH   1  17
ATOM     17  C   UNL     1      23.607  21.854  14.569  1.00  0.00     0.224 C 
ATOM     18  C   UNL     1      23.695  22.617  15.908  1.00  0.00     0.208 C 
ATOM     19  O   UNL     1      22.867  20.671  14.809  1.00  0.00    -0.337 OA
ATOM     20  C   UNL     1      23.615  21.509  16.925  1.00  0.00     0.180 C 
ATOM     21  C   UNL     1      22.764  20.464  16.203  1.00  0.00     0.179 C 
BRANCH  17  22
ATOM     22  C   UNL     1      25.011  21.411  14.073  1.00  0.00     0.225 C 
BRANCH  22  23
ATOM     23  O   UNL     1      24.933  20.139  13.491  1.00  0.00    -0.391 OA
ATOM     24  H   UNL     1      24.591  19.522  14.192  1.00  0.00     0.210 HD
ENDBRANCH  22  23
ENDBRANCH  17  22
BRANCH  18  25
ATOM     25  O   UNL     1      22.594  23.482  16.044  1.00  0.00    -0.385 OA
ATOM     26  H   UNL     1      22.732  23.997  16.881  1.00  0.00     0.211 HD
ENDBRANCH  18  25
BRANCH  20  27
ATOM     27  O   UNL     1      23.007  21.943  18.116  1.00  0.00    -0.387 OA
ATOM     28  H   UNL     1      23.614  21.683  18.856  1.00  0.00     0.211 HD
ENDBRANCH  20  27
BRANCH  21  29
ATOM     29  C   UNL     1      23.191  19.027  16.535  1.00  0.00     0.191 C 
BRANCH  29  30
ATOM     30  O   UNL     1      22.087  18.162  16.541  1.00  0.00    -0.394 OA
ATOM     31  H   UNL     1      21.742  18.149  17.473  1.00  0.00     0.210 HD
ENDBRANCH  29  30
ENDBRANCH  21  29
ENDBRANCH   1  17
TORSDOF 13
ENDMDL
MODEL 7
REMARK VINA RESULT:    -4.328      1.617      2.039
REMARK INTER + INTRA:          -8.146
REMARK INTER:                  -7.868
REMARK INTRA:                  -0.278
REMARK UNBOUND:                -1.540
REMARK SMILES OC[C@@H]1O[C@H](O[C@]2(CO)O[C@@H](CO)[C@H](O)[C@@H]2O)[C@@H](O)[C@H](O)[C@H]1O
REMARK SMILES IDX 6 1 5 2 3 3 22 4 4 5 20 6 18 7 2 8 1 9 23 11 21 13 19 15
REMARK SMILES IDX 7 17 16 18 10 19 14 20 11 21 8 22 9 23 17 25 15 27 12 29
REMARK SMILES IDX 13 30
REMARK H PARENT 1 10 23 12 21 14 19 16 9 24 17 26 15 28 13 31
REMARK Flexibility Score: inf
ROOT
ATOM      1  O   UNL     1      23.849  23.259  12.790  1.00  0.00    -0.313 OA
ENDROOT
BRANCH   1   2
ATOM      2  C   UNL     1      24.567  24.114  11.909  1.00  0.00     0.285 C 
ATOM      3  C   UNL     1      22.738  24.704  10.454  1.00  0.00     0.178 C 
ATOM      4  C   UNL     1      22.621  26.129  11.071  1.00  0.00     0.177 C 
ATOM      5  O   UNL     1      24.010  24.074  10.602  1.00  0.00    -0.341 OA
ATOM      6  C   UNL     1      23.273  26.239  12.460  1.00  0.00     0.179 C 
ATOM      7  C   UNL     1      24.638  25.545  12.485  1.00  0.00     0.202 C 
BRANCH   3   8
ATOM      8  C   UNL     1      21.550  23.769  10.762  1.00  0.00     0.191 C 
BRANCH   8   9
ATOM      9  O   UNL     1      20.498  24.438  11.398  1.00  0.00    -0.394 OA
ATOM     10  H   UNL     1      20.814  25.364  11.564  1.00  0.00     0.210 HD
ENDBRANCH   8   9
ENDBRANCH   3   8
BRANCH   4  11
ATOM     11  O   UNL     1      23.221  27.069  10.214  1.00  0.00    -0.387 OA
ATOM     12  H   UNL     1      24.135  27.244  10.565  1.00  0.00     0.211 HD
ENDBRANCH   4  11
BRANCH   6  13
ATOM     13  O   UNL     1      22.441  25.676  13.444  1.00  0.00    -0.387 OA
ATOM     14  H   UNL     1      21.599  26.200  13.445  1.00  0.00     0.211 HD
ENDBRANCH   6  13
BRANCH   7  15
ATOM     15  O   UNL     1      25.607  26.322  11.824  1.00  0.00    -0.385 OA
ATOM     16  H   UNL     1      25.143  26.975  11.239  1.00  0.00     0.211 HD
ENDBRANCH   7  15
ENDBRANCH   1   2
BRANCH   1  17
ATOM     17  C   UNL     1      24.496  22.020  13.091  1.00  0.00     0.224 C 
ATOM     18  C   UNL     1      24.147  21.515  14.507  1.00  0.00     0.208 C 
ATOM     19  O   UNL     1      24.005  21.063  12.171  1.00  0.00    -0.337 OA
ATOM     20  C   UNL     1      24.117  20.020  14.324  1.00  0.00     0.180 C 
ATOM     21  C   UNL     1      23.678  19.878  12.867  1.00  0.00     0.179 C 
BRANCH  17  22
ATOM     22  C   UNL     1      26.033  22.101  12.878  1.00  0.00     0.225 C 
BRANCH  22  23
ATOM     23  O   UNL     1      26.317  22.322  11.523  1.00  0.00    -0.391 OA
ATOM     24  H   UNL     1      25.445  22.453  11.064  1.00  0.00     0.210 HD
ENDBRANCH  22  23
ENDBRANCH  17  22
BRANCH  18  25
ATOM     25  O   UNL     1      22.876  21.984  14.887  1.00  0.00    -0.385 OA
ATOM     26  H   UNL     1      22.983  22.936  15.142  1.00  0.00     0.211 HD
ENDBRANCH  18  25
BRANCH  20  27
ATOM     27  O   UNL     1      23.205  19.409  15.203  1.00  0.00    -0.387 OA
ATOM     28  H   UNL     1      23.366  19.805  16.099  1.00  0.00     0.211 HD
ENDBRANCH  20  27
BRANCH  21  29
ATOM     29  C   UNL     1      24.341  18.681  12.168  1.00  0.00     0.191 C 
BRANCH  29  30
ATOM     30  O   UNL     1      23.472  17.581  12.122  1.00  0.00    -0.394 OA
ATOM     31  H   UNL     1      22.607  17.887  12.502  1.00  0.00     0.210 HD
ENDBRANCH  29  30
ENDBRANCH  21  29
ENDBRANCH   1  17
TORSDOF 13
ENDMDL
MODEL 8
REMARK VINA RESULT:    -4.312      1.643      5.741
REMARK INTER + INTRA:          -8.121
REMARK INTER:                  -6.784
REMARK INTRA:                  -1.337
REMARK UNBOUND:                -1.540
REMARK SMILES OC[C@@H]1O[C@H](O[C@]2(CO)O[C@@H](CO)[C@H](O)[C@@H]2O)[C@@H](O)[C@H](O)[C@H]1O
REMARK SMILES IDX 6 1 5 2 3 3 22 4 4 5 20 6 18 7 2 8 1 9 23 11 21 13 19 15
REMARK SMILES IDX 7 17 16 18 10 19 14 20 11 21 8 22 9 23 17 25 15 27 12 29
REMARK SMILES IDX 13 30
REMARK H PARENT 1 10 23 12 21 14 19 16 9 24 17 26 15 28 13 31
REMARK Flexibility Score: inf
ROOT
ATOM      1  O   UNL     1      22.276  23.687  11.471  1.00  0.00    -0.313 OA
ENDROOT
BRANCH   1   2
ATOM      2  C   UNL     1      23.402  24.178  12.187  1.00  0.00     0.285 C 
ATOM      3  C   UNL     1      24.315  22.055  12.870  1.00  0.00     0.178 C 
ATOM      4  C   UNL     1      25.466  22.140  11.824  1.00  0.00     0.177 C 
ATOM      5  O   UNL     1      23.742  23.304  13.255  1.00  0.00    -0.341 OA
ATOM      6  C   UNL     1      25.172  23.129  10.684  1.00  0.00     0.179 C 
ATOM      7  C   UNL     1      24.583  24.435  11.225  1.00  0.00     0.202 C 
BRANCH   3   8
ATOM      8  C   UNL     1      23.265  20.960  12.584  1.00  0.00     0.191 C 
BRANCH   8   9
ATOM      9  O   UNL     1      23.848  19.766  12.146  1.00  0.00    -0.394 OA
ATOM     10  H   UNL     1      24.202  19.944  11.236  1.00  0.00     0.210 HD
ENDBRANCH   8   9
ENDBRANCH   3   8
BRANCH   4  11
ATOM     11  O   UNL     1      26.659  22.526  12.461  1.00  0.00    -0.387 OA
ATOM     12  H   UNL     1      26.606  22.207  13.402  1.00  0.00     0.211 HD
ENDBRANCH   4  11
BRANCH   6  13
ATOM     13  O   UNL     1      24.284  22.562   9.753  1.00  0.00    -0.387 OA
ATOM     14  H   UNL     1      23.428  22.406  10.228  1.00  0.00     0.211 HD
ENDBRANCH   6  13
BRANCH   7  15
ATOM     15  O   UNL     1      25.581  25.223  11.828  1.00  0.00    -0.385 OA
ATOM     16  H   UNL     1      25.322  25.395  12.770  1.00  0.00     0.211 HD
ENDBRANCH   7  15
ENDBRANCH   1   2
BRANCH   1  17
ATOM     17  C   UNL     1      21.315  24.679  11.103  1.00  0.00     0.224 C 
ATOM     18  C   UNL     1      21.416  25.056   9.610  1.00  0.00     0.208 C 
ATOM     19  O   UNL     1      20.035  24.111  11.306  1.00  0.00    -0.337 OA
ATOM     20  C   UNL     1      19.980  25.318   9.239  1.00  0.00     0.180 C 
ATOM     21  C   UNL     1      19.223  24.385  10.183  1.00  0.00     0.179 C 
BRANCH  17  22
ATOM     22  C   UNL     1      21.397  25.935  12.013  1.00  0.00     0.225 C 
BRANCH  22  23
ATOM     23  O   UNL     1      20.412  25.871  13.008  1.00  0.00    -0.391 OA
ATOM     24  H   UNL     1      20.806  25.370  13.771  1.00  0.00     0.210 HD
ENDBRANCH  22  23
ENDBRANCH  17  22
BRANCH  18  25
ATOM     25  O   UNL     1      21.918  23.969   8.871  1.00  0.00    -0.385 OA
ATOM     26  H   UNL     1      22.792  23.725   9.272  1.00  0.00     0.211 HD
ENDBRANCH  18  25
BRANCH  20  27
ATOM     27  O   UNL     1      19.729  25.009   7.890  1.00  0.00    -0.387 OA
ATOM     28  H   UNL     1      18.747  24.902   7.801  1.00  0.00     0.211 HD
ENDBRANCH  20  27
BRANCH  21  29
ATOM     29  C   UNL     1      17.889  24.983  10.655  1.00  0.00     0.191 C 
BRANCH  29  30
ATOM     30  O   UNL     1      17.787  24.945  12.054  1.00  0.00    -0.394 OA
ATOM     31  H   UNL     1      16.952  24.449  12.263  1.00  0.00     0.210 HD
ENDBRANCH  29  30
ENDBRANCH  21  29
ENDBRANCH   1  17
TORSDOF 13
ENDMDL
MODEL 9
REMARK VINA RESULT:    -4.254      1.825      3.426
REMARK INTER + INTRA:          -8.032
REMARK INTER:                  -6.948
REMARK INTRA:                  -1.085
REMARK UNBOUND:                -1.540
REMARK SMILES OC[C@@H]1O[C@H](O[C@]2(CO)O[C@@H](CO)[C@H](O)[C@@H]2O)[C@@H](O)[C@H](O)[C@H]1O
REMARK SMILES IDX 6 1 5 2 3 3 22 4 4 5 20 6 18 7 2 8 1 9 23 11 21 13 19 15
REMARK SMILES IDX 7 17 16 18 10 19 14 20 11 21 8 22 9 23 17 25 15 27 12 29
REMARK SMILES IDX 13 30
REMARK H PARENT 1 10 23 12 21 14 19 16 9 24 17 26 15 28 13 31
REMARK Flexibility Score: inf
ROOT
ATOM      1  O   UNL     1      21.933  24.130   9.625  1.00  0.00    -0.313 OA
ENDROOT
BRANCH   1   2
ATOM      2  C   UNL     1      21.431  25.366   9.133  1.00  0.00     0.285 C 
ATOM      3  C   UNL     1      20.447  24.540   7.095  1.00  0.00     0.178 C 
ATOM      4  C   UNL     1      19.004  24.658   7.667  1.00  0.00     0.177 C 
ATOM      5  O   UNL     1      21.423  25.378   7.712  1.00  0.00    -0.341 OA
ATOM      6  C   UNL     1      18.968  24.718   9.203  1.00  0.00     0.179 C 
ATOM      7  C   UNL     1      20.044  25.665   9.742  1.00  0.00     0.202 C 
BRANCH   3   8
ATOM      8  C   UNL     1      20.935  23.092   6.871  1.00  0.00     0.191 C 
BRANCH   8   9
ATOM      9  O   UNL     1      22.330  23.005   6.809  1.00  0.00    -0.394 OA
ATOM     10  H   UNL     1      22.537  22.221   6.236  1.00  0.00     0.210 HD
ENDBRANCH   8   9
ENDBRANCH   3   8
BRANCH   4  11
ATOM     11  O   UNL     1      18.382  25.810   7.154  1.00  0.00    -0.387 OA
ATOM     12  H   UNL     1      18.464  26.520   7.846  1.00  0.00     0.211 HD
ENDBRANCH   4  11
BRANCH   6  13
ATOM     13  O   UNL     1      19.148  23.438   9.754  1.00  0.00    -0.387 OA
ATOM     14  H   UNL     1      20.110  23.354   9.982  1.00  0.00     0.211 HD
ENDBRANCH   6  13
BRANCH   7  15
ATOM     15  O   UNL     1      19.672  27.009   9.550  1.00  0.00    -0.385 OA
ATOM     16  H   UNL     1      20.046  27.319   8.685  1.00  0.00     0.211 HD
ENDBRANCH   7  15
ENDBRANCH   1   2
BRANCH   1  17
ATOM     17  C   UNL     1      22.859  24.242  10.708  1.00  0.00     0.224 C 
ATOM     18  C   UNL     1      22.282  23.675  12.023  1.00  0.00     0.208 C 
ATOM     19  O   UNL     1      23.987  23.455  10.372  1.00  0.00    -0.337 OA
ATOM     20  C   UNL     1      23.498  23.081  12.686  1.00  0.00     0.180 C 
ATOM     21  C   UNL     1      24.357  22.674  11.489  1.00  0.00     0.179 C 
BRANCH  17  22
ATOM     22  C   UNL     1      23.367  25.698  10.892  1.00  0.00     0.225 C 
BRANCH  22  23
ATOM     23  O   UNL     1      22.824  26.249  12.062  1.00  0.00    -0.391 OA
ATOM     24  H   UNL     1      23.463  26.944  12.375  1.00  0.00     0.210 HD
ENDBRANCH  22  23
ENDBRANCH  17  22
BRANCH  18  25
ATOM     25  O   UNL     1      21.341  22.667  11.742  1.00  0.00    -0.385 OA
ATOM     26  H   UNL     1      20.461  22.995  12.064  1.00  0.00     0.211 HD
ENDBRANCH  18  25
BRANCH  20  27
ATOM     27  O   UNL     1      23.161  21.973  13.485  1.00  0.00    -0.387 OA
ATOM     28  H   UNL     1      23.600  21.184  13.075  1.00  0.00     0.211 HD
ENDBRANCH  20  27
BRANCH  21  29
ATOM     29  C   UNL     1      25.859  22.852  11.758  1.00  0.00     0.191 C 
BRANCH  29  30
ATOM     30  O   UNL     1      26.619  22.457  10.647  1.00  0.00    -0.394 OA
ATOM     31  H   UNL     1      27.184  21.697  10.947  1.00  0.00     0.210 HD
ENDBRANCH  29  30
ENDBRANCH  21  29
ENDBRANCH   1  17
TORSDOF 13
ENDMDL
