MODEL 1
REMARK VINA RESULT:    -7.318      0.000      0.000
REMARK INTER + INTRA:         -13.712
REMARK INTER:                 -12.023
REMARK INTRA:                  -1.689
REMARK UNBOUND:                -1.689
REMARK SMILES COc1ccc([C@@H]2CC(=O)c3c(O)cc(O[C@@H]4O[C@H](CO[C@H]5O[C@@H](C)[C@H](O)[C@H](O)[C@@H]5O)[C@H](O)[C@@H](O)[C@@H]4O)cc3O2)cc1O
REMARK SMILES IDX 19 1 32 2 34 3 36 4 17 5 18 6 20 7 21 8 22 9 25 10 24 11
REMARK SMILES IDX 26 12 23 13 28 14 30 15 27 16 29 18 31 20 33 22 35 24 16 26
REMARK SMILES IDX 15 27 14 28 38 29 12 30 39 31 11 32 40 33 9 34 7 35 10 36
REMARK SMILES IDX 8 37 13 38 6 40 41 41 5 42 42 43 4 44 3 45 43 46 2 48 1 49
REMARK SMILES IDX 37 50
REMARK H PARENT 27 17 29 19 31 21 33 23 35 25 13 39 43 47 37 51
REMARK Flexibility Score: inf
ROOT
ATOM      1  C   UNL     1     -29.318 -60.638  62.096  1.00  0.00     0.180 C 
ATOM      2  C   UNL     1     -30.006 -61.247  63.337  1.00  0.00     0.177 C 
ATOM      3  C   UNL     1     -31.537 -61.236  63.218  1.00  0.00     0.180 C 
ATOM      4  C   UNL     1     -31.933 -59.750  62.917  1.00  0.00     0.214 C 
ATOM      5  C   UNL     1     -31.272 -59.310  61.581  1.00  0.00     0.339 C 
ATOM      6  O   UNL     1     -29.843 -59.358  61.727  1.00  0.00    -0.332 OA
ENDROOT
BRANCH   1   7
ATOM      7  C   UNL     1     -29.016 -61.613  60.898  1.00  0.00     0.198 C 
BRANCH   7   8
ATOM      8  O   UNL     1     -28.034 -61.094  59.978  1.00  0.00    -0.347 OA
BRANCH   8   9
ATOM      9  C   UNL     1     -27.156 -62.060  59.366  1.00  0.00     0.281 C 
ATOM     10  C   UNL     1     -26.843 -63.105  55.740  1.00  0.00     0.041 C 
ATOM     11  C   UNL     1     -26.472 -63.029  57.258  1.00  0.00     0.150 C 
ATOM     12  C   UNL     1     -24.974 -62.750  57.328  1.00  0.00     0.174 C 
ATOM     13  O   UNL     1     -27.257 -61.995  57.948  1.00  0.00    -0.344 OA
ATOM     14  C   UNL     1     -24.773 -61.654  58.439  1.00  0.00     0.179 C 
ATOM     15  C   UNL     1     -25.667 -61.814  59.735  1.00  0.00     0.202 C 
BRANCH  12  16
ATOM     16  O   UNL     1     -24.273 -63.967  57.618  1.00  0.00    -0.388 OA
ATOM     17  H   UNL     1     -24.358 -64.211  58.587  1.00  0.00     0.211 HD
ENDBRANCH  12  16
BRANCH  14  18
ATOM     18  O   UNL     1     -23.406 -61.476  58.730  1.00  0.00    -0.387 OA
ATOM     19  H   UNL     1     -23.245 -60.475  58.657  1.00  0.00     0.211 HD
ENDBRANCH  14  18
BRANCH  15  20
ATOM     20  O   UNL     1     -25.221 -62.783  60.634  1.00  0.00    -0.385 OA
ATOM     21  H   UNL     1     -24.297 -63.093  60.386  1.00  0.00     0.211 HD
ENDBRANCH  15  20
ENDBRANCH   8   9
ENDBRANCH   7   8
ENDBRANCH   1   7
BRANCH   2  22
ATOM     22  O   UNL     1     -29.554 -62.573  63.565  1.00  0.00    -0.387 OA
ATOM     23  H   UNL     1     -28.555 -62.536  63.485  1.00  0.00     0.211 HD
ENDBRANCH   2  22
BRANCH   3  24
ATOM     24  O   UNL     1     -32.130 -61.601  64.457  1.00  0.00    -0.387 OA
ATOM     25  H   UNL     1     -33.025 -61.970  64.208  1.00  0.00     0.211 HD
ENDBRANCH   3  24
BRANCH   5  26
ATOM     26  O   UNL     1     -31.738 -60.079  60.507  1.00  0.00    -0.462 OA
BRANCH  26  27
ATOM     27  C   UNL     1     -31.958 -59.503  59.285  1.00  0.00     0.130 A 
ATOM     28  C   UNL     1     -33.055 -59.895  58.467  1.00  0.00     0.093 A 
ATOM     29  C   UNL     1     -30.963 -58.613  58.770  1.00  0.00     0.094 A 
ATOM     30  C   UNL     1     -32.995 -59.423  57.143  1.00  0.00     0.133 A 
ATOM     31  C   UNL     1     -30.920 -58.250  57.430  1.00  0.00     0.138 A 
ATOM     32  C   UNL     1     -31.924 -58.710  56.608  1.00  0.00     0.102 A 
ATOM     33  O   UNL     1     -29.866 -57.460  56.986  1.00  0.00    -0.484 OA
ATOM     34  C   UNL     1     -31.653 -58.569  55.152  1.00  0.00     0.174 C 
ATOM     35  C   UNL     1     -29.516 -57.406  55.580  1.00  0.00     0.211 C 
ATOM     36  O   UNL     1     -31.951 -59.554  54.376  1.00  0.00    -0.294 OA
ATOM     37  C   UNL     1     -30.850 -57.434  54.657  1.00  0.00     0.131 C 
BRANCH  30  38
ATOM     38  O   UNL     1     -34.074 -59.770  56.324  1.00  0.00    -0.507 OA
ATOM     39  H   UNL     1     -35.073 -59.700  56.555  1.00  0.00     0.293 HD
ENDBRANCH  30  38
BRANCH  35  40
ATOM     40  C   UNL     1     -28.683 -56.186  55.342  1.00  0.00    -0.003 A 
ATOM     41  C   UNL     1     -27.314 -56.329  55.483  1.00  0.00     0.057 A 
ATOM     42  C   UNL     1     -29.228 -54.897  55.170  1.00  0.00     0.011 A 
ATOM     43  C   UNL     1     -26.511 -55.249  55.836  1.00  0.00     0.158 A 
ATOM     44  C   UNL     1     -28.429 -53.791  55.522  1.00  0.00     0.051 A 
ATOM     45  C   UNL     1     -27.088 -53.969  55.964  1.00  0.00     0.160 A 
BRANCH  43  46
ATOM     46  O   UNL     1     -25.159 -55.388  56.132  1.00  0.00    -0.504 OA
ATOM     47  H   UNL     1     -24.802 -55.280  57.106  1.00  0.00     0.293 HD
ENDBRANCH  43  46
BRANCH  45  48
ATOM     48  O   UNL     1     -26.403 -52.924  56.583  1.00  0.00    -0.493 OA
ATOM     49  C   UNL     1     -25.892 -51.742  55.922  1.00  0.00     0.278 C 
ENDBRANCH  45  48
ENDBRANCH  35  40
ENDBRANCH  26  27
ENDBRANCH   5  26
BRANCH   4  50
ATOM     50  O   UNL     1     -33.329 -59.548  63.017  1.00  0.00    -0.384 OA
ATOM     51  H   UNL     1     -33.748 -60.472  63.117  1.00  0.00     0.211 HD
ENDBRANCH   4  50
TORSDOF 15
ENDMDL
MODEL 2
REMARK VINA RESULT:    -7.000      6.144     10.687
REMARK INTER + INTRA:         -13.191
REMARK INTER:                 -10.760
REMARK INTRA:                  -2.431
REMARK UNBOUND:                -1.689
REMARK SMILES COc1ccc([C@@H]2CC(=O)c3c(O)cc(O[C@@H]4O[C@H](CO[C@H]5O[C@@H](C)[C@H](O)[C@H](O)[C@@H]5O)[C@H](O)[C@@H](O)[C@@H]4O)cc3O2)cc1O
REMARK SMILES IDX 19 1 32 2 34 3 36 4 17 5 18 6 20 7 21 8 22 9 25 10 24 11
REMARK SMILES IDX 26 12 23 13 28 14 30 15 27 16 29 18 31 20 33 22 35 24 16 26
REMARK SMILES IDX 15 27 14 28 38 29 12 30 39 31 11 32 40 33 9 34 7 35 10 36
REMARK SMILES IDX 8 37 13 38 6 40 41 41 5 42 42 43 4 44 3 45 43 46 2 48 1 49
REMARK SMILES IDX 37 50
REMARK H PARENT 27 17 29 19 31 21 33 23 35 25 13 39 43 47 37 51
REMARK Flexibility Score: inf
ROOT
ATOM      1  C   UNL     1     -21.218 -63.813  57.481  1.00  0.00     0.180 C 
ATOM      2  C   UNL     1     -19.769 -64.325  57.631  1.00  0.00     0.177 C 
ATOM      3  C   UNL     1     -19.440 -65.444  56.633  1.00  0.00     0.180 C 
ATOM      4  C   UNL     1     -20.542 -66.540  56.838  1.00  0.00     0.214 C 
ATOM      5  C   UNL     1     -21.935 -65.920  56.533  1.00  0.00     0.339 C 
ATOM      6  O   UNL     1     -22.193 -64.863  57.473  1.00  0.00    -0.332 OA
ENDROOT
BRANCH   1   7
ATOM      7  C   UNL     1     -21.462 -62.660  56.438  1.00  0.00     0.198 C 
BRANCH   7   8
ATOM      8  O   UNL     1     -21.976 -61.453  57.038  1.00  0.00    -0.347 OA
BRANCH   8   9
ATOM      9  C   UNL     1     -23.406 -61.375  57.195  1.00  0.00     0.281 C 
ATOM     10  C   UNL     1     -26.171 -62.721  54.984  1.00  0.00     0.041 C 
ATOM     11  C   UNL     1     -25.524 -62.062  56.247  1.00  0.00     0.150 C 
ATOM     12  C   UNL     1     -26.129 -62.758  57.462  1.00  0.00     0.174 C 
ATOM     13  O   UNL     1     -24.058 -62.179  56.218  1.00  0.00    -0.344 OA
ATOM     14  C   UNL     1     -24.942 -63.034  58.458  1.00  0.00     0.179 C 
ATOM     15  C   UNL     1     -23.870 -61.878  58.591  1.00  0.00     0.202 C 
BRANCH  12  16
ATOM     16  O   UNL     1     -27.148 -61.928  58.032  1.00  0.00    -0.388 OA
ATOM     17  H   UNL     1     -27.122 -61.959  59.035  1.00  0.00     0.211 HD
ENDBRANCH  12  16
BRANCH  14  18
ATOM     18  O   UNL     1     -25.423 -63.486  59.702  1.00  0.00    -0.387 OA
ATOM     19  H   UNL     1     -24.990 -62.880  60.394  1.00  0.00     0.211 HD
ENDBRANCH  14  18
BRANCH  15  20
ATOM     20  O   UNL     1     -24.267 -60.804  59.388  1.00  0.00    -0.385 OA
ATOM     21  H   UNL     1     -24.691 -61.135  60.238  1.00  0.00     0.211 HD
ENDBRANCH  15  20
ENDBRANCH   8   9
ENDBRANCH   7   8
ENDBRANCH   1   7
BRANCH   2  22
ATOM     22  O   UNL     1     -18.840 -63.262  57.481  1.00  0.00    -0.387 OA
ATOM     23  H   UNL     1     -18.559 -63.015  58.411  1.00  0.00     0.211 HD
ENDBRANCH   2  22
BRANCH   3  24
ATOM     24  O   UNL     1     -18.183 -66.029  56.946  1.00  0.00    -0.387 OA
ATOM     25  H   UNL     1     -17.611 -65.260  57.227  1.00  0.00     0.211 HD
ENDBRANCH   3  24
BRANCH   5  26
ATOM     26  O   UNL     1     -22.023 -65.500  55.201  1.00  0.00    -0.462 OA
BRANCH  26  27
ATOM     27  C   UNL     1     -23.120 -65.814  54.445  1.00  0.00     0.130 A 
ATOM     28  C   UNL     1     -23.110 -65.676  53.028  1.00  0.00     0.093 A 
ATOM     29  C   UNL     1     -24.339 -66.129  55.125  1.00  0.00     0.094 A 
ATOM     30  C   UNL     1     -24.377 -65.770  52.423  1.00  0.00     0.133 A 
ATOM     31  C   UNL     1     -25.568 -66.128  54.477  1.00  0.00     0.138 A 
ATOM     32  C   UNL     1     -25.577 -65.892  53.120  1.00  0.00     0.102 A 
ATOM     33  O   UNL     1     -26.718 -66.346  55.225  1.00  0.00    -0.484 OA
ATOM     34  C   UNL     1     -26.915 -65.580  52.550  1.00  0.00     0.174 C 
ATOM     35  C   UNL     1     -28.018 -65.939  54.732  1.00  0.00     0.211 C 
ATOM     36  O   UNL     1     -27.006 -64.622  51.692  1.00  0.00    -0.294 OA
ATOM     37  C   UNL     1     -28.126 -66.190  53.132  1.00  0.00     0.131 C 
BRANCH  30  38
ATOM     38  O   UNL     1     -24.394 -65.664  51.029  1.00  0.00    -0.507 OA
ATOM     39  H   UNL     1     -24.291 -64.805  50.473  1.00  0.00     0.293 HD
ENDBRANCH  30  38
BRANCH  35  40
ATOM     40  C   UNL     1     -29.073 -66.674  55.497  1.00  0.00    -0.003 A 
ATOM     41  C   UNL     1     -30.288 -66.033  55.656  1.00  0.00     0.057 A 
ATOM     42  C   UNL     1     -28.827 -67.872  56.199  1.00  0.00     0.011 A 
ATOM     43  C   UNL     1     -31.109 -66.309  56.745  1.00  0.00     0.158 A 
ATOM     44  C   UNL     1     -29.649 -68.167  57.305  1.00  0.00     0.051 A 
ATOM     45  C   UNL     1     -30.741 -67.322  57.652  1.00  0.00     0.160 A 
BRANCH  43  46
ATOM     46  O   UNL     1     -32.262 -65.578  57.015  1.00  0.00    -0.504 OA
ATOM     47  H   UNL     1     -32.530 -65.327  57.992  1.00  0.00     0.293 HD
ENDBRANCH  43  46
BRANCH  45  48
ATOM     48  O   UNL     1     -31.363 -67.446  58.893  1.00  0.00    -0.493 OA
ATOM     49  C   UNL     1     -30.693 -67.684  60.154  1.00  0.00     0.278 C 
ENDBRANCH  45  48
ENDBRANCH  35  40
ENDBRANCH  26  27
ENDBRANCH   5  26
BRANCH   4  50
ATOM     50  O   UNL     1     -20.228 -67.735  56.150  1.00  0.00    -0.384 OA
ATOM     51  H   UNL     1     -19.260 -67.647  55.845  1.00  0.00     0.211 HD
ENDBRANCH   4  50
TORSDOF 15
ENDMDL
MODEL 3
REMARK VINA RESULT:    -6.911      7.665     11.732
REMARK INTER + INTRA:         -13.044
REMARK INTER:                 -10.372
REMARK INTRA:                  -2.672
REMARK UNBOUND:                -1.689
REMARK SMILES COc1ccc([C@@H]2CC(=O)c3c(O)cc(O[C@@H]4O[C@H](CO[C@H]5O[C@@H](C)[C@H](O)[C@H](O)[C@@H]5O)[C@H](O)[C@@H](O)[C@@H]4O)cc3O2)cc1O
REMARK SMILES IDX 19 1 32 2 34 3 36 4 17 5 18 6 20 7 21 8 22 9 25 10 24 11
REMARK SMILES IDX 26 12 23 13 28 14 30 15 27 16 29 18 31 20 33 22 35 24 16 26
REMARK SMILES IDX 15 27 14 28 38 29 12 30 39 31 11 32 40 33 9 34 7 35 10 36
REMARK SMILES IDX 8 37 13 38 6 40 41 41 5 42 42 43 4 44 3 45 43 46 2 48 1 49
REMARK SMILES IDX 37 50
REMARK H PARENT 27 17 29 19 31 21 33 23 35 25 13 39 43 47 37 51
REMARK Flexibility Score: inf
ROOT
ATOM      1  C   UNL     1     -20.396 -60.990  55.413  1.00  0.00     0.180 C 
ATOM      2  C   UNL     1     -19.165 -60.160  55.838  1.00  0.00     0.177 C 
ATOM      3  C   UNL     1     -18.446 -60.764  57.053  1.00  0.00     0.180 C 
ATOM      4  C   UNL     1     -19.541 -60.920  58.164  1.00  0.00     0.214 C 
ATOM      5  C   UNL     1     -20.652 -61.877  57.648  1.00  0.00     0.339 C 
ATOM      6  O   UNL     1     -21.282 -61.287  56.499  1.00  0.00    -0.332 OA
ENDROOT
BRANCH   1   7
ATOM      7  C   UNL     1     -20.145 -62.173  54.406  1.00  0.00     0.198 C 
BRANCH   7   8
ATOM      8  O   UNL     1     -21.316 -62.986  54.184  1.00  0.00    -0.347 OA
BRANCH   8   9
ATOM      9  C   UNL     1     -21.087 -64.303  53.644  1.00  0.00     0.281 C 
ATOM     10  C   UNL     1     -19.289 -67.273  55.156  1.00  0.00     0.041 C 
ATOM     11  C   UNL     1     -20.161 -66.487  54.123  1.00  0.00     0.150 C 
ATOM     12  C   UNL     1     -21.390 -67.347  53.844  1.00  0.00     0.174 C 
ATOM     13  O   UNL     1     -20.525 -65.156  54.634  1.00  0.00    -0.344 OA
ATOM     14  C   UNL     1     -22.627 -66.375  53.844  1.00  0.00     0.179 C 
ATOM     15  C   UNL     1     -22.402 -64.970  53.152  1.00  0.00     0.202 C 
BRANCH  12  16
ATOM     16  O   UNL     1     -21.223 -68.029  52.595  1.00  0.00    -0.388 OA
ATOM     17  H   UNL     1     -21.397 -69.012  52.693  1.00  0.00     0.211 HD
ENDBRANCH  12  16
BRANCH  14  18
ATOM     18  O   UNL     1     -23.786 -67.034  53.390  1.00  0.00    -0.387 OA
ATOM     19  H   UNL     1     -23.719 -67.980  53.757  1.00  0.00     0.211 HD
ENDBRANCH  14  18
BRANCH  15  20
ATOM     20  O   UNL     1     -22.443 -64.995  51.758  1.00  0.00    -0.385 OA
ATOM     21  H   UNL     1     -22.445 -65.943  51.424  1.00  0.00     0.211 HD
ENDBRANCH  15  20
ENDBRANCH   8   9
ENDBRANCH   7   8
ENDBRANCH   1   7
BRANCH   2  22
ATOM     22  O   UNL     1     -18.251 -60.026  54.760  1.00  0.00    -0.387 OA
ATOM     23  H   UNL     1     -18.526 -59.193  54.274  1.00  0.00     0.211 HD
ENDBRANCH   2  22
BRANCH   3  24
ATOM     24  O   UNL     1     -17.460 -59.864  57.539  1.00  0.00    -0.387 OA
ATOM     25  H   UNL     1     -16.729 -59.901  56.859  1.00  0.00     0.211 HD
ENDBRANCH   3  24
BRANCH   5  26
ATOM     26  O   UNL     1     -20.144 -63.157  57.396  1.00  0.00    -0.462 OA
BRANCH  26  27
ATOM     27  C   UNL     1     -20.853 -64.270  57.761  1.00  0.00     0.130 A 
ATOM     28  C   UNL     1     -20.205 -65.424  58.286  1.00  0.00     0.093 A 
ATOM     29  C   UNL     1     -22.249 -64.312  57.448  1.00  0.00     0.094 A 
ATOM     30  C   UNL     1     -21.019 -66.570  58.354  1.00  0.00     0.133 A 
ATOM     31  C   UNL     1     -22.972 -65.498  57.462  1.00  0.00     0.138 A 
ATOM     32  C   UNL     1     -22.324 -66.641  57.871  1.00  0.00     0.102 A 
ATOM     33  O   UNL     1     -24.300 -65.474  57.050  1.00  0.00    -0.484 OA
ATOM     34  C   UNL     1     -23.034 -67.909  57.557  1.00  0.00     0.174 C 
ATOM     35  C   UNL     1     -24.971 -66.687  56.628  1.00  0.00     0.211 C 
ATOM     36  O   UNL     1     -22.347 -68.899  57.099  1.00  0.00    -0.294 OA
ATOM     37  C   UNL     1     -24.510 -67.945  57.544  1.00  0.00     0.131 C 
BRANCH  30  38
ATOM     38  O   UNL     1     -20.416 -67.711  58.890  1.00  0.00    -0.507 OA
ATOM     39  H   UNL     1     -19.497 -67.768  59.349  1.00  0.00     0.293 HD
ENDBRANCH  30  38
BRANCH  35  40
ATOM     40  C   UNL     1     -26.449 -66.458  56.676  1.00  0.00    -0.003 A 
ATOM     41  C   UNL     1     -27.250 -67.581  56.772  1.00  0.00     0.057 A 
ATOM     42  C   UNL     1     -27.046 -65.201  56.446  1.00  0.00     0.011 A 
ATOM     43  C   UNL     1     -28.553 -67.579  56.284  1.00  0.00     0.158 A 
ATOM     44  C   UNL     1     -28.365 -65.180  55.950  1.00  0.00     0.051 A 
ATOM     45  C   UNL     1     -29.096 -66.387  55.763  1.00  0.00     0.160 A 
BRANCH  43  46
ATOM     46  O   UNL     1     -29.333 -68.730  56.228  1.00  0.00    -0.504 OA
ATOM     47  H   UNL     1     -29.917 -68.951  55.393  1.00  0.00     0.293 HD
ENDBRANCH  43  46
BRANCH  45  48
ATOM     48  O   UNL     1     -30.270 -66.392  55.011  1.00  0.00    -0.493 OA
ATOM     49  C   UNL     1     -31.172 -65.272  54.847  1.00  0.00     0.278 C 
ENDBRANCH  45  48
ENDBRANCH  35  40
ENDBRANCH  26  27
ENDBRANCH   5  26
BRANCH   4  50
ATOM     50  O   UNL     1     -18.973 -61.244  59.418  1.00  0.00    -0.384 OA
ATOM     51  H   UNL     1     -19.701 -61.089  60.114  1.00  0.00     0.211 HD
ENDBRANCH   4  50
TORSDOF 15
ENDMDL
MODEL 4
REMARK VINA RESULT:    -6.850      6.472     11.735
REMARK INTER + INTRA:         -12.944
REMARK INTER:                 -10.769
REMARK INTRA:                  -2.175
REMARK UNBOUND:                -1.689
REMARK SMILES COc1ccc([C@@H]2CC(=O)c3c(O)cc(O[C@@H]4O[C@H](CO[C@H]5O[C@@H](C)[C@H](O)[C@H](O)[C@@H]5O)[C@H](O)[C@@H](O)[C@@H]4O)cc3O2)cc1O
REMARK SMILES IDX 19 1 32 2 34 3 36 4 17 5 18 6 20 7 21 8 22 9 25 10 24 11
REMARK SMILES IDX 26 12 23 13 28 14 30 15 27 16 29 18 31 20 33 22 35 24 16 26
REMARK SMILES IDX 15 27 14 28 38 29 12 30 39 31 11 32 40 33 9 34 7 35 10 36
REMARK SMILES IDX 8 37 13 38 6 40 41 41 5 42 42 43 4 44 3 45 43 46 2 48 1 49
REMARK SMILES IDX 37 50
REMARK H PARENT 27 17 29 19 31 21 33 23 35 25 13 39 43 47 37 51
REMARK Flexibility Score: inf
ROOT
ATOM      1  C   UNL     1     -24.359 -68.148  56.980  1.00  0.00     0.180 C 
ATOM      2  C   UNL     1     -23.976 -68.652  58.389  1.00  0.00     0.177 C 
ATOM      3  C   UNL     1     -22.509 -68.354  58.735  1.00  0.00     0.180 C 
ATOM      4  C   UNL     1     -21.661 -68.971  57.570  1.00  0.00     0.214 C 
ATOM      5  C   UNL     1     -22.062 -68.286  56.234  1.00  0.00     0.339 C 
ATOM      6  O   UNL     1     -23.445 -68.568  55.960  1.00  0.00    -0.332 OA
ENDROOT
BRANCH   1   7
ATOM      7  C   UNL     1     -24.858 -66.660  56.866  1.00  0.00     0.198 C 
BRANCH   7   8
ATOM      8  O   UNL     1     -24.156 -65.759  57.747  1.00  0.00    -0.347 OA
BRANCH   8   9
ATOM      9  C   UNL     1     -24.418 -64.353  57.565  1.00  0.00     0.281 C 
ATOM     10  C   UNL     1     -26.349 -61.938  59.752  1.00  0.00     0.041 C 
ATOM     11  C   UNL     1     -25.428 -62.399  58.574  1.00  0.00     0.150 C 
ATOM     12  C   UNL     1     -24.225 -61.463  58.567  1.00  0.00     0.174 C 
ATOM     13  O   UNL     1     -25.030 -63.807  58.728  1.00  0.00    -0.344 OA
ATOM     14  C   UNL     1     -22.955 -62.366  58.348  1.00  0.00     0.179 C 
ATOM     15  C   UNL     1     -23.117 -63.544  57.304  1.00  0.00     0.202 C 
BRANCH  12  16
ATOM     16  O   UNL     1     -24.388 -60.480  57.537  1.00  0.00    -0.388 OA
ATOM     17  H   UNL     1     -23.946 -60.771  56.685  1.00  0.00     0.211 HD
ENDBRANCH  12  16
BRANCH  14  18
ATOM     18  O   UNL     1     -21.810 -61.578  58.117  1.00  0.00    -0.387 OA
ATOM     19  H   UNL     1     -21.120 -61.903  58.790  1.00  0.00     0.211 HD
ENDBRANCH  14  18
BRANCH  15  20
ATOM     20  O   UNL     1     -23.048 -63.151  55.968  1.00  0.00    -0.385 OA
ATOM     21  H   UNL     1     -23.704 -63.675  55.413  1.00  0.00     0.211 HD
ENDBRANCH  15  20
ENDBRANCH   8   9
ENDBRANCH   7   8
ENDBRANCH   1   7
BRANCH   2  22
ATOM     22  O   UNL     1     -24.824 -68.084  59.375  1.00  0.00    -0.387 OA
ATOM     23  H   UNL     1     -24.461 -68.397  60.256  1.00  0.00     0.211 HD
ENDBRANCH   2  22
BRANCH   3  24
ATOM     24  O   UNL     1     -22.143 -69.018  59.937  1.00  0.00    -0.387 OA
ATOM     25  H   UNL     1     -21.739 -68.303  60.506  1.00  0.00     0.211 HD
ENDBRANCH   3  24
BRANCH   5  26
ATOM     26  O   UNL     1     -21.779 -66.915  56.261  1.00  0.00    -0.462 OA
BRANCH  26  27
ATOM     27  C   UNL     1     -20.633 -66.432  55.690  1.00  0.00     0.130 A 
ATOM     28  C   UNL     1     -19.905 -67.189  54.730  1.00  0.00     0.093 A 
ATOM     29  C   UNL     1     -20.087 -65.213  56.204  1.00  0.00     0.094 A 
ATOM     30  C   UNL     1     -18.621 -66.690  54.443  1.00  0.00     0.133 A 
ATOM     31  C   UNL     1     -18.780 -64.821  55.940  1.00  0.00     0.138 A 
ATOM     32  C   UNL     1     -18.034 -65.605  55.091  1.00  0.00     0.102 A 
ATOM     33  O   UNL     1     -18.291 -63.674  56.555  1.00  0.00    -0.484 OA
ATOM     34  C   UNL     1     -16.572 -65.328  55.106  1.00  0.00     0.174 C 
ATOM     35  C   UNL     1     -16.865 -63.447  56.682  1.00  0.00     0.211 C 
ATOM     36  O   UNL     1     -15.759 -66.327  55.108  1.00  0.00    -0.294 OA
ATOM     37  C   UNL     1     -16.084 -63.957  55.353  1.00  0.00     0.131 C 
BRANCH  30  38
ATOM     38  O   UNL     1     -17.894 -67.400  53.483  1.00  0.00    -0.507 OA
ATOM     39  H   UNL     1     -17.534 -67.040  52.588  1.00  0.00     0.293 HD
ENDBRANCH  30  38
BRANCH  35  40
ATOM     40  C   UNL     1     -16.634 -61.994  56.956  1.00  0.00    -0.003 A 
ATOM     41  C   UNL     1     -17.614 -61.333  57.675  1.00  0.00     0.057 A 
ATOM     42  C   UNL     1     -15.587 -61.252  56.372  1.00  0.00     0.011 A 
ATOM     43  C   UNL     1     -17.813 -59.964  57.527  1.00  0.00     0.158 A 
ATOM     44  C   UNL     1     -15.772 -59.864  56.215  1.00  0.00     0.051 A 
ATOM     45  C   UNL     1     -16.946 -59.222  56.701  1.00  0.00     0.160 A 
BRANCH  43  46
ATOM     46  O   UNL     1     -18.881 -59.297  58.118  1.00  0.00    -0.504 OA
ATOM     47  H   UNL     1     -19.857 -59.417  57.770  1.00  0.00     0.293 HD
ENDBRANCH  43  46
BRANCH  45  48
ATOM     48  O   UNL     1     -17.262 -57.927  56.295  1.00  0.00    -0.493 OA
ATOM     49  C   UNL     1     -17.999 -57.573  55.100  1.00  0.00     0.278 C 
ENDBRANCH  45  48
ENDBRANCH  35  40
ENDBRANCH  26  27
ENDBRANCH   5  26
BRANCH   4  50
ATOM     50  O   UNL     1     -20.280 -68.980  57.875  1.00  0.00    -0.384 OA
ATOM     51  H   UNL     1     -19.997 -68.004  57.964  1.00  0.00     0.211 HD
ENDBRANCH   4  50
TORSDOF 15
ENDMDL
MODEL 5
REMARK VINA RESULT:    -6.746      6.337     11.069
REMARK INTER + INTRA:         -12.772
REMARK INTER:                 -10.287
REMARK INTRA:                  -2.485
REMARK UNBOUND:                -1.689
REMARK SMILES COc1ccc([C@@H]2CC(=O)c3c(O)cc(O[C@@H]4O[C@H](CO[C@H]5O[C@@H](C)[C@H](O)[C@H](O)[C@@H]5O)[C@H](O)[C@@H](O)[C@@H]4O)cc3O2)cc1O
REMARK SMILES IDX 19 1 32 2 34 3 36 4 17 5 18 6 20 7 21 8 22 9 25 10 24 11
REMARK SMILES IDX 26 12 23 13 28 14 30 15 27 16 29 18 31 20 33 22 35 24 16 26
REMARK SMILES IDX 15 27 14 28 38 29 12 30 39 31 11 32 40 33 9 34 7 35 10 36
REMARK SMILES IDX 8 37 13 38 6 40 41 41 5 42 42 43 4 44 3 45 43 46 2 48 1 49
REMARK SMILES IDX 37 50
REMARK H PARENT 27 17 29 19 31 21 33 23 35 25 13 39 43 47 37 51
REMARK Flexibility Score: inf
ROOT
ATOM      1  C   UNL     1     -23.697 -67.358  56.249  1.00  0.00     0.180 C 
ATOM      2  C   UNL     1     -24.503 -67.944  57.429  1.00  0.00     0.177 C 
ATOM      3  C   UNL     1     -23.682 -68.000  58.726  1.00  0.00     0.180 C 
ATOM      4  C   UNL     1     -22.376 -68.792  58.372  1.00  0.00     0.214 C 
ATOM      5  C   UNL     1     -21.604 -68.025  57.262  1.00  0.00     0.339 C 
ATOM      6  O   UNL     1     -22.415 -67.974  56.076  1.00  0.00    -0.332 OA
ENDROOT
BRANCH   1   7
ATOM      7  C   UNL     1     -23.721 -65.794  56.078  1.00  0.00     0.198 C 
BRANCH   7   8
ATOM      8  O   UNL     1     -25.056 -65.251  56.023  1.00  0.00    -0.347 OA
BRANCH   8   9
ATOM      9  C   UNL     1     -25.182 -63.837  56.274  1.00  0.00     0.281 C 
ATOM     10  C   UNL     1     -26.201 -62.011  59.432  1.00  0.00     0.041 C 
ATOM     11  C   UNL     1     -25.665 -62.181  57.972  1.00  0.00     0.150 C 
ATOM     12  C   UNL     1     -24.397 -61.341  57.871  1.00  0.00     0.174 C 
ATOM     13  O   UNL     1     -25.415 -63.596  57.657  1.00  0.00    -0.344 OA
ATOM     14  C   UNL     1     -23.341 -62.215  57.098  1.00  0.00     0.179 C 
ATOM     15  C   UNL     1     -23.899 -63.055  55.879  1.00  0.00     0.202 C 
BRANCH  12  16
ATOM     16  O   UNL     1     -24.691 -60.108  57.202  1.00  0.00    -0.388 OA
ATOM     17  H   UNL     1     -24.823 -60.253  56.218  1.00  0.00     0.211 HD
ENDBRANCH  12  16
BRANCH  14  18
ATOM     18  O   UNL     1     -22.202 -61.454  56.767  1.00  0.00    -0.387 OA
ATOM     19  H   UNL     1     -22.453 -60.490  56.975  1.00  0.00     0.211 HD
ENDBRANCH  14  18
BRANCH  15  20
ATOM     20  O   UNL     1     -24.117 -62.318  54.715  1.00  0.00    -0.385 OA
ATOM     21  H   UNL     1     -23.245 -61.983  54.343  1.00  0.00     0.211 HD
ENDBRANCH  15  20
ENDBRANCH   8   9
ENDBRANCH   7   8
ENDBRANCH   1   7
BRANCH   2  22
ATOM     22  O   UNL     1     -25.691 -67.199  57.648  1.00  0.00    -0.387 OA
ATOM     23  H   UNL     1     -25.796 -66.615  56.840  1.00  0.00     0.211 HD
ENDBRANCH   2  22
BRANCH   3  24
ATOM     24  O   UNL     1     -24.381 -68.737  59.719  1.00  0.00    -0.387 OA
ATOM     25  H   UNL     1     -25.012 -69.316  59.205  1.00  0.00     0.211 HD
ENDBRANCH   3  24
BRANCH   5  26
ATOM     26  O   UNL     1     -21.204 -66.759  57.704  1.00  0.00    -0.462 OA
BRANCH  26  27
ATOM     27  C   UNL     1     -20.179 -66.097  57.082  1.00  0.00     0.130 A 
ATOM     28  C   UNL     1     -19.013 -66.784  56.638  1.00  0.00     0.093 A 
ATOM     29  C   UNL     1     -20.230 -64.668  57.035  1.00  0.00     0.094 A 
ATOM     30  C   UNL     1     -17.944 -65.944  56.273  1.00  0.00     0.133 A 
ATOM     31  C   UNL     1     -19.111 -63.899  56.741  1.00  0.00     0.138 A 
ATOM     32  C   UNL     1     -17.948 -64.558  56.410  1.00  0.00     0.102 A 
ATOM     33  O   UNL     1     -19.215 -62.515  56.811  1.00  0.00    -0.484 OA
ATOM     34  C   UNL     1     -16.724 -63.713  56.429  1.00  0.00     0.174 C 
ATOM     35  C   UNL     1     -18.035 -61.684  56.949  1.00  0.00     0.211 C 
ATOM     36  O   UNL     1     -15.653 -64.199  56.957  1.00  0.00    -0.294 OA
ATOM     37  C   UNL     1     -16.808 -62.284  56.072  1.00  0.00     0.131 C 
BRANCH  30  38
ATOM     38  O   UNL     1     -16.796 -66.592  55.808  1.00  0.00    -0.507 OA
ATOM     39  H   UNL     1     -16.422 -67.495  56.128  1.00  0.00     0.293 HD
ENDBRANCH  30  38
BRANCH  35  40
ATOM     40  C   UNL     1     -18.387 -60.284  56.556  1.00  0.00    -0.003 A 
ATOM     41  C   UNL     1     -19.081 -60.126  55.370  1.00  0.00     0.057 A 
ATOM     42  C   UNL     1     -17.894 -59.145  57.225  1.00  0.00     0.011 A 
ATOM     43  C   UNL     1     -18.984 -58.951  54.632  1.00  0.00     0.158 A 
ATOM     44  C   UNL     1     -17.789 -57.945  56.492  1.00  0.00     0.051 A 
ATOM     45  C   UNL     1     -18.240 -57.870  55.144  1.00  0.00     0.160 A 
BRANCH  43  46
ATOM     46  O   UNL     1     -19.546 -58.815  53.366  1.00  0.00    -0.504 OA
ATOM     47  H   UNL     1     -18.956 -58.627  52.527  1.00  0.00     0.293 HD
ENDBRANCH  43  46
BRANCH  45  48
ATOM     48  O   UNL     1     -17.876 -56.792  54.337  1.00  0.00    -0.493 OA
ATOM     49  C   UNL     1     -18.575 -55.528  54.252  1.00  0.00     0.278 C 
ENDBRANCH  45  48
ENDBRANCH  35  40
ENDBRANCH  26  27
ENDBRANCH   5  26
BRANCH   4  50
ATOM     50  O   UNL     1     -21.635 -69.125  59.529  1.00  0.00    -0.384 OA
ATOM     51  H   UNL     1     -20.741 -68.642  59.449  1.00  0.00     0.211 HD
ENDBRANCH   4  50
TORSDOF 15
ENDMDL
MODEL 6
REMARK VINA RESULT:    -6.736      6.373     11.889
REMARK INTER + INTRA:         -12.757
REMARK INTER:                 -10.362
REMARK INTRA:                  -2.394
REMARK UNBOUND:                -1.689
REMARK SMILES COc1ccc([C@@H]2CC(=O)c3c(O)cc(O[C@@H]4O[C@H](CO[C@H]5O[C@@H](C)[C@H](O)[C@H](O)[C@@H]5O)[C@H](O)[C@@H](O)[C@@H]4O)cc3O2)cc1O
REMARK SMILES IDX 19 1 32 2 34 3 36 4 17 5 18 6 20 7 21 8 22 9 25 10 24 11
REMARK SMILES IDX 26 12 23 13 28 14 30 15 27 16 29 18 31 20 33 22 35 24 16 26
REMARK SMILES IDX 15 27 14 28 38 29 12 30 39 31 11 32 40 33 9 34 7 35 10 36
REMARK SMILES IDX 8 37 13 38 6 40 41 41 5 42 42 43 4 44 3 45 43 46 2 48 1 49
REMARK SMILES IDX 37 50
REMARK H PARENT 27 17 29 19 31 21 33 23 35 25 13 39 43 47 37 51
REMARK Flexibility Score: inf
ROOT
ATOM      1  C   UNL     1     -19.654 -58.426  52.317  1.00  0.00     0.180 C 
ATOM      2  C   UNL     1     -19.691 -56.896  52.530  1.00  0.00     0.177 C 
ATOM      3  C   UNL     1     -20.791 -56.472  53.515  1.00  0.00     0.180 C 
ATOM      4  C   UNL     1     -22.123 -57.085  52.960  1.00  0.00     0.214 C 
ATOM      5  C   UNL     1     -21.988 -58.633  52.917  1.00  0.00     0.339 C 
ATOM      6  O   UNL     1     -20.935 -58.986  52.004  1.00  0.00    -0.332 OA
ENDROOT
BRANCH   1   7
ATOM      7  C   UNL     1     -18.779 -59.264  53.321  1.00  0.00     0.198 C 
BRANCH   7   8
ATOM      8  O   UNL     1     -18.505 -58.565  54.553  1.00  0.00    -0.347 OA
BRANCH   8   9
ATOM      9  C   UNL     1     -18.630 -59.333  55.766  1.00  0.00     0.281 C 
ATOM     10  C   UNL     1     -18.445 -63.078  56.300  1.00  0.00     0.041 C 
ATOM     11  C   UNL     1     -18.523 -61.566  56.693  1.00  0.00     0.150 C 
ATOM     12  C   UNL     1     -17.468 -61.340  57.771  1.00  0.00     0.174 C 
ATOM     13  O   UNL     1     -18.310 -60.699  55.524  1.00  0.00    -0.344 OA
ATOM     14  C   UNL     1     -16.743 -59.990  57.413  1.00  0.00     0.179 C 
ATOM     15  C   UNL     1     -17.674 -58.826  56.881  1.00  0.00     0.202 C 
BRANCH  12  16
ATOM     16  O   UNL     1     -18.098 -61.304  59.058  1.00  0.00    -0.388 OA
ATOM     17  H   UNL     1     -18.178 -60.363  59.397  1.00  0.00     0.211 HD
ENDBRANCH  12  16
BRANCH  14  18
ATOM     18  O   UNL     1     -15.892 -59.581  58.459  1.00  0.00    -0.387 OA
ATOM     19  H   UNL     1     -16.052 -60.247  59.211  1.00  0.00     0.211 HD
ENDBRANCH  14  18
BRANCH  15  20
ATOM     20  O   UNL     1     -18.393 -58.157  57.871  1.00  0.00    -0.385 OA
ATOM     21  H   UNL     1     -18.353 -57.163  57.724  1.00  0.00     0.211 HD
ENDBRANCH  15  20
ENDBRANCH   8   9
ENDBRANCH   7   8
ENDBRANCH   1   7
BRANCH   2  22
ATOM     22  O   UNL     1     -18.434 -56.419  52.983  1.00  0.00    -0.387 OA
ATOM     23  H   UNL     1     -18.368 -55.475  52.654  1.00  0.00     0.211 HD
ENDBRANCH   2  22
BRANCH   3  24
ATOM     24  O   UNL     1     -20.931 -55.058  53.516  1.00  0.00    -0.387 OA
ATOM     25  H   UNL     1     -21.455 -54.857  52.690  1.00  0.00     0.211 HD
ENDBRANCH   3  24
BRANCH   5  26
ATOM     26  O   UNL     1     -21.801 -59.162  54.199  1.00  0.00    -0.462 OA
BRANCH  26  27
ATOM     27  C   UNL     1     -22.648 -60.122  54.684  1.00  0.00     0.130 A 
ATOM     28  C   UNL     1     -24.032 -59.858  54.885  1.00  0.00     0.093 A 
ATOM     29  C   UNL     1     -22.079 -61.351  55.146  1.00  0.00     0.094 A 
ATOM     30  C   UNL     1     -24.710 -60.834  55.637  1.00  0.00     0.133 A 
ATOM     31  C   UNL     1     -22.786 -62.234  55.952  1.00  0.00     0.138 A 
ATOM     32  C   UNL     1     -24.099 -61.933  56.236  1.00  0.00     0.102 A 
ATOM     33  O   UNL     1     -22.134 -63.360  56.442  1.00  0.00    -0.484 OA
ATOM     34  C   UNL     1     -24.694 -62.722  57.348  1.00  0.00     0.174 C 
ATOM     35  C   UNL     1     -22.638 -64.070  57.600  1.00  0.00     0.211 C 
ATOM     36  O   UNL     1     -25.424 -62.106  58.213  1.00  0.00    -0.294 OA
ATOM     37  C   UNL     1     -24.261 -64.114  57.581  1.00  0.00     0.131 C 
BRANCH  30  38
ATOM     38  O   UNL     1     -26.078 -60.614  55.827  1.00  0.00    -0.507 OA
ATOM     39  H   UNL     1     -26.768 -60.354  55.110  1.00  0.00     0.293 HD
ENDBRANCH  30  38
BRANCH  35  40
ATOM     40  C   UNL     1     -22.031 -65.438  57.624  1.00  0.00    -0.003 A 
ATOM     41  C   UNL     1     -22.901 -66.502  57.777  1.00  0.00     0.057 A 
ATOM     42  C   UNL     1     -20.641 -65.667  57.685  1.00  0.00     0.011 A 
ATOM     43  C   UNL     1     -22.481 -67.696  58.354  1.00  0.00     0.158 A 
ATOM     44  C   UNL     1     -20.198 -66.871  58.267  1.00  0.00     0.051 A 
ATOM     45  C   UNL     1     -21.126 -67.857  58.707  1.00  0.00     0.160 A 
BRANCH  43  46
ATOM     46  O   UNL     1     -23.361 -68.729  58.659  1.00  0.00    -0.504 OA
ATOM     47  H   UNL     1     -24.394 -68.581  58.660  1.00  0.00     0.293 HD
ENDBRANCH  43  46
BRANCH  45  48
ATOM     48  O   UNL     1     -20.711 -68.899  59.535  1.00  0.00    -0.493 OA
ATOM     49  C   UNL     1     -19.839 -68.768  60.683  1.00  0.00     0.278 C 
ENDBRANCH  45  48
ENDBRANCH  35  40
ENDBRANCH  26  27
ENDBRANCH   5  26
BRANCH   4  50
ATOM     50  O   UNL     1     -23.256 -56.577  53.637  1.00  0.00    -0.384 OA
ATOM     51  H   UNL     1     -23.904 -57.356  53.740  1.00  0.00     0.211 HD
ENDBRANCH   4  50
TORSDOF 15
ENDMDL
MODEL 7
REMARK VINA RESULT:    -6.682      5.989      9.511
REMARK INTER + INTRA:         -12.668
REMARK INTER:                 -10.382
REMARK INTRA:                  -2.285
REMARK UNBOUND:                -1.689
REMARK SMILES COc1ccc([C@@H]2CC(=O)c3c(O)cc(O[C@@H]4O[C@H](CO[C@H]5O[C@@H](C)[C@H](O)[C@H](O)[C@@H]5O)[C@H](O)[C@@H](O)[C@@H]4O)cc3O2)cc1O
REMARK SMILES IDX 19 1 32 2 34 3 36 4 17 5 18 6 20 7 21 8 22 9 25 10 24 11
REMARK SMILES IDX 26 12 23 13 28 14 30 15 27 16 29 18 31 20 33 22 35 24 16 26
REMARK SMILES IDX 15 27 14 28 38 29 12 30 39 31 11 32 40 33 9 34 7 35 10 36
REMARK SMILES IDX 8 37 13 38 6 40 41 41 5 42 42 43 4 44 3 45 43 46 2 48 1 49
REMARK SMILES IDX 37 50
REMARK H PARENT 27 17 29 19 31 21 33 23 35 25 13 39 43 47 37 51
REMARK Flexibility Score: inf
ROOT
ATOM      1  C   UNL     1     -22.065 -66.593  57.985  1.00  0.00     0.180 C 
ATOM      2  C   UNL     1     -20.796 -66.863  57.148  1.00  0.00     0.177 C 
ATOM      3  C   UNL     1     -21.126 -67.270  55.704  1.00  0.00     0.180 C 
ATOM      4  C   UNL     1     -22.105 -68.489  55.816  1.00  0.00     0.214 C 
ATOM      5  C   UNL     1     -23.388 -68.042  56.570  1.00  0.00     0.339 C 
ATOM      6  O   UNL     1     -23.032 -67.648  57.906  1.00  0.00    -0.332 OA
ENDROOT
BRANCH   1   7
ATOM      7  C   UNL     1     -22.653 -65.135  57.937  1.00  0.00     0.198 C 
BRANCH   7   8
ATOM      8  O   UNL     1     -22.394 -64.460  56.689  1.00  0.00    -0.347 OA
BRANCH   8   9
ATOM      9  C   UNL     1     -23.031 -63.180  56.508  1.00  0.00     0.281 C 
ATOM     10  C   UNL     1     -26.527 -62.355  55.308  1.00  0.00     0.041 C 
ATOM     11  C   UNL     1     -25.106 -62.090  55.907  1.00  0.00     0.150 C 
ATOM     12  C   UNL     1     -25.309 -61.233  57.151  1.00  0.00     0.174 C 
ATOM     13  O   UNL     1     -24.413 -63.351  56.214  1.00  0.00    -0.344 OA
ATOM     14  C   UNL     1     -24.370 -61.828  58.264  1.00  0.00     0.179 C 
ATOM     15  C   UNL     1     -22.937 -62.294  57.781  1.00  0.00     0.202 C 
BRANCH  12  16
ATOM     16  O   UNL     1     -25.007 -59.865  56.846  1.00  0.00    -0.388 OA
ATOM     17  H   UNL     1     -24.439 -59.795  56.022  1.00  0.00     0.211 HD
ENDBRANCH  12  16
BRANCH  14  18
ATOM     18  O   UNL     1     -24.324 -60.983  59.391  1.00  0.00    -0.387 OA
ATOM     19  H   UNL     1     -24.814 -61.487  60.125  1.00  0.00     0.211 HD
ENDBRANCH  14  18
BRANCH  15  20
ATOM     20  O   UNL     1     -22.023 -61.259  57.587  1.00  0.00    -0.385 OA
ATOM     21  H   UNL     1     -22.312 -60.436  58.087  1.00  0.00     0.211 HD
ENDBRANCH  15  20
ENDBRANCH   8   9
ENDBRANCH   7   8
ENDBRANCH   1   7
BRANCH   2  22
ATOM     22  O   UNL     1     -19.945 -65.728  57.141  1.00  0.00    -0.387 OA
ATOM     23  H   UNL     1     -19.142 -65.995  56.604  1.00  0.00     0.211 HD
ENDBRANCH   2  22
BRANCH   3  24
ATOM     24  O   UNL     1     -19.953 -67.714  55.037  1.00  0.00    -0.387 OA
ATOM     25  H   UNL     1     -20.230 -68.555  54.575  1.00  0.00     0.211 HD
ENDBRANCH   3  24
BRANCH   5  26
ATOM     26  O   UNL     1     -24.067 -67.040  55.867  1.00  0.00    -0.462 OA
BRANCH  26  27
ATOM     27  C   UNL     1     -25.411 -66.854  56.048  1.00  0.00     0.130 A 
ATOM     28  C   UNL     1     -26.122 -67.529  57.079  1.00  0.00     0.093 A 
ATOM     29  C   UNL     1     -26.123 -66.090  55.069  1.00  0.00     0.094 A 
ATOM     30  C   UNL     1     -27.523 -67.454  56.969  1.00  0.00     0.133 A 
ATOM     31  C   UNL     1     -27.508 -66.126  54.970  1.00  0.00     0.138 A 
ATOM     32  C   UNL     1     -28.200 -66.862  55.905  1.00  0.00     0.102 A 
ATOM     33  O   UNL     1     -28.121 -65.434  53.931  1.00  0.00    -0.484 OA
ATOM     34  C   UNL     1     -29.623 -67.129  55.562  1.00  0.00     0.174 C 
ATOM     35  C   UNL     1     -29.467 -65.765  53.508  1.00  0.00     0.211 C 
ATOM     36  O   UNL     1     -30.091 -68.312  55.771  1.00  0.00    -0.294 OA
ATOM     37  C   UNL     1     -30.393 -66.138  54.787  1.00  0.00     0.131 C 
BRANCH  30  38
ATOM     38  O   UNL     1     -28.247 -68.087  57.984  1.00  0.00    -0.507 OA
ATOM     39  H   UNL     1     -29.133 -68.600  57.885  1.00  0.00     0.293 HD
ENDBRANCH  30  38
BRANCH  35  40
ATOM     40  C   UNL     1     -30.017 -64.617  52.721  1.00  0.00    -0.003 A 
ATOM     41  C   UNL     1     -29.097 -63.777  52.120  1.00  0.00     0.057 A 
ATOM     42  C   UNL     1     -31.381 -64.259  52.722  1.00  0.00     0.011 A 
ATOM     43  C   UNL     1     -29.403 -62.444  51.860  1.00  0.00     0.158 A 
ATOM     44  C   UNL     1     -31.709 -62.914  52.461  1.00  0.00     0.051 A 
ATOM     45  C   UNL     1     -30.700 -61.966  52.130  1.00  0.00     0.160 A 
BRANCH  43  46
ATOM     46  O   UNL     1     -28.455 -61.537  51.397  1.00  0.00    -0.504 OA
ATOM     47  H   UNL     1     -28.524 -61.118  50.444  1.00  0.00     0.293 HD
ENDBRANCH  43  46
BRANCH  45  48
ATOM     48  O   UNL     1     -30.978 -60.600  52.159  1.00  0.00    -0.493 OA
ATOM     49  C   UNL     1     -31.478 -59.815  51.050  1.00  0.00     0.278 C 
ENDBRANCH  45  48
ENDBRANCH  35  40
ENDBRANCH  26  27
ENDBRANCH   5  26
BRANCH   4  50
ATOM     50  O   UNL     1     -22.305 -69.117  54.564  1.00  0.00    -0.384 OA
ATOM     51  H   UNL     1     -21.442 -69.615  54.349  1.00  0.00     0.211 HD
ENDBRANCH   4  50
TORSDOF 15
ENDMDL
MODEL 8
REMARK VINA RESULT:    -6.668      6.897     10.432
REMARK INTER + INTRA:         -12.645
REMARK INTER:                 -10.392
REMARK INTRA:                  -2.254
REMARK UNBOUND:                -1.689
REMARK SMILES COc1ccc([C@@H]2CC(=O)c3c(O)cc(O[C@@H]4O[C@H](CO[C@H]5O[C@@H](C)[C@H](O)[C@H](O)[C@@H]5O)[C@H](O)[C@@H](O)[C@@H]4O)cc3O2)cc1O
REMARK SMILES IDX 19 1 32 2 34 3 36 4 17 5 18 6 20 7 21 8 22 9 25 10 24 11
REMARK SMILES IDX 26 12 23 13 28 14 30 15 27 16 29 18 31 20 33 22 35 24 16 26
REMARK SMILES IDX 15 27 14 28 38 29 12 30 39 31 11 32 40 33 9 34 7 35 10 36
REMARK SMILES IDX 8 37 13 38 6 40 41 41 5 42 42 43 4 44 3 45 43 46 2 48 1 49
REMARK SMILES IDX 37 50
REMARK H PARENT 27 17 29 19 31 21 33 23 35 25 13 39 43 47 37 51
REMARK Flexibility Score: inf
ROOT
ATOM      1  C   UNL     1     -20.431 -61.934  57.107  1.00  0.00     0.180 C 
ATOM      2  C   UNL     1     -21.309 -61.367  58.244  1.00  0.00     0.177 C 
ATOM      3  C   UNL     1     -22.739 -61.927  58.210  1.00  0.00     0.180 C 
ATOM      4  C   UNL     1     -23.278 -61.640  56.766  1.00  0.00     0.214 C 
ATOM      5  C   UNL     1     -22.374 -62.371  55.734  1.00  0.00     0.339 C 
ATOM      6  O   UNL     1     -21.043 -61.836  55.815  1.00  0.00    -0.332 OA
ENDROOT
BRANCH   1   7
ATOM      7  C   UNL     1     -19.679 -63.286  57.395  1.00  0.00     0.198 C 
BRANCH   7   8
ATOM      8  O   UNL     1     -20.295 -64.065  58.440  1.00  0.00    -0.347 OA
BRANCH   8   9
ATOM      9  C   UNL     1     -20.304 -65.494  58.253  1.00  0.00     0.281 C 
ATOM     10  C   UNL     1     -23.195 -67.939  58.338  1.00  0.00     0.041 C 
ATOM     11  C   UNL     1     -21.728 -67.445  58.109  1.00  0.00     0.150 C 
ATOM     12  C   UNL     1     -21.299 -67.970  56.743  1.00  0.00     0.174 C 
ATOM     13  O   UNL     1     -21.640 -65.979  58.189  1.00  0.00    -0.344 OA
ATOM     14  C   UNL     1     -20.552 -66.786  56.023  1.00  0.00     0.179 C 
ATOM     15  C   UNL     1     -19.596 -65.916  56.935  1.00  0.00     0.202 C 
BRANCH  12  16
ATOM     16  O   UNL     1     -20.468 -69.125  56.913  1.00  0.00    -0.388 OA
ATOM     17  H   UNL     1     -20.718 -69.633  57.741  1.00  0.00     0.211 HD
ENDBRANCH  12  16
BRANCH  14  18
ATOM     18  O   UNL     1     -19.932 -67.228  54.837  1.00  0.00    -0.387 OA
ATOM     19  H   UNL     1     -18.975 -66.889  54.892  1.00  0.00     0.211 HD
ENDBRANCH  14  18
BRANCH  15  20
ATOM     20  O   UNL     1     -18.362 -66.504  57.211  1.00  0.00    -0.385 OA
ATOM     21  H   UNL     1     -18.325 -66.809  58.169  1.00  0.00     0.211 HD
ENDBRANCH  15  20
ENDBRANCH   8   9
ENDBRANCH   7   8
ENDBRANCH   1   7
BRANCH   2  22
ATOM     22  O   UNL     1     -20.724 -61.627  59.510  1.00  0.00    -0.387 OA
ATOM     23  H   UNL     1     -20.512 -60.727  59.900  1.00  0.00     0.211 HD
ENDBRANCH   2  22
BRANCH   3  24
ATOM     24  O   UNL     1     -23.564 -61.224  59.129  1.00  0.00    -0.387 OA
ATOM     25  H   UNL     1     -22.964 -61.022  59.902  1.00  0.00     0.211 HD
ENDBRANCH   3  24
BRANCH   5  26
ATOM     26  O   UNL     1     -22.417 -63.759  55.916  1.00  0.00    -0.462 OA
BRANCH  26  27
ATOM     27  C   UNL     1     -23.157 -64.546  55.075  1.00  0.00     0.130 A 
ATOM     28  C   UNL     1     -22.712 -64.850  53.758  1.00  0.00     0.093 A 
ATOM     29  C   UNL     1     -24.474 -64.923  55.490  1.00  0.00     0.094 A 
ATOM     30  C   UNL     1     -23.690 -65.430  52.929  1.00  0.00     0.133 A 
ATOM     31  C   UNL     1     -25.416 -65.418  54.598  1.00  0.00     0.138 A 
ATOM     32  C   UNL     1     -25.021 -65.620  53.294  1.00  0.00     0.102 A 
ATOM     33  O   UNL     1     -26.704 -65.670  55.056  1.00  0.00    -0.484 OA
ATOM     34  C   UNL     1     -26.134 -65.832  52.330  1.00  0.00     0.174 C 
ATOM     35  C   UNL     1     -27.819 -65.761  54.136  1.00  0.00     0.211 C 
ATOM     36  O   UNL     1     -26.077 -65.236  51.189  1.00  0.00    -0.294 OA
ATOM     37  C   UNL     1     -27.370 -66.509  52.767  1.00  0.00     0.131 C 
BRANCH  30  38
ATOM     38  O   UNL     1     -23.272 -65.764  51.638  1.00  0.00    -0.507 OA
ATOM     39  H   UNL     1     -23.100 -65.118  50.856  1.00  0.00     0.293 HD
ENDBRANCH  30  38
BRANCH  35  40
ATOM     40  C   UNL     1     -28.951 -66.459  54.822  1.00  0.00    -0.003 A 
ATOM     41  C   UNL     1     -30.049 -65.687  55.154  1.00  0.00     0.057 A 
ATOM     42  C   UNL     1     -28.869 -67.784  55.298  1.00  0.00     0.011 A 
ATOM     43  C   UNL     1     -30.871 -66.028  56.223  1.00  0.00     0.158 A 
ATOM     44  C   UNL     1     -29.693 -68.147  56.381  1.00  0.00     0.051 A 
ATOM     45  C   UNL     1     -30.634 -67.227  56.925  1.00  0.00     0.160 A 
BRANCH  43  46
ATOM     46  O   UNL     1     -31.891 -65.198  56.676  1.00  0.00    -0.504 OA
ATOM     47  H   UNL     1     -32.892 -65.399  56.461  1.00  0.00     0.293 HD
ENDBRANCH  43  46
BRANCH  45  48
ATOM     48  O   UNL     1     -31.232 -67.475  58.160  1.00  0.00    -0.493 OA
ATOM     49  C   UNL     1     -30.564 -68.007  59.329  1.00  0.00     0.278 C 
ENDBRANCH  45  48
ENDBRANCH  35  40
ENDBRANCH  26  27
ENDBRANCH   5  26
BRANCH   4  50
ATOM     50  O   UNL     1     -24.666 -61.889  56.666  1.00  0.00    -0.384 OA
ATOM     51  H   UNL     1     -25.084 -61.551  57.531  1.00  0.00     0.211 HD
ENDBRANCH   4  50
TORSDOF 15
ENDMDL
MODEL 9
REMARK VINA RESULT:    -6.543      5.512     10.470
REMARK INTER + INTRA:         -12.439
REMARK INTER:                 -10.075
REMARK INTRA:                  -2.364
REMARK UNBOUND:                -1.689
REMARK SMILES COc1ccc([C@@H]2CC(=O)c3c(O)cc(O[C@@H]4O[C@H](CO[C@H]5O[C@@H](C)[C@H](O)[C@H](O)[C@@H]5O)[C@H](O)[C@@H](O)[C@@H]4O)cc3O2)cc1O
REMARK SMILES IDX 19 1 32 2 34 3 36 4 17 5 18 6 20 7 21 8 22 9 25 10 24 11
REMARK SMILES IDX 26 12 23 13 28 14 30 15 27 16 29 18 31 20 33 22 35 24 16 26
REMARK SMILES IDX 15 27 14 28 38 29 12 30 39 31 11 32 40 33 9 34 7 35 10 36
REMARK SMILES IDX 8 37 13 38 6 40 41 41 5 42 42 43 4 44 3 45 43 46 2 48 1 49
REMARK SMILES IDX 37 50
REMARK H PARENT 27 17 29 19 31 21 33 23 35 25 13 39 43 47 37 51
REMARK Flexibility Score: inf
ROOT
ATOM      1  C   UNL     1     -21.579 -67.039  57.170  1.00  0.00     0.180 C 
ATOM      2  C   UNL     1     -20.344 -67.569  56.409  1.00  0.00     0.177 C 
ATOM      3  C   UNL     1     -20.602 -67.705  54.901  1.00  0.00     0.180 C 
ATOM      4  C   UNL     1     -21.884 -68.598  54.765  1.00  0.00     0.214 C 
ATOM      5  C   UNL     1     -23.074 -67.886  55.467  1.00  0.00     0.339 C 
ATOM      6  O   UNL     1     -22.782 -67.757  56.869  1.00  0.00    -0.332 OA
ENDROOT
BRANCH   1   7
ATOM      7  C   UNL     1     -21.735 -65.477  57.274  1.00  0.00     0.198 C 
BRANCH   7   8
ATOM      8  O   UNL     1     -23.094 -65.059  57.522  1.00  0.00    -0.347 OA
BRANCH   8   9
ATOM      9  C   UNL     1     -23.452 -63.741  57.060  1.00  0.00     0.281 C 
ATOM     10  C   UNL     1     -26.660 -62.516  55.462  1.00  0.00     0.041 C 
ATOM     11  C   UNL     1     -25.239 -62.415  56.109  1.00  0.00     0.150 C 
ATOM     12  C   UNL     1     -25.313 -61.307  57.155  1.00  0.00     0.174 C 
ATOM     13  O   UNL     1     -24.828 -63.699  56.696  1.00  0.00    -0.344 OA
ATOM     14  C   UNL     1     -24.557 -61.841  58.428  1.00  0.00     0.179 C 
ATOM     15  C   UNL     1     -23.230 -62.657  58.151  1.00  0.00     0.202 C 
BRANCH  12  16
ATOM     16  O   UNL     1     -24.729 -60.110  56.627  1.00  0.00    -0.388 OA
ATOM     17  H   UNL     1     -24.612 -59.417  57.343  1.00  0.00     0.211 HD
ENDBRANCH  12  16
BRANCH  14  18
ATOM     18  O   UNL     1     -24.386 -60.816  59.379  1.00  0.00    -0.387 OA
ATOM     19  H   UNL     1     -24.548 -61.257  60.281  1.00  0.00     0.211 HD
ENDBRANCH  14  18
BRANCH  15  20
ATOM     20  O   UNL     1     -22.119 -61.874  57.840  1.00  0.00    -0.385 OA
ATOM     21  H   UNL     1     -21.612 -62.275  57.069  1.00  0.00     0.211 HD
ENDBRANCH  15  20
ENDBRANCH   8   9
ENDBRANCH   7   8
ENDBRANCH   1   7
BRANCH   2  22
ATOM     22  O   UNL     1     -19.219 -66.731  56.627  1.00  0.00    -0.387 OA
ATOM     23  H   UNL     1     -18.555 -67.294  57.125  1.00  0.00     0.211 HD
ENDBRANCH   2  22
BRANCH   3  24
ATOM     24  O   UNL     1     -19.526 -68.392  54.277  1.00  0.00    -0.387 OA
ATOM     25  H   UNL     1     -19.961 -68.953  53.574  1.00  0.00     0.211 HD
ENDBRANCH   3  24
BRANCH   5  26
ATOM     26  O   UNL     1     -23.365 -66.661  54.855  1.00  0.00    -0.462 OA
BRANCH  26  27
ATOM     27  C   UNL     1     -24.546 -66.483  54.185  1.00  0.00     0.130 A 
ATOM     28  C   UNL     1     -24.571 -66.123  52.808  1.00  0.00     0.093 A 
ATOM     29  C   UNL     1     -25.760 -66.504  54.942  1.00  0.00     0.094 A 
ATOM     30  C   UNL     1     -25.831 -65.711  52.335  1.00  0.00     0.133 A 
ATOM     31  C   UNL     1     -26.954 -66.008  54.436  1.00  0.00     0.138 A 
ATOM     32  C   UNL     1     -26.963 -65.561  53.133  1.00  0.00     0.102 A 
ATOM     33  O   UNL     1     -28.068 -65.972  55.266  1.00  0.00    -0.484 OA
ATOM     34  C   UNL     1     -28.154 -64.752  52.758  1.00  0.00     0.174 C 
ATOM     35  C   UNL     1     -29.188 -65.099  54.975  1.00  0.00     0.211 C 
ATOM     36  O   UNL     1     -27.973 -63.687  52.055  1.00  0.00    -0.294 OA
ATOM     37  C   UNL     1     -29.463 -65.036  53.377  1.00  0.00     0.131 C 
BRANCH  30  38
ATOM     38  O   UNL     1     -25.891 -65.377  50.979  1.00  0.00    -0.507 OA
ATOM     39  H   UNL     1     -26.693 -65.499  50.346  1.00  0.00     0.293 HD
ENDBRANCH  30  38
BRANCH  35  40
ATOM     40  C   UNL     1     -30.381 -65.579  55.741  1.00  0.00    -0.003 A 
ATOM     41  C   UNL     1     -31.490 -64.752  55.748  1.00  0.00     0.057 A 
ATOM     42  C   UNL     1     -30.358 -66.711  56.581  1.00  0.00     0.011 A 
ATOM     43  C   UNL     1     -32.398 -64.778  56.802  1.00  0.00     0.158 A 
ATOM     44  C   UNL     1     -31.271 -66.754  57.653  1.00  0.00     0.051 A 
ATOM     45  C   UNL     1     -32.236 -65.723  57.834  1.00  0.00     0.160 A 
BRANCH  43  46
ATOM     46  O   UNL     1     -33.437 -63.860  56.915  1.00  0.00    -0.504 OA
ATOM     47  H   UNL     1     -34.403 -64.089  56.592  1.00  0.00     0.293 HD
ENDBRANCH  43  46
BRANCH  45  48
ATOM     48  O   UNL     1     -32.933 -65.611  59.036  1.00  0.00    -0.493 OA
ATOM     49  C   UNL     1     -32.451 -64.955  60.233  1.00  0.00     0.278 C 
ENDBRANCH  45  48
ENDBRANCH  35  40
ENDBRANCH  26  27
ENDBRANCH   5  26
BRANCH   4  50
ATOM     50  O   UNL     1     -22.101 -69.002  53.427  1.00  0.00    -0.384 OA
ATOM     51  H   UNL     1     -22.625 -69.876  53.471  1.00  0.00     0.211 HD
ENDBRANCH   4  50
TORSDOF 15
ENDMDL
