MODEL 1
REMARK VINA RESULT:    -7.378      0.000      0.000
REMARK INTER + INTRA:          -8.025
REMARK INTER:                  -8.025
REMARK INTRA:                   0.000
REMARK UNBOUND:                 0.000
REMARK SMILES Cc1cc(O)c2c(c1)C(=O)c1cc(O)cc(O)c1C2=O
REMARK SMILES IDX 1 1 2 2 8 3 7 4 6 5 4 6 3 7 19 8 20 9 18 10 11 11 9 12 10 13
REMARK SMILES IDX 12 14 13 15 15 16 16 17 5 18 17 20 14 22
REMARK H PARENT 5 19 17 21 14 23
REMARK Flexibility Score: inf
ROOT
ATOM      1  C   UNL     1     163.445 140.906 151.621  1.00  0.00     0.044 C 
ATOM      2  C   UNL     1     164.206 142.159 151.300  1.00  0.00    -0.047 A 
ATOM      3  C   UNL     1     165.336 142.106 150.480  1.00  0.00     0.016 A 
ATOM      4  C   UNL     1     166.029 143.280 150.139  1.00  0.00     0.038 A 
ATOM      5  C   UNL     1     165.567 144.531 150.605  1.00  0.00     0.076 A 
ATOM      6  C   UNL     1     164.447 144.574 151.475  1.00  0.00     0.127 A 
ATOM      7  C   UNL     1     163.762 143.394 151.784  1.00  0.00     0.050 A 
ATOM      8  C   UNL     1     166.238 145.759 150.103  1.00  0.00     0.201 C 
ATOM      9  O   UNL     1     165.583 146.830 149.994  1.00  0.00    -0.288 OA
ATOM     10  C   UNL     1     167.616 145.675 149.556  1.00  0.00     0.076 A 
ATOM     11  C   UNL     1     168.074 144.422 149.090  1.00  0.00     0.041 A 
ATOM     12  C   UNL     1     167.246 143.211 149.293  1.00  0.00     0.194 C 
ATOM     13  O   UNL     1     167.589 142.116 148.768  1.00  0.00    -0.289 OA
ATOM     14  C   UNL     1     169.317 144.330 148.441  1.00  0.00     0.059 A 
ATOM     15  C   UNL     1     170.112 145.463 148.265  1.00  0.00     0.120 A 
ATOM     16  C   UNL     1     169.681 146.697 148.760  1.00  0.00     0.093 A 
ATOM     17  C   UNL     1     168.457 146.811 149.427  1.00  0.00     0.131 A 
ENDROOT
BRANCH   6  18
ATOM     18  O   UNL     1     164.002 145.753 152.076  1.00  0.00    -0.507 OA
ATOM     19  H   UNL     1     164.237 146.676 151.738  1.00  0.00     0.293 HD
ENDBRANCH   6  18
BRANCH  17  20
ATOM     20  O   UNL     1     168.135 148.056 149.973  1.00  0.00    -0.507 OA
ATOM     21  H   UNL     1     167.302 148.228 150.517  1.00  0.00     0.293 HD
ENDBRANCH  17  20
BRANCH  15  22
ATOM     22  O   UNL     1     171.334 145.350 147.606  1.00  0.00    -0.508 OA
ATOM     23  H   UNL     1     172.095 144.800 147.989  1.00  0.00     0.293 HD
ENDBRANCH  15  22
TORSDOF 3
ENDMDL
MODEL 2
REMARK VINA RESULT:    -7.278      1.977      3.806
REMARK INTER + INTRA:          -7.916
REMARK INTER:                  -7.916
REMARK INTRA:                   0.000
REMARK UNBOUND:                 0.000
REMARK SMILES Cc1cc(O)c2c(c1)C(=O)c1cc(O)cc(O)c1C2=O
REMARK SMILES IDX 1 1 2 2 8 3 7 4 6 5 4 6 3 7 19 8 20 9 18 10 11 11 9 12 10 13
REMARK SMILES IDX 12 14 13 15 15 16 16 17 5 18 17 20 14 22
REMARK H PARENT 5 19 17 21 14 23
REMARK Flexibility Score: inf
ROOT
ATOM      1  C   UNL     1     163.626 141.097 152.251  1.00  0.00     0.044 C 
ATOM      2  C   UNL     1     164.389 141.898 151.237  1.00  0.00    -0.047 A 
ATOM      3  C   UNL     1     164.366 143.295 151.280  1.00  0.00     0.016 A 
ATOM      4  C   UNL     1     165.112 144.053 150.362  1.00  0.00     0.038 A 
ATOM      5  C   UNL     1     165.917 143.401 149.402  1.00  0.00     0.076 A 
ATOM      6  C   UNL     1     165.902 141.984 149.333  1.00  0.00     0.127 A 
ATOM      7  C   UNL     1     165.166 141.251 150.270  1.00  0.00     0.050 A 
ATOM      8  C   UNL     1     166.805 144.234 148.547  1.00  0.00     0.201 C 
ATOM      9  O   UNL     1     167.893 143.760 148.124  1.00  0.00    -0.288 OA
ATOM     10  C   UNL     1     166.500 145.675 148.352  1.00  0.00     0.076 A 
ATOM     11  C   UNL     1     165.695 146.323 149.316  1.00  0.00     0.041 A 
ATOM     12  C   UNL     1     165.057 145.535 150.396  1.00  0.00     0.194 C 
ATOM     13  O   UNL     1     164.444 146.123 151.330  1.00  0.00    -0.289 OA
ATOM     14  C   UNL     1     165.499 147.712 149.242  1.00  0.00     0.059 A 
ATOM     15  C   UNL     1     166.080 148.457 148.216  1.00  0.00     0.120 A 
ATOM     16  C   UNL     1     166.844 147.815 147.238  1.00  0.00     0.093 A 
ATOM     17  C   UNL     1     167.037 146.430 147.278  1.00  0.00     0.131 A 
ENDROOT
BRANCH   6  18
ATOM     18  O   UNL     1     166.571 141.268 148.337  1.00  0.00    -0.507 OA
ATOM     19  H   UNL     1     167.501 140.889 148.452  1.00  0.00     0.293 HD
ENDBRANCH   6  18
BRANCH  17  20
ATOM     20  O   UNL     1     167.735 145.847 146.218  1.00  0.00    -0.507 OA
ATOM     21  H   UNL     1     168.116 146.372 145.443  1.00  0.00     0.293 HD
ENDBRANCH  17  20
BRANCH  15  22
ATOM     22  O   UNL     1     165.883 149.836 148.170  1.00  0.00    -0.508 OA
ATOM     23  H   UNL     1     165.279 150.308 148.833  1.00  0.00     0.293 HD
ENDBRANCH  15  22
TORSDOF 3
ENDMDL
MODEL 3
REMARK VINA RESULT:    -6.972      1.468      6.254
REMARK INTER + INTRA:          -7.583
REMARK INTER:                  -7.583
REMARK INTRA:                   0.000
REMARK UNBOUND:                 0.000
REMARK SMILES Cc1cc(O)c2c(c1)C(=O)c1cc(O)cc(O)c1C2=O
REMARK SMILES IDX 1 1 2 2 8 3 7 4 6 5 4 6 3 7 19 8 20 9 18 10 11 11 9 12 10 13
REMARK SMILES IDX 12 14 13 15 15 16 16 17 5 18 17 20 14 22
REMARK H PARENT 5 19 17 21 14 23
REMARK Flexibility Score: inf
ROOT
ATOM      1  C   UNL     1     168.521 149.174 148.875  1.00  0.00     0.044 C 
ATOM      2  C   UNL     1     168.141 147.736 149.071  1.00  0.00    -0.047 A 
ATOM      3  C   UNL     1     166.908 147.405 149.641  1.00  0.00     0.016 A 
ATOM      4  C   UNL     1     166.524 146.061 149.789  1.00  0.00     0.038 A 
ATOM      5  C   UNL     1     167.377 145.032 149.332  1.00  0.00     0.076 A 
ATOM      6  C   UNL     1     168.646 145.372 148.797  1.00  0.00     0.127 A 
ATOM      7  C   UNL     1     168.997 146.717 148.642  1.00  0.00     0.050 A 
ATOM      8  C   UNL     1     166.873 143.634 149.370  1.00  0.00     0.201 C 
ATOM      9  O   UNL     1     167.274 142.800 148.516  1.00  0.00    -0.288 OA
ATOM     10  C   UNL     1     165.762 143.275 150.289  1.00  0.00     0.076 A 
ATOM     11  C   UNL     1     164.911 144.308 150.743  1.00  0.00     0.041 A 
ATOM     12  C   UNL     1     165.228 145.719 150.423  1.00  0.00     0.194 C 
ATOM     13  O   UNL     1     164.407 146.633 150.714  1.00  0.00    -0.289 OA
ATOM     14  C   UNL     1     163.771 143.991 151.500  1.00  0.00     0.059 A 
ATOM     15  C   UNL     1     163.478 142.667 151.822  1.00  0.00     0.120 A 
ATOM     16  C   UNL     1     164.338 141.645 151.410  1.00  0.00     0.093 A 
ATOM     17  C   UNL     1     165.491 141.936 150.673  1.00  0.00     0.131 A 
ENDROOT
BRANCH   6  18
ATOM     18  O   UNL     1     169.596 144.413 148.437  1.00  0.00    -0.507 OA
ATOM     19  H   UNL     1     170.115 143.861 149.107  1.00  0.00     0.293 HD
ENDBRANCH   6  18
BRANCH  17  20
ATOM     20  O   UNL     1     166.350 140.875 150.375  1.00  0.00    -0.507 OA
ATOM     21  H   UNL     1     167.166 140.647 150.924  1.00  0.00     0.293 HD
ENDBRANCH  17  20
BRANCH  15  22
ATOM     22  O   UNL     1     162.334 142.375 152.562  1.00  0.00    -0.508 OA
ATOM     23  H   UNL     1     162.373 141.795 153.392  1.00  0.00     0.293 HD
ENDBRANCH  15  22
TORSDOF 3
ENDMDL
MODEL 4
REMARK VINA RESULT:    -6.924      4.309      7.734
REMARK INTER + INTRA:          -7.531
REMARK INTER:                  -7.531
REMARK INTRA:                   0.000
REMARK UNBOUND:                 0.000
REMARK SMILES Cc1cc(O)c2c(c1)C(=O)c1cc(O)cc(O)c1C2=O
REMARK SMILES IDX 1 1 2 2 8 3 7 4 6 5 4 6 3 7 19 8 20 9 18 10 11 11 9 12 10 13
REMARK SMILES IDX 12 14 13 15 15 16 16 17 5 18 17 20 14 22
REMARK H PARENT 5 19 17 21 14 23
REMARK Flexibility Score: inf
ROOT
ATOM      1  C   UNL     1     169.257 153.626 150.359  1.00  0.00     0.044 C 
ATOM      2  C   UNL     1     169.285 152.374 149.534  1.00  0.00    -0.047 A 
ATOM      3  C   UNL     1     168.120 151.621 149.355  1.00  0.00     0.016 A 
ATOM      4  C   UNL     1     168.127 150.471 148.547  1.00  0.00     0.038 A 
ATOM      5  C   UNL     1     169.314 150.083 147.886  1.00  0.00     0.076 A 
ATOM      6  C   UNL     1     170.503 150.823 148.108  1.00  0.00     0.127 A 
ATOM      7  C   UNL     1     170.467 151.975 148.900  1.00  0.00     0.050 A 
ATOM      8  C   UNL     1     169.243 148.949 146.926  1.00  0.00     0.201 C 
ATOM      9  O   UNL     1     170.023 148.917 145.937  1.00  0.00    -0.288 OA
ATOM     10  C   UNL     1     168.137 147.963 147.029  1.00  0.00     0.076 A 
ATOM     11  C   UNL     1     166.952 148.356 147.691  1.00  0.00     0.041 A 
ATOM     12  C   UNL     1     166.894 149.662 148.388  1.00  0.00     0.194 C 
ATOM     13  O   UNL     1     165.802 150.073 148.870  1.00  0.00    -0.289 OA
ATOM     14  C   UNL     1     165.835 147.504 147.689  1.00  0.00     0.059 A 
ATOM     15  C   UNL     1     165.889 146.265 147.052  1.00  0.00     0.120 A 
ATOM     16  C   UNL     1     167.072 145.854 146.430  1.00  0.00     0.093 A 
ATOM     17  C   UNL     1     168.204 146.676 146.436  1.00  0.00     0.131 A 
ENDROOT
BRANCH   6  18
ATOM     18  O   UNL     1     171.742 150.435 147.591  1.00  0.00    -0.507 OA
ATOM     19  H   UNL     1     171.900 150.227 146.615  1.00  0.00     0.293 HD
ENDBRANCH   6  18
BRANCH  17  20
ATOM     20  O   UNL     1     169.376 146.162 145.875  1.00  0.00    -0.507 OA
ATOM     21  H   UNL     1     169.881 146.613 145.126  1.00  0.00     0.293 HD
ENDBRANCH  17  20
BRANCH  15  22
ATOM     22  O   UNL     1     164.765 145.442 147.051  1.00  0.00    -0.508 OA
ATOM     23  H   UNL     1     164.219 145.288 147.891  1.00  0.00     0.293 HD
ENDBRANCH  15  22
TORSDOF 3
ENDMDL
MODEL 5
REMARK VINA RESULT:    -6.914      3.290      5.668
REMARK INTER + INTRA:          -7.521
REMARK INTER:                  -7.521
REMARK INTRA:                   0.000
REMARK UNBOUND:                 0.000
REMARK SMILES Cc1cc(O)c2c(c1)C(=O)c1cc(O)cc(O)c1C2=O
REMARK SMILES IDX 1 1 2 2 8 3 7 4 6 5 4 6 3 7 19 8 20 9 18 10 11 11 9 12 10 13
REMARK SMILES IDX 12 14 13 15 15 16 16 17 5 18 17 20 14 22
REMARK H PARENT 5 19 17 21 14 23
REMARK Flexibility Score: inf
ROOT
ATOM      1  C   UNL     1     170.383 144.013 149.666  1.00  0.00     0.044 C 
ATOM      2  C   UNL     1     169.419 145.148 149.486  1.00  0.00    -0.047 A 
ATOM      3  C   UNL     1     169.882 146.413 149.112  1.00  0.00     0.016 A 
ATOM      4  C   UNL     1     168.982 147.471 148.900  1.00  0.00     0.038 A 
ATOM      5  C   UNL     1     167.593 147.252 149.038  1.00  0.00     0.076 A 
ATOM      6  C   UNL     1     167.132 145.979 149.462  1.00  0.00     0.127 A 
ATOM      7  C   UNL     1     168.045 144.937 149.649  1.00  0.00     0.050 A 
ATOM      8  C   UNL     1     166.668 148.354 148.660  1.00  0.00     0.201 C 
ATOM      9  O   UNL     1     165.520 148.083 148.216  1.00  0.00    -0.288 OA
ATOM     10  C   UNL     1     167.162 149.754 148.630  1.00  0.00     0.076 A 
ATOM     11  C   UNL     1     168.552 149.968 148.491  1.00  0.00     0.041 A 
ATOM     12  C   UNL     1     169.484 148.818 148.533  1.00  0.00     0.194 C 
ATOM     13  O   UNL     1     170.710 148.988 148.282  1.00  0.00    -0.289 OA
ATOM     14  C   UNL     1     169.044 151.273 148.320  1.00  0.00     0.059 A 
ATOM     15  C   UNL     1     168.174 152.363 148.300  1.00  0.00     0.120 A 
ATOM     16  C   UNL     1     166.802 152.160 148.477  1.00  0.00     0.093 A 
ATOM     17  C   UNL     1     166.290 150.873 148.670  1.00  0.00     0.131 A 
ENDROOT
BRANCH   6  18
ATOM     18  O   UNL     1     165.789 145.717 149.740  1.00  0.00    -0.507 OA
ATOM     19  H   UNL     1     165.335 144.838 149.527  1.00  0.00     0.293 HD
ENDBRANCH   6  18
BRANCH  17  20
ATOM     20  O   UNL     1     164.922 150.757 148.931  1.00  0.00    -0.507 OA
ATOM     21  H   UNL     1     164.416 151.380 149.543  1.00  0.00     0.293 HD
ENDBRANCH  17  20
BRANCH  15  22
ATOM     22  O   UNL     1     168.683 153.647 148.115  1.00  0.00    -0.508 OA
ATOM     23  H   UNL     1     169.089 153.935 147.232  1.00  0.00     0.293 HD
ENDBRANCH  15  22
TORSDOF 3
ENDMDL
MODEL 6
REMARK VINA RESULT:    -6.885      2.163      5.316
REMARK INTER + INTRA:          -7.489
REMARK INTER:                  -7.489
REMARK INTRA:                   0.000
REMARK UNBOUND:                 0.000
REMARK SMILES Cc1cc(O)c2c(c1)C(=O)c1cc(O)cc(O)c1C2=O
REMARK SMILES IDX 1 1 2 2 8 3 7 4 6 5 4 6 3 7 19 8 20 9 18 10 11 11 9 12 10 13
REMARK SMILES IDX 12 14 13 15 15 16 16 17 5 18 17 20 14 22
REMARK H PARENT 5 19 17 21 14 23
REMARK Flexibility Score: inf
ROOT
ATOM      1  C   UNL     1     168.401 150.934 148.034  1.00  0.00     0.044 C 
ATOM      2  C   UNL     1     167.712 149.662 148.432  1.00  0.00    -0.047 A 
ATOM      3  C   UNL     1     168.462 148.530 148.769  1.00  0.00     0.016 A 
ATOM      4  C   UNL     1     167.826 147.348 149.185  1.00  0.00     0.038 A 
ATOM      5  C   UNL     1     166.418 147.306 149.292  1.00  0.00     0.076 A 
ATOM      6  C   UNL     1     165.661 148.442 148.906  1.00  0.00     0.127 A 
ATOM      7  C   UNL     1     166.317 149.613 148.513  1.00  0.00     0.050 A 
ATOM      8  C   UNL     1     165.795 146.090 149.877  1.00  0.00     0.201 C 
ATOM      9  O   UNL     1     164.710 146.184 150.511  1.00  0.00    -0.288 OA
ATOM     10  C   UNL     1     166.541 144.805 149.876  1.00  0.00     0.076 A 
ATOM     11  C   UNL     1     167.950 144.852 149.768  1.00  0.00     0.041 A 
ATOM     12  C   UNL     1     168.628 146.143 149.511  1.00  0.00     0.194 C 
ATOM     13  O   UNL     1     169.888 146.213 149.541  1.00  0.00    -0.289 OA
ATOM     14  C   UNL     1     168.700 143.671 149.902  1.00  0.00     0.059 A 
ATOM     15  C   UNL     1     168.067 142.449 150.125  1.00  0.00     0.120 A 
ATOM     16  C   UNL     1     166.671 142.392 150.192  1.00  0.00     0.093 A 
ATOM     17  C   UNL     1     165.901 143.549 150.042  1.00  0.00     0.131 A 
ENDROOT
BRANCH   6  18
ATOM     18  O   UNL     1     164.264 148.441 148.865  1.00  0.00    -0.507 OA
ATOM     19  H   UNL     1     163.693 149.174 149.263  1.00  0.00     0.293 HD
ENDBRANCH   6  18
BRANCH  17  20
ATOM     20  O   UNL     1     164.512 143.401 150.028  1.00  0.00    -0.507 OA
ATOM     21  H   UNL     1     163.867 144.176 150.095  1.00  0.00     0.293 HD
ENDBRANCH  17  20
BRANCH  15  22
ATOM     22  O   UNL     1     168.832 141.294 150.268  1.00  0.00    -0.508 OA
ATOM     23  H   UNL     1     168.430 140.431 150.616  1.00  0.00     0.293 HD
ENDBRANCH  15  22
TORSDOF 3
ENDMDL
MODEL 7
REMARK VINA RESULT:    -6.884      2.216      4.211
REMARK INTER + INTRA:          -7.488
REMARK INTER:                  -7.488
REMARK INTRA:                   0.000
REMARK UNBOUND:                 0.000
REMARK SMILES Cc1cc(O)c2c(c1)C(=O)c1cc(O)cc(O)c1C2=O
REMARK SMILES IDX 1 1 2 2 8 3 7 4 6 5 4 6 3 7 19 8 20 9 18 10 11 11 9 12 10 13
REMARK SMILES IDX 12 14 13 15 15 16 16 17 5 18 17 20 14 22
REMARK H PARENT 5 19 17 21 14 23
REMARK Flexibility Score: inf
ROOT
ATOM      1  C   UNL     1     164.619 142.556 150.586  1.00  0.00     0.044 C 
ATOM      2  C   UNL     1     165.675 143.554 150.210  1.00  0.00    -0.047 A 
ATOM      3  C   UNL     1     165.335 144.894 150.003  1.00  0.00     0.016 A 
ATOM      4  C   UNL     1     166.323 145.844 149.694  1.00  0.00     0.038 A 
ATOM      5  C   UNL     1     167.678 145.451 149.618  1.00  0.00     0.076 A 
ATOM      6  C   UNL     1     168.011 144.082 149.783  1.00  0.00     0.127 A 
ATOM      7  C   UNL     1     167.013 143.158 150.109  1.00  0.00     0.050 A 
ATOM      8  C   UNL     1     168.707 146.509 149.436  1.00  0.00     0.201 C 
ATOM      9  O   UNL     1     169.862 146.348 149.914  1.00  0.00    -0.288 OA
ATOM     10  C   UNL     1     168.320 147.823 148.863  1.00  0.00     0.076 A 
ATOM     11  C   UNL     1     166.964 148.212 148.941  1.00  0.00     0.041 A 
ATOM     12  C   UNL     1     165.950 147.258 149.446  1.00  0.00     0.194 C 
ATOM     13  O   UNL     1     164.762 147.641 149.639  1.00  0.00    -0.289 OA
ATOM     14  C   UNL     1     166.583 149.503 148.536  1.00  0.00     0.059 A 
ATOM     15  C   UNL     1     167.529 150.400 148.041  1.00  0.00     0.120 A 
ATOM     16  C   UNL     1     168.865 150.005 147.924  1.00  0.00     0.093 A 
ATOM     17  C   UNL     1     169.266 148.720 148.301  1.00  0.00     0.131 A 
ENDROOT
BRANCH   6  18
ATOM     18  O   UNL     1     169.307 143.592 149.602  1.00  0.00    -0.507 OA
ATOM     19  H   UNL     1     170.120 143.978 150.063  1.00  0.00     0.293 HD
ENDBRANCH   6  18
BRANCH  17  20
ATOM     20  O   UNL     1     170.598 148.367 148.070  1.00  0.00    -0.507 OA
ATOM     21  H   UNL     1     170.876 147.524 147.587  1.00  0.00     0.293 HD
ENDBRANCH  17  20
BRANCH  15  22
ATOM     22  O   UNL     1     167.131 151.679 147.658  1.00  0.00    -0.508 OA
ATOM     23  H   UNL     1     166.385 151.824 146.987  1.00  0.00     0.293 HD
ENDBRANCH  15  22
TORSDOF 3
ENDMDL
MODEL 8
REMARK VINA RESULT:    -6.881      4.326      6.104
REMARK INTER + INTRA:          -7.485
REMARK INTER:                  -7.485
REMARK INTRA:                   0.000
REMARK UNBOUND:                 0.000
REMARK SMILES Cc1cc(O)c2c(c1)C(=O)c1cc(O)cc(O)c1C2=O
REMARK SMILES IDX 1 1 2 2 8 3 7 4 6 5 4 6 3 7 19 8 20 9 18 10 11 11 9 12 10 13
REMARK SMILES IDX 12 14 13 15 15 16 16 17 5 18 17 20 14 22
REMARK H PARENT 5 19 17 21 14 23
REMARK Flexibility Score: inf
ROOT
ATOM      1  C   UNL     1     166.272 144.835 146.704  1.00  0.00     0.044 C 
ATOM      2  C   UNL     1     166.340 146.240 147.224  1.00  0.00    -0.047 A 
ATOM      3  C   UNL     1     167.343 147.108 146.781  1.00  0.00     0.016 A 
ATOM      4  C   UNL     1     167.389 148.439 147.229  1.00  0.00     0.038 A 
ATOM      5  C   UNL     1     166.398 148.917 148.115  1.00  0.00     0.076 A 
ATOM      6  C   UNL     1     165.410 148.021 148.598  1.00  0.00     0.127 A 
ATOM      7  C   UNL     1     165.373 146.706 148.122  1.00  0.00     0.050 A 
ATOM      8  C   UNL     1     166.395 150.366 148.448  1.00  0.00     0.201 C 
ATOM      9  O   UNL     1     165.309 150.945 148.717  1.00  0.00    -0.288 OA
ATOM     10  C   UNL     1     167.637 151.164 148.280  1.00  0.00     0.076 A 
ATOM     11  C   UNL     1     168.625 150.682 147.393  1.00  0.00     0.041 A 
ATOM     12  C   UNL     1     168.474 149.343 146.777  1.00  0.00     0.194 C 
ATOM     13  O   UNL     1     169.285 148.961 145.888  1.00  0.00    -0.289 OA
ATOM     14  C   UNL     1     169.749 151.473 147.101  1.00  0.00     0.059 A 
ATOM     15  C   UNL     1     169.907 152.726 147.693  1.00  0.00     0.120 A 
ATOM     16  C   UNL     1     168.952 153.191 148.602  1.00  0.00     0.093 A 
ATOM     17  C   UNL     1     167.835 152.413 148.924  1.00  0.00     0.131 A 
ENDROOT
BRANCH   6  18
ATOM     18  O   UNL     1     164.471 148.381 149.567  1.00  0.00    -0.507 OA
ATOM     19  H   UNL     1     163.895 147.715 150.062  1.00  0.00     0.293 HD
ENDBRANCH   6  18
BRANCH  17  20
ATOM     20  O   UNL     1     166.973 152.902 149.908  1.00  0.00    -0.507 OA
ATOM     21  H   UNL     1     167.274 153.156 150.838  1.00  0.00     0.293 HD
ENDBRANCH  17  20
BRANCH  15  22
ATOM     22  O   UNL     1     171.023 153.500 147.379  1.00  0.00    -0.508 OA
ATOM     23  H   UNL     1     171.964 153.143 147.493  1.00  0.00     0.293 HD
ENDBRANCH  15  22
TORSDOF 3
ENDMDL
MODEL 9
REMARK VINA RESULT:    -6.820      4.006      6.675
REMARK INTER + INTRA:          -7.418
REMARK INTER:                  -7.418
REMARK INTRA:                   0.000
REMARK UNBOUND:                 0.000
REMARK SMILES Cc1cc(O)c2c(c1)C(=O)c1cc(O)cc(O)c1C2=O
REMARK SMILES IDX 1 1 2 2 8 3 7 4 6 5 4 6 3 7 19 8 20 9 18 10 11 11 9 12 10 13
REMARK SMILES IDX 12 14 13 15 15 16 16 17 5 18 17 20 14 22
REMARK H PARENT 5 19 17 21 14 23
REMARK Flexibility Score: inf
ROOT
ATOM      1  C   UNL     1     165.441 145.221 147.040  1.00  0.00     0.044 C 
ATOM      2  C   UNL     1     166.521 146.241 147.249  1.00  0.00    -0.047 A 
ATOM      3  C   UNL     1     166.207 147.501 147.768  1.00  0.00     0.016 A 
ATOM      4  C   UNL     1     167.218 148.448 148.008  1.00  0.00     0.038 A 
ATOM      5  C   UNL     1     168.567 148.119 147.750  1.00  0.00     0.076 A 
ATOM      6  C   UNL     1     168.874 146.856 147.181  1.00  0.00     0.127 A 
ATOM      7  C   UNL     1     167.854 145.923 146.969  1.00  0.00     0.050 A 
ATOM      8  C   UNL     1     169.617 149.090 148.156  1.00  0.00     0.201 C 
ATOM      9  O   UNL     1     170.759 148.676 148.490  1.00  0.00    -0.288 OA
ATOM     10  C   UNL     1     169.263 150.521 148.348  1.00  0.00     0.076 A 
ATOM     11  C   UNL     1     167.912 150.845 148.606  1.00  0.00     0.041 A 
ATOM     12  C   UNL     1     166.873 149.793 148.530  1.00  0.00     0.194 C 
ATOM     13  O   UNL     1     165.688 150.049 148.883  1.00  0.00    -0.289 OA
ATOM     14  C   UNL     1     167.561 152.167 148.929  1.00  0.00     0.059 A 
ATOM     15  C   UNL     1     168.532 153.166 148.983  1.00  0.00     0.120 A 
ATOM     16  C   UNL     1     169.864 152.858 148.689  1.00  0.00     0.093 A 
ATOM     17  C   UNL     1     170.236 151.555 148.345  1.00  0.00     0.131 A 
ENDROOT
BRANCH   6  18
ATOM     18  O   UNL     1     170.165 146.501 146.783  1.00  0.00    -0.507 OA
ATOM     19  H   UNL     1     170.367 145.722 146.171  1.00  0.00     0.293 HD
ENDBRANCH   6  18
BRANCH  17  20
ATOM     20  O   UNL     1     171.566 151.341 147.976  1.00  0.00    -0.507 OA
ATOM     21  H   UNL     1     172.335 151.346 148.630  1.00  0.00     0.293 HD
ENDBRANCH  17  20
BRANCH  15  22
ATOM     22  O   UNL     1     168.163 154.467 149.319  1.00  0.00    -0.508 OA
ATOM     23  H   UNL     1     167.705 154.679 150.197  1.00  0.00     0.293 HD
ENDBRANCH  15  22
TORSDOF 3
ENDMDL
