MODEL 1
REMARK VINA RESULT:    -3.869      0.000      0.000
REMARK INTER + INTRA:          -6.886
REMARK INTER:                  -5.904
REMARK INTRA:                  -0.982
REMARK UNBOUND:                -0.982
REMARK SMILES CCCCCCCCCCC(=O)[O-]
REMARK SMILES IDX 7 1 8 2 9 3 10 4 11 5 12 6 13 7 6 8 5 9 4 10 3 11 2 12 1 13
REMARK H PARENT
REMARK Flexibility Score: inf
ROOT
ATOM      1  C   UNL     1       9.940 -17.329  31.616  1.00  0.00     0.000 C 
ENDROOT
BRANCH   1   2
ATOM      2  C   UNL     1       9.226 -18.053  32.768  1.00  0.00     0.000 C 
BRANCH   2   3
ATOM      3  C   UNL     1       8.596 -17.079  33.779  1.00  0.00     0.006 C 
BRANCH   3   4
ATOM      4  C   UNL     1       9.364 -17.043  35.106  1.00  0.00     0.053 C 
BRANCH   4   5
ATOM      5  C   UNL     1      10.039 -15.723  35.322  1.00  0.00     0.041 C 
ATOM      6  O   UNL     1      10.854 -15.281  34.470  1.00  0.00    -0.550 OA
ATOM      7  O   UNL     1       9.798 -15.000  36.483  1.00  0.00    -0.550 OA
ENDBRANCH   4   5
ENDBRANCH   3   4
ENDBRANCH   2   3
ENDBRANCH   1   2
BRANCH   1   8
ATOM      8  C   UNL     1      10.803 -18.279  30.767  1.00  0.00     0.000 C 
BRANCH   8   9
ATOM      9  C   UNL     1      10.704 -19.741  31.233  1.00  0.00    -0.000 C 
BRANCH   9  10
ATOM     10  C   UNL     1      10.293 -20.697  30.100  1.00  0.00    -0.000 C 
BRANCH  10  11
ATOM     11  C   UNL     1       8.970 -20.271  29.429  1.00  0.00    -0.000 C 
BRANCH  11  12
ATOM     12  C   UNL     1       7.746 -20.388  30.355  1.00  0.00    -0.003 C 
ATOM     13  C   UNL     1       6.790 -19.203  30.235  1.00  0.00     0.004 C 
ENDBRANCH  11  12
ENDBRANCH  10  11
ENDBRANCH   9  10
ENDBRANCH   8   9
ENDBRANCH   1   8
TORSDOF 9
ENDMDL
MODEL 2
REMARK VINA RESULT:    -3.854      0.664      1.537
REMARK INTER + INTRA:          -6.864
REMARK INTER:                  -6.148
REMARK INTRA:                  -0.717
REMARK UNBOUND:                -0.982
REMARK SMILES CCCCCCCCCCC(=O)[O-]
REMARK SMILES IDX 7 1 8 2 9 3 10 4 11 5 12 6 13 7 6 8 5 9 4 10 3 11 2 12 1 13
REMARK H PARENT
REMARK Flexibility Score: inf
ROOT
ATOM      1  C   UNL     1       9.366 -17.876  32.820  1.00  0.00     0.000 C 
ENDROOT
BRANCH   1   2
ATOM      2  C   UNL     1       8.490 -16.786  33.458  1.00  0.00     0.000 C 
BRANCH   2   3
ATOM      3  C   UNL     1       8.500 -16.845  34.995  1.00  0.00     0.006 C 
BRANCH   3   4
ATOM      4  C   UNL     1       9.885 -16.537  35.578  1.00  0.00     0.053 C 
BRANCH   4   5
ATOM      5  C   UNL     1      10.253 -15.095  35.406  1.00  0.00     0.041 C 
ATOM      6  O   UNL     1       9.668 -14.207  36.081  1.00  0.00    -0.550 OA
ATOM      7  O   UNL     1      11.215 -14.728  34.474  1.00  0.00    -0.550 OA
ENDBRANCH   4   5
ENDBRANCH   3   4
ENDBRANCH   2   3
ENDBRANCH   1   2
BRANCH   1   8
ATOM      8  C   UNL     1      10.429 -17.297  31.869  1.00  0.00     0.000 C 
BRANCH   8   9
ATOM      9  C   UNL     1      10.925 -18.327  30.842  1.00  0.00    -0.000 C 
BRANCH   9  10
ATOM     10  C   UNL     1      10.445 -19.755  31.155  1.00  0.00    -0.000 C 
BRANCH  10  11
ATOM     11  C   UNL     1      10.200 -20.581  29.874  1.00  0.00    -0.000 C 
BRANCH  11  12
ATOM     12  C   UNL     1       8.728 -20.976  29.669  1.00  0.00    -0.003 C 
ATOM     13  C   UNL     1       7.760 -20.128  30.492  1.00  0.00     0.004 C 
ENDBRANCH  11  12
ENDBRANCH  10  11
ENDBRANCH   9  10
ENDBRANCH   8   9
ENDBRANCH   1   8
TORSDOF 9
ENDMDL
MODEL 3
REMARK VINA RESULT:    -3.763      3.800      6.386
REMARK INTER + INTRA:          -6.725
REMARK INTER:                  -6.141
REMARK INTRA:                  -0.584
REMARK UNBOUND:                -0.982
REMARK SMILES CCCCCCCCCCC(=O)[O-]
REMARK SMILES IDX 7 1 8 2 9 3 10 4 11 5 12 6 13 7 6 8 5 9 4 10 3 11 2 12 1 13
REMARK H PARENT
REMARK Flexibility Score: inf
ROOT
ATOM      1  C   UNL     1      10.965 -18.261  30.816  1.00  0.00     0.000 C 
ENDROOT
BRANCH   1   2
ATOM      2  C   UNL     1      10.763 -19.725  31.237  1.00  0.00     0.000 C 
BRANCH   2   3
ATOM      3  C   UNL     1       9.989 -20.541  30.188  1.00  0.00     0.006 C 
BRANCH   3   4
ATOM      4  C   UNL     1       8.471 -20.353  30.313  1.00  0.00     0.053 C 
BRANCH   4   5
ATOM      5  C   UNL     1       7.728 -21.105  29.252  1.00  0.00     0.041 C 
ATOM      6  O   UNL     1       6.473 -21.037  29.188  1.00  0.00    -0.550 OA
ATOM      7  O   UNL     1       8.420 -21.912  28.357  1.00  0.00    -0.550 OA
ENDBRANCH   4   5
ENDBRANCH   3   4
ENDBRANCH   2   3
ENDBRANCH   1   2
BRANCH   1   8
ATOM      8  C   UNL     1      10.416 -17.267  31.855  1.00  0.00     0.000 C 
BRANCH   8   9
ATOM      9  C   UNL     1       9.428 -17.922  32.833  1.00  0.00    -0.000 C 
BRANCH   9  10
ATOM     10  C   UNL     1       8.796 -16.909  33.802  1.00  0.00    -0.000 C 
BRANCH  10  11
ATOM     11  C   UNL     1       9.223 -17.157  35.265  1.00  0.00    -0.000 C 
BRANCH  11  12
ATOM     12  C   UNL     1      10.056 -16.012  35.865  1.00  0.00    -0.003 C 
ATOM     13  C   UNL     1      10.404 -14.927  34.847  1.00  0.00     0.004 C 
ENDBRANCH  11  12
ENDBRANCH  10  11
ENDBRANCH   9  10
ENDBRANCH   8   9
ENDBRANCH   1   8
TORSDOF 9
ENDMDL
MODEL 4
REMARK VINA RESULT:    -3.753      1.042      2.251
REMARK INTER + INTRA:          -6.709
REMARK INTER:                  -5.975
REMARK INTRA:                  -0.734
REMARK UNBOUND:                -0.982
REMARK SMILES CCCCCCCCCCC(=O)[O-]
REMARK SMILES IDX 7 1 8 2 9 3 10 4 11 5 12 6 13 7 6 8 5 9 4 10 3 11 2 12 1 13
REMARK H PARENT
REMARK Flexibility Score: inf
ROOT
ATOM      1  C   UNL     1       8.407 -16.992  33.495  1.00  0.00     0.000 C 
ENDROOT
BRANCH   1   2
ATOM      2  C   UNL     1       8.276 -17.093  35.023  1.00  0.00     0.000 C 
BRANCH   2   3
ATOM      3  C   UNL     1       8.705 -15.800  35.739  1.00  0.00     0.006 C 
BRANCH   3   4
ATOM      4  C   UNL     1      10.225 -15.719  35.926  1.00  0.00     0.053 C 
BRANCH   4   5
ATOM      5  C   UNL     1      10.813 -14.550  35.196  1.00  0.00     0.041 C 
ATOM      6  O   UNL     1      10.680 -14.450  33.948  1.00  0.00    -0.550 OA
ATOM      7  O   UNL     1      11.541 -13.591  35.889  1.00  0.00    -0.550 OA
ENDBRANCH   4   5
ENDBRANCH   3   4
ENDBRANCH   2   3
ENDBRANCH   1   2
BRANCH   1   8
ATOM      8  C   UNL     1       9.519 -17.899  32.938  1.00  0.00     0.000 C 
BRANCH   8   9
ATOM      9  C   UNL     1      10.358 -17.206  31.853  1.00  0.00    -0.000 C 
BRANCH   9  10
ATOM     10  C   UNL     1      10.952 -18.198  30.839  1.00  0.00    -0.000 C 
BRANCH  10  11
ATOM     11  C   UNL     1      10.717 -19.666  31.254  1.00  0.00    -0.000 C 
BRANCH  11  12
ATOM     12  C   UNL     1       9.919 -20.477  30.219  1.00  0.00    -0.003 C 
ATOM     13  C   UNL     1       8.409 -20.284  30.342  1.00  0.00     0.004 C 
ENDBRANCH  11  12
ENDBRANCH  10  11
ENDBRANCH   9  10
ENDBRANCH   8   9
ENDBRANCH   1   8
TORSDOF 9
ENDMDL
MODEL 5
REMARK VINA RESULT:    -3.735      4.825      6.695
REMARK INTER + INTRA:          -6.682
REMARK INTER:                  -5.373
REMARK INTRA:                  -1.310
REMARK UNBOUND:                -0.982
REMARK SMILES CCCCCCCCCCC(=O)[O-]
REMARK SMILES IDX 7 1 8 2 9 3 10 4 11 5 12 6 13 7 6 8 5 9 4 10 3 11 2 12 1 13
REMARK H PARENT
REMARK Flexibility Score: inf
ROOT
ATOM      1  C   UNL     1       8.141 -20.090  30.547  1.00  0.00     0.000 C 
ENDROOT
BRANCH   1   2
ATOM      2  C   UNL     1       9.075 -20.991  29.725  1.00  0.00     0.000 C 
BRANCH   2   3
ATOM      3  C   UNL     1       8.755 -20.958  28.220  1.00  0.00     0.006 C 
BRANCH   3   4
ATOM      4  C   UNL     1      10.023 -20.920  27.359  1.00  0.00     0.053 C 
BRANCH   4   5
ATOM      5  C   UNL     1       9.735 -20.446  25.967  1.00  0.00     0.041 C 
ATOM      6  O   UNL     1       8.890 -21.049  25.255  1.00  0.00    -0.550 OA
ATOM      7  O   UNL     1      10.429 -19.363  25.443  1.00  0.00    -0.550 OA
ENDBRANCH   4   5
ENDBRANCH   3   4
ENDBRANCH   2   3
ENDBRANCH   1   2
BRANCH   1   8
ATOM      8  C   UNL     1       8.907 -19.182  31.525  1.00  0.00     0.000 C 
BRANCH   8   9
ATOM      9  C   UNL     1      10.431 -19.352  31.418  1.00  0.00    -0.000 C 
BRANCH   9  10
ATOM     10  C   UNL     1      11.147 -18.048  31.027  1.00  0.00    -0.000 C 
BRANCH  10  11
ATOM     11  C   UNL     1      10.225 -17.090  30.243  1.00  0.00    -0.000 C 
BRANCH  11  12
ATOM     12  C   UNL     1      10.290 -17.285  28.718  1.00  0.00    -0.003 C 
ATOM     13  C   UNL     1       8.916 -17.270  28.053  1.00  0.00     0.004 C 
ENDBRANCH  11  12
ENDBRANCH  10  11
ENDBRANCH   9  10
ENDBRANCH   8   9
ENDBRANCH   1   8
TORSDOF 9
ENDMDL
MODEL 6
REMARK VINA RESULT:    -3.725      1.281      1.845
REMARK INTER + INTRA:          -6.667
REMARK INTER:                  -5.955
REMARK INTRA:                  -0.712
REMARK UNBOUND:                -0.982
REMARK SMILES CCCCCCCCCCC(=O)[O-]
REMARK SMILES IDX 7 1 8 2 9 3 10 4 11 5 12 6 13 7 6 8 5 9 4 10 3 11 2 12 1 13
REMARK H PARENT
REMARK Flexibility Score: inf
ROOT
ATOM      1  C   UNL     1       8.709 -18.811  31.683  1.00  0.00     0.000 C 
ENDROOT
BRANCH   1   2
ATOM      2  C   UNL     1       8.249 -17.854  32.793  1.00  0.00     0.000 C 
BRANCH   2   3
ATOM      3  C   UNL     1       9.384 -17.486  33.764  1.00  0.00     0.006 C 
BRANCH   3   4
ATOM      4  C   UNL     1       8.860 -17.139  35.163  1.00  0.00     0.053 C 
BRANCH   4   5
ATOM      5  C   UNL     1       9.261 -15.757  35.581  1.00  0.00     0.041 C 
ATOM      6  O   UNL     1       8.434 -15.004  36.159  1.00  0.00    -0.550 OA
ATOM      7  O   UNL     1      10.537 -15.287  35.298  1.00  0.00    -0.550 OA
ENDBRANCH   4   5
ENDBRANCH   3   4
ENDBRANCH   2   3
ENDBRANCH   1   2
BRANCH   1   8
ATOM      8  C   UNL     1      10.238 -18.984  31.648  1.00  0.00     0.000 C 
BRANCH   8   9
ATOM      9  C   UNL     1      10.672 -20.253  30.897  1.00  0.00    -0.000 C 
BRANCH   9  10
ATOM     10  C   UNL     1       9.558 -20.822  30.003  1.00  0.00    -0.000 C 
BRANCH  10  11
ATOM     11  C   UNL     1       9.836 -20.586  28.504  1.00  0.00    -0.000 C 
BRANCH  11  12
ATOM     12  C   UNL     1       8.990 -19.456  27.892  1.00  0.00    -0.003 C 
ATOM     13  C   UNL     1       9.639 -18.080  28.028  1.00  0.00     0.004 C 
ENDBRANCH  11  12
ENDBRANCH  10  11
ENDBRANCH   9  10
ENDBRANCH   8   9
ENDBRANCH   1   8
TORSDOF 9
ENDMDL
MODEL 7
REMARK VINA RESULT:    -3.714      3.865      5.897
REMARK INTER + INTRA:          -6.650
REMARK INTER:                  -5.608
REMARK INTRA:                  -1.041
REMARK UNBOUND:                -0.982
REMARK SMILES CCCCCCCCCCC(=O)[O-]
REMARK SMILES IDX 7 1 8 2 9 3 10 4 11 5 12 6 13 7 6 8 5 9 4 10 3 11 2 12 1 13
REMARK H PARENT
REMARK Flexibility Score: inf
ROOT
ATOM      1  C   UNL     1      10.644 -19.723  31.368  1.00  0.00     0.000 C 
ENDROOT
BRANCH   1   2
ATOM      2  C   UNL     1      10.358 -20.726  30.239  1.00  0.00     0.000 C 
BRANCH   2   3
ATOM      3  C   UNL     1       8.867 -20.788  29.867  1.00  0.00     0.006 C 
BRANCH   3   4
ATOM      4  C   UNL     1       8.645 -21.330  28.449  1.00  0.00     0.053 C 
BRANCH   4   5
ATOM      5  C   UNL     1       9.483 -20.607  27.440  1.00  0.00     0.041 C 
ATOM      6  O   UNL     1      10.354 -21.229  26.777  1.00  0.00    -0.550 OA
ATOM      7  O   UNL     1       9.329 -19.238  27.260  1.00  0.00    -0.550 OA
ENDBRANCH   4   5
ENDBRANCH   3   4
ENDBRANCH   2   3
ENDBRANCH   1   2
BRANCH   1   8
ATOM      8  C   UNL     1      10.879 -18.296  30.843  1.00  0.00     0.000 C 
BRANCH   8   9
ATOM      9  C   UNL     1      10.345 -17.220  31.802  1.00  0.00    -0.000 C 
BRANCH   9  10
ATOM     10  C   UNL     1       9.528 -17.813  32.962  1.00  0.00    -0.000 C 
BRANCH  10  11
ATOM     11  C   UNL     1       8.042 -17.402  32.898  1.00  0.00    -0.000 C 
BRANCH  11  12
ATOM     12  C   UNL     1       7.158 -18.408  32.141  1.00  0.00    -0.003 C 
ATOM     13  C   UNL     1       6.808 -17.952  30.726  1.00  0.00     0.004 C 
ENDBRANCH  11  12
ENDBRANCH  10  11
ENDBRANCH   9  10
ENDBRANCH   8   9
ENDBRANCH   1   8
TORSDOF 9
ENDMDL
MODEL 8
REMARK VINA RESULT:    -3.677      3.506      5.910
REMARK INTER + INTRA:          -6.594
REMARK INTER:                  -5.579
REMARK INTRA:                  -1.015
REMARK UNBOUND:                -0.982
REMARK SMILES CCCCCCCCCCC(=O)[O-]
REMARK SMILES IDX 7 1 8 2 9 3 10 4 11 5 12 6 13 7 6 8 5 9 4 10 3 11 2 12 1 13
REMARK H PARENT
REMARK Flexibility Score: inf
ROOT
ATOM      1  C   UNL     1       9.115 -17.231  31.645  1.00  0.00     0.000 C 
ENDROOT
BRANCH   1   2
ATOM      2  C   UNL     1       9.474 -18.670  32.049  1.00  0.00     0.000 C 
BRANCH   2   3
ATOM      3  C   UNL     1      10.744 -19.182  31.347  1.00  0.00     0.006 C 
BRANCH   3   4
ATOM      4  C   UNL     1      10.524 -20.540  30.670  1.00  0.00     0.053 C 
BRANCH   4   5
ATOM      5  C   UNL     1       9.513 -20.455  29.567  1.00  0.00     0.041 C 
ATOM      6  O   UNL     1       8.506 -21.211  29.571  1.00  0.00    -0.550 OA
ATOM      7  O   UNL     1       9.703 -19.567  28.515  1.00  0.00    -0.550 OA
ENDBRANCH   4   5
ENDBRANCH   3   4
ENDBRANCH   2   3
ENDBRANCH   1   2
BRANCH   1   8
ATOM      8  C   UNL     1      10.359 -16.357  31.409  1.00  0.00     0.000 C 
BRANCH   8   9
ATOM      9  C   UNL     1      10.373 -15.100  32.293  1.00  0.00    -0.000 C 
BRANCH   9  10
ATOM     10  C   UNL     1      11.027 -15.346  33.663  1.00  0.00    -0.000 C 
BRANCH  10  11
ATOM     11  C   UNL     1      10.003 -15.292  34.816  1.00  0.00    -0.000 C 
BRANCH  11  12
ATOM     12  C   UNL     1       9.688 -16.669  35.424  1.00  0.00    -0.003 C 
ATOM     13  C   UNL     1       8.217 -17.060  35.293  1.00  0.00     0.004 C 
ENDBRANCH  11  12
ENDBRANCH  10  11
ENDBRANCH   9  10
ENDBRANCH   8   9
ENDBRANCH   1   8
TORSDOF 9
ENDMDL
MODEL 9
REMARK VINA RESULT:    -3.612      3.019      5.988
REMARK INTER + INTRA:          -6.494
REMARK INTER:                  -5.432
REMARK INTRA:                  -1.063
REMARK UNBOUND:                -0.982
REMARK SMILES CCCCCCCCCCC(=O)[O-]
REMARK SMILES IDX 7 1 8 2 9 3 10 4 11 5 12 6 13 7 6 8 5 9 4 10 3 11 2 12 1 13
REMARK H PARENT
REMARK Flexibility Score: inf
ROOT
ATOM      1  C   UNL     1       9.333 -16.535  31.479  1.00  0.00     0.000 C 
ENDROOT
BRANCH   1   2
ATOM      2  C   UNL     1      10.704 -17.146  31.808  1.00  0.00     0.000 C 
BRANCH   2   3
ATOM      3  C   UNL     1      11.117 -18.242  30.810  1.00  0.00     0.006 C 
BRANCH   3   4
ATOM      4  C   UNL     1      10.675 -19.638  31.266  1.00  0.00     0.053 C 
BRANCH   4   5
ATOM      5  C   UNL     1       9.526 -20.151  30.453  1.00  0.00     0.041 C 
ATOM      6  O   UNL     1       8.348 -20.056  30.889  1.00  0.00    -0.550 OA
ATOM      7  O   UNL     1       9.759 -20.769  29.231  1.00  0.00    -0.550 OA
ENDBRANCH   4   5
ENDBRANCH   3   4
ENDBRANCH   2   3
ENDBRANCH   1   2
BRANCH   1   8
ATOM      8  C   UNL     1       8.298 -16.773  32.593  1.00  0.00     0.000 C 
BRANCH   8   9
ATOM      9  C   UNL     1       8.895 -17.504  33.807  1.00  0.00    -0.000 C 
BRANCH   9  10
ATOM     10  C   UNL     1       8.689 -16.733  35.122  1.00  0.00    -0.000 C 
BRANCH  10  11
ATOM     11  C   UNL     1      10.027 -16.303  35.761  1.00  0.00    -0.000 C 
BRANCH  11  12
ATOM     12  C   UNL     1      10.344 -14.810  35.575  1.00  0.00    -0.003 C 
ATOM     13  C   UNL     1      11.173 -14.524  34.324  1.00  0.00     0.004 C 
ENDBRANCH  11  12
ENDBRANCH  10  11
ENDBRANCH   9  10
ENDBRANCH   8   9
ENDBRANCH   1   8
TORSDOF 9
ENDMDL
