MODEL 1
REMARK VINA RESULT:     1.432      0.000      0.000
REMARK INTER + INTRA:           1.688
REMARK INTER:                   2.227
REMARK INTRA:                  -0.539
REMARK UNBOUND:                -0.539
REMARK SMILES COc1cc(CNC(=O)CCCCC=CC(C)C)ccc1O
REMARK SMILES IDX 11 1 12 2 13 3 14 4 15 5 16 6 17 7 18 8 10 9 8 10 9 11 7 12
REMARK SMILES IDX 6 14 5 15 4 16 19 17 3 18 20 19 21 20 2 21 1 22 22 23
REMARK H PARENT 7 13 22 24
REMARK Flexibility Score: inf
ROOT
ATOM      1  C   UNL     1      36.137  33.300  34.250  1.00  0.00     0.010 C 
ENDROOT
BRANCH   1   2
ATOM      2  C   UNL     1      36.168  33.040  35.767  1.00  0.00     0.005 C 
BRANCH   2   3
ATOM      3  C   UNL     1      36.517  31.586  36.125  1.00  0.00     0.027 C 
BRANCH   3   4
ATOM      4  C   UNL     1      37.599  31.032  35.227  1.00  0.00    -0.031 C 
ATOM      5  C   UNL     1      38.000  29.748  35.223  1.00  0.00    -0.028 C 
BRANCH   5   6
ATOM      6  C   UNL     1      37.354  28.643  36.035  1.00  0.00     0.005 C 
ATOM      7  C   UNL     1      38.244  27.396  36.031  1.00  0.00     0.012 C 
ATOM      8  C   UNL     1      35.972  28.306  35.458  1.00  0.00     0.012 C 
ENDBRANCH   5   6
ENDBRANCH   3   4
ENDBRANCH   2   3
ENDBRANCH   1   2
BRANCH   1   9
ATOM      9  C   UNL     1      37.080  34.436  33.834  1.00  0.00     0.100 C 
BRANCH   9  10
ATOM     10  C   UNL     1      38.159  33.922  32.931  1.00  0.00     0.220 C 
ATOM     11  O   UNL     1      39.074  34.700  32.549  1.00  0.00    -0.275 OA
ATOM     12  N   UNL     1      38.165  32.544  32.532  1.00  0.00    -0.352 N 
ATOM     13  H   UNL     1      37.433  31.901  32.913  1.00  0.00     0.163 HD
BRANCH  12  14
ATOM     14  C   UNL     1      39.109  32.017  31.551  1.00  0.00     0.151 C 
BRANCH  14  15
ATOM     15  C   UNL     1      38.476  30.897  30.770  1.00  0.00    -0.025 A 
ATOM     16  C   UNL     1      38.990  30.540  29.514  1.00  0.00     0.056 A 
ATOM     17  C   UNL     1      37.399  30.178  31.302  1.00  0.00     0.009 A 
ATOM     18  C   UNL     1      38.428  29.474  28.785  1.00  0.00     0.160 A 
ATOM     19  C   UNL     1      36.836  29.122  30.586  1.00  0.00     0.050 A 
ATOM     20  C   UNL     1      37.344  28.767  29.332  1.00  0.00     0.157 A 
BRANCH  18  21
ATOM     21  O   UNL     1      38.922  29.094  27.526  1.00  0.00    -0.493 OA
ATOM     22  C   UNL     1      38.131  28.975  26.352  1.00  0.00     0.278 C 
ENDBRANCH  18  21
BRANCH  20  23
ATOM     23  O   UNL     1      36.759  27.704  28.643  1.00  0.00    -0.504 OA
ATOM     24  H   UNL     1      36.003  27.155  29.040  1.00  0.00     0.293 HD
ENDBRANCH  20  23
ENDBRANCH  14  15
ENDBRANCH  12  14
ENDBRANCH   9  10
ENDBRANCH   1   9
TORSDOF 10
ENDMDL
