MODEL 1
REMARK VINA RESULT:    -4.425      0.000      0.000
REMARK INTER + INTRA:          -6.290
REMARK INTER:                  -5.459
REMARK INTRA:                  -0.831
REMARK UNBOUND:                -0.831
REMARK SMILES CC(C)=CCC[C@@H](C)c1ccc(C)cc1
REMARK SMILES IDX 6 1 7 2 8 3 9 4 13 5 12 6 11 7 14 8 10 9 15 10 5 11 4 12
REMARK SMILES IDX 2 13 1 14 3 15
REMARK H PARENT
REMARK Flexibility Score: inf
ROOT
ATOM      1  C   UNL     1      15.384  24.940  12.091  1.00  0.00     0.012 C 
ENDROOT
BRANCH   1   2
ATOM      2  C   UNL     1      14.853  26.042  13.039  1.00  0.00     0.016 C 
ATOM      3  C   UNL     1      13.579  26.678  12.471  1.00  0.00     0.013 C 
BRANCH   2   4
ATOM      4  C   UNL     1      14.607  25.519  14.445  1.00  0.00    -0.045 A 
ATOM      5  C   UNL     1      13.833  24.072  18.439  1.00  0.00     0.044 C 
ATOM      6  C   UNL     1      14.118  24.548  17.046  1.00  0.00    -0.051 A 
ATOM      7  C   UNL     1      15.269  25.302  16.778  1.00  0.00     0.004 A 
ATOM      8  C   UNL     1      13.200  24.303  16.014  1.00  0.00     0.004 A 
ATOM      9  C   UNL     1      15.516  25.778  15.487  1.00  0.00     0.004 A 
ATOM     10  C   UNL     1      13.445  24.778  14.724  1.00  0.00     0.004 A 
ENDBRANCH   2   4
ENDBRANCH   1   2
BRANCH   1  11
ATOM     11  C   UNL     1      14.319  24.391  11.126  1.00  0.00     0.028 C 
BRANCH  11  12
ATOM     12  C   UNL     1      14.655  23.002  10.634  1.00  0.00    -0.028 C 
ATOM     13  C   UNL     1      14.305  21.859  11.264  1.00  0.00    -0.080 C 
ATOM     14  C   UNL     1      14.681  20.546  10.628  1.00  0.00     0.039 C 
ATOM     15  C   UNL     1      13.574  21.863  12.586  1.00  0.00     0.039 C 
ENDBRANCH  11  12
ENDBRANCH   1  11
TORSDOF 4
ENDMDL
MODEL 2
REMARK VINA RESULT:    -4.413      1.353      6.111
REMARK INTER + INTRA:          -6.276
REMARK INTER:                  -5.750
REMARK INTRA:                  -0.525
REMARK UNBOUND:                -0.831
REMARK SMILES CC(C)=CCC[C@@H](C)c1ccc(C)cc1
REMARK SMILES IDX 6 1 7 2 8 3 9 4 13 5 12 6 11 7 14 8 10 9 15 10 5 11 4 12
REMARK SMILES IDX 2 13 1 14 3 15
REMARK H PARENT
REMARK Flexibility Score: inf
ROOT
ATOM      1  C   UNL     1      13.502  24.962  16.543  1.00  0.00     0.012 C 
ENDROOT
BRANCH   1   2
ATOM      2  C   UNL     1      14.535  25.597  15.582  1.00  0.00     0.016 C 
ATOM      3  C   UNL     1      15.946  25.522  16.178  1.00  0.00     0.013 C 
BRANCH   2   4
ATOM      4  C   UNL     1      14.504  24.956  14.204  1.00  0.00    -0.045 A 
ATOM      5  C   UNL     1      14.439  23.061  10.324  1.00  0.00     0.044 C 
ATOM      6  C   UNL     1      14.438  23.738  11.662  1.00  0.00    -0.051 A 
ATOM      7  C   UNL     1      15.259  24.851  11.892  1.00  0.00     0.004 A 
ATOM      8  C   UNL     1      13.670  23.221  12.716  1.00  0.00     0.004 A 
ATOM      9  C   UNL     1      15.288  25.460  13.150  1.00  0.00     0.004 A 
ATOM     10  C   UNL     1      13.697  23.828  13.973  1.00  0.00     0.004 A 
ENDBRANCH   2   4
ENDBRANCH   1   2
BRANCH   1  11
ATOM     11  C   UNL     1      13.961  24.931  18.012  1.00  0.00     0.028 C 
BRANCH  11  12
ATOM     12  C   UNL     1      13.727  23.584  18.655  1.00  0.00    -0.028 C 
ATOM     13  C   UNL     1      13.324  23.402  19.932  1.00  0.00    -0.080 C 
ATOM     14  C   UNL     1      13.097  21.994  20.418  1.00  0.00     0.039 C 
ATOM     15  C   UNL     1      13.120  24.560  20.881  1.00  0.00     0.039 C 
ENDBRANCH  11  12
ENDBRANCH   1  11
TORSDOF 4
ENDMDL
MODEL 3
REMARK VINA RESULT:    -4.378      3.143      5.211
REMARK INTER + INTRA:          -6.233
REMARK INTER:                  -5.693
REMARK INTRA:                  -0.539
REMARK UNBOUND:                -0.831
REMARK SMILES CC(C)=CCC[C@@H](C)c1ccc(C)cc1
REMARK SMILES IDX 6 1 7 2 8 3 9 4 13 5 12 6 11 7 14 8 10 9 15 10 5 11 4 12
REMARK SMILES IDX 2 13 1 14 3 15
REMARK H PARENT
REMARK Flexibility Score: inf
ROOT
ATOM      1  C   UNL     1      15.529  26.008  16.358  1.00  0.00     0.012 C 
ENDROOT
BRANCH   1   2
ATOM      2  C   UNL     1      14.373  26.316  17.339  1.00  0.00     0.016 C 
ATOM      3  C   UNL     1      13.749  25.017  17.866  1.00  0.00     0.013 C 
BRANCH   2   4
ATOM      4  C   UNL     1      14.821  27.198  18.493  1.00  0.00    -0.045 A 
ATOM      5  C   UNL     1      16.174  29.682  21.756  1.00  0.00     0.044 C 
ATOM      6  C   UNL     1      15.681  28.839  20.618  1.00  0.00    -0.051 A 
ATOM      7  C   UNL     1      14.762  27.805  20.850  1.00  0.00     0.004 A 
ATOM      8  C   UNL     1      16.186  29.032  19.324  1.00  0.00     0.004 A 
ATOM      9  C   UNL     1      14.330  26.995  19.796  1.00  0.00     0.004 A 
ATOM     10  C   UNL     1      15.756  28.223  18.270  1.00  0.00     0.004 A 
ENDBRANCH   2   4
ENDBRANCH   1   2
BRANCH   1  11
ATOM     11  C   UNL     1      15.091  25.212  15.116  1.00  0.00     0.028 C 
BRANCH  11  12
ATOM     12  C   UNL     1      14.274  26.048  14.160  1.00  0.00    -0.028 C 
ATOM     13  C   UNL     1      14.466  26.094  12.823  1.00  0.00    -0.080 C 
ATOM     14  C   UNL     1      13.542  26.949  11.996  1.00  0.00     0.039 C 
ATOM     15  C   UNL     1      15.584  25.336  12.147  1.00  0.00     0.039 C 
ENDBRANCH  11  12
ENDBRANCH   1  11
TORSDOF 4
ENDMDL
MODEL 4
REMARK VINA RESULT:    -4.300      1.912      6.499
REMARK INTER + INTRA:          -6.136
REMARK INTER:                  -5.331
REMARK INTRA:                  -0.805
REMARK UNBOUND:                -0.831
REMARK SMILES CC(C)=CCC[C@@H](C)c1ccc(C)cc1
REMARK SMILES IDX 6 1 7 2 8 3 9 4 13 5 12 6 11 7 14 8 10 9 15 10 5 11 4 12
REMARK SMILES IDX 2 13 1 14 3 15
REMARK H PARENT
REMARK Flexibility Score: inf
ROOT
ATOM      1  C   UNL     1      13.719  24.950  16.523  1.00  0.00     0.012 C 
ENDROOT
BRANCH   1   2
ATOM      2  C   UNL     1      14.732  25.539  15.513  1.00  0.00     0.016 C 
ATOM      3  C   UNL     1      16.165  25.404  16.043  1.00  0.00     0.013 C 
BRANCH   2   4
ATOM      4  C   UNL     1      14.609  24.899  14.140  1.00  0.00    -0.045 A 
ATOM      5  C   UNL     1      14.234  23.154  10.207  1.00  0.00     0.044 C 
ATOM      6  C   UNL     1      14.388  23.740  11.579  1.00  0.00    -0.051 A 
ATOM      7  C   UNL     1      13.655  23.221  12.656  1.00  0.00     0.004 A 
ATOM      8  C   UNL     1      15.211  24.857  11.783  1.00  0.00     0.004 A 
ATOM      9  C   UNL     1      13.769  23.790  13.927  1.00  0.00     0.004 A 
ATOM     10  C   UNL     1      15.326  25.427  13.053  1.00  0.00     0.004 A 
ENDBRANCH   2   4
ENDBRANCH   1   2
BRANCH   1  11
ATOM     11  C   UNL     1      12.994  26.016  17.364  1.00  0.00     0.028 C 
BRANCH  11  12
ATOM     12  C   UNL     1      13.748  26.356  18.629  1.00  0.00    -0.028 C 
ATOM     13  C   UNL     1      14.475  27.481  18.811  1.00  0.00    -0.080 C 
ATOM     14  C   UNL     1      15.139  27.695  20.145  1.00  0.00     0.039 C 
ATOM     15  C   UNL     1      14.654  28.506  17.716  1.00  0.00     0.039 C 
ENDBRANCH  11  12
ENDBRANCH   1  11
TORSDOF 4
ENDMDL
MODEL 5
REMARK VINA RESULT:    -4.162      2.309      6.754
REMARK INTER + INTRA:          -5.966
REMARK INTER:                  -5.335
REMARK INTRA:                  -0.631
REMARK UNBOUND:                -0.831
REMARK SMILES CC(C)=CCC[C@@H](C)c1ccc(C)cc1
REMARK SMILES IDX 6 1 7 2 8 3 9 4 13 5 12 6 11 7 14 8 10 9 15 10 5 11 4 12
REMARK SMILES IDX 2 13 1 14 3 15
REMARK H PARENT
REMARK Flexibility Score: inf
ROOT
ATOM      1  C   UNL     1      14.793  27.117  16.032  1.00  0.00     0.012 C 
ENDROOT
BRANCH   1   2
ATOM      2  C   UNL     1      15.131  25.610  15.939  1.00  0.00     0.016 C 
ATOM      3  C   UNL     1      14.434  24.829  17.061  1.00  0.00     0.013 C 
BRANCH   2   4
ATOM      4  C   UNL     1      14.774  25.026  14.582  1.00  0.00    -0.045 A 
ATOM      5  C   UNL     1      13.746  23.444  10.698  1.00  0.00     0.044 C 
ATOM      6  C   UNL     1      14.123  23.970  12.050  1.00  0.00    -0.051 A 
ATOM      7  C   UNL     1      13.433  23.542  13.193  1.00  0.00     0.004 A 
ATOM      8  C   UNL     1      15.122  24.947  12.175  1.00  0.00     0.004 A 
ATOM      9  C   UNL     1      13.759  24.060  14.450  1.00  0.00     0.004 A 
ATOM     10  C   UNL     1      15.450  25.465  13.431  1.00  0.00     0.004 A 
ENDBRANCH   2   4
ENDBRANCH   1   2
BRANCH   1  11
ATOM     11  C   UNL     1      14.145  27.525  17.367  1.00  0.00     0.028 C 
BRANCH  11  12
ATOM     12  C   UNL     1      15.139  28.150  18.317  1.00  0.00    -0.028 C 
ATOM     13  C   UNL     1      15.192  27.903  19.645  1.00  0.00    -0.080 C 
ATOM     14  C   UNL     1      16.268  28.577  20.456  1.00  0.00     0.039 C 
ATOM     15  C   UNL     1      14.198  26.998  20.332  1.00  0.00     0.039 C 
ENDBRANCH  11  12
ENDBRANCH   1  11
TORSDOF 4
ENDMDL
MODEL 6
REMARK VINA RESULT:    -4.096      1.591      2.384
REMARK INTER + INTRA:          -5.885
REMARK INTER:                  -5.214
REMARK INTRA:                  -0.671
REMARK UNBOUND:                -0.831
REMARK SMILES CC(C)=CCC[C@@H](C)c1ccc(C)cc1
REMARK SMILES IDX 6 1 7 2 8 3 9 4 13 5 12 6 11 7 14 8 10 9 15 10 5 11 4 12
REMARK SMILES IDX 2 13 1 14 3 15
REMARK H PARENT
REMARK Flexibility Score: inf
ROOT
ATOM      1  C   UNL     1      13.178  24.218  13.073  1.00  0.00     0.012 C 
ENDROOT
BRANCH   1   2
ATOM      2  C   UNL     1      14.634  24.674  13.334  1.00  0.00     0.016 C 
ATOM      3  C   UNL     1      15.254  25.264  12.062  1.00  0.00     0.013 C 
BRANCH   2   4
ATOM      4  C   UNL     1      14.724  25.668  14.481  1.00  0.00    -0.045 A 
ATOM      5  C   UNL     1      15.021  28.545  17.688  1.00  0.00     0.044 C 
ATOM      6  C   UNL     1      14.891  27.535  16.587  1.00  0.00    -0.051 A 
ATOM      7  C   UNL     1      15.456  26.260  16.727  1.00  0.00     0.004 A 
ATOM      8  C   UNL     1      14.265  27.882  15.380  1.00  0.00     0.004 A 
ATOM      9  C   UNL     1      15.368  25.331  15.686  1.00  0.00     0.004 A 
ATOM     10  C   UNL     1      14.176  26.954  14.339  1.00  0.00     0.004 A 
ENDBRANCH   2   4
ENDBRANCH   1   2
BRANCH   1  11
ATOM     11  C   UNL     1      13.035  23.267  11.871  1.00  0.00     0.028 C 
BRANCH  11  12
ATOM     12  C   UNL     1      13.508  21.867  12.191  1.00  0.00    -0.028 C 
ATOM     13  C   UNL     1      14.316  21.130  11.397  1.00  0.00    -0.080 C 
ATOM     14  C   UNL     1      14.732  19.762  11.872  1.00  0.00     0.039 C 
ATOM     15  C   UNL     1      14.789  21.627  10.051  1.00  0.00     0.039 C 
ENDBRANCH  11  12
ENDBRANCH   1  11
TORSDOF 4
ENDMDL
MODEL 7
REMARK VINA RESULT:    -4.050      2.645      7.111
REMARK INTER + INTRA:          -5.829
REMARK INTER:                  -5.269
REMARK INTRA:                  -0.560
REMARK UNBOUND:                -0.831
REMARK SMILES CC(C)=CCC[C@@H](C)c1ccc(C)cc1
REMARK SMILES IDX 6 1 7 2 8 3 9 4 13 5 12 6 11 7 14 8 10 9 15 10 5 11 4 12
REMARK SMILES IDX 2 13 1 14 3 15
REMARK H PARENT
REMARK Flexibility Score: inf
ROOT
ATOM      1  C   UNL     1      15.503  27.026  16.744  1.00  0.00     0.012 C 
ENDROOT
BRANCH   1   2
ATOM      2  C   UNL     1      15.196  25.629  16.154  1.00  0.00     0.016 C 
ATOM      3  C   UNL     1      14.199  24.873  17.042  1.00  0.00     0.013 C 
BRANCH   2   4
ATOM      4  C   UNL     1      14.682  25.711  14.726  1.00  0.00    -0.045 A 
ATOM      5  C   UNL     1      13.152  25.986  10.697  1.00  0.00     0.044 C 
ATOM      6  C   UNL     1      13.712  25.892  12.085  1.00  0.00    -0.051 A 
ATOM      7  C   UNL     1      13.982  24.640  12.654  1.00  0.00     0.004 A 
ATOM      8  C   UNL     1      13.904  27.052  12.850  1.00  0.00     0.004 A 
ATOM      9  C   UNL     1      14.469  24.549  13.961  1.00  0.00     0.004 A 
ATOM     10  C   UNL     1      14.391  26.963  14.156  1.00  0.00     0.004 A 
ENDBRANCH   2   4
ENDBRANCH   1   2
BRANCH   1  11
ATOM     11  C   UNL     1      14.624  27.394  17.951  1.00  0.00     0.028 C 
BRANCH  11  12
ATOM     12  C   UNL     1      15.393  28.151  19.009  1.00  0.00    -0.028 C 
ATOM     13  C   UNL     1      15.109  28.127  20.330  1.00  0.00    -0.080 C 
ATOM     14  C   UNL     1      15.995  28.907  21.267  1.00  0.00     0.039 C 
ATOM     15  C   UNL     1      13.928  27.366  20.882  1.00  0.00     0.039 C 
ENDBRANCH  11  12
ENDBRANCH   1  11
TORSDOF 4
ENDMDL
MODEL 8
REMARK VINA RESULT:    -4.039      3.810      7.838
REMARK INTER + INTRA:          -5.815
REMARK INTER:                  -4.972
REMARK INTRA:                  -0.842
REMARK UNBOUND:                -0.831
REMARK SMILES CC(C)=CCC[C@@H](C)c1ccc(C)cc1
REMARK SMILES IDX 6 1 7 2 8 3 9 4 13 5 12 6 11 7 14 8 10 9 15 10 5 11 4 12
REMARK SMILES IDX 2 13 1 14 3 15
REMARK H PARENT
REMARK Flexibility Score: inf
ROOT
ATOM      1  C   UNL     1      16.227  28.869  18.679  1.00  0.00     0.012 C 
ENDROOT
BRANCH   1   2
ATOM      2  C   UNL     1      14.822  28.781  18.037  1.00  0.00     0.016 C 
ATOM      3  C   UNL     1      14.353  30.164  17.569  1.00  0.00     0.013 C 
BRANCH   2   4
ATOM      4  C   UNL     1      14.778  27.787  16.888  1.00  0.00    -0.045 A 
ATOM      5  C   UNL     1      14.739  24.956  13.627  1.00  0.00     0.044 C 
ATOM      6  C   UNL     1      14.725  25.928  14.769  1.00  0.00    -0.051 A 
ATOM      7  C   UNL     1      14.177  27.208  14.601  1.00  0.00     0.004 A 
ATOM      8  C   UNL     1      15.323  25.591  15.992  1.00  0.00     0.004 A 
ATOM      9  C   UNL     1      14.197  28.128  15.653  1.00  0.00     0.004 A 
ATOM     10  C   UNL     1      15.343  26.509  17.044  1.00  0.00     0.004 A 
ENDBRANCH   2   4
ENDBRANCH   1   2
BRANCH   1  11
ATOM     11  C   UNL     1      16.242  28.542  20.182  1.00  0.00     0.028 C 
BRANCH  11  12
ATOM     12  C   UNL     1      14.978  27.844  20.628  1.00  0.00    -0.028 C 
ATOM     13  C   UNL     1      14.231  28.212  21.693  1.00  0.00    -0.080 C 
ATOM     14  C   UNL     1      12.973  27.438  21.988  1.00  0.00     0.039 C 
ATOM     15  C   UNL     1      14.634  29.353  22.598  1.00  0.00     0.039 C 
ENDBRANCH  11  12
ENDBRANCH   1  11
TORSDOF 4
ENDMDL
MODEL 9
REMARK VINA RESULT:    -3.351      9.418     11.247
REMARK INTER + INTRA:          -4.966
REMARK INTER:                  -3.853
REMARK INTRA:                  -1.112
REMARK UNBOUND:                -0.831
REMARK SMILES CC(C)=CCC[C@@H](C)c1ccc(C)cc1
REMARK SMILES IDX 6 1 7 2 8 3 9 4 13 5 12 6 11 7 14 8 10 9 15 10 5 11 4 12
REMARK SMILES IDX 2 13 1 14 3 15
REMARK H PARENT
REMARK Flexibility Score: inf
ROOT
ATOM      1  C   UNL     1      19.851  17.867   8.969  1.00  0.00     0.012 C 
ENDROOT
BRANCH   1   2
ATOM      2  C   UNL     1      18.462  17.270   9.301  1.00  0.00     0.016 C 
ATOM      3  C   UNL     1      17.740  16.832   8.021  1.00  0.00     0.013 C 
BRANCH   2   4
ATOM      4  C   UNL     1      18.556  16.113  10.282  1.00  0.00    -0.045 A 
ATOM      5  C   UNL     1      18.867  12.875  13.123  1.00  0.00     0.044 C 
ATOM      6  C   UNL     1      18.732  13.988  12.127  1.00  0.00    -0.051 A 
ATOM      7  C   UNL     1      19.258  13.847  10.835  1.00  0.00     0.004 A 
ATOM      8  C   UNL     1      18.141  15.204  12.501  1.00  0.00     0.004 A 
ATOM      9  C   UNL     1      19.166  14.898   9.917  1.00  0.00     0.004 A 
ATOM     10  C   UNL     1      18.048  16.254  11.585  1.00  0.00     0.004 A 
ENDBRANCH   2   4
ENDBRANCH   1   2
BRANCH   1  11
ATOM     11  C   UNL     1      20.317  17.584   7.530  1.00  0.00     0.028 C 
BRANCH  11  12
ATOM     12  C   UNL     1      21.486  16.627   7.486  1.00  0.00    -0.028 C 
ATOM     13  C   UNL     1      21.483  15.441   6.838  1.00  0.00    -0.080 C 
ATOM     14  C   UNL     1      22.742  14.614   6.854  1.00  0.00     0.039 C 
ATOM     15  C   UNL     1      20.258  14.919   6.125  1.00  0.00     0.039 C 
ENDBRANCH  11  12
ENDBRANCH   1  11
TORSDOF 4
ENDMDL
