MODEL 1
REMARK VINA RESULT:    -5.094      0.000      0.000
REMARK INTER + INTRA:         -12.170
REMARK INTER:                  -9.858
REMARK INTRA:                  -2.312
REMARK UNBOUND:                -2.312
REMARK SMILES CCCCCCCCCCCCCCCCCC(=O)[O-]
REMARK SMILES IDX 10 1 11 2 12 3 13 4 14 5 15 6 16 7 17 8 18 9 19 10 20 11
REMARK SMILES IDX 9 12 8 13 7 14 6 15 5 16 4 17 3 18 2 19 1 20
REMARK H PARENT
REMARK Flexibility Score: inf
ROOT
ATOM      1  C   UNL     1      11.241  14.212 165.018  1.00  0.00     0.000 C 
ENDROOT
BRANCH   1   2
ATOM      2  C   UNL     1      12.299  15.315 165.151  1.00  0.00     0.000 C 
BRANCH   2   3
ATOM      3  C   UNL     1      11.961  16.576 164.333  1.00  0.00     0.000 C 
BRANCH   3   4
ATOM      4  C   UNL     1      10.473  16.750 163.980  1.00  0.00     0.000 C 
BRANCH   4   5
ATOM      5  C   UNL     1       9.968  18.185 164.203  1.00  0.00     0.000 C 
BRANCH   5   6
ATOM      6  C   UNL     1       8.829  18.267 165.238  1.00  0.00     0.000 C 
BRANCH   6   7
ATOM      7  C   UNL     1       8.661  17.021 166.133  1.00  0.00     0.006 C 
BRANCH   7   8
ATOM      8  C   UNL     1       7.841  17.258 167.411  1.00  0.00     0.053 C 
BRANCH   8   9
ATOM      9  C   UNL     1       7.081  16.034 167.824  1.00  0.00     0.041 C 
ATOM     10  O   UNL     1       6.006  15.730 167.243  1.00  0.00    -0.550 OA
ATOM     11  O   UNL     1       7.575  15.214 168.830  1.00  0.00    -0.550 OA
ENDBRANCH   8   9
ENDBRANCH   7   8
ENDBRANCH   6   7
ENDBRANCH   5   6
ENDBRANCH   4   5
ENDBRANCH   3   4
ENDBRANCH   2   3
ENDBRANCH   1   2
BRANCH   1  12
ATOM     12  C   UNL     1      11.713  13.109 164.063  1.00  0.00     0.000 C 
BRANCH  12  13
ATOM     13  C   UNL     1      10.756  12.962 162.874  1.00  0.00    -0.000 C 
BRANCH  13  14
ATOM     14  C   UNL     1      11.493  13.170 161.545  1.00  0.00    -0.000 C 
BRANCH  14  15
ATOM     15  C   UNL     1      11.320  14.606 161.038  1.00  0.00    -0.000 C 
BRANCH  15  16
ATOM     16  C   UNL     1      12.679  15.310 160.905  1.00  0.00    -0.000 C 
BRANCH  16  17
ATOM     17  C   UNL     1      13.851  14.434 161.379  1.00  0.00    -0.000 C 
BRANCH  17  18
ATOM     18  C   UNL     1      14.647  15.082 162.526  1.00  0.00    -0.000 C 
BRANCH  18  19
ATOM     19  C   UNL     1      15.642  14.107 163.173  1.00  0.00    -0.003 C 
ATOM     20  C   UNL     1      17.027  14.161 162.530  1.00  0.00     0.004 C 
ENDBRANCH  18  19
ENDBRANCH  17  18
ENDBRANCH  16  17
ENDBRANCH  15  16
ENDBRANCH  14  15
ENDBRANCH  13  14
ENDBRANCH  12  13
ENDBRANCH   1  12
TORSDOF 16
ENDMDL
MODEL 2
REMARK VINA RESULT:    -5.064      1.319      3.631
REMARK INTER + INTRA:         -12.112
REMARK INTER:                  -9.982
REMARK INTRA:                  -2.131
REMARK UNBOUND:                -2.312
REMARK SMILES CCCCCCCCCCCCCCCCCC(=O)[O-]
REMARK SMILES IDX 10 1 11 2 12 3 13 4 14 5 15 6 16 7 17 8 18 9 19 10 20 11
REMARK SMILES IDX 9 12 8 13 7 14 6 15 5 16 4 17 3 18 2 19 1 20
REMARK H PARENT
REMARK Flexibility Score: inf
ROOT
ATOM      1  C   UNL     1      11.065  16.205 161.132  1.00  0.00     0.000 C 
ENDROOT
BRANCH   1   2
ATOM      2  C   UNL     1      11.226  17.636 161.663  1.00  0.00     0.000 C 
BRANCH   2   3
ATOM      3  C   UNL     1      11.152  17.721 163.199  1.00  0.00     0.000 C 
BRANCH   3   4
ATOM      4  C   UNL     1      10.337  16.606 163.880  1.00  0.00     0.000 C 
BRANCH   4   5
ATOM      5  C   UNL     1      10.996  16.084 165.168  1.00  0.00     0.000 C 
BRANCH   5   6
ATOM      6  C   UNL     1      10.017  16.006 166.354  1.00  0.00     0.000 C 
BRANCH   6   7
ATOM      7  C   UNL     1       8.714  16.816 166.189  1.00  0.00     0.006 C 
BRANCH   7   8
ATOM      8  C   UNL     1       8.029  17.202 167.509  1.00  0.00     0.053 C 
BRANCH   8   9
ATOM      9  C   UNL     1       7.077  16.143 167.977  1.00  0.00     0.041 C 
ATOM     10  O   UNL     1       7.150  15.701 169.153  1.00  0.00    -0.550 OA
ATOM     11  O   UNL     1       6.090  15.667 167.123  1.00  0.00    -0.550 OA
ENDBRANCH   8   9
ENDBRANCH   7   8
ENDBRANCH   6   7
ENDBRANCH   5   6
ENDBRANCH   4   5
ENDBRANCH   3   4
ENDBRANCH   2   3
ENDBRANCH   1   2
BRANCH   1  12
ATOM     12  C   UNL     1      12.076  15.915 160.016  1.00  0.00     0.000 C 
BRANCH  12  13
ATOM     13  C   UNL     1      13.150  14.928 160.487  1.00  0.00    -0.000 C 
BRANCH  13  14
ATOM     14  C   UNL     1      13.592  15.238 161.921  1.00  0.00    -0.000 C 
BRANCH  14  15
ATOM     15  C   UNL     1      13.998  13.958 162.662  1.00  0.00    -0.000 C 
BRANCH  15  16
ATOM     16  C   UNL     1      12.939  12.860 162.483  1.00  0.00    -0.000 C 
BRANCH  16  17
ATOM     17  C   UNL     1      11.710  13.066 163.382  1.00  0.00    -0.000 C 
BRANCH  17  18
ATOM     18  C   UNL     1      10.390  13.058 162.591  1.00  0.00    -0.000 C 
BRANCH  18  19
ATOM     19  C   UNL     1      10.468  12.186 161.329  1.00  0.00    -0.003 C 
ATOM     20  C   UNL     1       9.827  10.811 161.518  1.00  0.00     0.004 C 
ENDBRANCH  18  19
ENDBRANCH  17  18
ENDBRANCH  16  17
ENDBRANCH  15  16
ENDBRANCH  14  15
ENDBRANCH  13  14
ENDBRANCH  12  13
ENDBRANCH   1  12
TORSDOF 16
ENDMDL
MODEL 3
REMARK VINA RESULT:    -5.054      1.197      3.203
REMARK INTER + INTRA:         -12.094
REMARK INTER:                  -9.695
REMARK INTRA:                  -2.399
REMARK UNBOUND:                -2.312
REMARK SMILES CCCCCCCCCCCCCCCCCC(=O)[O-]
REMARK SMILES IDX 10 1 11 2 12 3 13 4 14 5 15 6 16 7 17 8 18 9 19 10 20 11
REMARK SMILES IDX 9 12 8 13 7 14 6 15 5 16 4 17 3 18 2 19 1 20
REMARK H PARENT
REMARK Flexibility Score: inf
ROOT
ATOM      1  C   UNL     1      14.064  16.318 163.267  1.00  0.00     0.000 C 
ENDROOT
BRANCH   1   2
ATOM      2  C   UNL     1      12.704  16.896 163.678  1.00  0.00     0.000 C 
BRANCH   2   3
ATOM      3  C   UNL     1      12.055  16.135 164.850  1.00  0.00     0.000 C 
BRANCH   3   4
ATOM      4  C   UNL     1      10.526  16.280 164.960  1.00  0.00     0.000 C 
BRANCH   4   5
ATOM      5  C   UNL     1      10.015  17.640 164.454  1.00  0.00     0.000 C 
BRANCH   5   6
ATOM      6  C   UNL     1       8.933  18.251 165.364  1.00  0.00     0.000 C 
BRANCH   6   7
ATOM      7  C   UNL     1       7.934  17.243 165.970  1.00  0.00     0.006 C 
BRANCH   7   8
ATOM      8  C   UNL     1       7.885  17.236 167.506  1.00  0.00     0.053 C 
BRANCH   8   9
ATOM      9  C   UNL     1       7.098  16.077 168.037  1.00  0.00     0.041 C 
ATOM     10  O   UNL     1       7.655  15.214 168.766  1.00  0.00    -0.550 OA
ATOM     11  O   UNL     1       5.743  15.966 167.752  1.00  0.00    -0.550 OA
ENDBRANCH   8   9
ENDBRANCH   7   8
ENDBRANCH   6   7
ENDBRANCH   5   6
ENDBRANCH   4   5
ENDBRANCH   3   4
ENDBRANCH   2   3
ENDBRANCH   1   2
BRANCH   1  12
ATOM     12  C   UNL     1      13.907  15.278 162.150  1.00  0.00     0.000 C 
BRANCH  12  13
ATOM     13  C   UNL     1      14.340  13.888 162.627  1.00  0.00    -0.000 C 
BRANCH  13  14
ATOM     14  C   UNL     1      13.151  13.106 163.197  1.00  0.00    -0.000 C 
BRANCH  14  15
ATOM     15  C   UNL     1      12.107  12.820 162.111  1.00  0.00    -0.000 C 
BRANCH  15  16
ATOM     16  C   UNL     1      10.682  13.005 162.655  1.00  0.00    -0.000 C 
BRANCH  16  17
ATOM     17  C   UNL     1       9.770  13.775 161.686  1.00  0.00    -0.000 C 
BRANCH  17  18
ATOM     18  C   UNL     1      10.095  15.279 161.636  1.00  0.00    -0.000 C 
BRANCH  18  19
ATOM     19  C   UNL     1      10.667  15.710 160.278  1.00  0.00    -0.003 C 
ATOM     20  C   UNL     1      11.220  17.136 160.293  1.00  0.00     0.004 C 
ENDBRANCH  18  19
ENDBRANCH  17  18
ENDBRANCH  16  17
ENDBRANCH  15  16
ENDBRANCH  14  15
ENDBRANCH  13  14
ENDBRANCH  12  13
ENDBRANCH   1  12
TORSDOF 16
ENDMDL
MODEL 4
REMARK VINA RESULT:    -4.999      3.510      6.269
REMARK INTER + INTRA:         -11.987
REMARK INTER:                  -9.726
REMARK INTRA:                  -2.260
REMARK UNBOUND:                -2.312
REMARK SMILES CCCCCCCCCCCCCCCCCC(=O)[O-]
REMARK SMILES IDX 10 1 11 2 12 3 13 4 14 5 15 6 16 7 17 8 18 9 19 10 20 11
REMARK SMILES IDX 9 12 8 13 7 14 6 15 5 16 4 17 3 18 2 19 1 20
REMARK H PARENT
REMARK Flexibility Score: inf
ROOT
ATOM      1  C   UNL     1      10.240  17.971 164.084  1.00  0.00     0.000 C 
ENDROOT
BRANCH   1   2
ATOM      2  C   UNL     1      11.400  17.908 163.081  1.00  0.00     0.000 C 
BRANCH   2   3
ATOM      3  C   UNL     1      11.039  18.496 161.704  1.00  0.00     0.000 C 
BRANCH   3   4
ATOM      4  C   UNL     1      11.276  17.557 160.507  1.00  0.00     0.000 C 
BRANCH   4   5
ATOM      5  C   UNL     1      11.523  16.099 160.928  1.00  0.00     0.000 C 
BRANCH   5   6
ATOM      6  C   UNL     1      12.547  15.380 160.030  1.00  0.00     0.000 C 
BRANCH   6   7
ATOM      7  C   UNL     1      13.731  14.726 160.773  1.00  0.00     0.006 C 
BRANCH   7   8
ATOM      8  C   UNL     1      14.009  15.305 162.169  1.00  0.00     0.053 C 
BRANCH   8   9
ATOM      9  C   UNL     1      15.093  14.554 162.881  1.00  0.00     0.041 C 
ATOM     10  O   UNL     1      16.275  14.588 162.450  1.00  0.00    -0.550 OA
ATOM     11  O   UNL     1      14.803  13.843 164.038  1.00  0.00    -0.550 OA
ENDBRANCH   8   9
ENDBRANCH   7   8
ENDBRANCH   6   7
ENDBRANCH   5   6
ENDBRANCH   4   5
ENDBRANCH   3   4
ENDBRANCH   2   3
ENDBRANCH   1   2
BRANCH   1  12
ATOM     12  C   UNL     1      10.117  16.657 164.866  1.00  0.00     0.000 C 
BRANCH  12  13
ATOM     13  C   UNL     1      11.406  15.834 164.769  1.00  0.00    -0.000 C 
BRANCH  13  14
ATOM     14  C   UNL     1      11.245  14.474 165.457  1.00  0.00    -0.000 C 
BRANCH  14  15
ATOM     15  C   UNL     1      11.658  13.330 164.523  1.00  0.00    -0.000 C 
BRANCH  15  16
ATOM     16  C   UNL     1      10.949  13.446 163.165  1.00  0.00    -0.000 C 
BRANCH  16  17
ATOM     17  C   UNL     1      11.417  12.384 162.157  1.00  0.00    -0.000 C 
BRANCH  17  18
ATOM     18  C   UNL     1      10.292  11.935 161.206  1.00  0.00    -0.000 C 
BRANCH  18  19
ATOM     19  C   UNL     1       9.419  10.827 161.813  1.00  0.00    -0.003 C 
ATOM     20  C   UNL     1       9.755   9.440 161.264  1.00  0.00     0.004 C 
ENDBRANCH  18  19
ENDBRANCH  17  18
ENDBRANCH  16  17
ENDBRANCH  15  16
ENDBRANCH  14  15
ENDBRANCH  13  14
ENDBRANCH  12  13
ENDBRANCH   1  12
TORSDOF 16
ENDMDL
MODEL 5
REMARK VINA RESULT:    -4.978      1.235      2.453
REMARK INTER + INTRA:         -11.947
REMARK INTER:                  -9.506
REMARK INTRA:                  -2.440
REMARK UNBOUND:                -2.312
REMARK SMILES CCCCCCCCCCCCCCCCCC(=O)[O-]
REMARK SMILES IDX 10 1 11 2 12 3 13 4 14 5 15 6 16 7 17 8 18 9 19 10 20 11
REMARK SMILES IDX 9 12 8 13 7 14 6 15 5 16 4 17 3 18 2 19 1 20
REMARK H PARENT
REMARK Flexibility Score: inf
ROOT
ATOM      1  C   UNL     1      11.350  16.334 161.344  1.00  0.00     0.000 C 
ENDROOT
BRANCH   1   2
ATOM      2  C   UNL     1      10.962  17.811 161.499  1.00  0.00     0.000 C 
BRANCH   2   3
ATOM      3  C   UNL     1      10.955  18.282 162.966  1.00  0.00     0.000 C 
BRANCH   3   4
ATOM      4  C   UNL     1      11.191  17.176 164.011  1.00  0.00     0.000 C 
BRANCH   4   5
ATOM      5  C   UNL     1       9.922  16.819 164.803  1.00  0.00     0.000 C 
BRANCH   5   6
ATOM      6  C   UNL     1       9.024  18.040 165.079  1.00  0.00     0.000 C 
BRANCH   6   7
ATOM      7  C   UNL     1       7.925  17.824 166.141  1.00  0.00     0.006 C 
BRANCH   7   8
ATOM      8  C   UNL     1       8.331  16.906 167.304  1.00  0.00     0.053 C 
BRANCH   8   9
ATOM      9  C   UNL     1       7.205  16.016 167.736  1.00  0.00     0.041 C 
ATOM     10  O   UNL     1       6.166  15.923 167.031  1.00  0.00    -0.550 OA
ATOM     11  O   UNL     1       7.317  15.267 168.900  1.00  0.00    -0.550 OA
ENDBRANCH   8   9
ENDBRANCH   7   8
ENDBRANCH   6   7
ENDBRANCH   5   6
ENDBRANCH   4   5
ENDBRANCH   3   4
ENDBRANCH   2   3
ENDBRANCH   1   2
BRANCH   1  12
ATOM     12  C   UNL     1      10.155  15.499 160.868  1.00  0.00     0.000 C 
BRANCH  12  13
ATOM     13  C   UNL     1       9.695  14.523 161.957  1.00  0.00    -0.000 C 
BRANCH  13  14
ATOM     14  C   UNL     1      10.059  13.079 161.593  1.00  0.00    -0.000 C 
BRANCH  14  15
ATOM     15  C   UNL     1      10.933  12.441 162.679  1.00  0.00    -0.000 C 
BRANCH  15  16
ATOM     16  C   UNL     1      11.253  13.450 163.792  1.00  0.00    -0.000 C 
BRANCH  16  17
ATOM     17  C   UNL     1      12.750  13.785 163.879  1.00  0.00    -0.000 C 
BRANCH  17  18
ATOM     18  C   UNL     1      13.511  13.438 162.587  1.00  0.00    -0.000 C 
BRANCH  18  19
ATOM     19  C   UNL     1      14.499  14.539 162.174  1.00  0.00    -0.003 C 
ATOM     20  C   UNL     1      14.406  15.782 163.060  1.00  0.00     0.004 C 
ENDBRANCH  18  19
ENDBRANCH  17  18
ENDBRANCH  16  17
ENDBRANCH  15  16
ENDBRANCH  14  15
ENDBRANCH  13  14
ENDBRANCH  12  13
ENDBRANCH   1  12
TORSDOF 16
ENDMDL
MODEL 6
REMARK VINA RESULT:    -4.955      3.133      6.939
REMARK INTER + INTRA:         -11.901
REMARK INTER:                  -9.727
REMARK INTRA:                  -2.174
REMARK UNBOUND:                -2.312
REMARK SMILES CCCCCCCCCCCCCCCCCC(=O)[O-]
REMARK SMILES IDX 10 1 11 2 12 3 13 4 14 5 15 6 16 7 17 8 18 9 19 10 20 11
REMARK SMILES IDX 9 12 8 13 7 14 6 15 5 16 4 17 3 18 2 19 1 20
REMARK H PARENT
REMARK Flexibility Score: inf
ROOT
ATOM      1  C   UNL     1      14.082  15.903 163.226  1.00  0.00     0.000 C 
ENDROOT
BRANCH   1   2
ATOM      2  C   UNL     1      13.765  14.925 162.087  1.00  0.00     0.000 C 
BRANCH   2   3
ATOM      3  C   UNL     1      13.571  13.476 162.572  1.00  0.00     0.000 C 
BRANCH   3   4
ATOM      4  C   UNL     1      12.326  12.760 162.016  1.00  0.00     0.000 C 
BRANCH   4   5
ATOM      5  C   UNL     1      11.030  13.165 162.738  1.00  0.00     0.000 C 
BRANCH   5   6
ATOM      6  C   UNL     1       9.978  13.771 161.789  1.00  0.00     0.000 C 
BRANCH   6   7
ATOM      7  C   UNL     1      10.114  15.287 161.535  1.00  0.00     0.006 C 
BRANCH   7   8
ATOM      8  C   UNL     1      10.780  15.655 160.200  1.00  0.00     0.053 C 
BRANCH   8   9
ATOM      9  C   UNL     1      11.146  17.106 160.137  1.00  0.00     0.041 C 
ATOM     10  O   UNL     1      10.990  17.843 161.147  1.00  0.00    -0.550 OA
ATOM     11  O   UNL     1      11.688  17.638 158.974  1.00  0.00    -0.550 OA
ENDBRANCH   8   9
ENDBRANCH   7   8
ENDBRANCH   6   7
ENDBRANCH   5   6
ENDBRANCH   4   5
ENDBRANCH   3   4
ENDBRANCH   2   3
ENDBRANCH   1   2
BRANCH   1  12
ATOM     12  C   UNL     1      12.797  16.509 163.805  1.00  0.00     0.000 C 
BRANCH  12  13
ATOM     13  C   UNL     1      12.404  15.819 165.116  1.00  0.00    -0.000 C 
BRANCH  13  14
ATOM     14  C   UNL     1      10.883  15.824 165.307  1.00  0.00    -0.000 C 
BRANCH  14  15
ATOM     15  C   UNL     1      10.224  16.917 164.456  1.00  0.00    -0.000 C 
BRANCH  15  16
ATOM     16  C   UNL     1       9.107  17.623 165.238  1.00  0.00    -0.000 C 
BRANCH  16  17
ATOM     17  C   UNL     1       8.727  16.885 166.532  1.00  0.00    -0.000 C 
BRANCH  17  18
ATOM     18  C   UNL     1       7.925  17.770 167.504  1.00  0.00    -0.000 C 
BRANCH  18  19
ATOM     19  C   UNL     1       6.912  16.964 168.330  1.00  0.00    -0.003 C 
ATOM     20  C   UNL     1       7.348  15.516 168.554  1.00  0.00     0.004 C 
ENDBRANCH  18  19
ENDBRANCH  17  18
ENDBRANCH  16  17
ENDBRANCH  15  16
ENDBRANCH  14  15
ENDBRANCH  13  14
ENDBRANCH  12  13
ENDBRANCH   1  12
TORSDOF 16
ENDMDL
MODEL 7
REMARK VINA RESULT:    -4.929      3.819      6.334
REMARK INTER + INTRA:         -11.850
REMARK INTER:                  -9.454
REMARK INTRA:                  -2.396
REMARK UNBOUND:                -2.312
REMARK SMILES CCCCCCCCCCCCCCCCCC(=O)[O-]
REMARK SMILES IDX 10 1 11 2 12 3 13 4 14 5 15 6 16 7 17 8 18 9 19 10 20 11
REMARK SMILES IDX 9 12 8 13 7 14 6 15 5 16 4 17 3 18 2 19 1 20
REMARK H PARENT
REMARK Flexibility Score: inf
ROOT
ATOM      1  C   UNL     1      11.503  17.846 162.720  1.00  0.00     0.000 C 
ENDROOT
BRANCH   1   2
ATOM      2  C   UNL     1      10.403  18.059 163.769  1.00  0.00     0.000 C 
BRANCH   2   3
ATOM      3  C   UNL     1      10.167  16.822 164.655  1.00  0.00     0.000 C 
BRANCH   3   4
ATOM      4  C   UNL     1      11.440  16.060 165.071  1.00  0.00     0.000 C 
BRANCH   4   5
ATOM      5  C   UNL     1      11.414  14.580 164.655  1.00  0.00     0.000 C 
BRANCH   5   6
ATOM      6  C   UNL     1      12.731  14.117 164.002  1.00  0.00     0.000 C 
BRANCH   6   7
ATOM      7  C   UNL     1      13.737  15.242 163.677  1.00  0.00     0.006 C 
BRANCH   7   8
ATOM      8  C   UNL     1      14.665  14.946 162.489  1.00  0.00     0.053 C 
BRANCH   8   9
ATOM      9  C   UNL     1      15.924  14.256 162.918  1.00  0.00     0.041 C 
ATOM     10  O   UNL     1      15.931  13.538 163.953  1.00  0.00    -0.550 OA
ATOM     11  O   UNL     1      17.080  14.380 162.160  1.00  0.00    -0.550 OA
ENDBRANCH   8   9
ENDBRANCH   7   8
ENDBRANCH   6   7
ENDBRANCH   5   6
ENDBRANCH   4   5
ENDBRANCH   3   4
ENDBRANCH   2   3
ENDBRANCH   1   2
BRANCH   1  12
ATOM     12  C   UNL     1      10.993  18.179 161.312  1.00  0.00     0.000 C 
BRANCH  12  13
ATOM     13  C   UNL     1      11.232  17.012 160.348  1.00  0.00    -0.000 C 
BRANCH  13  14
ATOM     14  C   UNL     1      11.199  15.670 161.089  1.00  0.00    -0.000 C 
BRANCH  14  15
ATOM     15  C   UNL     1       9.758  15.196 161.308  1.00  0.00    -0.000 C 
BRANCH  15  16
ATOM     16  C   UNL     1       9.723  13.721 161.737  1.00  0.00    -0.000 C 
BRANCH  16  17
ATOM     17  C   UNL     1      10.763  12.862 161.000  1.00  0.00    -0.000 C 
BRANCH  17  18
ATOM     18  C   UNL     1      10.919  11.461 161.619  1.00  0.00    -0.000 C 
BRANCH  18  19
ATOM     19  C   UNL     1       9.569  10.831 161.992  1.00  0.00    -0.003 C 
ATOM     20  C   UNL     1       9.358   9.460 161.351  1.00  0.00     0.004 C 
ENDBRANCH  18  19
ENDBRANCH  17  18
ENDBRANCH  16  17
ENDBRANCH  15  16
ENDBRANCH  14  15
ENDBRANCH  13  14
ENDBRANCH  12  13
ENDBRANCH   1  12
TORSDOF 16
ENDMDL
MODEL 8
REMARK VINA RESULT:    -4.886      3.051      4.730
REMARK INTER + INTRA:         -11.768
REMARK INTER:                  -9.633
REMARK INTRA:                  -2.135
REMARK UNBOUND:                -2.312
REMARK SMILES CCCCCCCCCCCCCCCCCC(=O)[O-]
REMARK SMILES IDX 10 1 11 2 12 3 13 4 14 5 15 6 16 7 17 8 18 9 19 10 20 11
REMARK SMILES IDX 9 12 8 13 7 14 6 15 5 16 4 17 3 18 2 19 1 20
REMARK H PARENT
REMARK Flexibility Score: inf
ROOT
ATOM      1  C   UNL     1      11.252  18.166 162.862  1.00  0.00     0.000 C 
ENDROOT
BRANCH   1   2
ATOM      2  C   UNL     1      11.146  16.755 163.457  1.00  0.00     0.000 C 
BRANCH   2   3
ATOM      3  C   UNL     1      10.268  16.698 164.721  1.00  0.00     0.000 C 
BRANCH   3   4
ATOM      4  C   UNL     1      10.725  15.688 165.791  1.00  0.00     0.000 C 
BRANCH   4   5
ATOM      5  C   UNL     1      11.814  14.729 165.284  1.00  0.00     0.000 C 
BRANCH   5   6
ATOM      6  C   UNL     1      11.277  13.318 164.978  1.00  0.00     0.000 C 
BRANCH   6   7
ATOM      7  C   UNL     1      11.535  12.810 163.544  1.00  0.00     0.006 C 
BRANCH   7   8
ATOM      8  C   UNL     1      10.376  13.049 162.563  1.00  0.00     0.053 C 
BRANCH   8   9
ATOM      9  C   UNL     1      10.150  11.871 161.664  1.00  0.00     0.041 C 
ATOM     10  O   UNL     1      10.393  11.960 160.432  1.00  0.00    -0.550 OA
ATOM     11  O   UNL     1       9.700  10.668 162.193  1.00  0.00    -0.550 OA
ENDBRANCH   8   9
ENDBRANCH   7   8
ENDBRANCH   6   7
ENDBRANCH   5   6
ENDBRANCH   4   5
ENDBRANCH   3   4
ENDBRANCH   2   3
ENDBRANCH   1   2
BRANCH   1  12
ATOM     12  C   UNL     1      11.234  18.120 161.329  1.00  0.00     0.000 C 
BRANCH  12  13
ATOM     13  C   UNL     1      10.840  16.728 160.823  1.00  0.00    -0.000 C 
BRANCH  13  14
ATOM     14  C   UNL     1      11.972  16.099 160.003  1.00  0.00    -0.000 C 
BRANCH  14  15
ATOM     15  C   UNL     1      12.476  14.806 160.657  1.00  0.00    -0.000 C 
BRANCH  15  16
ATOM     16  C   UNL     1      13.964  14.918 161.022  1.00  0.00    -0.000 C 
BRANCH  16  17
ATOM     17  C   UNL     1      14.199  15.026 162.537  1.00  0.00    -0.000 C 
BRANCH  17  18
ATOM     18  C   UNL     1      15.409  14.199 163.008  1.00  0.00    -0.000 C 
BRANCH  18  19
ATOM     19  C   UNL     1      16.684  14.521 162.214  1.00  0.00    -0.003 C 
ATOM     20  C   UNL     1      17.911  13.771 162.734  1.00  0.00     0.004 C 
ENDBRANCH  18  19
ENDBRANCH  17  18
ENDBRANCH  16  17
ENDBRANCH  15  16
ENDBRANCH  14  15
ENDBRANCH  13  14
ENDBRANCH  12  13
ENDBRANCH   1  12
TORSDOF 16
ENDMDL
MODEL 9
REMARK VINA RESULT:    -4.842      1.045      1.930
REMARK INTER + INTRA:         -11.684
REMARK INTER:                  -9.207
REMARK INTRA:                  -2.477
REMARK UNBOUND:                -2.312
REMARK SMILES CCCCCCCCCCCCCCCCCC(=O)[O-]
REMARK SMILES IDX 10 1 11 2 12 3 13 4 14 5 15 6 16 7 17 8 18 9 19 10 20 11
REMARK SMILES IDX 9 12 8 13 7 14 6 15 5 16 4 17 3 18 2 19 1 20
REMARK H PARENT
REMARK Flexibility Score: inf
ROOT
ATOM      1  C   UNL     1      10.867  12.508 163.137  1.00  0.00     0.000 C 
ENDROOT
BRANCH   1   2
ATOM      2  C   UNL     1      11.833  13.114 164.164  1.00  0.00     0.000 C 
BRANCH   2   3
ATOM      3  C   UNL     1      11.263  14.361 164.865  1.00  0.00     0.000 C 
BRANCH   3   4
ATOM      4  C   UNL     1      12.188  15.592 164.869  1.00  0.00     0.000 C 
BRANCH   4   5
ATOM      5  C   UNL     1      11.599  16.786 164.100  1.00  0.00     0.000 C 
BRANCH   5   6
ATOM      6  C   UNL     1      10.060  16.829 164.144  1.00  0.00     0.000 C 
BRANCH   6   7
ATOM      7  C   UNL     1       9.456  17.913 165.061  1.00  0.00     0.006 C 
BRANCH   7   8
ATOM      8  C   UNL     1       8.086  17.555 165.658  1.00  0.00     0.053 C 
BRANCH   8   9
ATOM      9  C   UNL     1       8.208  16.987 167.040  1.00  0.00     0.041 C 
ATOM     10  O   UNL     1       7.545  17.482 167.989  1.00  0.00    -0.550 OA
ATOM     11  O   UNL     1       9.031  15.893 167.273  1.00  0.00    -0.550 OA
ENDBRANCH   8   9
ENDBRANCH   7   8
ENDBRANCH   6   7
ENDBRANCH   5   6
ENDBRANCH   4   5
ENDBRANCH   3   4
ENDBRANCH   2   3
ENDBRANCH   1   2
BRANCH   1  12
ATOM     12  C   UNL     1      10.103  13.605 162.385  1.00  0.00     0.000 C 
BRANCH  12  13
ATOM     13  C   UNL     1      10.769  13.918 161.041  1.00  0.00    -0.000 C 
BRANCH  13  14
ATOM     14  C   UNL     1      10.680  15.414 160.717  1.00  0.00    -0.000 C 
BRANCH  14  15
ATOM     15  C   UNL     1      12.064  15.994 160.404  1.00  0.00    -0.000 C 
BRANCH  15  16
ATOM     16  C   UNL     1      13.158  14.931 160.581  1.00  0.00    -0.000 C 
BRANCH  16  17
ATOM     17  C   UNL     1      13.998  15.148 161.850  1.00  0.00    -0.000 C 
BRANCH  17  18
ATOM     18  C   UNL     1      14.463  13.824 162.485  1.00  0.00    -0.000 C 
BRANCH  18  19
ATOM     19  C   UNL     1      15.726  13.996 163.341  1.00  0.00    -0.003 C 
ATOM     20  C   UNL     1      16.984  14.224 162.502  1.00  0.00     0.004 C 
ENDBRANCH  18  19
ENDBRANCH  17  18
ENDBRANCH  16  17
ENDBRANCH  15  16
ENDBRANCH  14  15
ENDBRANCH  13  14
ENDBRANCH  12  13
ENDBRANCH   1  12
TORSDOF 16
ENDMDL
