MODEL 1
REMARK VINA RESULT:    -4.506      0.000      0.000
REMARK INTER + INTRA:         -16.604
REMARK INTER:                 -11.881
REMARK INTRA:                  -4.723
REMARK UNBOUND:                -4.723
REMARK SMILES CCCCCCCCCCCCCCCCCCCCCCCCCCCCCC(=O)[O-]
REMARK SMILES IDX 16 1 17 2 18 3 19 4 20 5 21 6 22 7 23 8 24 9 25 10 26 11
REMARK SMILES IDX 27 12 28 13 29 14 30 15 31 16 32 17 15 18 14 19 13 20 12 21
REMARK SMILES IDX 11 22 10 23 9 24 8 25 7 26 6 27 5 28 4 29 3 30 2 31 1 32
REMARK H PARENT
REMARK Flexibility Score: inf
ROOT
ATOM      1  C   UNL     1       0.838  45.534  15.924  1.00  0.00     0.000 C 
ENDROOT
BRANCH   1   2
ATOM      2  C   UNL     1       1.462  44.368  16.710  1.00  0.00     0.000 C 
BRANCH   2   3
ATOM      3  C   UNL     1       0.421  43.351  17.199  1.00  0.00     0.000 C 
BRANCH   3   4
ATOM      4  C   UNL     1      -0.976  43.710  16.674  1.00  0.00     0.000 C 
BRANCH   4   5
ATOM      5  C   UNL     1      -2.083  43.482  17.718  1.00  0.00     0.000 C 
BRANCH   5   6
ATOM      6  C   UNL     1      -1.908  44.264  19.036  1.00  0.00     0.000 C 
BRANCH   6   7
ATOM      7  C   UNL     1      -3.168  44.993  19.539  1.00  0.00     0.000 C 
BRANCH   7   8
ATOM      8  C   UNL     1      -4.470  44.386  18.996  1.00  0.00     0.000 C 
BRANCH   8   9
ATOM      9  C   UNL     1      -5.334  43.826  20.131  1.00  0.00     0.000 C 
BRANCH   9  10
ATOM     10  C   UNL     1      -4.810  42.464  20.603  1.00  0.00     0.000 C 
BRANCH  10  11
ATOM     11  C   UNL     1      -4.399  42.516  22.082  1.00  0.00     0.000 C 
BRANCH  11  12
ATOM     12  C   UNL     1      -2.876  42.609  22.270  1.00  0.00     0.000 C 
BRANCH  12  13
ATOM     13  C   UNL     1      -2.485  43.424  23.515  1.00  0.00     0.006 C 
BRANCH  13  14
ATOM     14  C   UNL     1      -2.300  44.913  23.199  1.00  0.00     0.053 C 
BRANCH  14  15
ATOM     15  C   UNL     1      -3.539  45.705  23.484  1.00  0.00     0.041 C 
ATOM     16  O   UNL     1      -4.161  46.267  22.544  1.00  0.00    -0.550 OA
ATOM     17  O   UNL     1      -4.024  45.798  24.782  1.00  0.00    -0.550 OA
ENDBRANCH  14  15
ENDBRANCH  13  14
ENDBRANCH  12  13
ENDBRANCH  11  12
ENDBRANCH  10  11
ENDBRANCH   9  10
ENDBRANCH   8   9
ENDBRANCH   7   8
ENDBRANCH   6   7
ENDBRANCH   5   6
ENDBRANCH   4   5
ENDBRANCH   3   4
ENDBRANCH   2   3
ENDBRANCH   1   2
BRANCH   1  18
ATOM     18  C   UNL     1       1.591  46.876  16.045  1.00  0.00     0.000 C 
BRANCH  18  19
ATOM     19  C   UNL     1       2.947  46.808  16.778  1.00  0.00     0.000 C 
BRANCH  19  20
ATOM     20  C   UNL     1       3.201  47.938  17.792  1.00  0.00     0.000 C 
BRANCH  20  21
ATOM     21  C   UNL     1       4.176  47.533  18.909  1.00  0.00     0.000 C 
BRANCH  21  22
ATOM     22  C   UNL     1       5.080  46.351  18.516  1.00  0.00     0.000 C 
BRANCH  22  23
ATOM     23  C   UNL     1       5.394  45.359  19.650  1.00  0.00     0.000 C 
BRANCH  23  24
ATOM     24  C   UNL     1       4.134  44.887  20.397  1.00  0.00    -0.000 C 
BRANCH  24  25
ATOM     25  C   UNL     1       3.278  43.914  19.561  1.00  0.00    -0.000 C 
BRANCH  25  26
ATOM     26  C   UNL     1       3.079  42.540  20.224  1.00  0.00    -0.000 C 
BRANCH  26  27
ATOM     27  C   UNL     1       1.590  42.159  20.388  1.00  0.00    -0.000 C 
BRANCH  27  28
ATOM     28  C   UNL     1       0.841  43.110  21.334  1.00  0.00    -0.000 C 
BRANCH  28  29
ATOM     29  C   UNL     1       1.045  42.728  22.812  1.00  0.00    -0.000 C 
BRANCH  29  30
ATOM     30  C   UNL     1       1.833  43.792  23.592  1.00  0.00    -0.000 C 
BRANCH  30  31
ATOM     31  C   UNL     1       3.297  43.387  23.821  1.00  0.00    -0.003 C 
ATOM     32  C   UNL     1       4.207  44.611  23.853  1.00  0.00     0.004 C 
ENDBRANCH  30  31
ENDBRANCH  29  30
ENDBRANCH  28  29
ENDBRANCH  27  28
ENDBRANCH  26  27
ENDBRANCH  25  26
ENDBRANCH  24  25
ENDBRANCH  23  24
ENDBRANCH  22  23
ENDBRANCH  21  22
ENDBRANCH  20  21
ENDBRANCH  19  20
ENDBRANCH  18  19
ENDBRANCH   1  18
TORSDOF 28
ENDMDL
MODEL 2
REMARK VINA RESULT:    -4.304      8.066     11.288
REMARK INTER + INTRA:         -16.072
REMARK INTER:                 -13.154
REMARK INTRA:                  -2.918
REMARK UNBOUND:                -4.723
REMARK SMILES CCCCCCCCCCCCCCCCCCCCCCCCCCCCCC(=O)[O-]
REMARK SMILES IDX 16 1 17 2 18 3 19 4 20 5 21 6 22 7 23 8 24 9 25 10 26 11
REMARK SMILES IDX 27 12 28 13 29 14 30 15 31 16 32 17 15 18 14 19 13 20 12 21
REMARK SMILES IDX 11 22 10 23 9 24 8 25 7 26 6 27 5 28 4 29 3 30 2 31 1 32
REMARK H PARENT
REMARK Flexibility Score: inf
ROOT
ATOM      1  C   UNL     1      -5.382  40.495  24.387  1.00  0.00     0.000 C 
ENDROOT
BRANCH   1   2
ATOM      2  C   UNL     1      -6.525  39.679  25.016  1.00  0.00     0.000 C 
BRANCH   2   3
ATOM      3  C   UNL     1      -7.897  40.348  24.855  1.00  0.00     0.000 C 
BRANCH   3   4
ATOM      4  C   UNL     1      -8.202  41.253  26.057  1.00  0.00     0.000 C 
BRANCH   4   5
ATOM      5  C   UNL     1      -9.315  40.693  26.960  1.00  0.00     0.000 C 
BRANCH   5   6
ATOM      6  C   UNL     1      -8.882  40.367  28.404  1.00  0.00     0.000 C 
BRANCH   6   7
ATOM      7  C   UNL     1      -9.917  40.709  29.492  1.00  0.00     0.000 C 
BRANCH   7   8
ATOM      8  C   UNL     1      -9.276  41.031  30.850  1.00  0.00     0.000 C 
BRANCH   8   9
ATOM      9  C   UNL     1      -8.004  40.203  31.070  1.00  0.00     0.000 C 
BRANCH   9  10
ATOM     10  C   UNL     1      -8.092  39.391  32.368  1.00  0.00     0.000 C 
BRANCH  10  11
ATOM     11  C   UNL     1      -9.198  38.329  32.276  1.00  0.00     0.000 C 
BRANCH  11  12
ATOM     12  C   UNL     1      -8.651  36.895  32.377  1.00  0.00     0.000 C 
BRANCH  12  13
ATOM     13  C   UNL     1      -9.735  35.832  32.130  1.00  0.00     0.006 C 
BRANCH  13  14
ATOM     14  C   UNL     1      -9.174  34.406  32.193  1.00  0.00     0.053 C 
BRANCH  14  15
ATOM     15  C   UNL     1      -9.295  33.815  33.564  1.00  0.00     0.041 C 
ATOM     16  O   UNL     1     -10.276  33.081  33.853  1.00  0.00    -0.550 OA
ATOM     17  O   UNL     1      -8.309  34.052  34.514  1.00  0.00    -0.550 OA
ENDBRANCH  14  15
ENDBRANCH  13  14
ENDBRANCH  12  13
ENDBRANCH  11  12
ENDBRANCH  10  11
ENDBRANCH   9  10
ENDBRANCH   8   9
ENDBRANCH   7   8
ENDBRANCH   6   7
ENDBRANCH   5   6
ENDBRANCH   4   5
ENDBRANCH   3   4
ENDBRANCH   2   3
ENDBRANCH   1   2
BRANCH   1  18
ATOM     18  C   UNL     1      -5.474  40.672  22.858  1.00  0.00     0.000 C 
BRANCH  18  19
ATOM     19  C   UNL     1      -5.152  42.088  22.336  1.00  0.00     0.000 C 
BRANCH  19  20
ATOM     20  C   UNL     1      -5.082  42.223  20.805  1.00  0.00     0.000 C 
BRANCH  20  21
ATOM     21  C   UNL     1      -5.362  43.652  20.315  1.00  0.00     0.000 C 
BRANCH  21  22
ATOM     22  C   UNL     1      -4.099  44.531  20.275  1.00  0.00     0.000 C 
BRANCH  22  23
ATOM     23  C   UNL     1      -2.936  43.969  19.438  1.00  0.00     0.000 C 
BRANCH  23  24
ATOM     24  C   UNL     1      -1.620  43.878  20.231  1.00  0.00    -0.000 C 
BRANCH  24  25
ATOM     25  C   UNL     1      -1.749  44.435  21.662  1.00  0.00    -0.000 C 
BRANCH  25  26
ATOM     26  C   UNL     1      -0.651  43.940  22.620  1.00  0.00    -0.000 C 
BRANCH  26  27
ATOM     27  C   UNL     1      -1.108  43.906  24.097  1.00  0.00    -0.000 C 
BRANCH  27  28
ATOM     28  C   UNL     1      -2.574  43.470  24.248  1.00  0.00    -0.000 C 
BRANCH  28  29
ATOM     29  C   UNL     1      -3.199  44.001  25.551  1.00  0.00    -0.000 C 
BRANCH  29  30
ATOM     30  C   UNL     1      -4.104  45.220  25.317  1.00  0.00    -0.000 C 
BRANCH  30  31
ATOM     31  C   UNL     1      -4.437  45.426  23.831  1.00  0.00    -0.003 C 
ATOM     32  C   UNL     1      -4.046  46.827  23.370  1.00  0.00     0.004 C 
ENDBRANCH  30  31
ENDBRANCH  29  30
ENDBRANCH  28  29
ENDBRANCH  27  28
ENDBRANCH  26  27
ENDBRANCH  25  26
ENDBRANCH  24  25
ENDBRANCH  23  24
ENDBRANCH  22  23
ENDBRANCH  21  22
ENDBRANCH  20  21
ENDBRANCH  19  20
ENDBRANCH  18  19
ENDBRANCH   1  18
TORSDOF 28
ENDMDL
MODEL 3
REMARK VINA RESULT:    -4.268      1.771      4.440
REMARK INTER + INTRA:         -15.977
REMARK INTER:                 -11.656
REMARK INTRA:                  -4.321
REMARK UNBOUND:                -4.723
REMARK SMILES CCCCCCCCCCCCCCCCCCCCCCCCCCCCCC(=O)[O-]
REMARK SMILES IDX 16 1 17 2 18 3 19 4 20 5 21 6 22 7 23 8 24 9 25 10 26 11
REMARK SMILES IDX 27 12 28 13 29 14 30 15 31 16 32 17 15 18 14 19 13 20 12 21
REMARK SMILES IDX 11 22 10 23 9 24 8 25 7 26 6 27 5 28 4 29 3 30 2 31 1 32
REMARK H PARENT
REMARK Flexibility Score: inf
ROOT
ATOM      1  C   UNL     1      -0.717  40.784  19.603  1.00  0.00     0.000 C 
ENDROOT
BRANCH   1   2
ATOM      2  C   UNL     1      -1.809  40.849  20.685  1.00  0.00     0.000 C 
BRANCH   2   3
ATOM      3  C   UNL     1      -3.227  40.910  20.102  1.00  0.00     0.000 C 
BRANCH   3   4
ATOM      4  C   UNL     1      -4.214  41.476  21.133  1.00  0.00     0.000 C 
BRANCH   4   5
ATOM      5  C   UNL     1      -5.473  42.079  20.488  1.00  0.00     0.000 C 
BRANCH   5   6
ATOM      6  C   UNL     1      -5.505  43.620  20.432  1.00  0.00     0.000 C 
BRANCH   6   7
ATOM      7  C   UNL     1      -4.546  44.259  19.410  1.00  0.00     0.000 C 
BRANCH   7   8
ATOM      8  C   UNL     1      -3.328  44.926  20.065  1.00  0.00     0.000 C 
BRANCH   8   9
ATOM      9  C   UNL     1      -3.663  45.419  21.478  1.00  0.00     0.000 C 
BRANCH   9  10
ATOM     10  C   UNL     1      -2.609  44.950  22.489  1.00  0.00     0.000 C 
BRANCH  10  11
ATOM     11  C   UNL     1      -1.616  43.978  21.836  1.00  0.00     0.000 C 
BRANCH  11  12
ATOM     12  C   UNL     1      -0.341  43.782  22.674  1.00  0.00     0.000 C 
BRANCH  12  13
ATOM     13  C   UNL     1      -0.567  44.073  24.168  1.00  0.00     0.006 C 
BRANCH  13  14
ATOM     14  C   UNL     1      -0.682  42.789  24.998  1.00  0.00     0.053 C 
BRANCH  14  15
ATOM     15  C   UNL     1      -1.973  42.725  25.756  1.00  0.00     0.041 C 
ATOM     16  O   UNL     1      -2.281  41.684  26.394  1.00  0.00    -0.550 OA
ATOM     17  O   UNL     1      -2.821  43.825  25.781  1.00  0.00    -0.550 OA
ENDBRANCH  14  15
ENDBRANCH  13  14
ENDBRANCH  12  13
ENDBRANCH  11  12
ENDBRANCH  10  11
ENDBRANCH   9  10
ENDBRANCH   8   9
ENDBRANCH   7   8
ENDBRANCH   6   7
ENDBRANCH   5   6
ENDBRANCH   4   5
ENDBRANCH   3   4
ENDBRANCH   2   3
ENDBRANCH   1   2
BRANCH   1  18
ATOM     18  C   UNL     1      -0.941  41.717  18.395  1.00  0.00     0.000 C 
BRANCH  18  19
ATOM     19  C   UNL     1      -0.357  43.138  18.541  1.00  0.00     0.000 C 
BRANCH  19  20
ATOM     20  C   UNL     1      -0.808  44.146  17.469  1.00  0.00     0.000 C 
BRANCH  20  21
ATOM     21  C   UNL     1       0.084  44.130  16.217  1.00  0.00     0.000 C 
BRANCH  21  22
ATOM     22  C   UNL     1       1.474  44.743  16.465  1.00  0.00     0.000 C 
BRANCH  22  23
ATOM     23  C   UNL     1       1.560  46.269  16.279  1.00  0.00     0.000 C 
BRANCH  23  24
ATOM     24  C   UNL     1       2.994  46.808  16.429  1.00  0.00    -0.000 C 
BRANCH  24  25
ATOM     25  C   UNL     1       3.213  47.547  17.764  1.00  0.00    -0.000 C 
BRANCH  25  26
ATOM     26  C   UNL     1       4.554  47.213  18.443  1.00  0.00    -0.000 C 
BRANCH  26  27
ATOM     27  C   UNL     1       4.382  46.631  19.865  1.00  0.00    -0.000 C 
BRANCH  27  28
ATOM     28  C   UNL     1       4.649  45.118  19.917  1.00  0.00    -0.000 C 
BRANCH  28  29
ATOM     29  C   UNL     1       3.458  44.306  19.378  1.00  0.00    -0.000 C 
BRANCH  29  30
ATOM     30  C   UNL     1       2.717  43.541  20.486  1.00  0.00    -0.000 C 
BRANCH  30  31
ATOM     31  C   UNL     1       3.253  43.875  21.887  1.00  0.00    -0.003 C 
ATOM     32  C   UNL     1       4.064  42.714  22.454  1.00  0.00     0.004 C 
ENDBRANCH  30  31
ENDBRANCH  29  30
ENDBRANCH  28  29
ENDBRANCH  27  28
ENDBRANCH  26  27
ENDBRANCH  25  26
ENDBRANCH  24  25
ENDBRANCH  23  24
ENDBRANCH  22  23
ENDBRANCH  21  22
ENDBRANCH  20  21
ENDBRANCH  19  20
ENDBRANCH  18  19
ENDBRANCH   1  18
TORSDOF 28
ENDMDL
MODEL 4
REMARK VINA RESULT:    -4.236      3.038      5.587
REMARK INTER + INTRA:         -15.893
REMARK INTER:                 -10.749
REMARK INTRA:                  -5.144
REMARK UNBOUND:                -4.723
REMARK SMILES CCCCCCCCCCCCCCCCCCCCCCCCCCCCCC(=O)[O-]
REMARK SMILES IDX 16 1 17 2 18 3 19 4 20 5 21 6 22 7 23 8 24 9 25 10 26 11
REMARK SMILES IDX 27 12 28 13 29 14 30 15 31 16 32 17 15 18 14 19 13 20 12 21
REMARK SMILES IDX 11 22 10 23 9 24 8 25 7 26 6 27 5 28 4 29 3 30 2 31 1 32
REMARK H PARENT
REMARK Flexibility Score: inf
ROOT
ATOM      1  C   UNL     1      -3.630  45.429  19.777  1.00  0.00     0.000 C 
ENDROOT
BRANCH   1   2
ATOM      2  C   UNL     1      -3.367  44.812  21.161  1.00  0.00     0.000 C 
BRANCH   2   3
ATOM      3  C   UNL     1      -1.885  44.495  21.404  1.00  0.00     0.000 C 
BRANCH   3   4
ATOM      4  C   UNL     1      -1.574  44.479  22.907  1.00  0.00     0.000 C 
BRANCH   4   5
ATOM      5  C   UNL     1      -2.688  45.117  23.756  1.00  0.00     0.000 C 
BRANCH   5   6
ATOM      6  C   UNL     1      -3.307  44.191  24.823  1.00  0.00     0.000 C 
BRANCH   6   7
ATOM      7  C   UNL     1      -4.691  43.616  24.469  1.00  0.00     0.000 C 
BRANCH   7   8
ATOM      8  C   UNL     1      -4.662  42.103  24.204  1.00  0.00     0.000 C 
BRANCH   8   9
ATOM      9  C   UNL     1      -4.399  41.808  22.723  1.00  0.00     0.000 C 
BRANCH   9  10
ATOM     10  C   UNL     1      -3.040  41.126  22.529  1.00  0.00     0.000 C 
BRANCH  10  11
ATOM     11  C   UNL     1      -2.588  40.426  23.819  1.00  0.00     0.000 C 
BRANCH  11  12
ATOM     12  C   UNL     1      -1.265  40.989  24.366  1.00  0.00     0.000 C 
BRANCH  12  13
ATOM     13  C   UNL     1      -1.327  41.276  25.877  1.00  0.00     0.006 C 
BRANCH  13  14
ATOM     14  C   UNL     1      -2.183  40.248  26.628  1.00  0.00     0.053 C 
BRANCH  14  15
ATOM     15  C   UNL     1      -1.617  39.927  27.977  1.00  0.00     0.041 C 
ATOM     16  O   UNL     1      -2.229  39.143  28.750  1.00  0.00    -0.550 OA
ATOM     17  O   UNL     1      -0.400  40.469  28.369  1.00  0.00    -0.550 OA
ENDBRANCH  14  15
ENDBRANCH  13  14
ENDBRANCH  12  13
ENDBRANCH  11  12
ENDBRANCH  10  11
ENDBRANCH   9  10
ENDBRANCH   8   9
ENDBRANCH   7   8
ENDBRANCH   6   7
ENDBRANCH   5   6
ENDBRANCH   4   5
ENDBRANCH   3   4
ENDBRANCH   2   3
ENDBRANCH   1   2
BRANCH   1  18
ATOM     18  C   UNL     1      -4.416  44.528  18.801  1.00  0.00     0.000 C 
BRANCH  18  19
ATOM     19  C   UNL     1      -4.299  43.012  19.063  1.00  0.00     0.000 C 
BRANCH  19  20
ATOM     20  C   UNL     1      -3.544  42.216  17.984  1.00  0.00     0.000 C 
BRANCH  20  21
ATOM     21  C   UNL     1      -3.112  43.082  16.790  1.00  0.00     0.000 C 
BRANCH  21  22
ATOM     22  C   UNL     1      -1.583  43.208  16.664  1.00  0.00     0.000 C 
BRANCH  22  23
ATOM     23  C   UNL     1      -0.891  43.970  17.808  1.00  0.00     0.000 C 
BRANCH  23  24
ATOM     24  C   UNL     1       0.640  43.810  17.792  1.00  0.00    -0.000 C 
BRANCH  24  25
ATOM     25  C   UNL     1       1.180  43.137  19.069  1.00  0.00    -0.000 C 
BRANCH  25  26
ATOM     26  C   UNL     1       0.126  42.305  19.823  1.00  0.00    -0.000 C 
BRANCH  26  27
ATOM     27  C   UNL     1       0.623  41.807  21.200  1.00  0.00    -0.000 C 
BRANCH  27  28
ATOM     28  C   UNL     1       2.157  41.748  21.285  1.00  0.00    -0.000 C 
BRANCH  28  29
ATOM     29  C   UNL     1       2.699  42.585  22.457  1.00  0.00    -0.000 C 
BRANCH  29  30
ATOM     30  C   UNL     1       3.298  43.924  21.997  1.00  0.00    -0.000 C 
BRANCH  30  31
ATOM     31  C   UNL     1       3.832  44.760  23.169  1.00  0.00    -0.003 C 
ATOM     32  C   UNL     1       3.753  43.983  24.480  1.00  0.00     0.004 C 
ENDBRANCH  30  31
ENDBRANCH  29  30
ENDBRANCH  28  29
ENDBRANCH  27  28
ENDBRANCH  26  27
ENDBRANCH  25  26
ENDBRANCH  24  25
ENDBRANCH  23  24
ENDBRANCH  22  23
ENDBRANCH  21  22
ENDBRANCH  20  21
ENDBRANCH  19  20
ENDBRANCH  18  19
ENDBRANCH   1  18
TORSDOF 28
ENDMDL
MODEL 5
REMARK VINA RESULT:    -4.172      7.215     12.096
REMARK INTER + INTRA:         -15.723
REMARK INTER:                 -11.859
REMARK INTRA:                  -3.865
REMARK UNBOUND:                -4.723
REMARK SMILES CCCCCCCCCCCCCCCCCCCCCCCCCCCCCC(=O)[O-]
REMARK SMILES IDX 16 1 17 2 18 3 19 4 20 5 21 6 22 7 23 8 24 9 25 10 26 11
REMARK SMILES IDX 27 12 28 13 29 14 30 15 31 16 32 17 15 18 14 19 13 20 12 21
REMARK SMILES IDX 11 22 10 23 9 24 8 25 7 26 6 27 5 28 4 29 3 30 2 31 1 32
REMARK H PARENT
REMARK Flexibility Score: inf
ROOT
ATOM      1  C   UNL     1      -6.094  39.445  23.589  1.00  0.00     0.000 C 
ENDROOT
BRANCH   1   2
ATOM      2  C   UNL     1      -5.878  40.169  22.250  1.00  0.00     0.000 C 
BRANCH   2   3
ATOM      3  C   UNL     1      -5.048  41.453  22.390  1.00  0.00     0.000 C 
BRANCH   3   4
ATOM      4  C   UNL     1      -3.814  41.207  23.270  1.00  0.00     0.000 C 
BRANCH   4   5
ATOM      5  C   UNL     1      -3.727  42.177  24.461  1.00  0.00     0.000 C 
BRANCH   5   6
ATOM      6  C   UNL     1      -4.749  43.332  24.439  1.00  0.00     0.000 C 
BRANCH   6   7
ATOM      7  C   UNL     1      -4.330  44.593  25.218  1.00  0.00     0.000 C 
BRANCH   7   8
ATOM      8  C   UNL     1      -3.953  45.766  24.302  1.00  0.00     0.000 C 
BRANCH   8   9
ATOM      9  C   UNL     1      -4.668  45.662  22.949  1.00  0.00     0.000 C 
BRANCH   9  10
ATOM     10  C   UNL     1      -3.669  45.747  21.789  1.00  0.00     0.000 C 
BRANCH  10  11
ATOM     11  C   UNL     1      -3.903  44.614  20.779  1.00  0.00     0.000 C 
BRANCH  11  12
ATOM     12  C   UNL     1      -2.681  43.692  20.629  1.00  0.00     0.000 C 
BRANCH  12  13
ATOM     13  C   UNL     1      -1.453  44.211  21.397  1.00  0.00     0.006 C 
BRANCH  13  14
ATOM     14  C   UNL     1      -0.808  43.121  22.263  1.00  0.00     0.053 C 
BRANCH  14  15
ATOM     15  C   UNL     1      -0.129  43.693  23.470  1.00  0.00     0.041 C 
ATOM     16  O   UNL     1      -0.812  44.191  24.403  1.00  0.00    -0.550 OA
ATOM     17  O   UNL     1       1.255  43.649  23.577  1.00  0.00    -0.550 OA
ENDBRANCH  14  15
ENDBRANCH  13  14
ENDBRANCH  12  13
ENDBRANCH  11  12
ENDBRANCH  10  11
ENDBRANCH   9  10
ENDBRANCH   8   9
ENDBRANCH   7   8
ENDBRANCH   6   7
ENDBRANCH   5   6
ENDBRANCH   4   5
ENDBRANCH   3   4
ENDBRANCH   2   3
ENDBRANCH   1   2
BRANCH   1  18
ATOM     18  C   UNL     1      -7.423  39.773  24.300  1.00  0.00     0.000 C 
BRANCH  18  19
ATOM     19  C   UNL     1      -7.333  40.842  25.409  1.00  0.00     0.000 C 
BRANCH  19  20
ATOM     20  C   UNL     1      -8.640  41.101  26.179  1.00  0.00     0.000 C 
BRANCH  20  21
ATOM     21  C   UNL     1      -8.550  40.707  27.662  1.00  0.00     0.000 C 
BRANCH  21  22
ATOM     22  C   UNL     1      -9.917  40.338  28.267  1.00  0.00     0.000 C 
BRANCH  22  23
ATOM     23  C   UNL     1      -9.882  39.880  29.736  1.00  0.00     0.000 C 
BRANCH  23  24
ATOM     24  C   UNL     1      -9.132  40.865  30.651  1.00  0.00    -0.000 C 
BRANCH  24  25
ATOM     25  C   UNL     1      -7.961  40.202  31.403  1.00  0.00    -0.000 C 
BRANCH  25  26
ATOM     26  C   UNL     1      -8.082  38.671  31.511  1.00  0.00    -0.000 C 
BRANCH  26  27
ATOM     27  C   UNL     1      -7.052  37.921  30.635  1.00  0.00    -0.000 C 
BRANCH  27  28
ATOM     28  C   UNL     1      -7.605  36.599  30.080  1.00  0.00    -0.000 C 
BRANCH  28  29
ATOM     29  C   UNL     1      -8.955  36.228  30.720  1.00  0.00    -0.000 C 
BRANCH  29  30
ATOM     30  C   UNL     1      -8.842  35.037  31.684  1.00  0.00    -0.000 C 
BRANCH  30  31
ATOM     31  C   UNL     1      -9.219  35.411  33.125  1.00  0.00    -0.003 C 
ATOM     32  C   UNL     1      -8.511  34.508  34.131  1.00  0.00     0.004 C 
ENDBRANCH  30  31
ENDBRANCH  29  30
ENDBRANCH  28  29
ENDBRANCH  27  28
ENDBRANCH  26  27
ENDBRANCH  25  26
ENDBRANCH  24  25
ENDBRANCH  23  24
ENDBRANCH  22  23
ENDBRANCH  21  22
ENDBRANCH  20  21
ENDBRANCH  19  20
ENDBRANCH  18  19
ENDBRANCH   1  18
TORSDOF 28
ENDMDL
MODEL 6
REMARK VINA RESULT:    -4.144      2.998      5.883
REMARK INTER + INTRA:         -15.650
REMARK INTER:                  -9.654
REMARK INTRA:                  -5.996
REMARK UNBOUND:                -4.723
REMARK SMILES CCCCCCCCCCCCCCCCCCCCCCCCCCCCCC(=O)[O-]
REMARK SMILES IDX 16 1 17 2 18 3 19 4 20 5 21 6 22 7 23 8 24 9 25 10 26 11
REMARK SMILES IDX 27 12 28 13 29 14 30 15 31 16 32 17 15 18 14 19 13 20 12 21
REMARK SMILES IDX 11 22 10 23 9 24 8 25 7 26 6 27 5 28 4 29 3 30 2 31 1 32
REMARK H PARENT
REMARK Flexibility Score: inf
ROOT
ATOM      1  C   UNL     1      -4.577  44.277  19.463  1.00  0.00     0.000 C 
ENDROOT
BRANCH   1   2
ATOM      2  C   UNL     1      -5.451  43.525  20.482  1.00  0.00     0.000 C 
BRANCH   2   3
ATOM      3  C   UNL     1      -4.830  42.199  20.940  1.00  0.00     0.000 C 
BRANCH   3   4
ATOM      4  C   UNL     1      -4.414  41.349  19.731  1.00  0.00     0.000 C 
BRANCH   4   5
ATOM      5  C   UNL     1      -3.000  40.758  19.873  1.00  0.00     0.000 C 
BRANCH   5   6
ATOM      6  C   UNL     1      -2.403  40.829  21.294  1.00  0.00     0.000 C 
BRANCH   6   7
ATOM      7  C   UNL     1      -1.498  39.645  21.685  1.00  0.00     0.000 C 
BRANCH   7   8
ATOM      8  C   UNL     1      -0.422  40.027  22.712  1.00  0.00     0.000 C 
BRANCH   8   9
ATOM      9  C   UNL     1      -1.044  40.310  24.084  1.00  0.00     0.000 C 
BRANCH   9  10
ATOM     10  C   UNL     1      -1.975  39.170  24.513  1.00  0.00     0.000 C 
BRANCH  10  11
ATOM     11  C   UNL     1      -3.202  39.714  25.261  1.00  0.00     0.000 C 
BRANCH  11  12
ATOM     12  C   UNL     1      -4.305  40.206  24.309  1.00  0.00     0.000 C 
BRANCH  12  13
ATOM     13  C   UNL     1      -5.569  39.332  24.370  1.00  0.00     0.006 C 
BRANCH  13  14
ATOM     14  C   UNL     1      -6.455  39.675  25.574  1.00  0.00     0.053 C 
BRANCH  14  15
ATOM     15  C   UNL     1      -7.782  40.228  25.154  1.00  0.00     0.041 C 
ATOM     16  O   UNL     1      -8.240  41.264  25.705  1.00  0.00    -0.550 OA
ATOM     17  O   UNL     1      -8.501  39.616  24.135  1.00  0.00    -0.550 OA
ENDBRANCH  14  15
ENDBRANCH  13  14
ENDBRANCH  12  13
ENDBRANCH  11  12
ENDBRANCH  10  11
ENDBRANCH   9  10
ENDBRANCH   8   9
ENDBRANCH   7   8
ENDBRANCH   6   7
ENDBRANCH   5   6
ENDBRANCH   4   5
ENDBRANCH   3   4
ENDBRANCH   2   3
ENDBRANCH   1   2
BRANCH   1  18
ATOM     18  C   UNL     1      -3.342  44.983  20.061  1.00  0.00     0.000 C 
BRANCH  18  19
ATOM     19  C   UNL     1      -1.982  44.344  19.709  1.00  0.00     0.000 C 
BRANCH  19  20
ATOM     20  C   UNL     1      -1.797  43.969  18.228  1.00  0.00     0.000 C 
BRANCH  20  21
ATOM     21  C   UNL     1      -0.439  43.308  17.941  1.00  0.00     0.000 C 
BRANCH  21  22
ATOM     22  C   UNL     1       0.232  42.745  19.207  1.00  0.00     0.000 C 
BRANCH  22  23
ATOM     23  C   UNL     1       1.649  43.275  19.489  1.00  0.00     0.000 C 
BRANCH  23  24
ATOM     24  C   UNL     1       1.990  43.299  20.989  1.00  0.00    -0.000 C 
BRANCH  24  25
ATOM     25  C   UNL     1       0.743  43.151  21.884  1.00  0.00    -0.000 C 
BRANCH  25  26
ATOM     26  C   UNL     1       0.992  43.520  23.357  1.00  0.00    -0.000 C 
BRANCH  26  27
ATOM     27  C   UNL     1      -0.308  43.854  24.125  1.00  0.00    -0.000 C 
BRANCH  27  28
ATOM     28  C   UNL     1      -1.500  44.093  23.184  1.00  0.00    -0.000 C 
BRANCH  28  29
ATOM     29  C   UNL     1      -2.824  43.605  23.799  1.00  0.00    -0.000 C 
BRANCH  29  30
ATOM     30  C   UNL     1      -3.917  44.685  23.778  1.00  0.00    -0.000 C 
BRANCH  30  31
ATOM     31  C   UNL     1      -3.336  46.106  23.772  1.00  0.00    -0.003 C 
ATOM     32  C   UNL     1      -4.325  47.101  23.172  1.00  0.00     0.004 C 
ENDBRANCH  30  31
ENDBRANCH  29  30
ENDBRANCH  28  29
ENDBRANCH  27  28
ENDBRANCH  26  27
ENDBRANCH  25  26
ENDBRANCH  24  25
ENDBRANCH  23  24
ENDBRANCH  22  23
ENDBRANCH  21  22
ENDBRANCH  20  21
ENDBRANCH  19  20
ENDBRANCH  18  19
ENDBRANCH   1  18
TORSDOF 28
ENDMDL
MODEL 7
REMARK VINA RESULT:    -4.139      2.632      7.186
REMARK INTER + INTRA:         -15.636
REMARK INTER:                 -10.800
REMARK INTRA:                  -4.837
REMARK UNBOUND:                -4.723
REMARK SMILES CCCCCCCCCCCCCCCCCCCCCCCCCCCCCC(=O)[O-]
REMARK SMILES IDX 16 1 17 2 18 3 19 4 20 5 21 6 22 7 23 8 24 9 25 10 26 11
REMARK SMILES IDX 27 12 28 13 29 14 30 15 31 16 32 17 15 18 14 19 13 20 12 21
REMARK SMILES IDX 11 22 10 23 9 24 8 25 7 26 6 27 5 28 4 29 3 30 2 31 1 32
REMARK H PARENT
REMARK Flexibility Score: inf
ROOT
ATOM      1  C   UNL     1      -0.181  43.007  18.325  1.00  0.00     0.000 C 
ENDROOT
BRANCH   1   2
ATOM      2  C   UNL     1      -0.274  44.183  17.337  1.00  0.00     0.000 C 
BRANCH   2   3
ATOM      3  C   UNL     1       1.100  44.736  16.934  1.00  0.00     0.000 C 
BRANCH   3   4
ATOM      4  C   UNL     1       0.951  45.838  15.875  1.00  0.00     0.000 C 
BRANCH   4   5
ATOM      5  C   UNL     1       1.784  47.091  16.195  1.00  0.00     0.000 C 
BRANCH   5   6
ATOM      6  C   UNL     1       3.149  46.816  16.859  1.00  0.00     0.000 C 
BRANCH   6   7
ATOM      7  C   UNL     1       3.482  47.710  18.069  1.00  0.00     0.000 C 
BRANCH   7   8
ATOM      8  C   UNL     1       4.786  47.307  18.771  1.00  0.00     0.000 C 
BRANCH   8   9
ATOM      9  C   UNL     1       4.545  46.177  19.778  1.00  0.00     0.000 C 
BRANCH   9  10
ATOM     10  C   UNL     1       5.308  44.908  19.377  1.00  0.00     0.000 C 
BRANCH  10  11
ATOM     11  C   UNL     1       4.385  43.681  19.404  1.00  0.00     0.000 C 
BRANCH  11  12
ATOM     12  C   UNL     1       3.005  43.991  20.008  1.00  0.00     0.000 C 
BRANCH  12  13
ATOM     13  C   UNL     1       2.775  43.275  21.351  1.00  0.00     0.006 C 
BRANCH  13  14
ATOM     14  C   UNL     1       3.237  44.121  22.545  1.00  0.00     0.053 C 
BRANCH  14  15
ATOM     15  C   UNL     1       4.338  43.455  23.311  1.00  0.00     0.041 C 
ATOM     16  O   UNL     1       4.321  43.451  24.570  1.00  0.00    -0.550 OA
ATOM     17  O   UNL     1       5.368  42.814  22.635  1.00  0.00    -0.550 OA
ENDBRANCH  14  15
ENDBRANCH  13  14
ENDBRANCH  12  13
ENDBRANCH  11  12
ENDBRANCH  10  11
ENDBRANCH   9  10
ENDBRANCH   8   9
ENDBRANCH   7   8
ENDBRANCH   6   7
ENDBRANCH   5   6
ENDBRANCH   4   5
ENDBRANCH   3   4
ENDBRANCH   2   3
ENDBRANCH   1   2
BRANCH   1  18
ATOM     18  C   UNL     1      -1.482  42.194  18.492  1.00  0.00     0.000 C 
BRANCH  18  19
ATOM     19  C   UNL     1      -2.710  42.752  17.744  1.00  0.00     0.000 C 
BRANCH  19  20
ATOM     20  C   UNL     1      -3.879  43.198  18.641  1.00  0.00     0.000 C 
BRANCH  20  21
ATOM     21  C   UNL     1      -3.843  44.699  18.971  1.00  0.00     0.000 C 
BRANCH  21  22
ATOM     22  C   UNL     1      -3.166  44.999  20.320  1.00  0.00     0.000 C 
BRANCH  22  23
ATOM     23  C   UNL     1      -4.002  44.654  21.565  1.00  0.00     0.000 C 
BRANCH  23  24
ATOM     24  C   UNL     1      -4.201  45.857  22.504  1.00  0.00    -0.000 C 
BRANCH  24  25
ATOM     25  C   UNL     1      -3.297  45.792  23.751  1.00  0.00    -0.000 C 
BRANCH  25  26
ATOM     26  C   UNL     1      -2.573  44.445  23.921  1.00  0.00    -0.000 C 
BRANCH  26  27
ATOM     27  C   UNL     1      -1.036  44.592  24.000  1.00  0.00    -0.000 C 
BRANCH  27  28
ATOM     28  C   UNL     1      -0.299  43.339  23.499  1.00  0.00    -0.000 C 
BRANCH  28  29
ATOM     29  C   UNL     1      -0.748  42.940  22.082  1.00  0.00    -0.000 C 
BRANCH  29  30
ATOM     30  C   UNL     1      -1.139  41.456  21.984  1.00  0.00    -0.000 C 
BRANCH  30  31
ATOM     31  C   UNL     1      -2.659  41.256  21.899  1.00  0.00    -0.003 C 
ATOM     32  C   UNL     1      -3.249  40.940  23.270  1.00  0.00     0.004 C 
ENDBRANCH  30  31
ENDBRANCH  29  30
ENDBRANCH  28  29
ENDBRANCH  27  28
ENDBRANCH  26  27
ENDBRANCH  25  26
ENDBRANCH  24  25
ENDBRANCH  23  24
ENDBRANCH  22  23
ENDBRANCH  21  22
ENDBRANCH  20  21
ENDBRANCH  19  20
ENDBRANCH  18  19
ENDBRANCH   1  18
TORSDOF 28
ENDMDL
MODEL 8
REMARK VINA RESULT:    -4.133      2.138      5.196
REMARK INTER + INTRA:         -15.621
REMARK INTER:                 -10.730
REMARK INTRA:                  -4.891
REMARK UNBOUND:                -4.723
REMARK SMILES CCCCCCCCCCCCCCCCCCCCCCCCCCCCCC(=O)[O-]
REMARK SMILES IDX 16 1 17 2 18 3 19 4 20 5 21 6 22 7 23 8 24 9 25 10 26 11
REMARK SMILES IDX 27 12 28 13 29 14 30 15 31 16 32 17 15 18 14 19 13 20 12 21
REMARK SMILES IDX 11 22 10 23 9 24 8 25 7 26 6 27 5 28 4 29 3 30 2 31 1 32
REMARK H PARENT
REMARK Flexibility Score: inf
ROOT
ATOM      1  C   UNL     1      -4.147  44.642  20.230  1.00  0.00     0.000 C 
ENDROOT
BRANCH   1   2
ATOM      2  C   UNL     1      -3.660  45.457  21.441  1.00  0.00     0.000 C 
BRANCH   2   3
ATOM      3  C   UNL     1      -4.460  45.167  22.719  1.00  0.00     0.000 C 
BRANCH   3   4
ATOM      4  C   UNL     1      -3.519  44.812  23.878  1.00  0.00     0.000 C 
BRANCH   4   5
ATOM      5  C   UNL     1      -2.054  45.187  23.595  1.00  0.00     0.000 C 
BRANCH   5   6
ATOM      6  C   UNL     1      -1.007  44.210  24.170  1.00  0.00     0.000 C 
BRANCH   6   7
ATOM      7  C   UNL     1      -0.073  43.564  23.130  1.00  0.00     0.000 C 
BRANCH   7   8
ATOM      8  C   UNL     1      -0.638  43.611  21.704  1.00  0.00     0.000 C 
BRANCH   8   9
ATOM      9  C   UNL     1      -0.443  42.269  20.988  1.00  0.00     0.000 C 
BRANCH   9  10
ATOM     10  C   UNL     1      -1.785  41.688  20.529  1.00  0.00     0.000 C 
BRANCH  10  11
ATOM     11  C   UNL     1      -2.834  41.778  21.647  1.00  0.00     0.000 C 
BRANCH  11  12
ATOM     12  C   UNL     1      -2.626  40.717  22.741  1.00  0.00     0.000 C 
BRANCH  12  13
ATOM     13  C   UNL     1      -3.278  41.113  24.077  1.00  0.00     0.006 C 
BRANCH  13  14
ATOM     14  C   UNL     1      -4.773  41.421  23.924  1.00  0.00     0.053 C 
BRANCH  14  15
ATOM     15  C   UNL     1      -5.625  40.464  24.699  1.00  0.00     0.041 C 
ATOM     16  O   UNL     1      -6.845  40.713  24.890  1.00  0.00    -0.550 OA
ATOM     17  O   UNL     1      -5.080  39.283  25.186  1.00  0.00    -0.550 OA
ENDBRANCH  14  15
ENDBRANCH  13  14
ENDBRANCH  12  13
ENDBRANCH  11  12
ENDBRANCH  10  11
ENDBRANCH   9  10
ENDBRANCH   8   9
ENDBRANCH   7   8
ENDBRANCH   6   7
ENDBRANCH   5   6
ENDBRANCH   4   5
ENDBRANCH   3   4
ENDBRANCH   2   3
ENDBRANCH   1   2
BRANCH   1  18
ATOM     18  C   UNL     1      -3.353  44.875  18.928  1.00  0.00     0.000 C 
BRANCH  18  19
ATOM     19  C   UNL     1      -3.417  43.726  17.901  1.00  0.00     0.000 C 
BRANCH  19  20
ATOM     20  C   UNL     1      -2.083  43.388  17.210  1.00  0.00     0.000 C 
BRANCH  20  21
ATOM     21  C   UNL     1      -0.888  44.146  17.810  1.00  0.00     0.000 C 
BRANCH  21  22
ATOM     22  C   UNL     1       0.352  44.126  16.898  1.00  0.00     0.000 C 
BRANCH  22  23
ATOM     23  C   UNL     1       0.917  45.509  16.529  1.00  0.00     0.000 C 
BRANCH  23  24
ATOM     24  C   UNL     1       2.446  45.504  16.360  1.00  0.00    -0.000 C 
BRANCH  24  25
ATOM     25  C   UNL     1       3.125  46.699  17.060  1.00  0.00    -0.000 C 
BRANCH  25  26
ATOM     26  C   UNL     1       4.444  46.336  17.764  1.00  0.00    -0.000 C 
BRANCH  26  27
ATOM     27  C   UNL     1       4.259  46.019  19.266  1.00  0.00    -0.000 C 
BRANCH  27  28
ATOM     28  C   UNL     1       4.288  44.510  19.556  1.00  0.00    -0.000 C 
BRANCH  28  29
ATOM     29  C   UNL     1       3.139  44.083  20.487  1.00  0.00    -0.000 C 
BRANCH  29  30
ATOM     30  C   UNL     1       3.642  43.401  21.769  1.00  0.00    -0.000 C 
BRANCH  30  31
ATOM     31  C   UNL     1       3.357  44.235  23.027  1.00  0.00    -0.003 C 
ATOM     32  C   UNL     1       4.299  43.852  24.164  1.00  0.00     0.004 C 
ENDBRANCH  30  31
ENDBRANCH  29  30
ENDBRANCH  28  29
ENDBRANCH  27  28
ENDBRANCH  26  27
ENDBRANCH  25  26
ENDBRANCH  24  25
ENDBRANCH  23  24
ENDBRANCH  22  23
ENDBRANCH  21  22
ENDBRANCH  20  21
ENDBRANCH  19  20
ENDBRANCH  18  19
ENDBRANCH   1  18
TORSDOF 28
ENDMDL
MODEL 9
REMARK VINA RESULT:    -4.112      2.948      7.784
REMARK INTER + INTRA:         -15.565
REMARK INTER:                  -9.752
REMARK INTRA:                  -5.812
REMARK UNBOUND:                -4.723
REMARK SMILES CCCCCCCCCCCCCCCCCCCCCCCCCCCCCC(=O)[O-]
REMARK SMILES IDX 16 1 17 2 18 3 19 4 20 5 21 6 22 7 23 8 24 9 25 10 26 11
REMARK SMILES IDX 27 12 28 13 29 14 30 15 31 16 32 17 15 18 14 19 13 20 12 21
REMARK SMILES IDX 11 22 10 23 9 24 8 25 7 26 6 27 5 28 4 29 3 30 2 31 1 32
REMARK H PARENT
REMARK Flexibility Score: inf
ROOT
ATOM      1  C   UNL     1      -3.827  46.090  22.624  1.00  0.00     0.000 C 
ENDROOT
BRANCH   1   2
ATOM      2  C   UNL     1      -4.702  45.374  23.667  1.00  0.00     0.000 C 
BRANCH   2   3
ATOM      3  C   UNL     1      -4.051  45.313  25.056  1.00  0.00     0.000 C 
BRANCH   3   4
ATOM      4  C   UNL     1      -3.326  43.975  25.255  1.00  0.00     0.000 C 
BRANCH   4   5
ATOM      5  C   UNL     1      -3.979  42.818  24.479  1.00  0.00     0.000 C 
BRANCH   5   6
ATOM      6  C   UNL     1      -2.992  41.859  23.783  1.00  0.00     0.000 C 
BRANCH   6   7
ATOM      7  C   UNL     1      -1.822  42.541  23.049  1.00  0.00     0.000 C 
BRANCH   7   8
ATOM      8  C   UNL     1      -0.453  42.199  23.655  1.00  0.00     0.000 C 
BRANCH   8   9
ATOM      9  C   UNL     1       0.475  43.419  23.644  1.00  0.00     0.000 C 
BRANCH   9  10
ATOM     10  C   UNL     1       1.186  43.560  22.292  1.00  0.00     0.000 C 
BRANCH  10  11
ATOM     11  C   UNL     1       1.642  42.190  21.767  1.00  0.00     0.000 C 
BRANCH  11  12
ATOM     12  C   UNL     1       2.612  42.304  20.579  1.00  0.00     0.000 C 
BRANCH  12  13
ATOM     13  C   UNL     1       2.342  43.549  19.716  1.00  0.00     0.006 C 
BRANCH  13  14
ATOM     14  C   UNL     1       3.638  44.244  19.280  1.00  0.00     0.053 C 
BRANCH  14  15
ATOM     15  C   UNL     1       3.432  45.110  18.075  1.00  0.00     0.041 C 
ATOM     16  O   UNL     1       2.367  45.025  17.409  1.00  0.00    -0.550 OA
ATOM     17  O   UNL     1       4.403  46.032  17.706  1.00  0.00    -0.550 OA
ENDBRANCH  14  15
ENDBRANCH  13  14
ENDBRANCH  12  13
ENDBRANCH  11  12
ENDBRANCH  10  11
ENDBRANCH   9  10
ENDBRANCH   8   9
ENDBRANCH   7   8
ENDBRANCH   6   7
ENDBRANCH   5   6
ENDBRANCH   4   5
ENDBRANCH   3   4
ENDBRANCH   2   3
ENDBRANCH   1   2
BRANCH   1  18
ATOM     18  C   UNL     1      -3.612  45.311  21.310  1.00  0.00     0.000 C 
BRANCH  18  19
ATOM     19  C   UNL     1      -4.526  44.084  21.113  1.00  0.00     0.000 C 
BRANCH  19  20
ATOM     20  C   UNL     1      -5.130  43.935  19.706  1.00  0.00     0.000 C 
BRANCH  20  21
ATOM     21  C   UNL     1      -4.341  44.697  18.629  1.00  0.00     0.000 C 
BRANCH  21  22
ATOM     22  C   UNL     1      -3.972  43.815  17.422  1.00  0.00     0.000 C 
BRANCH  22  23
ATOM     23  C   UNL     1      -2.469  43.525  17.257  1.00  0.00     0.000 C 
BRANCH  23  24
ATOM     24  C   UNL     1      -1.609  44.195  18.342  1.00  0.00    -0.000 C 
BRANCH  24  25
ATOM     25  C   UNL     1      -1.247  43.232  19.491  1.00  0.00    -0.000 C 
BRANCH  25  26
ATOM     26  C   UNL     1      -1.394  41.745  19.121  1.00  0.00    -0.000 C 
BRANCH  26  27
ATOM     27  C   UNL     1      -2.574  41.057  19.845  1.00  0.00    -0.000 C 
BRANCH  27  28
ATOM     28  C   UNL     1      -3.433  40.208  18.893  1.00  0.00    -0.000 C 
BRANCH  28  29
ATOM     29  C   UNL     1      -4.936  40.491  19.071  1.00  0.00    -0.000 C 
BRANCH  29  30
ATOM     30  C   UNL     1      -5.541  39.730  20.261  1.00  0.00    -0.000 C 
BRANCH  30  31
ATOM     31  C   UNL     1      -5.937  40.665  21.414  1.00  0.00    -0.003 C 
ATOM     32  C   UNL     1      -5.946  39.920  22.746  1.00  0.00     0.004 C 
ENDBRANCH  30  31
ENDBRANCH  29  30
ENDBRANCH  28  29
ENDBRANCH  27  28
ENDBRANCH  26  27
ENDBRANCH  25  26
ENDBRANCH  24  25
ENDBRANCH  23  24
ENDBRANCH  22  23
ENDBRANCH  21  22
ENDBRANCH  20  21
ENDBRANCH  19  20
ENDBRANCH  18  19
ENDBRANCH   1  18
TORSDOF 28
ENDMDL
