MODEL 1
REMARK VINA RESULT:    -5.868      0.000      0.000
REMARK INTER + INTRA:          -6.015
REMARK INTER:                  -6.383
REMARK INTRA:                   0.368
REMARK UNBOUND:                 0.368
REMARK SMILES C[C@@H]1[C@H]2C3=CC[C@@H]4[C@]5(C)CC[C@@H](O)C(C)(C)[C@H]5CC[C@]4(C)[C@]3(C)CC[C@]2(C(=O)[O-])CC[C@@H]1C
REMARK SMILES IDX 26 1 30 2 25 3 3 4 31 5 24 6 4 7 2 8 32 9 22 10 5 11 1 12
REMARK SMILES IDX 33 13 23 14 20 15 6 16 7 17 19 18 21 19 8 20 18 21 17 22
REMARK SMILES IDX 10 23 9 24 14 25 11 26 12 27 15 28 16 29 27 30 28 31 29 32
REMARK SMILES IDX 13 33
REMARK H PARENT 13 34
REMARK Flexibility Score: inf
ROOT
ATOM      1  C   UNL     1      21.767  27.999  55.304  1.00  0.00     0.017 C 
ATOM      2  C   UNL     1      20.241  28.226  55.557  1.00  0.00     0.014 C 
ATOM      3  C   UNL     1      22.059  28.202  53.762  1.00  0.00     0.014 C 
ATOM      4  C   UNL     1      22.560  29.101  56.145  1.00  0.00     0.030 C 
ATOM      5  C   UNL     1      19.799  28.374  57.038  1.00  0.00     0.004 C 
ATOM      6  C   UNL     1      23.238  29.136  53.431  1.00  0.00     0.013 C 
ATOM      7  C   UNL     1      24.070  29.132  55.817  1.00  0.00    -0.063 C 
ATOM      8  C   UNL     1      22.177  29.140  57.682  1.00  0.00    -0.003 C 
ATOM      9  C   UNL     1      20.955  28.245  58.057  1.00  0.00    -0.011 C 
ATOM     10  C   UNL     1      24.520  28.922  54.342  1.00  0.00    -0.006 C 
ATOM     11  C   UNL     1      24.977  29.496  56.757  1.00  0.00    -0.027 C 
ATOM     12  C   UNL     1      21.990  30.613  58.108  1.00  0.00     0.008 C 
ATOM     13  C   UNL     1      20.459  28.496  59.486  1.00  0.00     0.008 C 
ATOM     14  C   UNL     1      25.024  27.439  54.226  1.00  0.00     0.017 C 
ATOM     15  C   UNL     1      25.706  29.914  53.940  1.00  0.00    -0.020 C 
ATOM     16  C   UNL     1      26.310  30.075  56.455  1.00  0.00     0.032 C 
ATOM     17  C   UNL     1      26.862  29.728  55.041  1.00  0.00     0.006 C 
ATOM     18  C   UNL     1      25.269  31.411  53.995  1.00  0.00     0.008 C 
ATOM     19  C   UNL     1      26.152  29.626  52.449  1.00  0.00     0.012 C 
ATOM     20  C   UNL     1      28.191  30.531  54.741  1.00  0.00    -0.025 C 
ATOM     21  C   UNL     1      26.462  32.405  53.829  1.00  0.00     0.005 C 
ATOM     22  C   UNL     1      27.812  32.063  54.579  1.00  0.00     0.003 C 
ATOM     23  C   UNL     1      29.200  30.445  55.947  1.00  0.00     0.010 C 
ATOM     24  C   UNL     1      28.916  29.836  53.528  1.00  0.00     0.012 C 
ATOM     25  C   UNL     1      29.039  33.004  54.274  1.00  0.00    -0.006 C 
ATOM     26  C   UNL     1      30.453  31.328  55.777  1.00  0.00     0.033 C 
ATOM     27  C   UNL     1      30.079  32.791  55.436  1.00  0.00     0.120 C 
ATOM     28  C   UNL     1      29.694  32.816  52.882  1.00  0.00     0.014 C 
ATOM     29  C   UNL     1      28.502  34.472  54.270  1.00  0.00     0.014 C 
ENDROOT
BRANCH   1  30
ATOM     30  C   UNL     1      22.141  26.587  55.747  1.00  0.00     0.048 C 
ATOM     31  O   UNL     1      23.097  26.358  56.517  1.00  0.00    -0.550 OA
ATOM     32  O   UNL     1      21.512  25.496  55.153  1.00  0.00    -0.550 OA
ENDBRANCH   1  30
BRANCH  27  33
ATOM     33  O   UNL     1      31.250  33.555  55.231  1.00  0.00    -0.393 OA
ATOM     34  H   UNL     1      31.459  34.042  56.070  1.00  0.00     0.210 HD
ENDBRANCH  27  33
TORSDOF 2
ENDMDL
MODEL 2
REMARK VINA RESULT:    -5.824      1.913      7.939
REMARK INTER + INTRA:          -5.967
REMARK INTER:                  -6.340
REMARK INTRA:                   0.374
REMARK UNBOUND:                 0.368
REMARK SMILES C[C@@H]1[C@H]2C3=CC[C@@H]4[C@]5(C)CC[C@@H](O)C(C)(C)[C@H]5CC[C@]4(C)[C@]3(C)CC[C@]2(C(=O)[O-])CC[C@@H]1C
REMARK SMILES IDX 26 1 30 2 25 3 3 4 31 5 24 6 4 7 2 8 32 9 22 10 5 11 1 12
REMARK SMILES IDX 33 13 23 14 20 15 6 16 7 17 19 18 21 19 8 20 18 21 17 22
REMARK SMILES IDX 10 23 9 24 14 25 11 26 12 27 15 28 16 29 27 30 28 31 29 32
REMARK SMILES IDX 13 33
REMARK H PARENT 13 34
REMARK Flexibility Score: inf
ROOT
ATOM      1  C   UNL     1      28.178  30.269  53.622  1.00  0.00     0.017 C 
ATOM      2  C   UNL     1      29.584  29.705  53.233  1.00  0.00     0.014 C 
ATOM      3  C   UNL     1      27.108  29.698  52.607  1.00  0.00     0.014 C 
ATOM      4  C   UNL     1      27.845  29.749  55.095  1.00  0.00     0.030 C 
ATOM      5  C   UNL     1      30.718  29.897  54.275  1.00  0.00     0.004 C 
ATOM      6  C   UNL     1      25.850  29.083  53.251  1.00  0.00     0.013 C 
ATOM      7  C   UNL     1      26.390  30.051  55.521  1.00  0.00    -0.063 C 
ATOM      8  C   UNL     1      28.969  30.074  56.164  1.00  0.00    -0.003 C 
ATOM      9  C   UNL     1      30.282  30.653  55.551  1.00  0.00    -0.011 C 
ATOM     10  C   UNL     1      25.258  29.920  54.463  1.00  0.00    -0.006 C 
ATOM     11  C   UNL     1      26.080  30.265  56.823  1.00  0.00    -0.027 C 
ATOM     12  C   UNL     1      29.218  28.811  57.019  1.00  0.00     0.008 C 
ATOM     13  C   UNL     1      31.427  30.720  56.570  1.00  0.00     0.008 C 
ATOM     14  C   UNL     1      24.904  31.376  53.991  1.00  0.00     0.017 C 
ATOM     15  C   UNL     1      23.953  29.233  55.076  1.00  0.00    -0.020 C 
ATOM     16  C   UNL     1      24.740  30.026  57.415  1.00  0.00     0.032 C 
ATOM     17  C   UNL     1      23.565  30.067  56.394  1.00  0.00     0.006 C 
ATOM     18  C   UNL     1      24.217  27.766  55.534  1.00  0.00     0.008 C 
ATOM     19  C   UNL     1      22.822  29.168  53.971  1.00  0.00     0.012 C 
ATOM     20  C   UNL     1      22.208  29.624  57.077  1.00  0.00    -0.025 C 
ATOM     21  C   UNL     1      23.029  27.151  56.340  1.00  0.00     0.005 C 
ATOM     22  C   UNL     1      22.307  28.074  57.402  1.00  0.00     0.003 C 
ATOM     23  C   UNL     1      21.990  30.357  58.454  1.00  0.00     0.010 C 
ATOM     24  C   UNL     1      21.022  30.092  56.152  1.00  0.00     0.012 C 
ATOM     25  C   UNL     1      21.022  27.475  58.091  1.00  0.00    -0.006 C 
ATOM     26  C   UNL     1      20.759  29.859  59.238  1.00  0.00     0.033 C 
ATOM     27  C   UNL     1      20.767  28.318  59.395  1.00  0.00     0.120 C 
ATOM     28  C   UNL     1      19.756  27.407  57.199  1.00  0.00     0.014 C 
ATOM     29  C   UNL     1      21.342  25.986  58.445  1.00  0.00     0.014 C 
ENDROOT
BRANCH   1  30
ATOM     30  C   UNL     1      28.220  31.794  53.567  1.00  0.00     0.048 C 
ATOM     31  O   UNL     1      27.872  32.508  54.530  1.00  0.00    -0.550 OA
ATOM     32  O   UNL     1      28.494  32.427  52.357  1.00  0.00    -0.550 OA
ENDBRANCH   1  30
BRANCH  27  33
ATOM     33  O   UNL     1      19.597  27.895  60.066  1.00  0.00    -0.393 OA
ATOM     34  H   UNL     1      19.422  26.948  59.824  1.00  0.00     0.210 HD
ENDBRANCH  27  33
TORSDOF 2
ENDMDL
MODEL 3
REMARK VINA RESULT:    -5.678      1.913      8.011
REMARK INTER + INTRA:          -5.808
REMARK INTER:                  -6.181
REMARK INTRA:                   0.373
REMARK UNBOUND:                 0.368
REMARK SMILES C[C@@H]1[C@H]2C3=CC[C@@H]4[C@]5(C)CC[C@@H](O)C(C)(C)[C@H]5CC[C@]4(C)[C@]3(C)CC[C@]2(C(=O)[O-])CC[C@@H]1C
REMARK SMILES IDX 26 1 30 2 25 3 3 4 31 5 24 6 4 7 2 8 32 9 22 10 5 11 1 12
REMARK SMILES IDX 33 13 23 14 20 15 6 16 7 17 19 18 21 19 8 20 18 21 17 22
REMARK SMILES IDX 10 23 9 24 14 25 11 26 12 27 15 28 16 29 27 30 28 31 29 32
REMARK SMILES IDX 13 33
REMARK H PARENT 13 34
REMARK Flexibility Score: inf
ROOT
ATOM      1  C   UNL     1      29.284  30.794  56.719  1.00  0.00     0.017 C 
ATOM      2  C   UNL     1      30.128  32.071  57.037  1.00  0.00     0.014 C 
ATOM      3  C   UNL     1      28.626  30.276  58.061  1.00  0.00     0.014 C 
ATOM      4  C   UNL     1      28.136  31.223  55.694  1.00  0.00     0.030 C 
ATOM      5  C   UNL     1      30.605  32.907  55.819  1.00  0.00     0.004 C 
ATOM      6  C   UNL     1      27.114  29.984  57.985  1.00  0.00     0.013 C 
ATOM      7  C   UNL     1      27.093  30.106  55.462  1.00  0.00    -0.063 C 
ATOM      8  C   UNL     1      28.670  31.962  54.398  1.00  0.00    -0.003 C 
ATOM      9  C   UNL     1      30.188  32.322  54.450  1.00  0.00    -0.011 C 
ATOM     10  C   UNL     1      26.658  29.225  56.668  1.00  0.00    -0.006 C 
ATOM     11  C   UNL     1      26.447  29.997  54.275  1.00  0.00    -0.027 C 
ATOM     12  C   UNL     1      27.775  33.192  54.126  1.00  0.00     0.008 C 
ATOM     13  C   UNL     1      30.612  33.249  53.304  1.00  0.00     0.008 C 
ATOM     14  C   UNL     1      27.426  27.861  56.538  1.00  0.00     0.017 C 
ATOM     15  C   UNL     1      25.086  28.947  56.659  1.00  0.00    -0.020 C 
ATOM     16  C   UNL     1      25.111  29.373  54.103  1.00  0.00     0.032 C 
ATOM     17  C   UNL     1      24.728  28.348  55.211  1.00  0.00     0.006 C 
ATOM     18  C   UNL     1      24.252  30.256  56.823  1.00  0.00     0.008 C 
ATOM     19  C   UNL     1      24.708  28.012  57.879  1.00  0.00     0.012 C 
ATOM     20  C   UNL     1      23.227  27.876  55.047  1.00  0.00    -0.025 C 
ATOM     21  C   UNL     1      22.722  30.043  56.591  1.00  0.00     0.005 C 
ATOM     22  C   UNL     1      22.285  29.105  55.395  1.00  0.00     0.003 C 
ATOM     23  C   UNL     1      22.908  27.476  53.558  1.00  0.00     0.010 C 
ATOM     24  C   UNL     1      23.036  26.561  55.892  1.00  0.00     0.012 C 
ATOM     25  C   UNL     1      20.745  28.793  55.278  1.00  0.00    -0.006 C 
ATOM     26  C   UNL     1      21.423  27.147  53.304  1.00  0.00     0.033 C 
ATOM     27  C   UNL     1      20.493  28.275  53.814  1.00  0.00     0.120 C 
ATOM     28  C   UNL     1      20.181  27.810  56.335  1.00  0.00     0.014 C 
ATOM     29  C   UNL     1      19.983  30.135  55.533  1.00  0.00     0.014 C 
ENDROOT
BRANCH   1  30
ATOM     30  C   UNL     1      30.198  29.730  56.115  1.00  0.00     0.048 C 
ATOM     31  O   UNL     1      29.953  29.180  55.021  1.00  0.00    -0.550 OA
ATOM     32  O   UNL     1      31.252  29.226  56.873  1.00  0.00    -0.550 OA
ENDBRANCH   1  30
BRANCH  27  33
ATOM     33  O   UNL     1      19.141  27.913  53.617  1.00  0.00    -0.393 OA
ATOM     34  H   UNL     1      18.584  28.414  54.269  1.00  0.00     0.210 HD
ENDBRANCH  27  33
TORSDOF 2
ENDMDL
MODEL 4
REMARK VINA RESULT:    -5.632      5.599      9.280
REMARK INTER + INTRA:          -5.758
REMARK INTER:                  -6.131
REMARK INTRA:                   0.373
REMARK UNBOUND:                 0.368
REMARK SMILES C[C@@H]1[C@H]2C3=CC[C@@H]4[C@]5(C)CC[C@@H](O)C(C)(C)[C@H]5CC[C@]4(C)[C@]3(C)CC[C@]2(C(=O)[O-])CC[C@@H]1C
REMARK SMILES IDX 26 1 30 2 25 3 3 4 31 5 24 6 4 7 2 8 32 9 22 10 5 11 1 12
REMARK SMILES IDX 33 13 23 14 20 15 6 16 7 17 19 18 21 19 8 20 18 21 17 22
REMARK SMILES IDX 10 23 9 24 14 25 11 26 12 27 15 28 16 29 27 30 28 31 29 32
REMARK SMILES IDX 13 33
REMARK H PARENT 13 34
REMARK Flexibility Score: inf
ROOT
ATOM      1  C   UNL     1      27.988  31.448  46.748  1.00  0.00     0.017 C 
ATOM      2  C   UNL     1      28.320  30.536  45.521  1.00  0.00     0.014 C 
ATOM      3  C   UNL     1      26.860  30.746  47.607  1.00  0.00     0.014 C 
ATOM      4  C   UNL     1      29.319  31.578  47.620  1.00  0.00     0.030 C 
ATOM      5  C   UNL     1      29.604  30.890  44.723  1.00  0.00     0.004 C 
ATOM      6  C   UNL     1      27.145  30.651  49.118  1.00  0.00     0.013 C 
ATOM      7  C   UNL     1      29.077  32.273  48.980  1.00  0.00    -0.063 C 
ATOM      8  C   UNL     1      30.585  32.065  46.801  1.00  0.00    -0.003 C 
ATOM      9  C   UNL     1      30.357  32.130  45.258  1.00  0.00    -0.011 C 
ATOM     10  C   UNL     1      27.763  31.968  49.753  1.00  0.00    -0.006 C 
ATOM     11  C   UNL     1      30.055  33.005  49.568  1.00  0.00    -0.027 C 
ATOM     12  C   UNL     1      31.794  31.185  47.188  1.00  0.00     0.008 C 
ATOM     13  C   UNL     1      31.660  32.359  44.481  1.00  0.00     0.008 C 
ATOM     14  C   UNL     1      26.799  33.185  49.513  1.00  0.00     0.017 C 
ATOM     15  C   UNL     1      28.023  31.804  51.320  1.00  0.00    -0.020 C 
ATOM     16  C   UNL     1      30.157  33.248  51.028  1.00  0.00     0.032 C 
ATOM     17  C   UNL     1      28.810  33.121  51.800  1.00  0.00     0.006 C 
ATOM     18  C   UNL     1      28.946  30.588  51.642  1.00  0.00     0.008 C 
ATOM     19  C   UNL     1      26.649  31.541  52.060  1.00  0.00     0.012 C 
ATOM     20  C   UNL     1      29.044  33.214  53.362  1.00  0.00    -0.025 C 
ATOM     21  C   UNL     1      29.400  30.539  53.136  1.00  0.00     0.005 C 
ATOM     22  C   UNL     1      29.811  31.903  53.822  1.00  0.00     0.003 C 
ATOM     23  C   UNL     1      29.975  34.430  53.734  1.00  0.00     0.010 C 
ATOM     24  C   UNL     1      27.658  33.514  54.045  1.00  0.00     0.012 C 
ATOM     25  C   UNL     1      30.122  31.844  55.365  1.00  0.00    -0.006 C 
ATOM     26  C   UNL     1      30.360  34.488  55.226  1.00  0.00     0.033 C 
ATOM     27  C   UNL     1      30.942  33.140  55.718  1.00  0.00     0.120 C 
ATOM     28  C   UNL     1      28.888  31.682  56.289  1.00  0.00     0.014 C 
ATOM     29  C   UNL     1      30.979  30.559  55.613  1.00  0.00     0.014 C 
ENDROOT
BRANCH   1  30
ATOM     30  C   UNL     1      27.519  32.811  46.243  1.00  0.00     0.048 C 
ATOM     31  O   UNL     1      28.032  33.880  46.632  1.00  0.00    -0.550 OA
ATOM     32  O   UNL     1      26.375  32.889  45.453  1.00  0.00    -0.550 OA
ENDBRANCH   1  30
BRANCH  27  33
ATOM     33  O   UNL     1      31.229  33.213  57.100  1.00  0.00    -0.393 OA
ATOM     34  H   UNL     1      32.026  33.791  57.225  1.00  0.00     0.210 HD
ENDBRANCH  27  33
TORSDOF 2
ENDMDL
MODEL 5
REMARK VINA RESULT:    -5.590     13.594     15.696
REMARK INTER + INTRA:          -5.713
REMARK INTER:                  -6.100
REMARK INTRA:                   0.387
REMARK UNBOUND:                 0.368
REMARK SMILES C[C@@H]1[C@H]2C3=CC[C@@H]4[C@]5(C)CC[C@@H](O)C(C)(C)[C@H]5CC[C@]4(C)[C@]3(C)CC[C@]2(C(=O)[O-])CC[C@@H]1C
REMARK SMILES IDX 26 1 30 2 25 3 3 4 31 5 24 6 4 7 2 8 32 9 22 10 5 11 1 12
REMARK SMILES IDX 33 13 23 14 20 15 6 16 7 17 19 18 21 19 8 20 18 21 17 22
REMARK SMILES IDX 10 23 9 24 14 25 11 26 12 27 15 28 16 29 27 30 28 31 29 32
REMARK SMILES IDX 13 33
REMARK H PARENT 13 34
REMARK Flexibility Score: inf
ROOT
ATOM      1  C   UNL     1      16.401  21.065  46.405  1.00  0.00     0.017 C 
ATOM      2  C   UNL     1      15.853  21.773  47.687  1.00  0.00     0.014 C 
ATOM      3  C   UNL     1      16.183  22.023  45.166  1.00  0.00     0.014 C 
ATOM      4  C   UNL     1      17.965  20.825  46.624  1.00  0.00     0.030 C 
ATOM      5  C   UNL     1      16.242  21.139  49.049  1.00  0.00     0.004 C 
ATOM      6  C   UNL     1      17.419  22.238  44.272  1.00  0.00     0.013 C 
ATOM      7  C   UNL     1      18.679  20.329  45.346  1.00  0.00    -0.063 C 
ATOM      8  C   UNL     1      18.320  20.060  47.965  1.00  0.00    -0.003 C 
ATOM      9  C   UNL     1      17.107  19.863  48.927  1.00  0.00    -0.011 C 
ATOM     10  C   UNL     1      18.248  20.918  43.972  1.00  0.00    -0.006 C 
ATOM     11  C   UNL     1      19.765  19.523  45.427  1.00  0.00    -0.027 C 
ATOM     12  C   UNL     1      19.508  20.778  48.645  1.00  0.00     0.008 C 
ATOM     13  C   UNL     1      17.529  19.350  50.309  1.00  0.00     0.008 C 
ATOM     14  C   UNL     1      17.328  19.847  43.284  1.00  0.00     0.017 C 
ATOM     15  C   UNL     1      19.507  21.209  43.033  1.00  0.00    -0.020 C 
ATOM     16  C   UNL     1      20.818  19.428  44.385  1.00  0.00     0.032 C 
ATOM     17  C   UNL     1      20.356  19.847  42.958  1.00  0.00     0.006 C 
ATOM     18  C   UNL     1      20.453  22.295  43.634  1.00  0.00     0.008 C 
ATOM     19  C   UNL     1      19.009  21.763  41.637  1.00  0.00     0.012 C 
ATOM     20  C   UNL     1      21.581  19.889  41.959  1.00  0.00    -0.025 C 
ATOM     21  C   UNL     1      21.800  22.435  42.855  1.00  0.00     0.005 C 
ATOM     22  C   UNL     1      22.510  21.108  42.374  1.00  0.00     0.003 C 
ATOM     23  C   UNL     1      22.467  18.592  42.076  1.00  0.00     0.010 C 
ATOM     24  C   UNL     1      21.012  19.886  40.490  1.00  0.00     0.012 C 
ATOM     25  C   UNL     1      23.786  21.286  41.466  1.00  0.00    -0.006 C 
ATOM     26  C   UNL     1      23.757  18.638  41.233  1.00  0.00     0.033 C 
ATOM     27  C   UNL     1      24.574  19.924  41.509  1.00  0.00     0.120 C 
ATOM     28  C   UNL     1      23.510  21.738  40.009  1.00  0.00     0.014 C 
ATOM     29  C   UNL     1      24.636  22.441  42.089  1.00  0.00     0.014 C 
ENDROOT
BRANCH   1  30
ATOM     30  C   UNL     1      15.659  19.745  46.210  1.00  0.00     0.048 C 
ATOM     31  O   UNL     1      16.246  18.686  45.905  1.00  0.00    -0.550 OA
ATOM     32  O   UNL     1      14.266  19.739  46.203  1.00  0.00    -0.550 OA
ENDBRANCH   1  30
BRANCH  27  33
ATOM     33  O   UNL     1      25.717  19.959  40.679  1.00  0.00    -0.393 OA
ATOM     34  H   UNL     1      25.467  19.603  39.786  1.00  0.00     0.210 HD
ENDBRANCH  27  33
TORSDOF 2
ENDMDL
MODEL 6
REMARK VINA RESULT:    -5.537      4.580      7.527
REMARK INTER + INTRA:          -5.655
REMARK INTER:                  -6.040
REMARK INTRA:                   0.385
REMARK UNBOUND:                 0.368
REMARK SMILES C[C@@H]1[C@H]2C3=CC[C@@H]4[C@]5(C)CC[C@@H](O)C(C)(C)[C@H]5CC[C@]4(C)[C@]3(C)CC[C@]2(C(=O)[O-])CC[C@@H]1C
REMARK SMILES IDX 26 1 30 2 25 3 3 4 31 5 24 6 4 7 2 8 32 9 22 10 5 11 1 12
REMARK SMILES IDX 33 13 23 14 20 15 6 16 7 17 19 18 21 19 8 20 18 21 17 22
REMARK SMILES IDX 10 23 9 24 14 25 11 26 12 27 15 28 16 29 27 30 28 31 29 32
REMARK SMILES IDX 13 33
REMARK H PARENT 13 34
REMARK Flexibility Score: inf
ROOT
ATOM      1  C   UNL     1      30.645  30.329  56.270  1.00  0.00     0.017 C 
ATOM      2  C   UNL     1      30.637  29.388  57.520  1.00  0.00     0.014 C 
ATOM      3  C   UNL     1      31.605  29.709  55.177  1.00  0.00     0.014 C 
ATOM      4  C   UNL     1      29.153  30.380  55.702  1.00  0.00     0.030 C 
ATOM      5  C   UNL     1      29.534  29.652  58.578  1.00  0.00     0.004 C 
ATOM      6  C   UNL     1      31.011  29.607  53.758  1.00  0.00     0.013 C 
ATOM      7  C   UNL     1      29.057  31.100  54.337  1.00  0.00    -0.063 C 
ATOM      8  C   UNL     1      28.063  30.778  56.781  1.00  0.00    -0.003 C 
ATOM      9  C   UNL     1      28.609  30.845  58.242  1.00  0.00    -0.011 C 
ATOM     10  C   UNL     1      30.194  30.887  53.297  1.00  0.00    -0.006 C 
ATOM     11  C   UNL     1      27.933  31.772  53.986  1.00  0.00    -0.027 C 
ATOM     12  C   UNL     1      26.856  29.824  56.640  1.00  0.00     0.008 C 
ATOM     13  C   UNL     1      27.490  30.984  59.282  1.00  0.00     0.008 C 
ATOM     14  C   UNL     1      31.109  32.162  53.353  1.00  0.00     0.017 C 
ATOM     15  C   UNL     1      29.616  30.719  51.817  1.00  0.00    -0.020 C 
ATOM     16  C   UNL     1      27.509  32.019  52.585  1.00  0.00     0.032 C 
ATOM     17  C   UNL     1      28.666  31.986  51.543  1.00  0.00     0.006 C 
ATOM     18  C   UNL     1      28.723  29.448  51.672  1.00  0.00     0.008 C 
ATOM     19  C   UNL     1      30.815  30.551  50.798  1.00  0.00     0.012 C 
ATOM     20  C   UNL     1      28.100  32.077  50.069  1.00  0.00    -0.025 C 
ATOM     21  C   UNL     1      27.965  29.383  50.308  1.00  0.00     0.005 C 
ATOM     22  C   UNL     1      27.334  30.722  49.753  1.00  0.00     0.003 C 
ATOM     23  C   UNL     1      27.039  33.233  49.928  1.00  0.00     0.010 C 
ATOM     24  C   UNL     1      29.288  32.471  49.114  1.00  0.00     0.012 C 
ATOM     25  C   UNL     1      26.707  30.655  48.310  1.00  0.00    -0.006 C 
ATOM     26  C   UNL     1      26.342  33.278  48.554  1.00  0.00     0.033 C 
ATOM     27  C   UNL     1      25.753  31.899  48.167  1.00  0.00     0.120 C 
ATOM     28  C   UNL     1      27.724  30.581  47.142  1.00  0.00     0.014 C 
ATOM     29  C   UNL     1      25.898  29.320  48.221  1.00  0.00     0.014 C 
ENDROOT
BRANCH   1  30
ATOM     30  C   UNL     1      31.126  31.715  56.693  1.00  0.00     0.048 C 
ATOM     31  O   UNL     1      30.439  32.743  56.519  1.00  0.00    -0.550 OA
ATOM     32  O   UNL     1      32.436  31.878  57.135  1.00  0.00    -0.550 OA
ENDBRANCH   1  30
BRANCH  27  33
ATOM     33  O   UNL     1      25.175  31.964  46.879  1.00  0.00    -0.393 OA
ATOM     34  H   UNL     1      24.494  32.687  46.876  1.00  0.00     0.210 HD
ENDBRANCH  27  33
TORSDOF 2
ENDMDL
MODEL 7
REMARK VINA RESULT:    -5.537     12.882     16.705
REMARK INTER + INTRA:          -5.655
REMARK INTER:                  -6.026
REMARK INTRA:                   0.372
REMARK UNBOUND:                 0.368
REMARK SMILES C[C@@H]1[C@H]2C3=CC[C@@H]4[C@]5(C)CC[C@@H](O)C(C)(C)[C@H]5CC[C@]4(C)[C@]3(C)CC[C@]2(C(=O)[O-])CC[C@@H]1C
REMARK SMILES IDX 26 1 30 2 25 3 3 4 31 5 24 6 4 7 2 8 32 9 22 10 5 11 1 12
REMARK SMILES IDX 33 13 23 14 20 15 6 16 7 17 19 18 21 19 8 20 18 21 17 22
REMARK SMILES IDX 10 23 9 24 14 25 11 26 12 27 15 28 16 29 27 30 28 31 29 32
REMARK SMILES IDX 13 33
REMARK H PARENT 13 34
REMARK Flexibility Score: inf
ROOT
ATOM      1  C   UNL     1      23.899  21.065  43.262  1.00  0.00     0.017 C 
ATOM      2  C   UNL     1      24.563  21.519  41.921  1.00  0.00     0.014 C 
ATOM      3  C   UNL     1      23.749  22.328  44.203  1.00  0.00     0.014 C 
ATOM      4  C   UNL     1      22.452  20.489  42.908  1.00  0.00     0.030 C 
ATOM      5  C   UNL     1      24.523  20.501  40.750  1.00  0.00     0.004 C 
ATOM      6  C   UNL     1      22.353  22.524  44.825  1.00  0.00     0.013 C 
ATOM      7  C   UNL     1      21.598  20.206  44.164  1.00  0.00    -0.063 C 
ATOM      8  C   UNL     1      22.460  19.359  41.797  1.00  0.00    -0.003 C 
ATOM      9  C   UNL     1      23.844  19.158  41.104  1.00  0.00    -0.011 C 
ATOM     10  C   UNL     1      21.682  21.191  45.365  1.00  0.00    -0.006 C 
ATOM     11  C   UNL     1      20.671  19.216  44.164  1.00  0.00    -0.027 C 
ATOM     12  C   UNL     1      21.325  19.648  40.790  1.00  0.00     0.008 C 
ATOM     13  C   UNL     1      23.758  18.244  39.875  1.00  0.00     0.008 C 
ATOM     14  C   UNL     1      22.607  20.519  46.442  1.00  0.00     0.017 C 
ATOM     15  C   UNL     1      20.245  21.467  46.005  1.00  0.00    -0.020 C 
ATOM     16  C   UNL     1      19.472  19.190  45.037  1.00  0.00     0.032 C 
ATOM     17  C   UNL     1      19.602  20.033  46.340  1.00  0.00     0.006 C 
ATOM     18  C   UNL     1      19.277  22.170  45.003  1.00  0.00     0.008 C 
ATOM     19  C   UNL     1      20.397  22.437  47.246  1.00  0.00     0.012 C 
ATOM     20  C   UNL     1      18.222  20.095  47.112  1.00  0.00    -0.025 C 
ATOM     21  C   UNL     1      17.806  22.246  45.520  1.00  0.00     0.005 C 
ATOM     22  C   UNL     1      17.218  20.973  46.252  1.00  0.00     0.003 C 
ATOM     23  C   UNL     1      17.569  18.668  47.241  1.00  0.00     0.010 C 
ATOM     24  C   UNL     1      18.510  20.568  48.586  1.00  0.00     0.012 C 
ATOM     25  C   UNL     1      15.787  21.132  46.891  1.00  0.00    -0.006 C 
ATOM     26  C   UNL     1      16.155  18.681  47.854  1.00  0.00     0.033 C 
ATOM     27  C   UNL     1      15.225  19.680  47.122  1.00  0.00     0.120 C 
ATOM     28  C   UNL     1      15.725  21.979  48.188  1.00  0.00     0.014 C 
ATOM     29  C   UNL     1      14.907  21.912  45.861  1.00  0.00     0.014 C 
ENDROOT
BRANCH   1  30
ATOM     30  C   UNL     1      24.776  20.000  43.917  1.00  0.00     0.048 C 
ATOM     31  O   UNL     1      24.313  18.923  44.345  1.00  0.00    -0.550 OA
ATOM     32  O   UNL     1      26.107  20.293  44.203  1.00  0.00    -0.550 OA
ENDBRANCH   1  30
BRANCH  27  33
ATOM     33  O   UNL     1      13.957  19.708  47.746  1.00  0.00    -0.393 OA
ATOM     34  H   UNL     1      13.885  18.919  48.344  1.00  0.00     0.210 HD
ENDBRANCH  27  33
TORSDOF 2
ENDMDL
MODEL 8
REMARK VINA RESULT:    -5.516      1.757      3.299
REMARK INTER + INTRA:          -5.632
REMARK INTER:                  -6.016
REMARK INTRA:                   0.384
REMARK UNBOUND:                 0.368
REMARK SMILES C[C@@H]1[C@H]2C3=CC[C@@H]4[C@]5(C)CC[C@@H](O)C(C)(C)[C@H]5CC[C@]4(C)[C@]3(C)CC[C@]2(C(=O)[O-])CC[C@@H]1C
REMARK SMILES IDX 26 1 30 2 25 3 3 4 31 5 24 6 4 7 2 8 32 9 22 10 5 11 1 12
REMARK SMILES IDX 33 13 23 14 20 15 6 16 7 17 19 18 21 19 8 20 18 21 17 22
REMARK SMILES IDX 10 23 9 24 14 25 11 26 12 27 15 28 16 29 27 30 28 31 29 32
REMARK SMILES IDX 13 33
REMARK H PARENT 13 34
REMARK Flexibility Score: inf
ROOT
ATOM      1  C   UNL     1      22.968  27.559  56.689  1.00  0.00     0.017 C 
ATOM      2  C   UNL     1      21.948  26.401  56.431  1.00  0.00     0.014 C 
ATOM      3  C   UNL     1      24.344  26.927  57.147  1.00  0.00     0.014 C 
ATOM      4  C   UNL     1      23.171  28.333  55.306  1.00  0.00     0.030 C 
ATOM      5  C   UNL     1      20.641  26.783  55.688  1.00  0.00     0.004 C 
ATOM      6  C   UNL     1      25.589  27.442  56.397  1.00  0.00     0.013 C 
ATOM      7  C   UNL     1      24.320  29.366  55.362  1.00  0.00    -0.063 C 
ATOM      8  C   UNL     1      21.822  28.822  54.635  1.00  0.00    -0.003 C 
ATOM      9  C   UNL     1      20.533  28.284  55.331  1.00  0.00    -0.011 C 
ATOM     10  C   UNL     1      25.607  29.011  56.159  1.00  0.00    -0.006 C 
ATOM     11  C   UNL     1      24.280  30.488  54.602  1.00  0.00    -0.027 C 
ATOM     12  C   UNL     1      21.869  28.486  53.128  1.00  0.00     0.008 C 
ATOM     13  C   UNL     1      19.264  28.566  54.518  1.00  0.00     0.008 C 
ATOM     14  C   UNL     1      25.516  29.767  57.533  1.00  0.00     0.017 C 
ATOM     15  C   UNL     1      26.926  29.478  55.389  1.00  0.00    -0.020 C 
ATOM     16  C   UNL     1      25.479  31.240  54.157  1.00  0.00     0.032 C 
ATOM     17  C   UNL     1      26.739  31.037  55.049  1.00  0.00     0.006 C 
ATOM     18  C   UNL     1      27.107  28.740  54.025  1.00  0.00     0.008 C 
ATOM     19  C   UNL     1      28.199  29.133  56.263  1.00  0.00     0.012 C 
ATOM     20  C   UNL     1      28.007  31.726  54.400  1.00  0.00    -0.025 C 
ATOM     21  C   UNL     1      28.256  29.336  53.152  1.00  0.00     0.005 C 
ATOM     22  C   UNL     1      28.394  30.910  53.095  1.00  0.00     0.003 C 
ATOM     23  C   UNL     1      27.688  33.195  53.931  1.00  0.00     0.010 C 
ATOM     24  C   UNL     1      29.110  31.865  55.516  1.00  0.00     0.012 C 
ATOM     25  C   UNL     1      29.648  31.476  52.327  1.00  0.00    -0.006 C 
ATOM     26  C   UNL     1      28.840  33.868  53.158  1.00  0.00     0.033 C 
ATOM     27  C   UNL     1      29.339  32.982  51.991  1.00  0.00     0.120 C 
ATOM     28  C   UNL     1      31.005  31.323  53.062  1.00  0.00     0.014 C 
ATOM     29  C   UNL     1      29.805  30.634  51.019  1.00  0.00     0.014 C 
ENDROOT
BRANCH   1  30
ATOM     30  C   UNL     1      22.409  28.485  57.767  1.00  0.00     0.048 C 
ATOM     31  O   UNL     1      22.433  29.728  57.658  1.00  0.00    -0.550 OA
ATOM     32  O   UNL     1      22.010  27.948  58.988  1.00  0.00    -0.550 OA
ENDBRANCH   1  30
BRANCH  27  33
ATOM     33  O   UNL     1      30.431  33.603  51.343  1.00  0.00    -0.393 OA
ATOM     34  H   UNL     1      31.189  32.963  51.323  1.00  0.00     0.210 HD
ENDBRANCH  27  33
TORSDOF 2
ENDMDL
MODEL 9
REMARK VINA RESULT:    -5.406      2.347      7.929
REMARK INTER + INTRA:          -5.513
REMARK INTER:                  -5.884
REMARK INTRA:                   0.371
REMARK UNBOUND:                 0.368
REMARK SMILES C[C@@H]1[C@H]2C3=CC[C@@H]4[C@]5(C)CC[C@@H](O)C(C)(C)[C@H]5CC[C@]4(C)[C@]3(C)CC[C@]2(C(=O)[O-])CC[C@@H]1C
REMARK SMILES IDX 26 1 30 2 25 3 3 4 31 5 24 6 4 7 2 8 32 9 22 10 5 11 1 12
REMARK SMILES IDX 33 13 23 14 20 15 6 16 7 17 19 18 21 19 8 20 18 21 17 22
REMARK SMILES IDX 10 23 9 24 14 25 11 26 12 27 15 28 16 29 27 30 28 31 29 32
REMARK SMILES IDX 13 33
REMARK H PARENT 13 34
REMARK Flexibility Score: inf
ROOT
ATOM      1  C   UNL     1      27.881  30.982  51.504  1.00  0.00     0.017 C 
ATOM      2  C   UNL     1      29.429  31.107  51.322  1.00  0.00     0.014 C 
ATOM      3  C   UNL     1      27.430  29.545  51.020  1.00  0.00     0.014 C 
ATOM      4  C   UNL     1      27.568  31.141  53.062  1.00  0.00     0.030 C 
ATOM      5  C   UNL     1      30.112  32.316  52.014  1.00  0.00     0.004 C 
ATOM      6  C   UNL     1      26.528  28.771  52.001  1.00  0.00     0.013 C 
ATOM      7  C   UNL     1      26.097  30.821  53.413  1.00  0.00    -0.063 C 
ATOM      8  C   UNL     1      28.173  32.454  53.711  1.00  0.00    -0.003 C 
ATOM      9  C   UNL     1      29.134  33.245  52.770  1.00  0.00    -0.011 C 
ATOM     10  C   UNL     1      25.390  29.648  52.676  1.00  0.00    -0.006 C 
ATOM     11  C   UNL     1      25.483  31.437  54.453  1.00  0.00    -0.027 C 
ATOM     12  C   UNL     1      28.832  32.081  55.058  1.00  0.00     0.008 C 
ATOM     13  C   UNL     1      29.890  34.360  53.504  1.00  0.00     0.008 C 
ATOM     14  C   UNL     1      24.475  30.289  51.571  1.00  0.00     0.017 C 
ATOM     15  C   UNL     1      24.487  28.784  53.670  1.00  0.00    -0.020 C 
ATOM     16  C   UNL     1      24.339  30.867  55.207  1.00  0.00     0.032 C 
ATOM     17  C   UNL     1      23.505  29.813  54.419  1.00  0.00     0.006 C 
ATOM     18  C   UNL     1      25.333  28.083  54.779  1.00  0.00     0.008 C 
ATOM     19  C   UNL     1      23.759  27.636  52.860  1.00  0.00     0.012 C 
ATOM     20  C   UNL     1      22.429  29.131  55.356  1.00  0.00    -0.025 C 
ATOM     21  C   UNL     1      24.460  27.422  55.892  1.00  0.00     0.005 C 
ATOM     22  C   UNL     1      23.197  28.223  56.406  1.00  0.00     0.003 C 
ATOM     23  C   UNL     1      21.630  30.202  56.190  1.00  0.00     0.010 C 
ATOM     24  C   UNL     1      21.362  28.425  54.437  1.00  0.00     0.012 C 
ATOM     25  C   UNL     1      22.256  27.469  57.420  1.00  0.00    -0.006 C 
ATOM     26  C   UNL     1      20.667  29.593  57.229  1.00  0.00     0.033 C 
ATOM     27  C   UNL     1      21.385  28.566  58.139  1.00  0.00     0.120 C 
ATOM     28  C   UNL     1      21.372  26.353  56.807  1.00  0.00     0.014 C 
ATOM     29  C   UNL     1      23.179  26.732  58.444  1.00  0.00     0.014 C 
ENDROOT
BRANCH   1  30
ATOM     30  C   UNL     1      27.194  32.072  50.685  1.00  0.00     0.048 C 
ATOM     31  O   UNL     1      26.344  32.843  51.177  1.00  0.00    -0.550 OA
ATOM     32  O   UNL     1      27.385  32.113  49.306  1.00  0.00    -0.550 OA
ENDBRANCH   1  30
BRANCH  27  33
ATOM     33  O   UNL     1      20.461  27.987  59.038  1.00  0.00    -0.393 OA
ATOM     34  H   UNL     1      20.928  27.282  59.558  1.00  0.00     0.210 HD
ENDBRANCH  27  33
TORSDOF 2
ENDMDL
