MODEL 1
REMARK VINA RESULT:    -4.435      0.000      0.000
REMARK INTER + INTRA:          -9.231
REMARK INTER:                  -8.065
REMARK INTRA:                  -1.167
REMARK UNBOUND:                -1.167
REMARK SMILES CCCCCC=CCC=CCCCCCCCC(=O)[O-]
REMARK SMILES IDX 11 1 12 2 13 3 14 4 15 5 16 6 17 7 18 8 19 9 20 10 10 11
REMARK SMILES IDX 9 12 8 13 7 14 6 15 5 16 4 17 3 18 2 19 1 20
REMARK H PARENT
REMARK Flexibility Score: inf
ROOT
ATOM      1  C   UNL     1       2.739   5.047   9.467  1.00  0.00     0.027 C 
ENDROOT
BRANCH   1   2
ATOM      2  C   UNL     1       3.861   5.970   9.971  1.00  0.00     0.004 C 
BRANCH   2   3
ATOM      3  C   UNL     1       4.130   7.132   9.002  1.00  0.00     0.000 C 
BRANCH   3   4
ATOM      4  C   UNL     1       4.065   8.502   9.696  1.00  0.00     0.000 C 
BRANCH   4   5
ATOM      5  C   UNL     1       5.103   9.496   9.147  1.00  0.00     0.000 C 
BRANCH   5   6
ATOM      6  C   UNL     1       4.861   9.881   7.672  1.00  0.00     0.006 C 
BRANCH   6   7
ATOM      7  C   UNL     1       4.048  11.174   7.530  1.00  0.00     0.053 C 
BRANCH   7   8
ATOM      8  C   UNL     1       4.712  12.112   6.571  1.00  0.00     0.041 C 
ATOM      9  O   UNL     1       4.605  11.933   5.329  1.00  0.00    -0.550 OA
ATOM     10  O   UNL     1       5.436  13.199   7.049  1.00  0.00    -0.550 OA
ENDBRANCH   7   8
ENDBRANCH   6   7
ENDBRANCH   5   6
ENDBRANCH   4   5
ENDBRANCH   3   4
ENDBRANCH   2   3
ENDBRANCH   1   2
BRANCH   1  11
ATOM     11  C   UNL     1       2.853   4.785   7.987  1.00  0.00    -0.031 C 
ATOM     12  C   UNL     1       3.580   3.793   7.434  1.00  0.00    -0.027 C 
BRANCH  12  13
ATOM     13  C   UNL     1       4.415   2.797   8.203  1.00  0.00     0.054 C 
BRANCH  13  14
ATOM     14  C   UNL     1       5.890   3.044   8.042  1.00  0.00    -0.027 C 
ATOM     15  C   UNL     1       6.424   3.402   6.864  1.00  0.00    -0.031 C 
BRANCH  15  16
ATOM     16  C   UNL     1       7.908   3.600   6.702  1.00  0.00     0.027 C 
BRANCH  16  17
ATOM     17  C   UNL     1       8.636   2.271   6.451  1.00  0.00     0.004 C 
BRANCH  17  18
ATOM     18  C   UNL     1       8.003   1.397   5.353  1.00  0.00     0.000 C 
BRANCH  18  19
ATOM     19  C   UNL     1       7.666  -0.021   5.839  1.00  0.00    -0.003 C 
ATOM     20  C   UNL     1       7.339  -0.942   4.667  1.00  0.00     0.004 C 
ENDBRANCH  18  19
ENDBRANCH  17  18
ENDBRANCH  16  17
ENDBRANCH  15  16
ENDBRANCH  13  14
ENDBRANCH  12  13
ENDBRANCH   1  11
TORSDOF 14
ENDMDL
MODEL 2
REMARK VINA RESULT:    -4.429      3.830      8.538
REMARK INTER + INTRA:          -9.220
REMARK INTER:                  -8.176
REMARK INTRA:                  -1.043
REMARK UNBOUND:                -1.167
REMARK SMILES CCCCCC=CCC=CCCCCCCCC(=O)[O-]
REMARK SMILES IDX 11 1 12 2 13 3 14 4 15 5 16 6 17 7 18 8 19 9 20 10 10 11
REMARK SMILES IDX 9 12 8 13 7 14 6 15 5 16 4 17 3 18 2 19 1 20
REMARK H PARENT
REMARK Flexibility Score: inf
ROOT
ATOM      1  C   UNL     1       2.747   4.624   7.946  1.00  0.00     0.027 C 
ENDROOT
BRANCH   1   2
ATOM      2  C   UNL     1       3.396   3.249   7.719  1.00  0.00     0.004 C 
BRANCH   2   3
ATOM      3  C   UNL     1       4.146   2.753   8.966  1.00  0.00     0.000 C 
BRANCH   3   4
ATOM      4  C   UNL     1       5.672   2.849   8.810  1.00  0.00     0.000 C 
BRANCH   4   5
ATOM      5  C   UNL     1       6.094   3.506   7.485  1.00  0.00     0.000 C 
BRANCH   5   6
ATOM      6  C   UNL     1       7.466   3.022   6.970  1.00  0.00     0.006 C 
BRANCH   6   7
ATOM      7  C   UNL     1       7.572   3.082   5.441  1.00  0.00     0.053 C 
BRANCH   7   8
ATOM      8  C   UNL     1       8.310   1.889   4.917  1.00  0.00     0.041 C 
ATOM      9  O   UNL     1       9.266   2.038   4.111  1.00  0.00    -0.550 OA
ATOM     10  O   UNL     1       7.953   0.611   5.334  1.00  0.00    -0.550 OA
ENDBRANCH   7   8
ENDBRANCH   6   7
ENDBRANCH   5   6
ENDBRANCH   4   5
ENDBRANCH   3   4
ENDBRANCH   2   3
ENDBRANCH   1   2
BRANCH   1  11
ATOM     11  C   UNL     1       2.705   4.989   9.408  1.00  0.00    -0.031 C 
ATOM     12  C   UNL     1       3.510   5.895   9.998  1.00  0.00    -0.027 C 
BRANCH  12  13
ATOM     13  C   UNL     1       4.596   6.677   9.299  1.00  0.00     0.054 C 
BRANCH  13  14
ATOM     14  C   UNL     1       4.075   7.938   8.668  1.00  0.00    -0.027 C 
ATOM     15  C   UNL     1       4.670   9.125   8.860  1.00  0.00    -0.031 C 
BRANCH  15  16
ATOM     16  C   UNL     1       4.111  10.389   8.261  1.00  0.00     0.027 C 
BRANCH  16  17
ATOM     17  C   UNL     1       5.172  11.155   7.456  1.00  0.00     0.004 C 
BRANCH  17  18
ATOM     18  C   UNL     1       4.607  11.992   6.294  1.00  0.00     0.000 C 
BRANCH  18  19
ATOM     19  C   UNL     1       4.440  13.476   6.652  1.00  0.00    -0.003 C 
ATOM     20  C   UNL     1       5.488  13.919   7.670  1.00  0.00     0.004 C 
ENDBRANCH  18  19
ENDBRANCH  17  18
ENDBRANCH  16  17
ENDBRANCH  15  16
ENDBRANCH  13  14
ENDBRANCH  12  13
ENDBRANCH   1  11
TORSDOF 14
ENDMDL
MODEL 3
REMARK VINA RESULT:    -4.386      4.757      9.661
REMARK INTER + INTRA:          -9.141
REMARK INTER:                  -8.300
REMARK INTRA:                  -0.841
REMARK UNBOUND:                -1.167
REMARK SMILES CCCCCC=CCC=CCCCCCCCC(=O)[O-]
REMARK SMILES IDX 11 1 12 2 13 3 14 4 15 5 16 6 17 7 18 8 19 9 20 10 10 11
REMARK SMILES IDX 9 12 8 13 7 14 6 15 5 16 4 17 3 18 2 19 1 20
REMARK H PARENT
REMARK Flexibility Score: inf
ROOT
ATOM      1  C   UNL     1       4.495   4.232   7.395  1.00  0.00     0.027 C 
ENDROOT
BRANCH   1   2
ATOM      2  C   UNL     1       5.505   3.239   7.993  1.00  0.00     0.004 C 
BRANCH   2   3
ATOM      3  C   UNL     1       6.955   3.609   7.642  1.00  0.00     0.000 C 
BRANCH   3   4
ATOM      4  C   UNL     1       7.593   2.616   6.657  1.00  0.00     0.000 C 
BRANCH   4   5
ATOM      5  C   UNL     1       7.337   1.149   7.043  1.00  0.00     0.000 C 
BRANCH   5   6
ATOM      6  C   UNL     1       7.671   0.152   5.914  1.00  0.00     0.006 C 
BRANCH   6   7
ATOM      7  C   UNL     1       7.681  -1.302   6.402  1.00  0.00     0.053 C 
BRANCH   7   8
ATOM      8  C   UNL     1       6.907  -2.178   5.465  1.00  0.00     0.041 C 
ATOM      9  O   UNL     1       6.229  -1.669   4.535  1.00  0.00    -0.550 OA
ATOM     10  O   UNL     1       6.950  -3.560   5.609  1.00  0.00    -0.550 OA
ENDBRANCH   7   8
ENDBRANCH   6   7
ENDBRANCH   5   6
ENDBRANCH   4   5
ENDBRANCH   3   4
ENDBRANCH   2   3
ENDBRANCH   1   2
BRANCH   1  11
ATOM     11  C   UNL     1       3.308   4.436   8.301  1.00  0.00    -0.031 C 
ATOM     12  C   UNL     1       3.207   5.405   9.232  1.00  0.00    -0.027 C 
BRANCH  12  13
ATOM     13  C   UNL     1       4.272   6.432   9.535  1.00  0.00     0.054 C 
BRANCH  13  14
ATOM     14  C   UNL     1       4.063   7.711   8.772  1.00  0.00    -0.027 C 
ATOM     15  C   UNL     1       4.518   8.889   9.226  1.00  0.00    -0.031 C 
BRANCH  15  16
ATOM     16  C   UNL     1       4.262  10.171   8.477  1.00  0.00     0.027 C 
BRANCH  16  17
ATOM     17  C   UNL     1       5.327  10.423   7.398  1.00  0.00     0.004 C 
BRANCH  17  18
ATOM     18  C   UNL     1       4.842  11.277   6.213  1.00  0.00     0.000 C 
BRANCH  18  19
ATOM     19  C   UNL     1       4.057  12.521   6.656  1.00  0.00    -0.003 C 
ATOM     20  C   UNL     1       4.996  13.631   7.119  1.00  0.00     0.004 C 
ENDBRANCH  18  19
ENDBRANCH  17  18
ENDBRANCH  16  17
ENDBRANCH  15  16
ENDBRANCH  13  14
ENDBRANCH  12  13
ENDBRANCH   1  11
TORSDOF 14
ENDMDL
MODEL 4
REMARK VINA RESULT:    -4.373     13.709     15.123
REMARK INTER + INTRA:          -9.118
REMARK INTER:                  -8.017
REMARK INTRA:                  -1.101
REMARK UNBOUND:                -1.167
REMARK SMILES CCCCCC=CCC=CCCCCCCCC(=O)[O-]
REMARK SMILES IDX 11 1 12 2 13 3 14 4 15 5 16 6 17 7 18 8 19 9 20 10 10 11
REMARK SMILES IDX 9 12 8 13 7 14 6 15 5 16 4 17 3 18 2 19 1 20
REMARK H PARENT
REMARK Flexibility Score: inf
ROOT
ATOM      1  C   UNL     1       4.578   8.197  -8.607  1.00  0.00     0.027 C 
ENDROOT
BRANCH   1   2
ATOM      2  C   UNL     1       5.353   7.396  -7.549  1.00  0.00     0.004 C 
BRANCH   2   3
ATOM      3  C   UNL     1       6.830   7.815  -7.476  1.00  0.00     0.000 C 
BRANCH   3   4
ATOM      4  C   UNL     1       7.041   9.073  -6.619  1.00  0.00     0.000 C 
BRANCH   4   5
ATOM      5  C   UNL     1       7.894   8.803  -5.367  1.00  0.00     0.000 C 
BRANCH   5   6
ATOM      6  C   UNL     1       8.332  10.088  -4.635  1.00  0.00     0.006 C 
BRANCH   6   7
ATOM      7  C   UNL     1       7.914  11.360  -5.384  1.00  0.00     0.053 C 
BRANCH   7   8
ATOM      8  C   UNL     1       8.205  12.577  -4.561  1.00  0.00     0.041 C 
ATOM      9  O   UNL     1       7.485  13.604  -4.669  1.00  0.00    -0.550 OA
ATOM     10  O   UNL     1       9.264  12.569  -3.659  1.00  0.00    -0.550 OA
ENDBRANCH   7   8
ENDBRANCH   6   7
ENDBRANCH   5   6
ENDBRANCH   4   5
ENDBRANCH   3   4
ENDBRANCH   2   3
ENDBRANCH   1   2
BRANCH   1  11
ATOM     11  C   UNL     1       3.116   8.312  -8.262  1.00  0.00    -0.031 C 
ATOM     12  C   UNL     1       2.131   7.588  -8.830  1.00  0.00    -0.027 C 
BRANCH  12  13
ATOM     13  C   UNL     1       2.326   6.560  -9.918  1.00  0.00     0.054 C 
BRANCH  13  14
ATOM     14  C   UNL     1       2.519   5.175  -9.367  1.00  0.00    -0.027 C 
ATOM     15  C   UNL     1       3.722   4.581  -9.346  1.00  0.00    -0.031 C 
BRANCH  15  16
ATOM     16  C   UNL     1       3.895   3.175  -8.835  1.00  0.00     0.027 C 
BRANCH  16  17
ATOM     17  C   UNL     1       5.254   2.983  -8.145  1.00  0.00     0.004 C 
BRANCH  17  18
ATOM     18  C   UNL     1       5.418   1.630  -7.429  1.00  0.00     0.000 C 
BRANCH  18  19
ATOM     19  C   UNL     1       4.705   1.584  -6.069  1.00  0.00    -0.003 C 
ATOM     20  C   UNL     1       3.843   0.331  -5.942  1.00  0.00     0.004 C 
ENDBRANCH  18  19
ENDBRANCH  17  18
ENDBRANCH  16  17
ENDBRANCH  15  16
ENDBRANCH  13  14
ENDBRANCH  12  13
ENDBRANCH   1  11
TORSDOF 14
ENDMDL
MODEL 5
REMARK VINA RESULT:    -4.345     14.633     16.990
REMARK INTER + INTRA:          -9.068
REMARK INTER:                  -7.362
REMARK INTRA:                  -1.707
REMARK UNBOUND:                -1.167
REMARK SMILES CCCCCC=CCC=CCCCCCCCC(=O)[O-]
REMARK SMILES IDX 11 1 12 2 13 3 14 4 15 5 16 6 17 7 18 8 19 9 20 10 10 11
REMARK SMILES IDX 9 12 8 13 7 14 6 15 5 16 4 17 3 18 2 19 1 20
REMARK H PARENT
REMARK Flexibility Score: inf
ROOT
ATOM      1  C   UNL     1       1.801   6.667  -9.144  1.00  0.00     0.027 C 
ENDROOT
BRANCH   1   2
ATOM      2  C   UNL     1       2.092   5.373  -9.922  1.00  0.00     0.004 C 
BRANCH   2   3
ATOM      3  C   UNL     1       3.584   5.009  -9.896  1.00  0.00     0.000 C 
BRANCH   3   4
ATOM      4  C   UNL     1       3.876   3.792  -9.003  1.00  0.00     0.000 C 
BRANCH   4   5
ATOM      5  C   UNL     1       5.380   3.495  -8.875  1.00  0.00     0.000 C 
BRANCH   5   6
ATOM      6  C   UNL     1       5.731   2.631  -7.646  1.00  0.00     0.006 C 
BRANCH   6   7
ATOM      7  C   UNL     1       4.999   1.283  -7.648  1.00  0.00     0.053 C 
BRANCH   7   8
ATOM      8  C   UNL     1       4.659   0.865  -6.251  1.00  0.00     0.041 C 
ATOM      9  O   UNL     1       5.401   1.200  -5.290  1.00  0.00    -0.550 OA
ATOM     10  O   UNL     1       3.511   0.118  -6.007  1.00  0.00    -0.550 OA
ENDBRANCH   7   8
ENDBRANCH   6   7
ENDBRANCH   5   6
ENDBRANCH   4   5
ENDBRANCH   3   4
ENDBRANCH   2   3
ENDBRANCH   1   2
BRANCH   1  11
ATOM     11  C   UNL     1       2.393   7.874  -9.825  1.00  0.00    -0.031 C 
ATOM     12  C   UNL     1       3.268   8.727  -9.257  1.00  0.00    -0.027 C 
BRANCH  12  13
ATOM     13  C   UNL     1       3.784   8.626  -7.841  1.00  0.00     0.054 C 
BRANCH  13  14
ATOM     14  C   UNL     1       5.251   8.301  -7.790  1.00  0.00    -0.027 C 
ATOM     15  C   UNL     1       5.693   7.038  -7.686  1.00  0.00    -0.031 C 
BRANCH  15  16
ATOM     16  C   UNL     1       7.164   6.727  -7.588  1.00  0.00     0.027 C 
BRANCH  16  17
ATOM     17  C   UNL     1       8.008   8.004  -7.461  1.00  0.00     0.004 C 
BRANCH  17  18
ATOM     18  C   UNL     1       8.636   8.216  -6.071  1.00  0.00     0.000 C 
BRANCH  18  19
ATOM     19  C   UNL     1       7.792   9.127  -5.167  1.00  0.00    -0.003 C 
ATOM     20  C   UNL     1       8.672   9.906  -4.194  1.00  0.00     0.004 C 
ENDBRANCH  18  19
ENDBRANCH  17  18
ENDBRANCH  16  17
ENDBRANCH  15  16
ENDBRANCH  13  14
ENDBRANCH  12  13
ENDBRANCH   1  11
TORSDOF 14
ENDMDL
MODEL 6
REMARK VINA RESULT:    -4.302     14.564     17.316
REMARK INTER + INTRA:          -8.989
REMARK INTER:                  -7.809
REMARK INTRA:                  -1.180
REMARK UNBOUND:                -1.167
REMARK SMILES CCCCCC=CCC=CCCCCCCCC(=O)[O-]
REMARK SMILES IDX 11 1 12 2 13 3 14 4 15 5 16 6 17 7 18 8 19 9 20 10 10 11
REMARK SMILES IDX 9 12 8 13 7 14 6 15 5 16 4 17 3 18 2 19 1 20
REMARK H PARENT
REMARK Flexibility Score: inf
ROOT
ATOM      1  C   UNL     1       2.622   6.826  -9.931  1.00  0.00     0.027 C 
ENDROOT
BRANCH   1   2
ATOM      2  C   UNL     1       1.841   5.631  -9.361  1.00  0.00     0.004 C 
BRANCH   2   3
ATOM      3  C   UNL     1       2.490   4.288  -9.734  1.00  0.00     0.000 C 
BRANCH   3   4
ATOM      4  C   UNL     1       4.003   4.272  -9.463  1.00  0.00     0.000 C 
BRANCH   4   5
ATOM      5  C   UNL     1       4.575   2.847  -9.373  1.00  0.00     0.000 C 
BRANCH   5   6
ATOM      6  C   UNL     1       4.944   2.425  -7.935  1.00  0.00     0.006 C 
BRANCH   6   7
ATOM      7  C   UNL     1       4.866   0.907  -7.732  1.00  0.00     0.053 C 
BRANCH   7   8
ATOM      8  C   UNL     1       4.611   0.580  -6.293  1.00  0.00     0.041 C 
ATOM      9  O   UNL     1       3.707  -0.238  -5.979  1.00  0.00    -0.550 OA
ATOM     10  O   UNL     1       5.385   1.167  -5.298  1.00  0.00    -0.550 OA
ENDBRANCH   7   8
ENDBRANCH   6   7
ENDBRANCH   5   6
ENDBRANCH   4   5
ENDBRANCH   3   4
ENDBRANCH   2   3
ENDBRANCH   1   2
BRANCH   1  11
ATOM     11  C   UNL     1       2.633   7.993  -8.977  1.00  0.00    -0.031 C 
ATOM     12  C   UNL     1       3.673   8.336  -8.191  1.00  0.00    -0.027 C 
BRANCH  12  13
ATOM     13  C   UNL     1       4.989   7.597  -8.122  1.00  0.00     0.054 C 
BRANCH  13  14
ATOM     14  C   UNL     1       5.756   7.916  -6.869  1.00  0.00    -0.027 C 
ATOM     15  C   UNL     1       6.720   8.849  -6.846  1.00  0.00    -0.031 C 
BRANCH  15  16
ATOM     16  C   UNL     1       7.515   9.126  -5.596  1.00  0.00     0.027 C 
BRANCH  16  17
ATOM     17  C   UNL     1       7.888  10.612  -5.478  1.00  0.00     0.004 C 
BRANCH  17  18
ATOM     18  C   UNL     1       7.508  11.463  -6.703  1.00  0.00     0.000 C 
BRANCH  18  19
ATOM     19  C   UNL     1       6.444  12.524  -6.387  1.00  0.00    -0.003 C 
ATOM     20  C   UNL     1       5.276  12.444  -7.366  1.00  0.00     0.004 C 
ENDBRANCH  18  19
ENDBRANCH  17  18
ENDBRANCH  16  17
ENDBRANCH  15  16
ENDBRANCH  13  14
ENDBRANCH  12  13
ENDBRANCH   1  11
TORSDOF 14
ENDMDL
MODEL 7
REMARK VINA RESULT:    -4.279      3.843      6.402
REMARK INTER + INTRA:          -8.948
REMARK INTER:                  -7.538
REMARK INTRA:                  -1.410
REMARK UNBOUND:                -1.167
REMARK SMILES CCCCCC=CCC=CCCCCCCCC(=O)[O-]
REMARK SMILES IDX 11 1 12 2 13 3 14 4 15 5 16 6 17 7 18 8 19 9 20 10 10 11
REMARK SMILES IDX 9 12 8 13 7 14 6 15 5 16 4 17 3 18 2 19 1 20
REMARK H PARENT
REMARK Flexibility Score: inf
ROOT
ATOM      1  C   UNL     1       5.098  11.019   6.450  1.00  0.00     0.027 C 
ENDROOT
BRANCH   1   2
ATOM      2  C   UNL     1       4.278  12.224   6.939  1.00  0.00     0.004 C 
BRANCH   2   3
ATOM      3  C   UNL     1       4.505  13.467   6.064  1.00  0.00     0.000 C 
BRANCH   3   4
ATOM      4  C   UNL     1       5.522  14.441   6.680  1.00  0.00     0.000 C 
BRANCH   4   5
ATOM      5  C   UNL     1       5.675  14.257   8.200  1.00  0.00     0.000 C 
BRANCH   5   6
ATOM      6  C   UNL     1       7.125  13.965   8.639  1.00  0.00     0.006 C 
BRANCH   6   7
ATOM      7  C   UNL     1       8.101  13.938   7.455  1.00  0.00     0.053 C 
BRANCH   7   8
ATOM      8  C   UNL     1       8.918  12.684   7.474  1.00  0.00     0.041 C 
ATOM      9  O   UNL     1       9.408  12.228   6.407  1.00  0.00    -0.550 OA
ATOM     10  O   UNL     1       9.156  12.026   8.677  1.00  0.00    -0.550 OA
ENDBRANCH   7   8
ENDBRANCH   6   7
ENDBRANCH   5   6
ENDBRANCH   4   5
ENDBRANCH   3   4
ENDBRANCH   2   3
ENDBRANCH   1   2
BRANCH   1  11
ATOM     11  C   UNL     1       6.073  10.544   7.498  1.00  0.00    -0.031 C 
ATOM     12  C   UNL     1       5.728  10.038   8.699  1.00  0.00    -0.027 C 
BRANCH  12  13
ATOM     13  C   UNL     1       4.312   9.883   9.200  1.00  0.00     0.054 C 
BRANCH  13  14
ATOM     14  C   UNL     1       4.036   8.495   9.709  1.00  0.00    -0.027 C 
ATOM     15  C   UNL     1       4.025   7.431   8.892  1.00  0.00    -0.031 C 
BRANCH  15  16
ATOM     16  C   UNL     1       3.700   6.051   9.404  1.00  0.00     0.027 C 
BRANCH  16  17
ATOM     17  C   UNL     1       3.507   5.049   8.256  1.00  0.00     0.004 C 
BRANCH  17  18
ATOM     18  C   UNL     1       2.221   4.208   8.357  1.00  0.00     0.000 C 
BRANCH  18  19
ATOM     19  C   UNL     1       1.665   4.136   9.787  1.00  0.00    -0.003 C 
ATOM     20  C   UNL     1       0.139   4.159   9.786  1.00  0.00     0.004 C 
ENDBRANCH  18  19
ENDBRANCH  17  18
ENDBRANCH  16  17
ENDBRANCH  15  16
ENDBRANCH  13  14
ENDBRANCH  12  13
ENDBRANCH   1  11
TORSDOF 14
ENDMDL
MODEL 8
REMARK VINA RESULT:    -4.264     17.688     19.550
REMARK INTER + INTRA:          -8.920
REMARK INTER:                  -6.416
REMARK INTRA:                  -2.504
REMARK UNBOUND:                -1.167
REMARK SMILES CCCCCC=CCC=CCCCCCCCC(=O)[O-]
REMARK SMILES IDX 11 1 12 2 13 3 14 4 15 5 16 6 17 7 18 8 19 9 20 10 10 11
REMARK SMILES IDX 9 12 8 13 7 14 6 15 5 16 4 17 3 18 2 19 1 20
REMARK H PARENT
REMARK Flexibility Score: inf
ROOT
ATOM      1  C   UNL     1      -7.131   1.145  -6.145  1.00  0.00     0.027 C 
ENDROOT
BRANCH   1   2
ATOM      2  C   UNL     1      -7.838   2.417  -6.641  1.00  0.00     0.004 C 
BRANCH   2   3
ATOM      3  C   UNL     1      -8.115   3.405  -5.497  1.00  0.00     0.000 C 
BRANCH   3   4
ATOM      4  C   UNL     1      -7.684   2.855  -4.129  1.00  0.00     0.000 C 
BRANCH   4   5
ATOM      5  C   UNL     1      -8.879   2.496  -3.229  1.00  0.00     0.000 C 
BRANCH   5   6
ATOM      6  C   UNL     1      -8.739   1.121  -2.543  1.00  0.00     0.006 C 
BRANCH   6   7
ATOM      7  C   UNL     1      -7.291   0.614  -2.539  1.00  0.00     0.053 C 
BRANCH   7   8
ATOM      8  C   UNL     1      -7.039  -0.251  -1.343  1.00  0.00     0.041 C 
ATOM      9  O   UNL     1      -6.557  -1.406  -1.484  1.00  0.00    -0.550 OA
ATOM     10  O   UNL     1      -7.319   0.226  -0.067  1.00  0.00    -0.550 OA
ENDBRANCH   7   8
ENDBRANCH   6   7
ENDBRANCH   5   6
ENDBRANCH   4   5
ENDBRANCH   3   4
ENDBRANCH   2   3
ENDBRANCH   1   2
BRANCH   1  11
ATOM     11  C   UNL     1      -7.486  -0.056  -6.985  1.00  0.00    -0.031 C 
ATOM     12  C   UNL     1      -8.598  -0.802  -6.830  1.00  0.00    -0.027 C 
BRANCH  12  13
ATOM     13  C   UNL     1      -9.658  -0.572  -5.779  1.00  0.00     0.054 C 
BRANCH  13  14
ATOM     14  C   UNL     1      -9.688  -1.668  -4.751  1.00  0.00    -0.027 C 
ATOM     15  C   UNL     1      -8.580  -2.334  -4.392  1.00  0.00    -0.031 C 
BRANCH  15  16
ATOM     16  C   UNL     1      -8.630  -3.462  -3.395  1.00  0.00     0.027 C 
BRANCH  16  17
ATOM     17  C   UNL     1      -8.449  -4.829  -4.073  1.00  0.00     0.004 C 
BRANCH  17  18
ATOM     18  C   UNL     1      -7.123  -4.988  -4.838  1.00  0.00     0.000 C 
BRANCH  18  19
ATOM     19  C   UNL     1      -7.321  -5.108  -6.357  1.00  0.00    -0.003 C 
ATOM     20  C   UNL     1      -6.555  -4.019  -7.101  1.00  0.00     0.004 C 
ENDBRANCH  18  19
ENDBRANCH  17  18
ENDBRANCH  16  17
ENDBRANCH  15  16
ENDBRANCH  13  14
ENDBRANCH  12  13
ENDBRANCH   1  11
TORSDOF 14
ENDMDL
