MODEL 1
REMARK VINA RESULT:    -3.382      0.000      0.000
REMARK INTER + INTRA:          -4.184
REMARK INTER:                  -4.073
REMARK INTRA:                  -0.111
REMARK UNBOUND:                -0.111
REMARK SMILES CC[C@@H](C)[C@H]([NH3+])C(=O)[O-]
REMARK SMILES IDX 3 1 4 2 5 3 6 4 7 8 8 9 9 10 2 11 1 12
REMARK H PARENT 6 5 6 6 6 7
REMARK Flexibility Score: inf
ROOT
ATOM      1  C   UNL     1      24.392   5.918  13.961  1.00  0.00     0.050 C 
ATOM      2  C   UNL     1      25.078   6.361  12.654  1.00  0.00     0.014 C 
ENDROOT
BRANCH   1   3
ATOM      3  C   UNL     1      25.424   5.675  15.106  1.00  0.00     0.230 C 
BRANCH   3   4
ATOM      4  N   UNL     1      26.802   5.624  14.591  1.00  0.00    -0.350 N 
ATOM      5  H   UNL     1      27.217   4.680  14.762  1.00  0.00     0.345 HD
ATOM      6  H   UNL     1      27.395   6.355  15.047  1.00  0.00     0.345 HD
ATOM      7  H   UNL     1      26.804   5.780  13.556  1.00  0.00     0.345 HD
ENDBRANCH   3   4
BRANCH   3   8
ATOM      8  C   UNL     1      25.123   4.393  15.842  1.00  0.00     0.099 C 
ATOM      9  O   UNL     1      25.658   4.161  16.957  1.00  0.00    -0.544 OA
ATOM     10  O   UNL     1      24.252   3.459  15.292  1.00  0.00    -0.544 OA
ENDBRANCH   3   8
ENDBRANCH   1   3
BRANCH   1  11
ATOM     11  C   UNL     1      23.261   6.909  14.349  1.00  0.00     0.006 C 
ATOM     12  C   UNL     1      22.093   6.276  15.110  1.00  0.00     0.004 C 
ENDBRANCH   1  11
TORSDOF 4
ENDMDL
MODEL 2
REMARK VINA RESULT:    -3.239      1.911      2.662
REMARK INTER + INTRA:          -4.013
REMARK INTER:                  -3.904
REMARK INTRA:                  -0.109
REMARK UNBOUND:                -0.111
REMARK SMILES CC[C@@H](C)[C@H]([NH3+])C(=O)[O-]
REMARK SMILES IDX 3 1 4 2 5 3 6 4 7 8 8 9 9 10 2 11 1 12
REMARK H PARENT 6 5 6 6 6 7
REMARK Flexibility Score: inf
ROOT
ATOM      1  C   UNL     1      23.888   5.780  15.005  1.00  0.00     0.050 C 
ATOM      2  C   UNL     1      22.353   5.829  15.132  1.00  0.00     0.014 C 
ENDROOT
BRANCH   1   3
ATOM      3  C   UNL     1      24.457   4.375  15.377  1.00  0.00     0.230 C 
BRANCH   3   4
ATOM      4  N   UNL     1      23.443   3.537  16.036  1.00  0.00    -0.350 N 
ATOM      5  H   UNL     1      22.686   4.135  16.439  1.00  0.00     0.345 HD
ATOM      6  H   UNL     1      23.874   2.962  16.796  1.00  0.00     0.345 HD
ATOM      7  H   UNL     1      22.995   2.899  15.338  1.00  0.00     0.345 HD
ENDBRANCH   3   4
BRANCH   3   8
ATOM      8  C   UNL     1      25.659   4.501  16.279  1.00  0.00     0.099 C 
ATOM      9  O   UNL     1      26.764   4.882  15.815  1.00  0.00    -0.544 OA
ATOM     10  O   UNL     1      25.553   4.196  17.632  1.00  0.00    -0.544 OA
ENDBRANCH   3   8
ENDBRANCH   1   3
BRANCH   1  11
ATOM     11  C   UNL     1      24.338   6.277  13.603  1.00  0.00     0.006 C 
ATOM     12  C   UNL     1      25.496   7.277  13.625  1.00  0.00     0.004 C 
ENDBRANCH   1  11
TORSDOF 4
ENDMDL
MODEL 3
REMARK VINA RESULT:    -3.206      2.454      3.164
REMARK INTER + INTRA:          -3.973
REMARK INTER:                  -3.880
REMARK INTRA:                  -0.093
REMARK UNBOUND:                -0.111
REMARK SMILES CC[C@@H](C)[C@H]([NH3+])C(=O)[O-]
REMARK SMILES IDX 3 1 4 2 5 3 6 4 7 8 8 9 9 10 2 11 1 12
REMARK H PARENT 6 5 6 6 6 7
REMARK Flexibility Score: inf
ROOT
ATOM      1  C   UNL     1      23.308   7.147  14.816  1.00  0.00     0.050 C 
ATOM      2  C   UNL     1      22.177   6.129  15.058  1.00  0.00     0.014 C 
ENDROOT
BRANCH   1   3
ATOM      3  C   UNL     1      24.383   6.597  13.827  1.00  0.00     0.230 C 
BRANCH   3   4
ATOM      4  N   UNL     1      24.276   5.138  13.668  1.00  0.00    -0.350 N 
ATOM      5  H   UNL     1      23.389   4.893  13.173  1.00  0.00     0.345 HD
ATOM      6  H   UNL     1      24.301   4.660  14.598  1.00  0.00     0.345 HD
ATOM      7  H   UNL     1      25.066   4.782  13.081  1.00  0.00     0.345 HD
ENDBRANCH   3   4
BRANCH   3   8
ATOM      8  C   UNL     1      25.775   6.943  14.296  1.00  0.00     0.099 C 
ATOM      9  O   UNL     1      26.226   8.107  14.139  1.00  0.00    -0.544 OA
ATOM     10  O   UNL     1      26.569   5.977  14.905  1.00  0.00    -0.544 OA
ENDBRANCH   3   8
ENDBRANCH   1   3
BRANCH   1  11
ATOM     11  C   UNL     1      22.726   8.523  14.391  1.00  0.00     0.006 C 
ATOM     12  C   UNL     1      23.348   9.725  15.105  1.00  0.00     0.004 C 
ENDBRANCH   1  11
TORSDOF 4
ENDMDL
MODEL 4
REMARK VINA RESULT:    -3.193      1.878      2.755
REMARK INTER + INTRA:          -3.957
REMARK INTER:                  -3.886
REMARK INTRA:                  -0.071
REMARK UNBOUND:                -0.111
REMARK SMILES CC[C@@H](C)[C@H]([NH3+])C(=O)[O-]
REMARK SMILES IDX 3 1 4 2 5 3 6 4 7 8 8 9 9 10 2 11 1 12
REMARK H PARENT 6 5 6 6 6 7
REMARK Flexibility Score: inf
ROOT
ATOM      1  C   UNL     1      24.443   6.778  14.450  1.00  0.00     0.050 C 
ATOM      2  C   UNL     1      23.503   7.998  14.487  1.00  0.00     0.014 C 
ENDROOT
BRANCH   1   3
ATOM      3  C   UNL     1      23.651   5.433  14.484  1.00  0.00     0.230 C 
BRANCH   3   4
ATOM      4  N   UNL     1      22.335   5.596  15.120  1.00  0.00    -0.350 N 
ATOM      5  H   UNL     1      21.757   6.284  14.586  1.00  0.00     0.345 HD
ATOM      6  H   UNL     1      22.439   5.920  16.109  1.00  0.00     0.345 HD
ATOM      7  H   UNL     1      21.818   4.686  15.113  1.00  0.00     0.345 HD
ENDBRANCH   3   4
BRANCH   3   8
ATOM      8  C   UNL     1      24.427   4.367  15.216  1.00  0.00     0.099 C 
ATOM      9  O   UNL     1      23.972   3.197  15.302  1.00  0.00    -0.544 OA
ATOM     10  O   UNL     1      25.651   4.671  15.802  1.00  0.00    -0.544 OA
ENDBRANCH   3   8
ENDBRANCH   1   3
BRANCH   1  11
ATOM     11  C   UNL     1      25.431   6.883  13.256  1.00  0.00     0.006 C 
ATOM     12  C   UNL     1      24.934   6.237  11.961  1.00  0.00     0.004 C 
ENDBRANCH   1  11
TORSDOF 4
ENDMDL
MODEL 5
REMARK VINA RESULT:    -3.182      2.400      3.374
REMARK INTER + INTRA:          -3.943
REMARK INTER:                  -3.827
REMARK INTRA:                  -0.116
REMARK UNBOUND:                -0.111
REMARK SMILES CC[C@@H](C)[C@H]([NH3+])C(=O)[O-]
REMARK SMILES IDX 3 1 4 2 5 3 6 4 7 8 8 9 9 10 2 11 1 12
REMARK H PARENT 6 5 6 6 6 7
REMARK Flexibility Score: inf
ROOT
ATOM      1  C   UNL     1      25.108   5.459  15.219  1.00  0.00     0.050 C 
ATOM      2  C   UNL     1      26.646   5.396  15.146  1.00  0.00     0.014 C 
ENDROOT
BRANCH   1   3
ATOM      3  C   UNL     1      24.499   6.213  13.995  1.00  0.00     0.230 C 
BRANCH   3   4
ATOM      4  N   UNL     1      25.514   7.013  13.292  1.00  0.00    -0.350 N 
ATOM      5  H   UNL     1      25.635   6.665  12.315  1.00  0.00     0.345 HD
ATOM      6  H   UNL     1      26.431   6.973  13.794  1.00  0.00     0.345 HD
ATOM      7  H   UNL     1      25.204   8.011  13.230  1.00  0.00     0.345 HD
ENDBRANCH   3   4
BRANCH   3   8
ATOM      8  C   UNL     1      23.368   7.113  14.425  1.00  0.00     0.099 C 
ATOM      9  O   UNL     1      22.236   6.629  14.687  1.00  0.00    -0.544 OA
ATOM     10  O   UNL     1      23.568   8.485  14.533  1.00  0.00    -0.544 OA
ENDBRANCH   3   8
ENDBRANCH   1   3
BRANCH   1  11
ATOM     11  C   UNL     1      24.511   4.041  15.431  1.00  0.00     0.006 C 
ATOM     12  C   UNL     1      23.588   3.914  16.645  1.00  0.00     0.004 C 
ENDBRANCH   1  11
TORSDOF 4
ENDMDL
MODEL 6
REMARK VINA RESULT:    -3.167      1.943      2.126
REMARK INTER + INTRA:          -3.926
REMARK INTER:                  -4.102
REMARK INTRA:                   0.176
REMARK UNBOUND:                -0.111
REMARK SMILES CC[C@@H](C)[C@H]([NH3+])C(=O)[O-]
REMARK SMILES IDX 3 1 4 2 5 3 6 4 7 8 8 9 9 10 2 11 1 12
REMARK H PARENT 6 5 6 6 6 7
REMARK Flexibility Score: inf
ROOT
ATOM      1  C   UNL     1      24.055   5.151  14.510  1.00  0.00     0.050 C 
ATOM      2  C   UNL     1      25.284   6.073  14.391  1.00  0.00     0.014 C 
ENDROOT
BRANCH   1   3
ATOM      3  C   UNL     1      24.366   3.873  15.349  1.00  0.00     0.230 C 
BRANCH   3   4
ATOM      4  N   UNL     1      23.416   2.789  15.058  1.00  0.00    -0.350 N 
ATOM      5  H   UNL     1      22.705   2.716  15.821  1.00  0.00     0.345 HD
ATOM      6  H   UNL     1      23.915   1.875  14.958  1.00  0.00     0.345 HD
ATOM      7  H   UNL     1      22.899   2.993  14.171  1.00  0.00     0.345 HD
ENDBRANCH   3   4
BRANCH   3   8
ATOM      8  C   UNL     1      24.334   4.177  16.827  1.00  0.00     0.099 C 
ATOM      9  O   UNL     1      25.404   4.380  17.456  1.00  0.00    -0.544 OA
ATOM     10  O   UNL     1      23.120   4.233  17.503  1.00  0.00    -0.544 OA
ENDBRANCH   3   8
ENDBRANCH   1   3
BRANCH   1  11
ATOM     11  C   UNL     1      22.823   5.944  15.026  1.00  0.00     0.006 C 
ATOM     12  C   UNL     1      22.806   7.422  14.629  1.00  0.00     0.004 C 
ENDBRANCH   1  11
TORSDOF 4
ENDMDL
MODEL 7
REMARK VINA RESULT:    -3.042      2.675      3.773
REMARK INTER + INTRA:          -3.775
REMARK INTER:                  -3.712
REMARK INTRA:                  -0.063
REMARK UNBOUND:                -0.111
REMARK SMILES CC[C@@H](C)[C@H]([NH3+])C(=O)[O-]
REMARK SMILES IDX 3 1 4 2 5 3 6 4 7 8 8 9 9 10 2 11 1 12
REMARK H PARENT 6 5 6 6 6 7
REMARK Flexibility Score: inf
ROOT
ATOM      1  C   UNL     1      24.754   4.674  15.186  1.00  0.00     0.050 C 
ATOM      2  C   UNL     1      23.732   3.855  15.999  1.00  0.00     0.014 C 
ENDROOT
BRANCH   1   3
ATOM      3  C   UNL     1      24.198   6.081  14.803  1.00  0.00     0.230 C 
BRANCH   3   4
ATOM      4  N   UNL     1      22.786   6.013  14.396  1.00  0.00    -0.350 N 
ATOM      5  H   UNL     1      22.608   6.663  13.597  1.00  0.00     0.345 HD
ATOM      6  H   UNL     1      22.157   6.261  15.194  1.00  0.00     0.345 HD
ATOM      7  H   UNL     1      22.553   5.047  14.067  1.00  0.00     0.345 HD
ENDBRANCH   3   4
BRANCH   3   8
ATOM      8  C   UNL     1      25.006   6.696  13.687  1.00  0.00     0.099 C 
ATOM      9  O   UNL     1      25.843   7.602  13.935  1.00  0.00    -0.544 OA
ATOM     10  O   UNL     1      24.830   6.265  12.377  1.00  0.00    -0.544 OA
ENDBRANCH   3   8
ENDBRANCH   1   3
BRANCH   1  11
ATOM     11  C   UNL     1      26.121   4.731  15.923  1.00  0.00     0.006 C 
ATOM     12  C   UNL     1      26.052   4.408  17.417  1.00  0.00     0.004 C 
ENDBRANCH   1  11
TORSDOF 4
ENDMDL
MODEL 8
REMARK VINA RESULT:    -2.836      2.734      3.546
REMARK INTER + INTRA:          -3.527
REMARK INTER:                  -3.648
REMARK INTRA:                   0.121
REMARK UNBOUND:                -0.111
REMARK SMILES CC[C@@H](C)[C@H]([NH3+])C(=O)[O-]
REMARK SMILES IDX 3 1 4 2 5 3 6 4 7 8 8 9 9 10 2 11 1 12
REMARK H PARENT 6 5 6 6 6 7
REMARK Flexibility Score: inf
ROOT
ATOM      1  C   UNL     1      23.948   5.689  14.191  1.00  0.00     0.050 C 
ATOM      2  C   UNL     1      22.693   6.108  14.981  1.00  0.00     0.014 C 
ENDROOT
BRANCH   1   3
ATOM      3  C   UNL     1      24.470   6.840  13.276  1.00  0.00     0.230 C 
BRANCH   3   4
ATOM      4  N   UNL     1      25.546   6.378  12.385  1.00  0.00    -0.350 N 
ATOM      5  H   UNL     1      25.573   5.334  12.362  1.00  0.00     0.345 HD
ATOM      6  H   UNL     1      26.473   6.745  12.702  1.00  0.00     0.345 HD
ATOM      7  H   UNL     1      25.367   6.705  11.407  1.00  0.00     0.345 HD
ENDBRANCH   3   4
BRANCH   3   8
ATOM      8  C   UNL     1      24.972   7.999  14.100  1.00  0.00     0.099 C 
ATOM      9  O   UNL     1      26.203   8.129  14.329  1.00  0.00    -0.544 OA
ATOM     10  O   UNL     1      24.078   8.933  14.613  1.00  0.00    -0.544 OA
ENDBRANCH   3   8
ENDBRANCH   1   3
BRANCH   1  11
ATOM     11  C   UNL     1      25.032   5.120  15.147  1.00  0.00     0.006 C 
ATOM     12  C   UNL     1      24.591   3.896  15.953  1.00  0.00     0.004 C 
ENDBRANCH   1  11
TORSDOF 4
ENDMDL
MODEL 9
REMARK VINA RESULT:    -2.822      2.547      3.385
REMARK INTER + INTRA:          -3.510
REMARK INTER:                  -3.640
REMARK INTRA:                   0.129
REMARK UNBOUND:                -0.111
REMARK SMILES CC[C@@H](C)[C@H]([NH3+])C(=O)[O-]
REMARK SMILES IDX 3 1 4 2 5 3 6 4 7 8 8 9 9 10 2 11 1 12
REMARK H PARENT 6 5 6 6 6 7
REMARK Flexibility Score: inf
ROOT
ATOM      1  C   UNL     1      26.041   6.689  14.000  1.00  0.00     0.050 C 
ATOM      2  C   UNL     1      26.619   5.913  15.199  1.00  0.00     0.014 C 
ENDROOT
BRANCH   1   3
ATOM      3  C   UNL     1      24.755   6.010  13.433  1.00  0.00     0.230 C 
BRANCH   3   4
ATOM      4  N   UNL     1      24.340   6.614  12.158  1.00  0.00    -0.350 N 
ATOM      5  H   UNL     1      23.325   6.861  12.188  1.00  0.00     0.345 HD
ATOM      6  H   UNL     1      24.517   5.958  11.362  1.00  0.00     0.345 HD
ATOM      7  H   UNL     1      24.870   7.501  11.991  1.00  0.00     0.345 HD
ENDBRANCH   3   4
BRANCH   3   8
ATOM      8  C   UNL     1      23.617   6.104  14.419  1.00  0.00     0.099 C 
ATOM      9  O   UNL     1      22.885   7.127  14.448  1.00  0.00    -0.544 OA
ATOM     10  O   UNL     1      23.368   5.059  15.302  1.00  0.00    -0.544 OA
ENDBRANCH   3   8
ENDBRANCH   1   3
BRANCH   1  11
ATOM     11  C   UNL     1      25.841   8.186  14.361  1.00  0.00     0.006 C 
ATOM     12  C   UNL     1      27.136   8.953  14.639  1.00  0.00     0.004 C 
ENDBRANCH   1  11
TORSDOF 4
ENDMDL
