MODEL 1
REMARK VINA RESULT:    -7.062      0.000      0.000
REMARK INTER + INTRA:          -8.893
REMARK INTER:                  -8.301
REMARK INTRA:                  -0.592
REMARK UNBOUND:                -0.592
REMARK SMILES C=C(C)[C@@H]1CC[C@]2(CO)CC[C@]3(C)[C@@H](CC[C@H]4[C@@]5(C)CC[C@H](O)C(C)(C)[C@H]5CC[C@]43C)[C@@H]12
REMARK SMILES IDX 4 1 5 2 6 3 7 4 32 5 14 6 15 7 16 8 17 9 18 10 20 11 21 12
REMARK SMILES IDX 22 13 24 14 27 15 28 16 29 17 30 18 12 19 11 20 10 21 13 22
REMARK SMILES IDX 31 23 25 24 26 25 19 26 2 27 3 28 1 29 8 30 9 31 23 33
REMARK H PARENT 9 32 23 34
REMARK Flexibility Score: inf
ROOT
ATOM      1  C   UNL     1      30.747 -69.107  -4.828  1.00  0.00     0.018 C 
ATOM      2  C   UNL     1      30.602 -70.629  -5.091  1.00  0.00     0.009 C 
ATOM      3  C   UNL     1      31.915 -71.097  -5.758  1.00  0.00     0.010 C 
ATOM      4  C   UNL     1      32.561 -69.815  -6.331  1.00  0.00    -0.003 C 
ATOM      5  C   UNL     1      32.205 -68.826  -5.199  1.00  0.00     0.008 C 
ATOM      6  C   UNL     1      32.734 -67.370  -5.339  1.00  0.00    -0.000 C 
ATOM      7  C   UNL     1      32.055 -66.622  -6.479  1.00  0.00     0.005 C 
ATOM      8  C   UNL     1      32.519 -65.189  -6.580  1.00  0.00     0.005 C 
ATOM      9  C   UNL     1      34.041 -65.051  -6.862  1.00  0.00     0.002 C 
ATOM     10  C   UNL     1      34.527 -63.504  -7.119  1.00  0.00    -0.026 C 
ATOM     11  C   UNL     1      33.337 -62.516  -7.520  1.00  0.00     0.010 C 
ATOM     12  C   UNL     1      33.306 -61.157  -6.820  1.00  0.00     0.033 C 
ATOM     13  C   UNL     1      34.673 -60.504  -6.792  1.00  0.00     0.120 C 
ATOM     14  C   UNL     1      35.648 -61.327  -5.886  1.00  0.00    -0.006 C 
ATOM     15  C   UNL     1      35.334 -62.911  -5.880  1.00  0.00     0.003 C 
ATOM     16  C   UNL     1      34.712 -63.478  -4.585  1.00  0.00     0.005 C 
ATOM     17  C   UNL     1      34.889 -65.006  -4.453  1.00  0.00     0.008 C 
ATOM     18  C   UNL     1      34.882 -65.861  -5.776  1.00  0.00    -0.024 C 
ATOM     19  C   UNL     1      34.307 -67.364  -5.465  1.00  0.00    -0.024 C 
ATOM     20  C   UNL     1      34.720 -68.421  -6.576  1.00  0.00     0.008 C 
ATOM     21  C   UNL     1      34.103 -69.853  -6.438  1.00  0.00     0.010 C 
ATOM     22  C   UNL     1      34.919 -67.868  -4.100  1.00  0.00     0.012 C 
ATOM     23  C   UNL     1      36.355 -66.047  -6.294  1.00  0.00     0.012 C 
ATOM     24  C   UNL     1      35.585 -60.707  -4.461  1.00  0.00     0.014 C 
ATOM     25  C   UNL     1      37.110 -61.083  -6.364  1.00  0.00     0.014 C 
ATOM     26  C   UNL     1      35.488 -63.551  -8.346  1.00  0.00     0.012 C 
ENDROOT
BRANCH   1  27
ATOM     27  C   UNL     1      30.395 -68.689  -3.402  1.00  0.00    -0.077 C 
ATOM     28  C   UNL     1      31.345 -69.002  -2.274  1.00  0.00     0.039 C 
ATOM     29  C   UNL     1      29.241 -68.062  -3.112  1.00  0.00     0.008 C 
ENDBRANCH   1  27
BRANCH   4  30
ATOM     30  C   UNL     1      31.973 -69.598  -7.774  1.00  0.00     0.163 C 
BRANCH  30  31
ATOM     31  O   UNL     1      32.684 -70.288  -8.762  1.00  0.00    -0.396 OA
ATOM     32  H   UNL     1      33.620 -69.958  -8.718  1.00  0.00     0.210 HD
ENDBRANCH  30  31
ENDBRANCH   4  30
BRANCH  13  33
ATOM     33  O   UNL     1      35.160 -60.347  -8.105  1.00  0.00    -0.393 OA
ATOM     34  H   UNL     1      35.557 -61.215  -8.377  1.00  0.00     0.210 HD
ENDBRANCH  13  33
TORSDOF 4
ENDMDL
MODEL 2
REMARK VINA RESULT:    -6.584      1.874      8.017
REMARK INTER + INTRA:          -8.330
REMARK INTER:                  -7.776
REMARK INTRA:                  -0.554
REMARK UNBOUND:                -0.592
REMARK SMILES C=C(C)[C@@H]1CC[C@]2(CO)CC[C@]3(C)[C@@H](CC[C@H]4[C@@]5(C)CC[C@H](O)C(C)(C)[C@H]5CC[C@]43C)[C@@H]12
REMARK SMILES IDX 4 1 5 2 6 3 7 4 32 5 14 6 15 7 16 8 17 9 18 10 20 11 21 12
REMARK SMILES IDX 22 13 24 14 27 15 28 16 29 17 30 18 12 19 11 20 10 21 13 22
REMARK SMILES IDX 31 23 25 24 26 25 19 26 2 27 3 28 1 29 8 30 9 31 23 33
REMARK H PARENT 9 32 23 34
REMARK Flexibility Score: inf
ROOT
ATOM      1  C   UNL     1      34.969 -60.864  -8.042  1.00  0.00     0.018 C 
ATOM      2  C   UNL     1      35.675 -59.560  -7.587  1.00  0.00     0.009 C 
ATOM      3  C   UNL     1      36.431 -59.891  -6.279  1.00  0.00     0.010 C 
ATOM      4  C   UNL     1      35.759 -61.170  -5.732  1.00  0.00    -0.003 C 
ATOM      5  C   UNL     1      35.507 -61.912  -7.064  1.00  0.00     0.008 C 
ATOM      6  C   UNL     1      34.874 -63.331  -6.976  1.00  0.00    -0.000 C 
ATOM      7  C   UNL     1      33.429 -63.284  -6.497  1.00  0.00     0.005 C 
ATOM      8  C   UNL     1      32.791 -64.651  -6.468  1.00  0.00     0.005 C 
ATOM      9  C   UNL     1      33.498 -65.644  -5.505  1.00  0.00     0.002 C 
ATOM     10  C   UNL     1      32.727 -67.085  -5.358  1.00  0.00    -0.026 C 
ATOM     11  C   UNL     1      31.193 -67.039  -5.804  1.00  0.00     0.010 C 
ATOM     12  C   UNL     1      30.698 -68.188  -6.684  1.00  0.00     0.033 C 
ATOM     13  C   UNL     1      31.153 -69.536  -6.163  1.00  0.00     0.120 C 
ATOM     14  C   UNL     1      32.708 -69.666  -6.282  1.00  0.00    -0.006 C 
ATOM     15  C   UNL     1      33.483 -68.258  -6.126  1.00  0.00     0.003 C 
ATOM     16  C   UNL     1      34.098 -67.670  -7.415  1.00  0.00     0.005 C 
ATOM     17  C   UNL     1      35.203 -66.629  -7.133  1.00  0.00     0.008 C 
ATOM     18  C   UNL     1      35.054 -65.733  -5.847  1.00  0.00    -0.024 C 
ATOM     19  C   UNL     1      35.773 -64.281  -6.093  1.00  0.00    -0.024 C 
ATOM     20  C   UNL     1      36.111 -63.527  -4.737  1.00  0.00     0.008 C 
ATOM     21  C   UNL     1      36.673 -62.072  -4.872  1.00  0.00     0.010 C 
ATOM     22  C   UNL     1      37.141 -64.514  -6.844  1.00  0.00     0.012 C 
ATOM     23  C   UNL     1      35.811 -66.406  -4.643  1.00  0.00     0.012 C 
ATOM     24  C   UNL     1      33.008 -70.356  -7.644  1.00  0.00     0.014 C 
ATOM     25  C   UNL     1      33.216 -70.668  -5.205  1.00  0.00     0.014 C 
ATOM     26  C   UNL     1      32.727 -67.422  -3.836  1.00  0.00     0.012 C 
ENDROOT
BRANCH   1  27
ATOM     27  C   UNL     1      35.216 -61.222  -9.506  1.00  0.00    -0.077 C 
ATOM     28  C   UNL     1      34.055 -61.598 -10.391  1.00  0.00     0.039 C 
ATOM     29  C   UNL     1      36.453 -61.232 -10.035  1.00  0.00     0.008 C 
ENDBRANCH   1  27
BRANCH   4  30
ATOM     30  C   UNL     1      34.540 -60.718  -4.846  1.00  0.00     0.163 C 
BRANCH  30  31
ATOM     31  O   UNL     1      34.866 -60.600  -3.490  1.00  0.00    -0.396 OA
ATOM     32  H   UNL     1      34.222 -61.172  -2.995  1.00  0.00     0.210 HD
ENDBRANCH  30  31
ENDBRANCH   4  30
BRANCH  13  33
ATOM     33  O   UNL     1      30.697 -69.722  -4.844  1.00  0.00    -0.393 OA
ATOM     34  H   UNL     1      31.387 -70.251  -4.365  1.00  0.00     0.210 HD
ENDBRANCH  13  33
TORSDOF 4
ENDMDL
MODEL 3
REMARK VINA RESULT:    -6.464      1.650      8.055
REMARK INTER + INTRA:          -8.189
REMARK INTER:                  -7.604
REMARK INTRA:                  -0.585
REMARK UNBOUND:                -0.592
REMARK SMILES C=C(C)[C@@H]1CC[C@]2(CO)CC[C@]3(C)[C@@H](CC[C@H]4[C@@]5(C)CC[C@H](O)C(C)(C)[C@H]5CC[C@]43C)[C@@H]12
REMARK SMILES IDX 4 1 5 2 6 3 7 4 32 5 14 6 15 7 16 8 17 9 18 10 20 11 21 12
REMARK SMILES IDX 22 13 24 14 27 15 28 16 29 17 30 18 12 19 11 20 10 21 13 22
REMARK SMILES IDX 31 23 25 24 26 25 19 26 2 27 3 28 1 29 8 30 9 31 23 33
REMARK H PARENT 9 32 23 34
REMARK Flexibility Score: inf
ROOT
ATOM      1  C   UNL     1      36.278 -61.537  -8.324  1.00  0.00     0.018 C 
ATOM      2  C   UNL     1      36.684 -60.108  -7.880  1.00  0.00     0.009 C 
ATOM      3  C   UNL     1      36.540 -60.058  -6.341  1.00  0.00     0.010 C 
ATOM      4  C   UNL     1      35.594 -61.226  -5.982  1.00  0.00    -0.003 C 
ATOM      5  C   UNL     1      36.095 -62.277  -6.997  1.00  0.00     0.008 C 
ATOM      6  C   UNL     1      35.433 -63.684  -6.944  1.00  0.00    -0.000 C 
ATOM      7  C   UNL     1      33.978 -63.649  -7.394  1.00  0.00     0.005 C 
ATOM      8  C   UNL     1      33.349 -65.021  -7.404  1.00  0.00     0.005 C 
ATOM      9  C   UNL     1      33.318 -65.697  -6.005  1.00  0.00     0.002 C 
ATOM     10  C   UNL     1      32.506 -67.124  -5.979  1.00  0.00    -0.026 C 
ATOM     11  C   UNL     1      31.504 -67.314  -7.209  1.00  0.00     0.010 C 
ATOM     12  C   UNL     1      31.523 -68.674  -7.907  1.00  0.00     0.033 C 
ATOM     13  C   UNL     1      31.512 -69.819  -6.914  1.00  0.00     0.120 C 
ATOM     14  C   UNL     1      32.847 -69.841  -6.098  1.00  0.00    -0.006 C 
ATOM     15  C   UNL     1      33.486 -68.375  -5.875  1.00  0.00     0.003 C 
ATOM     16  C   UNL     1      34.761 -68.056  -6.686  1.00  0.00     0.005 C 
ATOM     17  C   UNL     1      35.576 -66.888  -6.089  1.00  0.00     0.008 C 
ATOM     18  C   UNL     1      34.782 -65.731  -5.374  1.00  0.00    -0.024 C 
ATOM     19  C   UNL     1      35.607 -64.322  -5.510  1.00  0.00    -0.024 C 
ATOM     20  C   UNL     1      35.164 -63.244  -4.431  1.00  0.00     0.008 C 
ATOM     21  C   UNL     1      35.797 -61.819  -4.570  1.00  0.00     0.010 C 
ATOM     22  C   UNL     1      37.140 -64.607  -5.273  1.00  0.00     0.012 C 
ATOM     23  C   UNL     1      34.675 -66.036  -3.834  1.00  0.00     0.012 C 
ATOM     24  C   UNL     1      33.821 -70.803  -6.836  1.00  0.00     0.014 C 
ATOM     25  C   UNL     1      32.586 -70.516  -4.719  1.00  0.00     0.014 C 
ATOM     26  C   UNL     1      31.620 -67.093  -4.696  1.00  0.00     0.012 C 
ENDROOT
BRANCH   1  27
ATOM     27  C   UNL     1      37.289 -62.206  -9.254  1.00  0.00    -0.077 C 
ATOM     28  C   UNL     1      36.835 -62.756 -10.582  1.00  0.00     0.039 C 
ATOM     29  C   UNL     1      38.583 -62.341  -8.915  1.00  0.00     0.008 C 
ENDBRANCH   1  27
BRANCH   4  30
ATOM     30  C   UNL     1      34.120 -60.684  -6.081  1.00  0.00     0.163 C 
BRANCH  30  31
ATOM     31  O   UNL     1      33.760 -59.883  -4.991  1.00  0.00    -0.396 OA
ATOM     32  H   UNL     1      33.404 -60.497  -4.296  1.00  0.00     0.210 HD
ENDBRANCH  30  31
ENDBRANCH   4  30
BRANCH  13  33
ATOM     33  O   UNL     1      30.376 -69.729  -6.086  1.00  0.00    -0.393 OA
ATOM     34  H   UNL     1      30.508 -70.363  -5.334  1.00  0.00     0.210 HD
ENDBRANCH  13  33
TORSDOF 4
ENDMDL
MODEL 4
REMARK VINA RESULT:    -6.384      2.197      3.648
REMARK INTER + INTRA:          -8.095
REMARK INTER:                  -7.565
REMARK INTRA:                  -0.530
REMARK UNBOUND:                -0.592
REMARK SMILES C=C(C)[C@@H]1CC[C@]2(CO)CC[C@]3(C)[C@@H](CC[C@H]4[C@@]5(C)CC[C@H](O)C(C)(C)[C@H]5CC[C@]43C)[C@@H]12
REMARK SMILES IDX 4 1 5 2 6 3 7 4 32 5 14 6 15 7 16 8 17 9 18 10 20 11 21 12
REMARK SMILES IDX 22 13 24 14 27 15 28 16 29 17 30 18 12 19 11 20 10 21 13 22
REMARK SMILES IDX 31 23 25 24 26 25 19 26 2 27 3 28 1 29 8 30 9 31 23 33
REMARK H PARENT 9 32 23 34
REMARK Flexibility Score: inf
ROOT
ATOM      1  C   UNL     1      33.161 -69.987  -6.429  1.00  0.00     0.018 C 
ATOM      2  C   UNL     1      33.003 -71.018  -5.282  1.00  0.00     0.009 C 
ATOM      3  C   UNL     1      33.240 -70.257  -3.957  1.00  0.00     0.010 C 
ATOM      4  C   UNL     1      34.018 -68.981  -4.354  1.00  0.00    -0.003 C 
ATOM      5  C   UNL     1      33.306 -68.656  -5.685  1.00  0.00     0.008 C 
ATOM      6  C   UNL     1      33.749 -67.363  -6.428  1.00  0.00    -0.000 C 
ATOM      7  C   UNL     1      35.165 -67.477  -6.981  1.00  0.00     0.005 C 
ATOM      8  C   UNL     1      35.577 -66.249  -7.755  1.00  0.00     0.005 C 
ATOM      9  C   UNL     1      35.586 -64.953  -6.900  1.00  0.00     0.002 C 
ATOM     10  C   UNL     1      36.172 -63.641  -7.694  1.00  0.00    -0.026 C 
ATOM     11  C   UNL     1      37.062 -64.009  -8.969  1.00  0.00     0.010 C 
ATOM     12  C   UNL     1      36.798 -63.210 -10.246  1.00  0.00     0.033 C 
ATOM     13  C   UNL     1      36.692 -61.723  -9.970  1.00  0.00     0.120 C 
ATOM     14  C   UNL     1      35.418 -61.420  -9.113  1.00  0.00    -0.006 C 
ATOM     15  C   UNL     1      35.022 -62.620  -8.107  1.00  0.00     0.003 C 
ATOM     16  C   UNL     1      33.765 -63.437  -8.481  1.00  0.00     0.005 C 
ATOM     17  C   UNL     1      33.172 -64.208  -7.282  1.00  0.00     0.008 C 
ATOM     18  C   UNL     1      34.172 -64.747  -6.191  1.00  0.00    -0.024 C 
ATOM     19  C   UNL     1      33.563 -66.102  -5.498  1.00  0.00    -0.024 C 
ATOM     20  C   UNL     1      34.225 -66.421  -4.090  1.00  0.00     0.008 C 
ATOM     21  C   UNL     1      33.808 -67.771  -3.416  1.00  0.00     0.010 C 
ATOM     22  C   UNL     1      32.020 -65.892  -5.244  1.00  0.00     0.012 C 
ATOM     23  C   UNL     1      34.319 -63.686  -5.039  1.00  0.00     0.012 C 
ATOM     24  C   UNL     1      34.269 -61.078 -10.104  1.00  0.00     0.014 C 
ATOM     25  C   UNL     1      35.652 -60.111  -8.303  1.00  0.00     0.014 C 
ATOM     26  C   UNL     1      37.124 -62.919  -6.692  1.00  0.00     0.012 C 
ENDROOT
BRANCH   1  27
ATOM     27  C   UNL     1      32.009 -69.996  -7.433  1.00  0.00    -0.077 C 
ATOM     28  C   UNL     1      30.628 -70.395  -6.983  1.00  0.00     0.039 C 
ATOM     29  C   UNL     1      32.194 -69.675  -8.726  1.00  0.00     0.008 C 
ENDBRANCH   1  27
BRANCH   4  30
ATOM     30  C   UNL     1      35.548 -69.345  -4.353  1.00  0.00     0.163 C 
BRANCH  30  31
ATOM     31  O   UNL     1      35.894 -70.245  -3.338  1.00  0.00    -0.396 OA
ATOM     32  H   UNL     1      36.428 -70.964  -3.769  1.00  0.00     0.210 HD
ENDBRANCH  30  31
ENDBRANCH   4  30
BRANCH  13  33
ATOM     33  O   UNL     1      37.874 -61.260  -9.359  1.00  0.00    -0.393 OA
ATOM     34  H   UNL     1      37.963 -60.297  -9.581  1.00  0.00     0.210 HD
ENDBRANCH  13  33
TORSDOF 4
ENDMDL
MODEL 5
REMARK VINA RESULT:    -6.198      1.809      7.837
REMARK INTER + INTRA:          -7.876
REMARK INTER:                  -7.281
REMARK INTRA:                  -0.595
REMARK UNBOUND:                -0.592
REMARK SMILES C=C(C)[C@@H]1CC[C@]2(CO)CC[C@]3(C)[C@@H](CC[C@H]4[C@@]5(C)CC[C@H](O)C(C)(C)[C@H]5CC[C@]43C)[C@@H]12
REMARK SMILES IDX 4 1 5 2 6 3 7 4 32 5 14 6 15 7 16 8 17 9 18 10 20 11 21 12
REMARK SMILES IDX 22 13 24 14 27 15 28 16 29 17 30 18 12 19 11 20 10 21 13 22
REMARK SMILES IDX 31 23 25 24 26 25 19 26 2 27 3 28 1 29 8 30 9 31 23 33
REMARK H PARENT 9 32 23 34
REMARK Flexibility Score: inf
ROOT
ATOM      1  C   UNL     1      37.896 -63.343  -7.463  1.00  0.00     0.018 C 
ATOM      2  C   UNL     1      38.128 -61.928  -8.052  1.00  0.00     0.009 C 
ATOM      3  C   UNL     1      36.750 -61.229  -8.099  1.00  0.00     0.010 C 
ATOM      4  C   UNL     1      35.711 -62.372  -8.040  1.00  0.00    -0.003 C 
ATOM      5  C   UNL     1      36.425 -63.309  -7.042  1.00  0.00     0.008 C 
ATOM      6  C   UNL     1      35.675 -64.610  -6.630  1.00  0.00    -0.000 C 
ATOM      7  C   UNL     1      35.564 -65.596  -7.786  1.00  0.00     0.005 C 
ATOM      8  C   UNL     1      34.893 -66.884  -7.377  1.00  0.00     0.005 C 
ATOM      9  C   UNL     1      33.434 -66.689  -6.878  1.00  0.00     0.002 C 
ATOM     10  C   UNL     1      32.648 -68.097  -6.569  1.00  0.00    -0.026 C 
ATOM     11  C   UNL     1      33.304 -69.367  -7.283  1.00  0.00     0.010 C 
ATOM     12  C   UNL     1      33.468 -70.627  -6.432  1.00  0.00     0.033 C 
ATOM     13  C   UNL     1      32.215 -70.939  -5.638  1.00  0.00     0.120 C 
ATOM     14  C   UNL     1      31.968 -69.832  -4.559  1.00  0.00    -0.006 C 
ATOM     15  C   UNL     1      32.488 -68.371  -5.009  1.00  0.00     0.003 C 
ATOM     16  C   UNL     1      33.755 -67.848  -4.296  1.00  0.00     0.005 C 
ATOM     17  C   UNL     1      33.911 -66.315  -4.396  1.00  0.00     0.008 C 
ATOM     18  C   UNL     1      33.390 -65.610  -5.704  1.00  0.00    -0.024 C 
ATOM     19  C   UNL     1      34.272 -64.260  -5.998  1.00  0.00    -0.024 C 
ATOM     20  C   UNL     1      33.531 -63.242  -6.965  1.00  0.00     0.008 C 
ATOM     21  C   UNL     1      34.351 -61.987  -7.415  1.00  0.00     0.010 C 
ATOM     22  C   UNL     1      34.513 -63.506  -4.633  1.00  0.00     0.012 C 
ATOM     23  C   UNL     1      31.906 -65.134  -5.493  1.00  0.00     0.012 C 
ATOM     24  C   UNL     1      32.638 -70.318  -3.242  1.00  0.00     0.014 C 
ATOM     25  C   UNL     1      30.446 -69.772  -4.236  1.00  0.00     0.014 C 
ATOM     26  C   UNL     1      31.224 -67.940  -7.183  1.00  0.00     0.012 C 
ENDROOT
BRANCH   1  27
ATOM     27  C   UNL     1      38.844 -63.700  -6.319  1.00  0.00    -0.077 C 
ATOM     28  C   UNL     1      38.712 -63.000  -4.992  1.00  0.00     0.039 C 
ATOM     29  C   UNL     1      39.818 -64.616  -6.466  1.00  0.00     0.008 C 
ENDBRANCH   1  27
BRANCH   4  30
ATOM     30  C   UNL     1      35.455 -62.851  -9.517  1.00  0.00     0.163 C 
BRANCH  30  31
ATOM     31  O   UNL     1      34.466 -62.105 -10.168  1.00  0.00    -0.396 OA
ATOM     32  H   UNL     1      34.208 -62.624 -10.975  1.00  0.00     0.210 HD
ENDBRANCH  30  31
ENDBRANCH   4  30
BRANCH  13  33
ATOM     33  O   UNL     1      31.119 -71.096  -6.509  1.00  0.00    -0.393 OA
ATOM     34  H   UNL     1      30.950 -72.070  -6.597  1.00  0.00     0.210 HD
ENDBRANCH  13  33
TORSDOF 4
ENDMDL
MODEL 6
REMARK VINA RESULT:    -5.948      1.916      7.705
REMARK INTER + INTRA:          -7.582
REMARK INTER:                  -6.995
REMARK INTRA:                  -0.587
REMARK UNBOUND:                -0.592
REMARK SMILES C=C(C)[C@@H]1CC[C@]2(CO)CC[C@]3(C)[C@@H](CC[C@H]4[C@@]5(C)CC[C@H](O)C(C)(C)[C@H]5CC[C@]43C)[C@@H]12
REMARK SMILES IDX 4 1 5 2 6 3 7 4 32 5 14 6 15 7 16 8 17 9 18 10 20 11 21 12
REMARK SMILES IDX 22 13 24 14 27 15 28 16 29 17 30 18 12 19 11 20 10 21 13 22
REMARK SMILES IDX 31 23 25 24 26 25 19 26 2 27 3 28 1 29 8 30 9 31 23 33
REMARK H PARENT 9 32 23 34
REMARK Flexibility Score: inf
ROOT
ATOM      1  C   UNL     1      36.345 -61.742  -5.464  1.00  0.00     0.018 C 
ATOM      2  C   UNL     1      37.324 -60.959  -6.378  1.00  0.00     0.009 C 
ATOM      3  C   UNL     1      37.473 -61.777  -7.681  1.00  0.00     0.010 C 
ATOM      4  C   UNL     1      37.024 -63.211  -7.317  1.00  0.00    -0.003 C 
ATOM      5  C   UNL     1      35.852 -62.874  -6.369  1.00  0.00     0.008 C 
ATOM      6  C   UNL     1      35.042 -64.071  -5.792  1.00  0.00    -0.000 C 
ATOM      7  C   UNL     1      35.863 -64.897  -4.810  1.00  0.00     0.005 C 
ATOM      8  C   UNL     1      35.063 -66.022  -4.200  1.00  0.00     0.005 C 
ATOM      9  C   UNL     1      34.541 -67.047  -5.245  1.00  0.00     0.002 C 
ATOM     10  C   UNL     1      33.796 -68.349  -4.580  1.00  0.00    -0.026 C 
ATOM     11  C   UNL     1      34.166 -68.582  -3.042  1.00  0.00     0.010 C 
ATOM     12  C   UNL     1      33.006 -68.900  -2.097  1.00  0.00     0.033 C 
ATOM     13  C   UNL     1      32.074 -69.945  -2.677  1.00  0.00     0.120 C 
ATOM     14  C   UNL     1      31.337 -69.375  -3.935  1.00  0.00    -0.006 C 
ATOM     15  C   UNL     1      32.215 -68.299  -4.759  1.00  0.00     0.003 C 
ATOM     16  C   UNL     1      31.765 -66.825  -4.650  1.00  0.00     0.005 C 
ATOM     17  C   UNL     1      32.303 -65.946  -5.799  1.00  0.00     0.008 C 
ATOM     18  C   UNL     1      33.719 -66.301  -6.391  1.00  0.00    -0.024 C 
ATOM     19  C   UNL     1      34.441 -64.944  -6.961  1.00  0.00    -0.024 C 
ATOM     20  C   UNL     1      35.604 -65.257  -7.996  1.00  0.00     0.008 C 
ATOM     21  C   UNL     1      36.443 -64.031  -8.490  1.00  0.00     0.010 C 
ATOM     22  C   UNL     1      33.363 -64.081  -7.726  1.00  0.00     0.012 C 
ATOM     23  C   UNL     1      33.552 -67.266  -7.621  1.00  0.00     0.012 C 
ATOM     24  C   UNL     1      29.985 -68.783  -3.445  1.00  0.00     0.014 C 
ATOM     25  C   UNL     1      30.942 -70.557  -4.868  1.00  0.00     0.014 C 
ATOM     26  C   UNL     1      34.333 -69.594  -5.349  1.00  0.00     0.012 C 
ENDROOT
BRANCH   1  27
ATOM     27  C   UNL     1      35.213 -60.888  -4.895  1.00  0.00    -0.077 C 
ATOM     28  C   UNL     1      34.888 -60.960  -3.426  1.00  0.00     0.039 C 
ATOM     29  C   UNL     1      34.475 -60.078  -5.675  1.00  0.00     0.008 C 
ENDBRANCH   1  27
BRANCH   4  30
ATOM     30  C   UNL     1      38.285 -63.971  -6.762  1.00  0.00     0.163 C 
BRANCH  30  31
ATOM     31  O   UNL     1      39.108 -64.474  -7.777  1.00  0.00    -0.396 OA
ATOM     32  H   UNL     1      38.909 -63.941  -8.591  1.00  0.00     0.210 HD
ENDBRANCH  30  31
ENDBRANCH   4  30
BRANCH  13  33
ATOM     33  O   UNL     1      32.790 -71.125  -2.961  1.00  0.00    -0.393 OA
ATOM     34  H   UNL     1      33.715 -70.858  -3.204  1.00  0.00     0.210 HD
ENDBRANCH  13  33
TORSDOF 4
ENDMDL
MODEL 7
REMARK VINA RESULT:    -5.888      1.961      7.993
REMARK INTER + INTRA:          -7.512
REMARK INTER:                  -6.916
REMARK INTRA:                  -0.596
REMARK UNBOUND:                -0.592
REMARK SMILES C=C(C)[C@@H]1CC[C@]2(CO)CC[C@]3(C)[C@@H](CC[C@H]4[C@@]5(C)CC[C@H](O)C(C)(C)[C@H]5CC[C@]43C)[C@@H]12
REMARK SMILES IDX 4 1 5 2 6 3 7 4 32 5 14 6 15 7 16 8 17 9 18 10 20 11 21 12
REMARK SMILES IDX 22 13 24 14 27 15 28 16 29 17 30 18 12 19 11 20 10 21 13 22
REMARK SMILES IDX 31 23 25 24 26 25 19 26 2 27 3 28 1 29 8 30 9 31 23 33
REMARK H PARENT 9 32 23 34
REMARK Flexibility Score: inf
ROOT
ATOM      1  C   UNL     1      37.922 -62.055  -8.549  1.00  0.00     0.018 C 
ATOM      2  C   UNL     1      38.094 -60.892  -9.560  1.00  0.00     0.009 C 
ATOM      3  C   UNL     1      36.676 -60.490 -10.027  1.00  0.00     0.010 C 
ATOM      4  C   UNL     1      35.781 -61.708  -9.708  1.00  0.00    -0.003 C 
ATOM      5  C   UNL     1      36.405 -62.134  -8.361  1.00  0.00     0.008 C 
ATOM      6  C   UNL     1      35.746 -63.334  -7.623  1.00  0.00    -0.000 C 
ATOM      7  C   UNL     1      35.958 -64.648  -8.365  1.00  0.00     0.005 C 
ATOM      8  C   UNL     1      35.374 -65.825  -7.623  1.00  0.00     0.005 C 
ATOM      9  C   UNL     1      33.838 -65.727  -7.417  1.00  0.00     0.002 C 
ATOM     10  C   UNL     1      33.174 -67.067  -6.741  1.00  0.00    -0.026 C 
ATOM     11  C   UNL     1      34.088 -68.371  -6.875  1.00  0.00     0.010 C 
ATOM     12  C   UNL     1      34.237 -69.237  -5.623  1.00  0.00     0.033 C 
ATOM     13  C   UNL     1      32.906 -69.479  -4.940  1.00  0.00     0.120 C 
ATOM     14  C   UNL     1      32.344 -68.139  -4.358  1.00  0.00    -0.006 C 
ATOM     15  C   UNL     1      32.767 -66.839  -5.218  1.00  0.00     0.003 C 
ATOM     16  C   UNL     1      33.818 -65.907  -4.575  1.00  0.00     0.005 C 
ATOM     17  C   UNL     1      33.815 -64.488  -5.183  1.00  0.00     0.008 C 
ATOM     18  C   UNL     1      33.461 -64.347  -6.711  1.00  0.00    -0.024 C 
ATOM     19  C   UNL     1      34.222 -63.039  -7.341  1.00  0.00    -0.024 C 
ATOM     20  C   UNL     1      33.556 -62.533  -8.690  1.00  0.00     0.008 C 
ATOM     21  C   UNL     1      34.295 -61.374  -9.439  1.00  0.00     0.010 C 
ATOM     22  C   UNL     1      34.127 -61.851  -6.306  1.00  0.00     0.012 C 
ATOM     23  C   UNL     1      31.918 -64.085  -6.874  1.00  0.00     0.012 C 
ATOM     24  C   UNL     1      32.817 -68.047  -2.879  1.00  0.00     0.014 C 
ATOM     25  C   UNL     1      30.792 -68.233  -4.277  1.00  0.00     0.014 C 
ATOM     26  C   UNL     1      31.875 -67.361  -7.551  1.00  0.00     0.012 C 
ENDROOT
BRANCH   1  27
ATOM     27  C   UNL     1      38.683 -61.854  -7.239  1.00  0.00    -0.077 C 
ATOM     28  C   UNL     1      38.153 -60.895  -6.205  1.00  0.00     0.039 C 
ATOM     29  C   UNL     1      39.836 -62.497  -6.984  1.00  0.00     0.008 C 
ENDBRANCH   1  27
BRANCH   4  30
ATOM     30  C   UNL     1      35.850 -62.679 -10.944  1.00  0.00     0.163 C 
BRANCH  30  31
ATOM     31  O   UNL     1      35.339 -62.108 -12.115  1.00  0.00    -0.396 OA
ATOM     32  H   UNL     1      36.065 -61.545 -12.494  1.00  0.00     0.210 HD
ENDBRANCH  30  31
ENDBRANCH   4  30
BRANCH  13  33
ATOM     33  O   UNL     1      32.009 -70.094  -5.836  1.00  0.00    -0.393 OA
ATOM     34  H   UNL     1      32.537 -70.395  -6.621  1.00  0.00     0.210 HD
ENDBRANCH  13  33
TORSDOF 4
ENDMDL
MODEL 8
REMARK VINA RESULT:    -5.885      1.769      2.269
REMARK INTER + INTRA:          -7.509
REMARK INTER:                  -7.053
REMARK INTRA:                  -0.456
REMARK UNBOUND:                -0.592
REMARK SMILES C=C(C)[C@@H]1CC[C@]2(CO)CC[C@]3(C)[C@@H](CC[C@H]4[C@@]5(C)CC[C@H](O)C(C)(C)[C@H]5CC[C@]43C)[C@@H]12
REMARK SMILES IDX 4 1 5 2 6 3 7 4 32 5 14 6 15 7 16 8 17 9 18 10 20 11 21 12
REMARK SMILES IDX 22 13 24 14 27 15 28 16 29 17 30 18 12 19 11 20 10 21 13 22
REMARK SMILES IDX 31 23 25 24 26 25 19 26 2 27 3 28 1 29 8 30 9 31 23 33
REMARK H PARENT 9 32 23 34
REMARK Flexibility Score: inf
ROOT
ATOM      1  C   UNL     1      30.917 -69.371  -4.492  1.00  0.00     0.018 C 
ATOM      2  C   UNL     1      30.392 -70.566  -5.329  1.00  0.00     0.009 C 
ATOM      3  C   UNL     1      31.482 -70.897  -6.374  1.00  0.00     0.010 C 
ATOM      4  C   UNL     1      32.348 -69.621  -6.478  1.00  0.00    -0.003 C 
ATOM      5  C   UNL     1      32.355 -69.200  -4.992  1.00  0.00     0.008 C 
ATOM      6  C   UNL     1      33.194 -67.945  -4.614  1.00  0.00    -0.000 C 
ATOM      7  C   UNL     1      32.595 -66.665  -5.183  1.00  0.00     0.005 C 
ATOM      8  C   UNL     1      33.371 -65.438  -4.769  1.00  0.00     0.005 C 
ATOM      9  C   UNL     1      34.844 -65.442  -5.261  1.00  0.00     0.002 C 
ATOM     10  C   UNL     1      35.652 -64.049  -4.942  1.00  0.00    -0.026 C 
ATOM     11  C   UNL     1      34.693 -62.804  -4.654  1.00  0.00     0.010 C 
ATOM     12  C   UNL     1      35.055 -61.918  -3.461  1.00  0.00     0.033 C 
ATOM     13  C   UNL     1      36.533 -61.583  -3.434  1.00  0.00     0.120 C 
ATOM     14  C   UNL     1      37.376 -62.874  -3.163  1.00  0.00    -0.006 C 
ATOM     15  C   UNL     1      36.700 -64.216  -3.754  1.00  0.00     0.003 C 
ATOM     16  C   UNL     1      36.100 -65.191  -2.717  1.00  0.00     0.005 C 
ATOM     17  C   UNL     1      35.925 -66.623  -3.270  1.00  0.00     0.008 C 
ATOM     18  C   UNL     1      35.579 -66.780  -4.798  1.00  0.00    -0.024 C 
ATOM     19  C   UNL     1      34.702 -68.145  -5.033  1.00  0.00    -0.024 C 
ATOM     20  C   UNL     1      34.737 -68.644  -6.541  1.00  0.00     0.008 C 
ATOM     21  C   UNL     1      33.818 -69.861  -6.892  1.00  0.00     0.010 C 
ATOM     22  C   UNL     1      35.317 -69.300  -4.151  1.00  0.00     0.012 C 
ATOM     23  C   UNL     1      36.906 -66.956  -5.625  1.00  0.00     0.012 C 
ATOM     24  C   UNL     1      37.608 -62.956  -1.627  1.00  0.00     0.014 C 
ATOM     25  C   UNL     1      38.796 -62.688  -3.774  1.00  0.00     0.014 C 
ATOM     26  C   UNL     1      36.441 -63.700  -6.240  1.00  0.00     0.012 C 
ENDROOT
BRANCH   1  27
ATOM     27  C   UNL     1      30.824 -69.584  -2.982  1.00  0.00    -0.077 C 
ATOM     28  C   UNL     1      30.906 -70.978  -2.417  1.00  0.00     0.039 C 
ATOM     29  C   UNL     1      30.648 -68.557  -2.132  1.00  0.00     0.008 C 
ENDBRANCH   1  27
BRANCH   4  30
ATOM     30  C   UNL     1      31.681 -68.686  -7.553  1.00  0.00     0.163 C 
BRANCH  30  31
ATOM     31  O   UNL     1      30.787 -69.367  -8.387  1.00  0.00    -0.396 OA
ATOM     32  H   UNL     1      31.189 -69.360  -9.296  1.00  0.00     0.210 HD
ENDBRANCH  30  31
ENDBRANCH   4  30
BRANCH  13  33
ATOM     33  O   UNL     1      36.903 -60.939  -4.630  1.00  0.00    -0.393 OA
ATOM     34  H   UNL     1      36.780 -61.592  -5.368  1.00  0.00     0.210 HD
ENDBRANCH  13  33
TORSDOF 4
ENDMDL
MODEL 9
REMARK VINA RESULT:    -5.783      2.083      8.031
REMARK INTER + INTRA:          -7.389
REMARK INTER:                  -6.798
REMARK INTRA:                  -0.591
REMARK UNBOUND:                -0.592
REMARK SMILES C=C(C)[C@@H]1CC[C@]2(CO)CC[C@]3(C)[C@@H](CC[C@H]4[C@@]5(C)CC[C@H](O)C(C)(C)[C@H]5CC[C@]43C)[C@@H]12
REMARK SMILES IDX 4 1 5 2 6 3 7 4 32 5 14 6 15 7 16 8 17 9 18 10 20 11 21 12
REMARK SMILES IDX 22 13 24 14 27 15 28 16 29 17 30 18 12 19 11 20 10 21 13 22
REMARK SMILES IDX 31 23 25 24 26 25 19 26 2 27 3 28 1 29 8 30 9 31 23 33
REMARK H PARENT 9 32 23 34
REMARK Flexibility Score: inf
ROOT
ATOM      1  C   UNL     1      37.121 -62.484  -9.729  1.00  0.00     0.018 C 
ATOM      2  C   UNL     1      36.836 -61.067 -10.290  1.00  0.00     0.009 C 
ATOM      3  C   UNL     1      35.754 -60.434  -9.383  1.00  0.00     0.010 C 
ATOM      4  C   UNL     1      35.076 -61.624  -8.668  1.00  0.00    -0.003 C 
ATOM      5  C   UNL     1      36.315 -62.514  -8.428  1.00  0.00     0.008 C 
ATOM      6  C   UNL     1      36.093 -63.843  -7.649  1.00  0.00    -0.000 C 
ATOM      7  C   UNL     1      35.277 -64.848  -8.453  1.00  0.00     0.005 C 
ATOM      8  C   UNL     1      35.111 -66.161  -7.727  1.00  0.00     0.005 C 
ATOM      9  C   UNL     1      34.360 -66.029  -6.374  1.00  0.00     0.002 C 
ATOM     10  C   UNL     1      34.046 -67.467  -5.649  1.00  0.00    -0.026 C 
ATOM     11  C   UNL     1      34.107 -68.714  -6.646  1.00  0.00     0.010 C 
ATOM     12  C   UNL     1      34.854 -69.954  -6.153  1.00  0.00     0.033 C 
ATOM     13  C   UNL     1      34.474 -70.314  -4.731  1.00  0.00     0.120 C 
ATOM     14  C   UNL     1      34.969 -69.207  -3.741  1.00  0.00    -0.006 C 
ATOM     15  C   UNL     1      34.988 -67.729  -4.391  1.00  0.00     0.003 C 
ATOM     16  C   UNL     1      36.381 -67.139  -4.702  1.00  0.00     0.005 C 
ATOM     17  C   UNL     1      36.363 -65.601  -4.847  1.00  0.00     0.008 C 
ATOM     18  C   UNL     1      35.069 -64.938  -5.451  1.00  0.00    -0.024 C 
ATOM     19  C   UNL     1      35.465 -63.552  -6.231  1.00  0.00    -0.024 C 
ATOM     20  C   UNL     1      34.223 -62.582  -6.427  1.00  0.00     0.008 C 
ATOM     21  C   UNL     1      34.473 -61.295  -7.283  1.00  0.00     0.010 C 
ATOM     22  C   UNL     1      36.528 -62.770  -5.365  1.00  0.00     0.012 C 
ATOM     23  C   UNL     1      34.093 -64.530  -4.287  1.00  0.00     0.012 C 
ATOM     24  C   UNL     1      36.370 -69.644  -3.226  1.00  0.00     0.014 C 
ATOM     25  C   UNL     1      34.058 -69.214  -2.478  1.00  0.00     0.014 C 
ATOM     26  C   UNL     1      32.574 -67.385  -5.143  1.00  0.00     0.012 C 
ENDROOT
BRANCH   1  27
ATOM     27  C   UNL     1      38.606 -62.782  -9.526  1.00  0.00    -0.077 C 
ATOM     28  C   UNL     1      39.252 -63.914 -10.282  1.00  0.00     0.039 C 
ATOM     29  C   UNL     1      39.361 -62.070  -8.670  1.00  0.00     0.008 C 
ENDBRANCH   1  27
BRANCH   4  30
ATOM     30  C   UNL     1      33.915 -62.133  -9.600  1.00  0.00     0.163 C 
BRANCH  30  31
ATOM     31  O   UNL     1      32.989 -61.132  -9.913  1.00  0.00    -0.396 OA
ATOM     32  H   UNL     1      33.458 -60.492 -10.511  1.00  0.00     0.210 HD
ENDBRANCH  30  31
ENDBRANCH   4  30
BRANCH  13  33
ATOM     33  O   UNL     1      33.086 -70.534  -4.643  1.00  0.00    -0.393 OA
ATOM     34  H   UNL     1      32.653 -69.648  -4.529  1.00  0.00     0.210 HD
ENDBRANCH  13  33
TORSDOF 4
ENDMDL
