MODEL 1
REMARK VINA RESULT:    -5.861      0.000      0.000
REMARK INTER + INTRA:          -8.481
REMARK INTER:                  -7.917
REMARK INTRA:                  -0.564
REMARK UNBOUND:                -0.564
REMARK SMILES C=C[C@](C)(CCC=C(C)C)OC(C)=O
REMARK SMILES IDX 3 1 4 2 5 3 6 4 7 5 9 6 8 7 10 8 2 9 1 10 11 11 12 12 14 13
REMARK SMILES IDX 13 14
REMARK H PARENT
REMARK Flexibility Score: inf
ROOT
ATOM      1  C   UNL     1      29.927   4.069  30.974  1.00  0.00     0.127 C 
ATOM      2  C   UNL     1      30.604   2.999  31.860  1.00  0.00     0.061 C 
ENDROOT
BRANCH   1   3
ATOM      3  C   UNL     1      28.424   4.195  31.345  1.00  0.00     0.057 C 
BRANCH   3   4
ATOM      4  C   UNL     1      28.130   5.083  32.570  1.00  0.00     0.032 C 
BRANCH   4   5
ATOM      5  C   UNL     1      27.193   6.205  32.196  1.00  0.00    -0.028 C 
ATOM      6  C   UNL     1      26.429   8.528  31.946  1.00  0.00     0.039 C 
ATOM      7  C   UNL     1      27.443   7.515  32.413  1.00  0.00    -0.080 C 
ATOM      8  C   UNL     1      28.693   7.986  33.121  1.00  0.00     0.039 C 
ENDBRANCH   4   5
ENDBRANCH   3   4
ENDBRANCH   1   3
BRANCH   1   9
ATOM      9  C   UNL     1      30.083   3.710  29.503  1.00  0.00     0.013 C 
ATOM     10  C   UNL     1      29.378   2.729  28.930  1.00  0.00     0.008 C 
ENDBRANCH   1   9
BRANCH   1  11
ATOM     11  O   UNL     1      30.529   5.346  31.239  1.00  0.00    -0.455 OA
BRANCH  11  12
ATOM     12  C   UNL     1      31.903   5.586  31.400  1.00  0.00     0.303 C 
ATOM     13  O   UNL     1      32.699   5.509  30.426  1.00  0.00    -0.253 OA
ATOM     14  C   UNL     1      32.432   5.910  32.756  1.00  0.00     0.139 C 
ENDBRANCH  11  12
ENDBRANCH   1  11
TORSDOF 6
ENDMDL
MODEL 2
REMARK VINA RESULT:    -5.541      1.750      2.874
REMARK INTER + INTRA:          -8.049
REMARK INTER:                  -7.568
REMARK INTRA:                  -0.481
REMARK UNBOUND:                -0.564
REMARK SMILES C=C[C@](C)(CCC=C(C)C)OC(C)=O
REMARK SMILES IDX 3 1 4 2 5 3 6 4 7 5 9 6 8 7 10 8 2 9 1 10 11 11 12 12 14 13
REMARK SMILES IDX 13 14
REMARK H PARENT
REMARK Flexibility Score: inf
ROOT
ATOM      1  C   UNL     1      29.140   3.386  30.863  1.00  0.00     0.127 C 
ATOM      2  C   UNL     1      30.413   3.807  31.628  1.00  0.00     0.061 C 
ENDROOT
BRANCH   1   3
ATOM      3  C   UNL     1      27.899   4.109  31.455  1.00  0.00     0.057 C 
BRANCH   3   4
ATOM      4  C   UNL     1      28.220   5.323  32.350  1.00  0.00     0.032 C 
BRANCH   4   5
ATOM      5  C   UNL     1      27.191   6.408  32.156  1.00  0.00    -0.028 C 
ATOM      6  C   UNL     1      26.261   8.683  32.215  1.00  0.00     0.039 C 
ATOM      7  C   UNL     1      27.366   7.701  32.508  1.00  0.00    -0.080 C 
ATOM      8  C   UNL     1      28.623   8.179  33.198  1.00  0.00     0.039 C 
ENDBRANCH   4   5
ENDBRANCH   3   4
ENDBRANCH   1   3
BRANCH   1   9
ATOM      9  C   UNL     1      28.958   1.876  30.933  1.00  0.00     0.013 C 
ATOM     10  C   UNL     1      27.750   1.306  30.990  1.00  0.00     0.008 C 
ENDBRANCH   1   9
BRANCH   1  11
ATOM     11  O   UNL     1      29.254   3.808  29.495  1.00  0.00    -0.455 OA
BRANCH  11  12
ATOM     12  C   UNL     1      29.675   3.006  28.423  1.00  0.00     0.303 C 
ATOM     13  O   UNL     1      30.852   2.558  28.364  1.00  0.00    -0.253 OA
ATOM     14  C   UNL     1      28.721   2.706  27.317  1.00  0.00     0.139 C 
ENDBRANCH  11  12
ENDBRANCH   1  11
TORSDOF 6
ENDMDL
MODEL 3
REMARK VINA RESULT:    -5.486      2.251      3.612
REMARK INTER + INTRA:          -7.974
REMARK INTER:                  -7.546
REMARK INTRA:                  -0.429
REMARK UNBOUND:                -0.564
REMARK SMILES C=C[C@](C)(CCC=C(C)C)OC(C)=O
REMARK SMILES IDX 3 1 4 2 5 3 6 4 7 5 9 6 8 7 10 8 2 9 1 10 11 11 12 12 14 13
REMARK SMILES IDX 13 14
REMARK H PARENT
REMARK Flexibility Score: inf
ROOT
ATOM      1  C   UNL     1      29.089   3.185  30.458  1.00  0.00     0.127 C 
ATOM      2  C   UNL     1      28.751   2.977  28.966  1.00  0.00     0.061 C 
ENDROOT
BRANCH   1   3
ATOM      3  C   UNL     1      27.911   3.899  31.176  1.00  0.00     0.057 C 
BRANCH   3   4
ATOM      4  C   UNL     1      28.325   5.046  32.119  1.00  0.00     0.032 C 
BRANCH   4   5
ATOM      5  C   UNL     1      27.265   6.120  32.141  1.00  0.00    -0.028 C 
ATOM      6  C   UNL     1      26.330   8.371  32.456  1.00  0.00     0.039 C 
ATOM      7  C   UNL     1      27.479   7.397  32.527  1.00  0.00    -0.080 C 
ATOM      8  C   UNL     1      28.822   7.866  33.038  1.00  0.00     0.039 C 
ENDBRANCH   4   5
ENDBRANCH   3   4
ENDBRANCH   1   3
BRANCH   1   9
ATOM      9  C   UNL     1      30.369   3.996  30.601  1.00  0.00     0.013 C 
ATOM     10  C   UNL     1      31.468   3.723  29.889  1.00  0.00     0.008 C 
ENDBRANCH   1   9
BRANCH   1  11
ATOM     11  O   UNL     1      29.242   1.903  31.087  1.00  0.00    -0.455 OA
BRANCH  11  12
ATOM     12  C   UNL     1      28.455   0.768  30.838  1.00  0.00     0.303 C 
ATOM     13  O   UNL     1      27.266   0.694  31.250  1.00  0.00    -0.253 OA
ATOM     14  C   UNL     1      29.047  -0.383  30.098  1.00  0.00     0.139 C 
ENDBRANCH  11  12
ENDBRANCH   1  11
TORSDOF 6
ENDMDL
MODEL 4
REMARK VINA RESULT:    -5.039      1.631      2.325
REMARK INTER + INTRA:          -7.371
REMARK INTER:                  -7.063
REMARK INTRA:                  -0.308
REMARK UNBOUND:                -0.564
REMARK SMILES C=C[C@](C)(CCC=C(C)C)OC(C)=O
REMARK SMILES IDX 3 1 4 2 5 3 6 4 7 5 9 6 8 7 10 8 2 9 1 10 11 11 12 12 14 13
REMARK SMILES IDX 13 14
REMARK H PARENT
REMARK Flexibility Score: inf
ROOT
ATOM      1  C   UNL     1      28.319   3.347  30.674  1.00  0.00     0.127 C 
ATOM      2  C   UNL     1      28.724   1.900  31.033  1.00  0.00     0.061 C 
ENDROOT
BRANCH   1   3
ATOM      3  C   UNL     1      28.070   4.167  31.969  1.00  0.00     0.057 C 
BRANCH   3   4
ATOM      4  C   UNL     1      27.339   5.508  31.759  1.00  0.00     0.032 C 
BRANCH   4   5
ATOM      5  C   UNL     1      27.984   6.596  32.580  1.00  0.00    -0.028 C 
ATOM      6  C   UNL     1      28.264   8.839  33.547  1.00  0.00     0.039 C 
ATOM      7  C   UNL     1      27.538   7.869  32.649  1.00  0.00    -0.080 C 
ATOM      8  C   UNL     1      26.352   8.347  31.842  1.00  0.00     0.039 C 
ENDBRANCH   4   5
ENDBRANCH   3   4
ENDBRANCH   1   3
BRANCH   1   9
ATOM      9  C   UNL     1      27.074   3.344  29.798  1.00  0.00     0.013 C 
ATOM     10  C   UNL     1      26.391   2.225  29.535  1.00  0.00     0.008 C 
ENDBRANCH   1   9
BRANCH   1  11
ATOM     11  O   UNL     1      29.408   3.980  29.983  1.00  0.00    -0.455 OA
BRANCH  11  12
ATOM     12  C   UNL     1      30.750   3.977  30.392  1.00  0.00     0.303 C 
ATOM     13  O   UNL     1      31.087   4.388  31.535  1.00  0.00    -0.253 OA
ATOM     14  C   UNL     1      31.801   3.508  29.444  1.00  0.00     0.139 C 
ENDBRANCH  11  12
ENDBRANCH   1  11
TORSDOF 6
ENDMDL
MODEL 5
REMARK VINA RESULT:    -4.599      2.282      3.476
REMARK INTER + INTRA:          -6.777
REMARK INTER:                  -6.190
REMARK INTRA:                  -0.587
REMARK UNBOUND:                -0.564
REMARK SMILES C=C[C@](C)(CCC=C(C)C)OC(C)=O
REMARK SMILES IDX 3 1 4 2 5 3 6 4 7 5 9 6 8 7 10 8 2 9 1 10 11 11 12 12 14 13
REMARK SMILES IDX 13 14
REMARK H PARENT
REMARK Flexibility Score: inf
ROOT
ATOM      1  C   UNL     1      27.921   2.167  30.370  1.00  0.00     0.127 C 
ATOM      2  C   UNL     1      27.189   0.843  30.682  1.00  0.00     0.061 C 
ENDROOT
BRANCH   1   3
ATOM      3  C   UNL     1      28.006   3.043  31.650  1.00  0.00     0.057 C 
BRANCH   3   4
ATOM      4  C   UNL     1      28.524   4.477  31.423  1.00  0.00     0.032 C 
BRANCH   4   5
ATOM      5  C   UNL     1      27.578   5.482  32.030  1.00  0.00    -0.028 C 
ATOM      6  C   UNL     1      26.880   7.613  33.037  1.00  0.00     0.039 C 
ATOM      7  C   UNL     1      27.947   6.697  32.494  1.00  0.00    -0.080 C 
ATOM      8  C   UNL     1      29.389   7.149  32.497  1.00  0.00     0.039 C 
ENDBRANCH   4   5
ENDBRANCH   3   4
ENDBRANCH   1   3
BRANCH   1   9
ATOM      9  C   UNL     1      27.200   2.919  29.258  1.00  0.00     0.013 C 
ATOM     10  C   UNL     1      25.891   2.768  29.030  1.00  0.00     0.008 C 
ENDBRANCH   1   9
BRANCH   1  11
ATOM     11  O   UNL     1      29.270   1.875  29.975  1.00  0.00    -0.455 OA
BRANCH  11  12
ATOM     12  C   UNL     1      29.799   2.031  28.684  1.00  0.00     0.303 C 
ATOM     13  O   UNL     1      30.361   3.104  28.332  1.00  0.00    -0.253 OA
ATOM     14  C   UNL     1      29.665   0.918  27.701  1.00  0.00     0.139 C 
ENDBRANCH  11  12
ENDBRANCH   1  11
TORSDOF 6
ENDMDL
MODEL 6
REMARK VINA RESULT:    -4.521     11.300     13.086
REMARK INTER + INTRA:          -6.671
REMARK INTER:                  -5.842
REMARK INTRA:                  -0.829
REMARK UNBOUND:                -0.564
REMARK SMILES C=C[C@](C)(CCC=C(C)C)OC(C)=O
REMARK SMILES IDX 3 1 4 2 5 3 6 4 7 5 9 6 8 7 10 8 2 9 1 10 11 11 12 12 14 13
REMARK SMILES IDX 13 14
REMARK H PARENT
REMARK Flexibility Score: inf
ROOT
ATOM      1  C   UNL     1      22.197   2.875  21.889  1.00  0.00     0.127 C 
ATOM      2  C   UNL     1      22.342   2.336  20.449  1.00  0.00     0.061 C 
ENDROOT
BRANCH   1   3
ATOM      3  C   UNL     1      20.904   3.725  22.012  1.00  0.00     0.057 C 
BRANCH   3   4
ATOM      4  C   UNL     1      20.203   4.040  20.675  1.00  0.00     0.032 C 
BRANCH   4   5
ATOM      5  C   UNL     1      20.333   5.506  20.344  1.00  0.00    -0.028 C 
ATOM      6  C   UNL     1      20.953   7.481  19.018  1.00  0.00     0.039 C 
ATOM      7  C   UNL     1      20.936   5.989  19.235  1.00  0.00    -0.080 C 
ATOM      8  C   UNL     1      21.604   5.082  18.226  1.00  0.00     0.039 C 
ENDBRANCH   4   5
ENDBRANCH   3   4
ENDBRANCH   1   3
BRANCH   1   9
ATOM      9  C   UNL     1      23.417   3.704  22.267  1.00  0.00     0.013 C 
ATOM     10  C   UNL     1      23.338   5.016  22.512  1.00  0.00     0.008 C 
ENDBRANCH   1   9
BRANCH   1  11
ATOM     11  O   UNL     1      22.054   1.767  22.792  1.00  0.00    -0.455 OA
BRANCH  11  12
ATOM     12  C   UNL     1      22.429   1.757  24.144  1.00  0.00     0.303 C 
ATOM     13  O   UNL     1      23.590   1.420  24.499  1.00  0.00    -0.253 OA
ATOM     14  C   UNL     1      21.424   2.125  25.182  1.00  0.00     0.139 C 
ENDBRANCH  11  12
ENDBRANCH   1  11
TORSDOF 6
ENDMDL
MODEL 7
REMARK VINA RESULT:    -4.486      6.325      9.493
REMARK INTER + INTRA:          -6.623
REMARK INTER:                  -6.149
REMARK INTRA:                  -0.474
REMARK UNBOUND:                -0.564
REMARK SMILES C=C[C@](C)(CCC=C(C)C)OC(C)=O
REMARK SMILES IDX 3 1 4 2 5 3 6 4 7 5 9 6 8 7 10 8 2 9 1 10 11 11 12 12 14 13
REMARK SMILES IDX 13 14
REMARK H PARENT
REMARK Flexibility Score: inf
ROOT
ATOM      1  C   UNL     1      27.820  13.208  36.189  1.00  0.00     0.127 C 
ATOM      2  C   UNL     1      26.393  13.458  36.726  1.00  0.00     0.061 C 
ENDROOT
BRANCH   1   3
ATOM      3  C   UNL     1      28.007  11.703  35.855  1.00  0.00     0.057 C 
BRANCH   3   4
ATOM      4  C   UNL     1      27.649  11.309  34.409  1.00  0.00     0.032 C 
BRANCH   4   5
ATOM      5  C   UNL     1      27.957   9.853  34.166  1.00  0.00    -0.028 C 
ATOM      6  C   UNL     1      28.003   7.722  32.942  1.00  0.00     0.039 C 
ATOM      7  C   UNL     1      27.587   9.166  33.063  1.00  0.00    -0.080 C 
ATOM      8  C   UNL     1      26.759   9.797  31.966  1.00  0.00     0.039 C 
ENDBRANCH   4   5
ENDBRANCH   3   4
ENDBRANCH   1   3
BRANCH   1   9
ATOM      9  C   UNL     1      28.854  13.659  37.212  1.00  0.00     0.013 C 
ATOM     10  C   UNL     1      29.713  12.805  37.779  1.00  0.00     0.008 C 
ENDBRANCH   1   9
BRANCH   1  11
ATOM     11  O   UNL     1      27.992  13.932  34.961  1.00  0.00    -0.455 OA
BRANCH  11  12
ATOM     12  C   UNL     1      27.367  15.144  34.629  1.00  0.00     0.303 C 
ATOM     13  O   UNL     1      27.633  16.208  35.250  1.00  0.00    -0.253 OA
ATOM     14  C   UNL     1      26.348  15.166  33.541  1.00  0.00     0.139 C 
ENDBRANCH  11  12
ENDBRANCH   1  11
TORSDOF 6
ENDMDL
MODEL 8
REMARK VINA RESULT:    -4.454     11.099     13.034
REMARK INTER + INTRA:          -6.580
REMARK INTER:                  -5.608
REMARK INTRA:                  -0.972
REMARK UNBOUND:                -0.564
REMARK SMILES C=C[C@](C)(CCC=C(C)C)OC(C)=O
REMARK SMILES IDX 3 1 4 2 5 3 6 4 7 5 9 6 8 7 10 8 2 9 1 10 11 11 12 12 14 13
REMARK SMILES IDX 13 14
REMARK H PARENT
REMARK Flexibility Score: inf
ROOT
ATOM      1  C   UNL     1      22.005   4.191  21.612  1.00  0.00     0.127 C 
ATOM      2  C   UNL     1      23.212   4.764  22.386  1.00  0.00     0.061 C 
ENDROOT
BRANCH   1   3
ATOM      3  C   UNL     1      20.896   3.749  22.606  1.00  0.00     0.057 C 
BRANCH   3   4
ATOM      4  C   UNL     1      21.272   3.870  24.096  1.00  0.00     0.032 C 
BRANCH   4   5
ATOM      5  C   UNL     1      20.995   2.576  24.818  1.00  0.00    -0.028 C 
ATOM      6  C   UNL     1      21.495   0.375  25.794  1.00  0.00     0.039 C 
ATOM      7  C   UNL     1      21.908   1.599  25.016  1.00  0.00    -0.080 C 
ATOM      8  C   UNL     1      23.314   1.693  24.468  1.00  0.00     0.039 C 
ENDBRANCH   4   5
ENDBRANCH   3   4
ENDBRANCH   1   3
BRANCH   1   9
ATOM      9  C   UNL     1      22.442   3.017  20.747  1.00  0.00     0.013 C 
ATOM     10  C   UNL     1      22.002   1.772  20.960  1.00  0.00     0.008 C 
ENDBRANCH   1   9
BRANCH   1  11
ATOM     11  O   UNL     1      21.439   5.226  20.793  1.00  0.00    -0.455 OA
BRANCH  11  12
ATOM     12  C   UNL     1      20.770   5.034  19.574  1.00  0.00     0.303 C 
ATOM     13  O   UNL     1      21.336   5.269  18.473  1.00  0.00    -0.253 OA
ATOM     14  C   UNL     1      19.353   4.570  19.586  1.00  0.00     0.139 C 
ENDBRANCH  11  12
ENDBRANCH   1  11
TORSDOF 6
ENDMDL
MODEL 9
REMARK VINA RESULT:    -4.379     12.198     14.028
REMARK INTER + INTRA:          -6.479
REMARK INTER:                  -5.792
REMARK INTRA:                  -0.687
REMARK UNBOUND:                -0.564
REMARK SMILES C=C[C@](C)(CCC=C(C)C)OC(C)=O
REMARK SMILES IDX 3 1 4 2 5 3 6 4 7 5 9 6 8 7 10 8 2 9 1 10 11 11 12 12 14 13
REMARK SMILES IDX 13 14
REMARK H PARENT
REMARK Flexibility Score: inf
ROOT
ATOM      1  C   UNL     1      21.315   3.451  19.784  1.00  0.00     0.127 C 
ATOM      2  C   UNL     1      22.636   2.720  20.107  1.00  0.00     0.061 C 
ENDROOT
BRANCH   1   3
ATOM      3  C   UNL     1      20.672   3.993  21.089  1.00  0.00     0.057 C 
BRANCH   3   4
ATOM      4  C   UNL     1      21.653   4.193  22.262  1.00  0.00     0.032 C 
BRANCH   4   5
ATOM      5  C   UNL     1      21.173   3.451  23.484  1.00  0.00    -0.028 C 
ATOM      6  C   UNL     1      21.280   1.855  25.351  1.00  0.00     0.039 C 
ATOM      7  C   UNL     1      21.872   2.480  24.113  1.00  0.00    -0.080 C 
ATOM      8  C   UNL     1      23.210   1.996  23.602  1.00  0.00     0.039 C 
ENDBRANCH   4   5
ENDBRANCH   3   4
ENDBRANCH   1   3
BRANCH   1   9
ATOM      9  C   UNL     1      20.354   2.511  19.068  1.00  0.00     0.013 C 
ATOM     10  C   UNL     1      19.041   2.504  19.324  1.00  0.00     0.008 C 
ENDBRANCH   1   9
BRANCH   1  11
ATOM     11  O   UNL     1      21.600   4.590  18.956  1.00  0.00    -0.455 OA
BRANCH  11  12
ATOM     12  C   UNL     1      20.870   5.789  18.932  1.00  0.00     0.303 C 
ATOM     13  O   UNL     1      19.688   5.826  18.498  1.00  0.00    -0.253 OA
ATOM     14  C   UNL     1      21.518   7.047  19.402  1.00  0.00     0.139 C 
ENDBRANCH  11  12
ENDBRANCH   1  11
TORSDOF 6
ENDMDL
