MODEL 1
REMARK VINA RESULT:    -5.053      0.000      0.000
REMARK INTER + INTRA:          -9.764
REMARK INTER:                  -8.894
REMARK INTRA:                  -0.871
REMARK UNBOUND:                -0.871
REMARK SMILES CCCCCCCCCCCCCCC(=O)[O-]
REMARK SMILES IDX 9 1 10 2 11 3 12 4 13 5 14 6 15 7 16 8 17 9 8 10 7 11 6 12
REMARK SMILES IDX 5 13 4 14 3 15 2 16 1 17
REMARK H PARENT
REMARK Flexibility Score: inf
ROOT
ATOM      1  C   UNL     1      28.604  -0.905  38.642  1.00  0.00     0.000 C 
ENDROOT
BRANCH   1   2
ATOM      2  C   UNL     1      28.540   0.531  39.185  1.00  0.00     0.000 C 
BRANCH   2   3
ATOM      3  C   UNL     1      29.384   1.516  38.360  1.00  0.00     0.000 C 
BRANCH   3   4
ATOM      4  C   UNL     1      30.632   0.854  37.751  1.00  0.00     0.000 C 
BRANCH   4   5
ATOM      5  C   UNL     1      31.941   1.314  38.417  1.00  0.00     0.006 C 
BRANCH   5   6
ATOM      6  C   UNL     1      31.922   1.243  39.955  1.00  0.00     0.053 C 
BRANCH   6   7
ATOM      7  C   UNL     1      31.826  -0.162  40.464  1.00  0.00     0.041 C 
ATOM      8  O   UNL     1      32.109  -1.131  39.710  1.00  0.00    -0.550 OA
ATOM      9  O   UNL     1      31.390  -0.408  41.761  1.00  0.00    -0.550 OA
ENDBRANCH   6   7
ENDBRANCH   5   6
ENDBRANCH   4   5
ENDBRANCH   3   4
ENDBRANCH   2   3
ENDBRANCH   1   2
BRANCH   1  10
ATOM     10  C   UNL     1      28.459  -1.927  39.776  1.00  0.00     0.000 C 
BRANCH  10  11
ATOM     11  C   UNL     1      27.972  -1.251  41.067  1.00  0.00    -0.000 C 
BRANCH  11  12
ATOM     12  C   UNL     1      28.512  -1.930  42.335  1.00  0.00    -0.000 C 
BRANCH  12  13
ATOM     13  C   UNL     1      28.441  -1.016  43.570  1.00  0.00    -0.000 C 
BRANCH  13  14
ATOM     14  C   UNL     1      28.555  -1.792  44.895  1.00  0.00    -0.000 C 
BRANCH  14  15
ATOM     15  C   UNL     1      29.994  -2.125  45.340  1.00  0.00    -0.000 C 
BRANCH  15  16
ATOM     16  C   UNL     1      30.554  -1.226  46.457  1.00  0.00    -0.003 C 
ATOM     17  C   UNL     1      30.477  -1.875  47.837  1.00  0.00     0.004 C 
ENDBRANCH  15  16
ENDBRANCH  14  15
ENDBRANCH  13  14
ENDBRANCH  12  13
ENDBRANCH  11  12
ENDBRANCH  10  11
ENDBRANCH   1  10
TORSDOF 13
ENDMDL
MODEL 2
REMARK VINA RESULT:    -4.755      3.148      6.942
REMARK INTER + INTRA:          -9.239
REMARK INTER:                  -8.300
REMARK INTRA:                  -0.939
REMARK UNBOUND:                -0.871
REMARK SMILES CCCCCCCCCCCCCCC(=O)[O-]
REMARK SMILES IDX 9 1 10 2 11 3 12 4 13 5 14 6 15 7 16 8 17 9 8 10 7 11 6 12
REMARK SMILES IDX 5 13 4 14 3 15 2 16 1 17
REMARK H PARENT
REMARK Flexibility Score: inf
ROOT
ATOM      1  C   UNL     1      28.013  -0.362  43.103  1.00  0.00     0.000 C 
ENDROOT
BRANCH   1   2
ATOM      2  C   UNL     1      28.494  -1.471  44.052  1.00  0.00     0.000 C 
BRANCH   2   3
ATOM      3  C   UNL     1      30.026  -1.595  44.093  1.00  0.00     0.000 C 
BRANCH   3   4
ATOM      4  C   UNL     1      30.626  -1.043  45.396  1.00  0.00     0.000 C 
BRANCH   4   5
ATOM      5  C   UNL     1      30.299  -1.912  46.624  1.00  0.00     0.006 C 
BRANCH   5   6
ATOM      6  C   UNL     1      29.889  -1.108  47.871  1.00  0.00     0.053 C 
BRANCH   6   7
ATOM      7  C   UNL     1      30.293  -1.780  49.147  1.00  0.00     0.041 C 
ATOM      8  O   UNL     1      31.497  -2.096  49.344  1.00  0.00    -0.550 OA
ATOM      9  O   UNL     1      29.338  -2.091  50.107  1.00  0.00    -0.550 OA
ENDBRANCH   6   7
ENDBRANCH   5   6
ENDBRANCH   4   5
ENDBRANCH   3   4
ENDBRANCH   2   3
ENDBRANCH   1   2
BRANCH   1  10
ATOM     10  C   UNL     1      28.776  -0.408  41.774  1.00  0.00     0.000 C 
BRANCH  10  11
ATOM     11  C   UNL     1      28.231  -1.522  40.865  1.00  0.00    -0.000 C 
BRANCH  11  12
ATOM     12  C   UNL     1      28.515  -1.266  39.377  1.00  0.00    -0.000 C 
BRANCH  12  13
ATOM     13  C   UNL     1      28.542   0.233  39.030  1.00  0.00    -0.000 C 
BRANCH  13  14
ATOM     14  C   UNL     1      29.793   0.638  38.229  1.00  0.00    -0.000 C 
BRANCH  14  15
ATOM     15  C   UNL     1      31.120   0.034  38.732  1.00  0.00    -0.000 C 
BRANCH  15  16
ATOM     16  C   UNL     1      31.602   0.565  40.094  1.00  0.00    -0.003 C 
ATOM     17  C   UNL     1      31.913   2.060  40.073  1.00  0.00     0.004 C 
ENDBRANCH  15  16
ENDBRANCH  14  15
ENDBRANCH  13  14
ENDBRANCH  12  13
ENDBRANCH  11  12
ENDBRANCH  10  11
ENDBRANCH   1  10
TORSDOF 13
ENDMDL
MODEL 3
REMARK VINA RESULT:    -4.721      1.668      2.662
REMARK INTER + INTRA:          -9.179
REMARK INTER:                  -9.039
REMARK INTRA:                  -0.140
REMARK UNBOUND:                -0.871
REMARK SMILES CCCCCCCCCCCCCCC(=O)[O-]
REMARK SMILES IDX 9 1 10 2 11 3 12 4 13 5 14 6 15 7 16 8 17 9 8 10 7 11 6 12
REMARK SMILES IDX 5 13 4 14 3 15 2 16 1 17
REMARK H PARENT
REMARK Flexibility Score: inf
ROOT
ATOM      1  C   UNL     1      30.366  -0.502  41.640  1.00  0.00     0.000 C 
ENDROOT
BRANCH   1   2
ATOM      2  C   UNL     1      31.806  -0.846  41.225  1.00  0.00     0.000 C 
BRANCH   2   3
ATOM      3  C   UNL     1      32.100  -0.497  39.757  1.00  0.00     0.000 C 
BRANCH   3   4
ATOM      4  C   UNL     1      31.614   0.911  39.377  1.00  0.00     0.000 C 
BRANCH   4   5
ATOM      5  C   UNL     1      31.621   1.161  37.858  1.00  0.00     0.006 C 
BRANCH   5   6
ATOM      6  C   UNL     1      30.275   0.874  37.169  1.00  0.00     0.053 C 
BRANCH   6   7
ATOM      7  C   UNL     1      29.158   0.677  38.148  1.00  0.00     0.041 C 
ATOM      8  O   UNL     1      28.603   1.672  38.685  1.00  0.00    -0.550 OA
ATOM      9  O   UNL     1      28.751  -0.605  38.496  1.00  0.00    -0.550 OA
ENDBRANCH   6   7
ENDBRANCH   5   6
ENDBRANCH   4   5
ENDBRANCH   3   4
ENDBRANCH   2   3
ENDBRANCH   1   2
BRANCH   1  10
ATOM     10  C   UNL     1      29.365  -1.471  40.999  1.00  0.00     0.000 C 
BRANCH  10  11
ATOM     11  C   UNL     1      28.116  -1.631  41.879  1.00  0.00    -0.000 C 
BRANCH  11  12
ATOM     12  C   UNL     1      28.169  -0.768  43.149  1.00  0.00    -0.000 C 
BRANCH  12  13
ATOM     13  C   UNL     1      28.406  -1.603  44.420  1.00  0.00    -0.000 C 
BRANCH  13  14
ATOM     14  C   UNL     1      29.894  -1.917  44.659  1.00  0.00    -0.000 C 
BRANCH  14  15
ATOM     15  C   UNL     1      30.595  -1.026  45.706  1.00  0.00    -0.000 C 
BRANCH  15  16
ATOM     16  C   UNL     1      30.997  -1.744  47.007  1.00  0.00    -0.003 C 
ATOM     17  C   UNL     1      29.797  -2.122  47.873  1.00  0.00     0.004 C 
ENDBRANCH  15  16
ENDBRANCH  14  15
ENDBRANCH  13  14
ENDBRANCH  12  13
ENDBRANCH  11  12
ENDBRANCH  10  11
ENDBRANCH   1  10
TORSDOF 13
ENDMDL
MODEL 4
REMARK VINA RESULT:    -4.196      2.186      5.304
REMARK INTER + INTRA:          -8.255
REMARK INTER:                  -7.593
REMARK INTRA:                  -0.662
REMARK UNBOUND:                -0.871
REMARK SMILES CCCCCCCCCCCCCCC(=O)[O-]
REMARK SMILES IDX 9 1 10 2 11 3 12 4 13 5 14 6 15 7 16 8 17 9 8 10 7 11 6 12
REMARK SMILES IDX 5 13 4 14 3 15 2 16 1 17
REMARK H PARENT
REMARK Flexibility Score: inf
ROOT
ATOM      1  C   UNL     1      32.125   1.679  40.031  1.00  0.00     0.000 C 
ENDROOT
BRANCH   1   2
ATOM      2  C   UNL     1      31.415   0.913  41.160  1.00  0.00     0.000 C 
BRANCH   2   3
ATOM      3  C   UNL     1      31.836  -0.564  41.232  1.00  0.00     0.000 C 
BRANCH   3   4
ATOM      4  C   UNL     1      30.991  -1.369  42.233  1.00  0.00     0.000 C 
BRANCH   4   5
ATOM      5  C   UNL     1      30.428  -0.503  43.376  1.00  0.00     0.006 C 
BRANCH   5   6
ATOM      6  C   UNL     1      30.999  -0.848  44.763  1.00  0.00     0.053 C 
BRANCH   6   7
ATOM      7  C   UNL     1      30.010  -1.567  45.629  1.00  0.00     0.041 C 
ATOM      8  O   UNL     1      30.285  -1.816  46.833  1.00  0.00    -0.550 OA
ATOM      9  O   UNL     1      28.799  -1.996  45.100  1.00  0.00    -0.550 OA
ENDBRANCH   6   7
ENDBRANCH   5   6
ENDBRANCH   4   5
ENDBRANCH   3   4
ENDBRANCH   2   3
ENDBRANCH   1   2
BRANCH   1  10
ATOM     10  C   UNL     1      31.156   1.985  38.883  1.00  0.00     0.000 C 
BRANCH  10  11
ATOM     11  C   UNL     1      31.114   0.825  37.875  1.00  0.00    -0.000 C 
BRANCH  11  12
ATOM     12  C   UNL     1      29.683   0.453  37.456  1.00  0.00    -0.000 C 
BRANCH  12  13
ATOM     13  C   UNL     1      28.721   0.370  38.654  1.00  0.00    -0.000 C 
BRANCH  13  14
ATOM     14  C   UNL     1      28.766  -0.995  39.364  1.00  0.00    -0.000 C 
BRANCH  14  15
ATOM     15  C   UNL     1      27.594  -1.274  40.327  1.00  0.00    -0.000 C 
BRANCH  15  16
ATOM     16  C   UNL     1      27.976  -1.332  41.817  1.00  0.00    -0.003 C 
ATOM     17  C   UNL     1      27.139  -0.392  42.682  1.00  0.00     0.004 C 
ENDBRANCH  15  16
ENDBRANCH  14  15
ENDBRANCH  13  14
ENDBRANCH  12  13
ENDBRANCH  11  12
ENDBRANCH  10  11
ENDBRANCH   1  10
TORSDOF 13
ENDMDL
MODEL 5
REMARK VINA RESULT:    -3.395     16.869     18.129
REMARK INTER + INTRA:          -6.846
REMARK INTER:                  -5.413
REMARK INTRA:                  -1.433
REMARK UNBOUND:                -0.871
REMARK SMILES CCCCCCCCCCCCCCC(=O)[O-]
REMARK SMILES IDX 9 1 10 2 11 3 12 4 13 5 14 6 15 7 16 8 17 9 8 10 7 11 6 12
REMARK SMILES IDX 5 13 4 14 3 15 2 16 1 17
REMARK H PARENT
REMARK Flexibility Score: inf
ROOT
ATOM      1  C   UNL     1      27.988  16.251  48.237  1.00  0.00     0.000 C 
ENDROOT
BRANCH   1   2
ATOM      2  C   UNL     1      26.582  16.872  48.185  1.00  0.00     0.000 C 
BRANCH   2   3
ATOM      3  C   UNL     1      26.029  17.204  49.581  1.00  0.00     0.000 C 
BRANCH   3   4
ATOM      4  C   UNL     1      24.661  16.552  49.842  1.00  0.00     0.000 C 
BRANCH   4   5
ATOM      5  C   UNL     1      24.374  15.364  48.906  1.00  0.00     0.006 C 
BRANCH   5   6
ATOM      6  C   UNL     1      24.184  14.022  49.636  1.00  0.00     0.053 C 
BRANCH   6   7
ATOM      7  C   UNL     1      25.098  12.952  49.121  1.00  0.00     0.041 C 
ATOM      8  O   UNL     1      26.136  13.261  48.478  1.00  0.00    -0.550 OA
ATOM      9  O   UNL     1      24.789  11.612  49.320  1.00  0.00    -0.550 OA
ENDBRANCH   6   7
ENDBRANCH   5   6
ENDBRANCH   4   5
ENDBRANCH   3   4
ENDBRANCH   2   3
ENDBRANCH   1   2
BRANCH   1  10
ATOM     10  C   UNL     1      28.831  16.703  47.038  1.00  0.00     0.000 C 
BRANCH  10  11
ATOM     11  C   UNL     1      30.145  17.350  47.503  1.00  0.00    -0.000 C 
BRANCH  11  12
ATOM     12  C   UNL     1      30.514  16.974  48.946  1.00  0.00    -0.000 C 
BRANCH  12  13
ATOM     13  C   UNL     1      31.740  16.047  49.019  1.00  0.00    -0.000 C 
BRANCH  13  14
ATOM     14  C   UNL     1      31.371  14.594  49.366  1.00  0.00    -0.000 C 
BRANCH  14  15
ATOM     15  C   UNL     1      31.680  13.556  48.267  1.00  0.00    -0.000 C 
BRANCH  15  16
ATOM     16  C   UNL     1      30.573  12.513  48.027  1.00  0.00    -0.003 C 
ATOM     17  C   UNL     1      29.410  13.059  47.202  1.00  0.00     0.004 C 
ENDBRANCH  15  16
ENDBRANCH  14  15
ENDBRANCH  13  14
ENDBRANCH  12  13
ENDBRANCH  11  12
ENDBRANCH  10  11
ENDBRANCH   1  10
TORSDOF 13
ENDMDL
MODEL 6
REMARK VINA RESULT:    -3.321      1.700      5.288
REMARK INTER + INTRA:          -6.715
REMARK INTER:                  -7.408
REMARK INTRA:                   0.693
REMARK UNBOUND:                -0.871
REMARK SMILES CCCCCCCCCCCCCCC(=O)[O-]
REMARK SMILES IDX 9 1 10 2 11 3 12 4 13 5 14 6 15 7 16 8 17 9 8 10 7 11 6 12
REMARK SMILES IDX 5 13 4 14 3 15 2 16 1 17
REMARK H PARENT
REMARK Flexibility Score: inf
ROOT
ATOM      1  C   UNL     1      28.764   0.464  39.178  1.00  0.00     0.000 C 
ENDROOT
BRANCH   1   2
ATOM      2  C   UNL     1      28.367  -1.021  39.184  1.00  0.00     0.000 C 
BRANCH   2   3
ATOM      3  C   UNL     1      28.397  -1.638  40.593  1.00  0.00     0.000 C 
BRANCH   3   4
ATOM      4  C   UNL     1      28.822  -0.625  41.669  1.00  0.00     0.000 C 
BRANCH   4   5
ATOM      5  C   UNL     1      27.941  -0.682  42.930  1.00  0.00     0.006 C 
BRANCH   5   6
ATOM      6  C   UNL     1      28.493  -1.597  44.039  1.00  0.00     0.053 C 
BRANCH   6   7
ATOM      7  C   UNL     1      29.812  -1.125  44.570  1.00  0.00     0.041 C 
ATOM      8  O   UNL     1      30.685  -0.668  43.785  1.00  0.00    -0.550 OA
ATOM      9  O   UNL     1      30.096  -1.224  45.927  1.00  0.00    -0.550 OA
ENDBRANCH   6   7
ENDBRANCH   5   6
ENDBRANCH   4   5
ENDBRANCH   3   4
ENDBRANCH   2   3
ENDBRANCH   1   2
BRANCH   1  10
ATOM     10  C   UNL     1      29.293   0.884  37.801  1.00  0.00     0.000 C 
BRANCH  10  11
ATOM     11  C   UNL     1      30.684   0.285  37.541  1.00  0.00    -0.000 C 
BRANCH  11  12
ATOM     12  C   UNL     1      31.824   1.249  37.904  1.00  0.00    -0.000 C 
BRANCH  12  13
ATOM     13  C   UNL     1      31.312   2.556  38.536  1.00  0.00    -0.000 C 
BRANCH  13  14
ATOM     14  C   UNL     1      31.129   2.451  40.061  1.00  0.00    -0.000 C 
BRANCH  14  15
ATOM     15  C   UNL     1      32.121   1.514  40.779  1.00  0.00    -0.000 C 
BRANCH  15  16
ATOM     16  C   UNL     1      31.534   0.161  41.220  1.00  0.00    -0.003 C 
ATOM     17  C   UNL     1      32.106  -1.019  40.437  1.00  0.00     0.004 C 
ENDBRANCH  15  16
ENDBRANCH  14  15
ENDBRANCH  13  14
ENDBRANCH  12  13
ENDBRANCH  11  12
ENDBRANCH  10  11
ENDBRANCH   1  10
TORSDOF 13
ENDMDL
