MODEL 1
REMARK VINA RESULT:    -4.640      0.000      0.000
REMARK INTER + INTRA:          -8.757
REMARK INTER:                  -7.894
REMARK INTRA:                  -0.863
REMARK UNBOUND:                -0.863
REMARK SMILES CCCCCCCCCCCCCC(=O)[O-]
REMARK SMILES IDX 8 1 9 2 10 3 11 4 12 5 13 6 14 7 15 8 16 9 7 10 6 11 5 12
REMARK SMILES IDX 4 13 3 14 2 15 1 16
REMARK H PARENT
REMARK Flexibility Score: inf
ROOT
ATOM      1  C   UNL     1      -0.995   1.502   5.431  1.00  0.00     0.000 C 
ENDROOT
BRANCH   1   2
ATOM      2  C   UNL     1      -2.023   0.541   6.057  1.00  0.00     0.000 C 
BRANCH   2   3
ATOM      3  C   UNL     1      -1.825   0.253   7.557  1.00  0.00     0.000 C 
BRANCH   3   4
ATOM      4  C   UNL     1      -1.681  -1.244   7.867  1.00  0.00     0.000 C 
BRANCH   4   5
ATOM      5  C   UNL     1      -0.218  -1.603   8.171  1.00  0.00     0.006 C 
BRANCH   5   6
ATOM      6  C   UNL     1      -0.087  -2.514   9.398  1.00  0.00     0.053 C 
BRANCH   6   7
ATOM      7  C   UNL     1       1.341  -2.866   9.678  1.00  0.00     0.041 C 
ATOM      8  O   UNL     1       2.221  -1.966   9.718  1.00  0.00    -0.550 OA
ATOM      9  O   UNL     1       1.707  -4.193   9.864  1.00  0.00    -0.550 OA
ENDBRANCH   6   7
ENDBRANCH   5   6
ENDBRANCH   4   5
ENDBRANCH   3   4
ENDBRANCH   2   3
ENDBRANCH   1   2
BRANCH   1  10
ATOM     10  C   UNL     1       0.460   1.091   5.713  1.00  0.00     0.000 C 
BRANCH  10  11
ATOM     11  C   UNL     1       1.266   2.190   6.431  1.00  0.00    -0.000 C 
BRANCH  11  12
ATOM     12  C   UNL     1       0.716   2.613   7.805  1.00  0.00    -0.000 C 
BRANCH  12  13
ATOM     13  C   UNL     1       1.437   3.844   8.386  1.00  0.00    -0.000 C 
BRANCH  13  14
ATOM     14  C   UNL     1       2.499   4.410   7.431  1.00  0.00    -0.000 C 
BRANCH  14  15
ATOM     15  C   UNL     1       3.132   5.707   7.957  1.00  0.00    -0.003 C 
ATOM     16  C   UNL     1       4.052   5.428   9.142  1.00  0.00     0.004 C 
ENDBRANCH  14  15
ENDBRANCH  13  14
ENDBRANCH  12  13
ENDBRANCH  11  12
ENDBRANCH  10  11
ENDBRANCH   1  10
TORSDOF 12
ENDMDL
MODEL 2
REMARK VINA RESULT:    -4.606     16.308     18.421
REMARK INTER + INTRA:          -8.700
REMARK INTER:                  -7.900
REMARK INTRA:                  -0.800
REMARK UNBOUND:                -0.863
REMARK SMILES CCCCCCCCCCCCCC(=O)[O-]
REMARK SMILES IDX 8 1 9 2 10 3 11 4 12 5 13 6 14 7 15 8 16 9 7 10 6 11 5 12
REMARK SMILES IDX 4 13 3 14 2 15 1 16
REMARK H PARENT
REMARK Flexibility Score: inf
ROOT
ATOM      1  C   UNL     1      -6.423  -7.152  -6.351  1.00  0.00     0.000 C 
ENDROOT
BRANCH   1   2
ATOM      2  C   UNL     1      -5.582  -6.426  -7.418  1.00  0.00     0.000 C 
BRANCH   2   3
ATOM      3  C   UNL     1      -6.163  -6.451  -8.843  1.00  0.00     0.000 C 
BRANCH   3   4
ATOM      4  C   UNL     1      -6.841  -5.132  -9.240  1.00  0.00     0.000 C 
BRANCH   4   5
ATOM      5  C   UNL     1      -6.349  -3.975  -8.357  1.00  0.00     0.006 C 
BRANCH   5   6
ATOM      6  C   UNL     1      -6.159  -2.678  -9.155  1.00  0.00     0.053 C 
BRANCH   6   7
ATOM      7  C   UNL     1      -5.528  -1.603  -8.324  1.00  0.00     0.041 C 
ATOM      8  O   UNL     1      -4.349  -1.228  -8.558  1.00  0.00    -0.550 OA
ATOM      9  O   UNL     1      -6.232  -1.038  -7.268  1.00  0.00    -0.550 OA
ENDBRANCH   6   7
ENDBRANCH   5   6
ENDBRANCH   4   5
ENDBRANCH   3   4
ENDBRANCH   2   3
ENDBRANCH   1   2
BRANCH   1  10
ATOM     10  C   UNL     1      -7.687  -6.372  -5.951  1.00  0.00     0.000 C 
BRANCH  10  11
ATOM     11  C   UNL     1      -7.980  -6.438  -4.440  1.00  0.00    -0.000 C 
BRANCH  11  12
ATOM     12  C   UNL     1      -8.914  -7.581  -4.004  1.00  0.00    -0.000 C 
BRANCH  12  13
ATOM     13  C   UNL     1      -8.177  -8.703  -3.251  1.00  0.00    -0.000 C 
BRANCH  13  14
ATOM     14  C   UNL     1      -6.775  -8.279  -2.784  1.00  0.00    -0.000 C 
BRANCH  14  15
ATOM     15  C   UNL     1      -6.325  -9.024  -1.519  1.00  0.00    -0.003 C 
ATOM     16  C   UNL     1      -7.523  -9.564  -0.743  1.00  0.00     0.004 C 
ENDBRANCH  14  15
ENDBRANCH  13  14
ENDBRANCH  12  13
ENDBRANCH  11  12
ENDBRANCH  10  11
ENDBRANCH   1  10
TORSDOF 12
ENDMDL
MODEL 3
REMARK VINA RESULT:    -4.588      2.998      5.630
REMARK INTER + INTRA:          -8.669
REMARK INTER:                  -7.025
REMARK INTRA:                  -1.644
REMARK UNBOUND:                -0.863
REMARK SMILES CCCCCCCCCCCCCC(=O)[O-]
REMARK SMILES IDX 8 1 9 2 10 3 11 4 12 5 13 6 14 7 15 8 16 9 7 10 6 11 5 12
REMARK SMILES IDX 4 13 3 14 2 15 1 16
REMARK H PARENT
REMARK Flexibility Score: inf
ROOT
ATOM      1  C   UNL     1      -2.523  -0.853   8.898  1.00  0.00     0.000 C 
ENDROOT
BRANCH   1   2
ATOM      2  C   UNL     1      -1.779   0.348   9.509  1.00  0.00     0.000 C 
BRANCH   2   3
ATOM      3  C   UNL     1      -2.301   1.732   9.082  1.00  0.00     0.000 C 
BRANCH   3   4
ATOM      4  C   UNL     1      -1.327   2.871   9.414  1.00  0.00     0.000 C 
BRANCH   4   5
ATOM      5  C   UNL     1       0.064   2.594   8.824  1.00  0.00     0.006 C 
BRANCH   5   6
ATOM      6  C   UNL     1       1.042   3.749   9.076  1.00  0.00     0.053 C 
BRANCH   6   7
ATOM      7  C   UNL     1       1.862   4.057   7.862  1.00  0.00     0.041 C 
ATOM      8  O   UNL     1       1.524   3.605   6.735  1.00  0.00    -0.550 OA
ATOM      9  O   UNL     1       3.019   4.817   7.978  1.00  0.00    -0.550 OA
ENDBRANCH   6   7
ENDBRANCH   5   6
ENDBRANCH   4   5
ENDBRANCH   3   4
ENDBRANCH   2   3
ENDBRANCH   1   2
BRANCH   1  10
ATOM     10  C   UNL     1      -1.576  -1.961   8.410  1.00  0.00     0.000 C 
BRANCH  10  11
ATOM     11  C   UNL     1      -0.103  -1.513   8.359  1.00  0.00    -0.000 C 
BRANCH  11  12
ATOM     12  C   UNL     1       0.450  -1.241   6.947  1.00  0.00    -0.000 C 
BRANCH  12  13
ATOM     13  C   UNL     1       0.593   0.260   6.639  1.00  0.00    -0.000 C 
BRANCH  13  14
ATOM     14  C   UNL     1       0.216   0.604   5.189  1.00  0.00    -0.000 C 
BRANCH  14  15
ATOM     15  C   UNL     1      -1.002   1.534   5.103  1.00  0.00    -0.003 C 
ATOM     16  C   UNL     1      -2.275   0.816   5.543  1.00  0.00     0.004 C 
ENDBRANCH  14  15
ENDBRANCH  13  14
ENDBRANCH  12  13
ENDBRANCH  11  12
ENDBRANCH  10  11
ENDBRANCH   1  10
TORSDOF 12
ENDMDL
MODEL 4
REMARK VINA RESULT:    -4.479      3.121      4.646
REMARK INTER + INTRA:          -8.484
REMARK INTER:                  -7.078
REMARK INTRA:                  -1.406
REMARK UNBOUND:                -0.863
REMARK SMILES CCCCCCCCCCCCCC(=O)[O-]
REMARK SMILES IDX 8 1 9 2 10 3 11 4 12 5 13 6 14 7 15 8 16 9 7 10 6 11 5 12
REMARK SMILES IDX 4 13 3 14 2 15 1 16
REMARK H PARENT
REMARK Flexibility Score: inf
ROOT
ATOM      1  C   UNL     1      -2.606  -1.178   8.793  1.00  0.00     0.000 C 
ENDROOT
BRANCH   1   2
ATOM      2  C   UNL     1      -1.518  -1.943   8.016  1.00  0.00     0.000 C 
BRANCH   2   3
ATOM      3  C   UNL     1      -0.071  -1.504   8.307  1.00  0.00     0.000 C 
BRANCH   3   4
ATOM      4  C   UNL     1       0.706  -1.117   7.040  1.00  0.00     0.000 C 
BRANCH   4   5
ATOM      5  C   UNL     1      -0.148  -0.228   6.123  1.00  0.00     0.006 C 
BRANCH   5   6
ATOM      6  C   UNL     1       0.655   0.319   4.935  1.00  0.00     0.053 C 
BRANCH   6   7
ATOM      7  C   UNL     1       0.120   1.635   4.463  1.00  0.00     0.041 C 
ATOM      8  O   UNL     1      -0.992   2.056   4.880  1.00  0.00    -0.550 OA
ATOM      9  O   UNL     1       0.834   2.384   3.536  1.00  0.00    -0.550 OA
ENDBRANCH   6   7
ENDBRANCH   5   6
ENDBRANCH   4   5
ENDBRANCH   3   4
ENDBRANCH   2   3
ENDBRANCH   1   2
BRANCH   1  10
ATOM     10  C   UNL     1      -2.033  -0.079   9.702  1.00  0.00     0.000 C 
BRANCH  10  11
ATOM     11  C   UNL     1      -2.127   1.326   9.078  1.00  0.00    -0.000 C 
BRANCH  11  12
ATOM     12  C   UNL     1      -1.673   2.480   9.991  1.00  0.00    -0.000 C 
BRANCH  12  13
ATOM     13  C   UNL     1      -0.397   3.177   9.485  1.00  0.00    -0.000 C 
BRANCH  13  14
ATOM     14  C   UNL     1       0.233   2.455   8.284  1.00  0.00    -0.000 C 
BRANCH  14  15
ATOM     15  C   UNL     1       1.317   3.296   7.593  1.00  0.00    -0.003 C 
ATOM     16  C   UNL     1       1.894   4.340   8.546  1.00  0.00     0.004 C 
ENDBRANCH  14  15
ENDBRANCH  13  14
ENDBRANCH  12  13
ENDBRANCH  11  12
ENDBRANCH  10  11
ENDBRANCH   1  10
TORSDOF 12
ENDMDL
MODEL 5
REMARK VINA RESULT:    -4.428      1.860      2.727
REMARK INTER + INTRA:          -8.398
REMARK INTER:                  -6.876
REMARK INTRA:                  -1.522
REMARK UNBOUND:                -0.863
REMARK SMILES CCCCCCCCCCCCCC(=O)[O-]
REMARK SMILES IDX 8 1 9 2 10 3 11 4 12 5 13 6 14 7 15 8 16 9 7 10 6 11 5 12
REMARK SMILES IDX 4 13 3 14 2 15 1 16
REMARK H PARENT
REMARK Flexibility Score: inf
ROOT
ATOM      1  C   UNL     1      -2.362   0.713   6.046  1.00  0.00     0.000 C 
ENDROOT
BRANCH   1   2
ATOM      2  C   UNL     1      -2.028  -0.397   7.060  1.00  0.00     0.000 C 
BRANCH   2   3
ATOM      3  C   UNL     1      -2.615  -0.198   8.470  1.00  0.00     0.000 C 
BRANCH   3   4
ATOM      4  C   UNL     1      -1.976  -1.117   9.521  1.00  0.00     0.000 C 
BRANCH   4   5
ATOM      5  C   UNL     1      -0.726  -1.810   8.958  1.00  0.00     0.006 C 
BRANCH   5   6
ATOM      6  C   UNL     1      -0.171  -2.873   9.915  1.00  0.00     0.053 C 
BRANCH   6   7
ATOM      7  C   UNL     1       1.307  -3.048   9.754  1.00  0.00     0.041 C 
ATOM      8  O   UNL     1       1.837  -4.176   9.938  1.00  0.00    -0.550 OA
ATOM      9  O   UNL     1       2.105  -1.958   9.432  1.00  0.00    -0.550 OA
ENDBRANCH   6   7
ENDBRANCH   5   6
ENDBRANCH   4   5
ENDBRANCH   3   4
ENDBRANCH   2   3
ENDBRANCH   1   2
BRANCH   1  10
ATOM     10  C   UNL     1      -1.114   1.440   5.520  1.00  0.00     0.000 C 
BRANCH  10  11
ATOM     11  C   UNL     1       0.200   0.855   6.073  1.00  0.00    -0.000 C 
BRANCH  11  12
ATOM     12  C   UNL     1       0.910   1.723   7.128  1.00  0.00    -0.000 C 
BRANCH  12  13
ATOM     13  C   UNL     1      -0.016   2.780   7.756  1.00  0.00    -0.000 C 
BRANCH  13  14
ATOM     14  C   UNL     1       0.249   2.981   9.256  1.00  0.00    -0.000 C 
BRANCH  14  15
ATOM     15  C   UNL     1      -0.953   2.584  10.125  1.00  0.00    -0.003 C 
ATOM     16  C   UNL     1      -2.265   3.028   9.484  1.00  0.00     0.004 C 
ENDBRANCH  14  15
ENDBRANCH  13  14
ENDBRANCH  12  13
ENDBRANCH  11  12
ENDBRANCH  10  11
ENDBRANCH   1  10
TORSDOF 12
ENDMDL
MODEL 6
REMARK VINA RESULT:    -4.369      1.684      3.378
REMARK INTER + INTRA:          -8.297
REMARK INTER:                  -6.928
REMARK INTRA:                  -1.369
REMARK UNBOUND:                -0.863
REMARK SMILES CCCCCCCCCCCCCC(=O)[O-]
REMARK SMILES IDX 8 1 9 2 10 3 11 4 12 5 13 6 14 7 15 8 16 9 7 10 6 11 5 12
REMARK SMILES IDX 4 13 3 14 2 15 1 16
REMARK H PARENT
REMARK Flexibility Score: inf
ROOT
ATOM      1  C   UNL     1      -2.130   1.863   9.114  1.00  0.00     0.000 C 
ENDROOT
BRANCH   1   2
ATOM      2  C   UNL     1      -2.248   0.335   9.267  1.00  0.00     0.000 C 
BRANCH   2   3
ATOM      3  C   UNL     1      -2.314  -0.455   7.947  1.00  0.00     0.000 C 
BRANCH   3   4
ATOM      4  C   UNL     1      -1.480  -1.743   7.975  1.00  0.00     0.000 C 
BRANCH   4   5
ATOM      5  C   UNL     1      -0.453  -1.708   9.118  1.00  0.00     0.006 C 
BRANCH   5   6
ATOM      6  C   UNL     1      -0.172  -3.104   9.689  1.00  0.00     0.053 C 
BRANCH   6   7
ATOM      7  C   UNL     1       1.295  -3.346   9.867  1.00  0.00     0.041 C 
ATOM      8  O   UNL     1       1.739  -4.521   9.959  1.00  0.00    -0.550 OA
ATOM      9  O   UNL     1       2.170  -2.271   9.965  1.00  0.00    -0.550 OA
ENDBRANCH   6   7
ENDBRANCH   5   6
ENDBRANCH   4   5
ENDBRANCH   3   4
ENDBRANCH   2   3
ENDBRANCH   1   2
BRANCH   1  10
ATOM     10  C   UNL     1      -0.961   2.457   9.918  1.00  0.00     0.000 C 
BRANCH  10  11
ATOM     11  C   UNL     1      -0.170   3.520   9.131  1.00  0.00    -0.000 C 
BRANCH  11  12
ATOM     12  C   UNL     1       1.060   2.990   8.371  1.00  0.00    -0.000 C 
BRANCH  12  13
ATOM     13  C   UNL     1       0.725   2.522   6.943  1.00  0.00    -0.000 C 
BRANCH  13  14
ATOM     14  C   UNL     1       0.722   0.992   6.809  1.00  0.00    -0.000 C 
BRANCH  14  15
ATOM     15  C   UNL     1       0.340   0.525   5.396  1.00  0.00    -0.003 C 
ATOM     16  C   UNL     1       0.479   1.661   4.386  1.00  0.00     0.004 C 
ENDBRANCH  14  15
ENDBRANCH  13  14
ENDBRANCH  12  13
ENDBRANCH  11  12
ENDBRANCH  10  11
ENDBRANCH   1  10
TORSDOF 12
ENDMDL
MODEL 7
REMARK VINA RESULT:    -4.326      3.213      4.359
REMARK INTER + INTRA:          -8.223
REMARK INTER:                  -6.981
REMARK INTRA:                  -1.242
REMARK UNBOUND:                -0.863
REMARK SMILES CCCCCCCCCCCCCC(=O)[O-]
REMARK SMILES IDX 8 1 9 2 10 3 11 4 12 5 13 6 14 7 15 8 16 9 7 10 6 11 5 12
REMARK SMILES IDX 4 13 3 14 2 15 1 16
REMARK H PARENT
REMARK Flexibility Score: inf
ROOT
ATOM      1  C   UNL     1      -1.664   1.321   7.911  1.00  0.00     0.000 C 
ENDROOT
BRANCH   1   2
ATOM      2  C   UNL     1      -1.476  -0.139   8.363  1.00  0.00     0.000 C 
BRANCH   2   3
ATOM      3  C   UNL     1      -0.815  -1.067   7.327  1.00  0.00     0.000 C 
BRANCH   3   4
ATOM      4  C   UNL     1       0.557  -0.563   6.858  1.00  0.00     0.000 C 
BRANCH   4   5
ATOM      5  C   UNL     1       0.562  -0.314   5.342  1.00  0.00     0.006 C 
BRANCH   5   6
ATOM      6  C   UNL     1       1.212   1.027   4.976  1.00  0.00     0.053 C 
BRANCH   6   7
ATOM      7  C   UNL     1       0.235   1.957   4.326  1.00  0.00     0.041 C 
ATOM      8  O   UNL     1      -0.962   1.997   4.717  1.00  0.00    -0.550 OA
ATOM      9  O   UNL     1       0.638   2.758   3.265  1.00  0.00    -0.550 OA
ENDBRANCH   6   7
ENDBRANCH   5   6
ENDBRANCH   4   5
ENDBRANCH   3   4
ENDBRANCH   2   3
ENDBRANCH   1   2
BRANCH   1  10
ATOM     10  C   UNL     1      -1.609   2.321   9.078  1.00  0.00     0.000 C 
BRANCH  10  11
ATOM     11  C   UNL     1      -0.198   2.895   9.311  1.00  0.00    -0.000 C 
BRANCH  11  12
ATOM     12  C   UNL     1       0.717   2.904   8.074  1.00  0.00    -0.000 C 
BRANCH  12  13
ATOM     13  C   UNL     1       1.823   3.972   8.155  1.00  0.00    -0.000 C 
BRANCH  13  14
ATOM     14  C   UNL     1       1.742   4.808   9.441  1.00  0.00    -0.000 C 
BRANCH  14  15
ATOM     15  C   UNL     1       2.037   6.296   9.196  1.00  0.00    -0.003 C 
ATOM     16  C   UNL     1       2.717   6.506   7.846  1.00  0.00     0.004 C 
ENDBRANCH  14  15
ENDBRANCH  13  14
ENDBRANCH  12  13
ENDBRANCH  11  12
ENDBRANCH  10  11
ENDBRANCH   1  10
TORSDOF 12
ENDMDL
MODEL 8
REMARK VINA RESULT:    -4.241      1.190      1.658
REMARK INTER + INTRA:          -8.080
REMARK INTER:                  -6.980
REMARK INTRA:                  -1.100
REMARK UNBOUND:                -0.863
REMARK SMILES CCCCCCCCCCCCCC(=O)[O-]
REMARK SMILES IDX 8 1 9 2 10 3 11 4 12 5 13 6 14 7 15 8 16 9 7 10 6 11 5 12
REMARK SMILES IDX 4 13 3 14 2 15 1 16
REMARK H PARENT
REMARK Flexibility Score: inf
ROOT
ATOM      1  C   UNL     1      -0.535   1.578   5.439  1.00  0.00     0.000 C 
ENDROOT
BRANCH   1   2
ATOM      2  C   UNL     1      -1.836   1.461   6.256  1.00  0.00     0.000 C 
BRANCH   2   3
ATOM      3  C   UNL     1      -2.351   0.025   6.469  1.00  0.00     0.000 C 
BRANCH   3   4
ATOM      4  C   UNL     1      -2.493  -0.348   7.952  1.00  0.00     0.000 C 
BRANCH   4   5
ATOM      5  C   UNL     1      -1.770  -1.669   8.257  1.00  0.00     0.006 C 
BRANCH   5   6
ATOM      6  C   UNL     1      -0.541  -1.464   9.154  1.00  0.00     0.053 C 
BRANCH   6   7
ATOM      7  C   UNL     1       0.736  -1.640   8.393  1.00  0.00     0.041 C 
ATOM      8  O   UNL     1       1.793  -1.973   8.994  1.00  0.00    -0.550 OA
ATOM      9  O   UNL     1       0.769  -1.406   7.025  1.00  0.00    -0.550 OA
ENDBRANCH   6   7
ENDBRANCH   5   6
ENDBRANCH   4   5
ENDBRANCH   3   4
ENDBRANCH   2   3
ENDBRANCH   1   2
BRANCH   1  10
ATOM     10  C   UNL     1       0.700   1.849   6.314  1.00  0.00     0.000 C 
BRANCH  10  11
ATOM     11  C   UNL     1       0.341   2.162   7.779  1.00  0.00    -0.000 C 
BRANCH  11  12
ATOM     12  C   UNL     1       1.093   3.356   8.396  1.00  0.00    -0.000 C 
BRANCH  12  13
ATOM     13  C   UNL     1       2.048   4.040   7.402  1.00  0.00    -0.000 C 
BRANCH  13  14
ATOM     14  C   UNL     1       3.066   4.958   8.098  1.00  0.00    -0.000 C 
BRANCH  14  15
ATOM     15  C   UNL     1       2.726   6.447   7.932  1.00  0.00    -0.003 C 
ATOM     16  C   UNL     1       1.808   6.930   9.052  1.00  0.00     0.004 C 
ENDBRANCH  14  15
ENDBRANCH  13  14
ENDBRANCH  12  13
ENDBRANCH  11  12
ENDBRANCH  10  11
ENDBRANCH   1  10
TORSDOF 12
ENDMDL
MODEL 9
REMARK VINA RESULT:    -4.152      3.538      6.655
REMARK INTER + INTRA:          -7.928
REMARK INTER:                  -6.639
REMARK INTRA:                  -1.289
REMARK UNBOUND:                -0.863
REMARK SMILES CCCCCCCCCCCCCC(=O)[O-]
REMARK SMILES IDX 8 1 9 2 10 3 11 4 12 5 13 6 14 7 15 8 16 9 7 10 6 11 5 12
REMARK SMILES IDX 4 13 3 14 2 15 1 16
REMARK H PARENT
REMARK Flexibility Score: inf
ROOT
ATOM      1  C   UNL     1      -0.767   1.427   4.963  1.00  0.00     0.000 C 
ENDROOT
BRANCH   1   2
ATOM      2  C   UNL     1       0.475   1.040   5.789  1.00  0.00     0.000 C 
BRANCH   2   3
ATOM      3  C   UNL     1       1.208   2.214   6.463  1.00  0.00     0.000 C 
BRANCH   3   4
ATOM      4  C   UNL     1       0.622   2.581   7.834  1.00  0.00     0.000 C 
BRANCH   4   5
ATOM      5  C   UNL     1       1.418   3.724   8.483  1.00  0.00     0.006 C 
BRANCH   5   6
ATOM      6  C   UNL     1       2.399   4.379   7.501  1.00  0.00     0.053 C 
BRANCH   6   7
ATOM      7  C   UNL     1       2.753   5.773   7.918  1.00  0.00     0.041 C 
ATOM      8  O   UNL     1       1.848   6.628   8.108  1.00  0.00    -0.550 OA
ATOM      9  O   UNL     1       4.085   6.138   8.065  1.00  0.00    -0.550 OA
ENDBRANCH   6   7
ENDBRANCH   5   6
ENDBRANCH   4   5
ENDBRANCH   3   4
ENDBRANCH   2   3
ENDBRANCH   1   2
BRANCH   1  10
ATOM     10  C   UNL     1      -2.088   1.059   5.658  1.00  0.00     0.000 C 
BRANCH  10  11
ATOM     11  C   UNL     1      -1.909   0.010   6.772  1.00  0.00    -0.000 C 
BRANCH  11  12
ATOM     12  C   UNL     1      -2.274   0.490   8.188  1.00  0.00    -0.000 C 
BRANCH  12  13
ATOM     13  C   UNL     1      -1.504  -0.259   9.291  1.00  0.00    -0.000 C 
BRANCH  13  14
ATOM     14  C   UNL     1      -0.550  -1.323   8.727  1.00  0.00    -0.000 C 
BRANCH  14  15
ATOM     15  C   UNL     1      -0.812  -2.719   9.313  1.00  0.00    -0.003 C 
ATOM     16  C   UNL     1      -2.235  -3.182   9.016  1.00  0.00     0.004 C 
ENDBRANCH  14  15
ENDBRANCH  13  14
ENDBRANCH  12  13
ENDBRANCH  11  12
ENDBRANCH  10  11
ENDBRANCH   1  10
TORSDOF 12
ENDMDL
