MODEL 1
REMARK VINA RESULT:    -5.624      0.000      0.000
REMARK INTER + INTRA:          -5.624
REMARK INTER:                  -5.624
REMARK INTRA:                   0.000
REMARK UNBOUND:                 0.000
REMARK SMILES C[C@@H]1CCC=C2CC[C@H]3[C@@H](C3(C)C)[C@]21C
REMARK SMILES IDX 1 1 2 2 3 3 4 4 5 5 6 6 14 7 10 8 9 9 11 10 12 11 13 12 8 13
REMARK SMILES IDX 7 14 15 15
REMARK H PARENT
REMARK Flexibility Score: inf
ROOT
ATOM      1  C   UNL     1       3.325  -4.154  20.282  1.00  0.00     0.008 C 
ATOM      2  C   UNL     1       2.305  -3.071  19.872  1.00  0.00    -0.004 C 
ATOM      3  C   UNL     1       1.151  -3.009  20.923  1.00  0.00     0.008 C 
ATOM      4  C   UNL     1      -0.255  -2.710  20.367  1.00  0.00     0.027 C 
ATOM      5  C   UNL     1      -0.244  -1.963  19.067  1.00  0.00    -0.027 C 
ATOM      6  C   UNL     1       0.671  -2.217  18.116  1.00  0.00    -0.068 C 
ATOM      7  C   UNL     1       1.812  -3.224  18.389  1.00  0.00    -0.005 C 
ATOM      8  C   UNL     1       2.937  -3.004  17.309  1.00  0.00     0.009 C 
ATOM      9  C   UNL     1       3.081  -1.442  17.203  1.00  0.00    -0.000 C 
ATOM     10  C   UNL     1       4.293  -2.316  17.059  1.00  0.00    -0.028 C 
ATOM     11  C   UNL     1       4.880  -2.406  15.642  1.00  0.00     0.012 C 
ATOM     12  C   UNL     1       5.317  -2.237  18.197  1.00  0.00     0.012 C 
ATOM     13  C   UNL     1       1.989  -1.042  16.212  1.00  0.00     0.009 C 
ATOM     14  C   UNL     1       0.600  -1.451  16.783  1.00  0.00     0.031 C 
ATOM     15  C   UNL     1       1.251  -4.652  18.158  1.00  0.00     0.017 C 
ENDROOT
TORSDOF 0
ENDMDL
MODEL 2
REMARK VINA RESULT:    -5.488      1.941      4.183
REMARK INTER + INTRA:          -5.488
REMARK INTER:                  -5.488
REMARK INTRA:                   0.000
REMARK UNBOUND:                 0.000
REMARK SMILES C[C@@H]1CCC=C2CC[C@H]3[C@@H](C3(C)C)[C@]21C
REMARK SMILES IDX 1 1 2 2 3 3 4 4 5 5 6 6 14 7 10 8 9 9 11 10 12 11 13 12 8 13
REMARK SMILES IDX 7 14 15 15
REMARK H PARENT
REMARK Flexibility Score: inf
ROOT
ATOM      1  C   UNL     1       0.131  -3.515  19.300  1.00  0.00     0.008 C 
ATOM      2  C   UNL     1       0.935  -4.706  19.862  1.00  0.00    -0.004 C 
ATOM      3  C   UNL     1      -0.036  -5.722  20.545  1.00  0.00     0.008 C 
ATOM      4  C   UNL     1       0.502  -6.432  21.802  1.00  0.00     0.027 C 
ATOM      5  C   UNL     1       1.999  -6.514  21.855  1.00  0.00    -0.027 C 
ATOM      6  C   UNL     1       2.775  -5.502  21.431  1.00  0.00    -0.068 C 
ATOM      7  C   UNL     1       2.135  -4.260  20.770  1.00  0.00    -0.005 C 
ATOM      8  C   UNL     1       3.263  -3.467  20.008  1.00  0.00     0.009 C 
ATOM      9  C   UNL     1       4.101  -4.580  19.278  1.00  0.00    -0.000 C 
ATOM     10  C   UNL     1       3.894  -3.246  18.619  1.00  0.00    -0.028 C 
ATOM     11  C   UNL     1       5.137  -2.345  18.546  1.00  0.00     0.012 C 
ATOM     12  C   UNL     1       2.997  -3.242  17.377  1.00  0.00     0.012 C 
ATOM     13  C   UNL     1       5.090  -5.048  20.344  1.00  0.00     0.009 C 
ATOM     14  C   UNL     1       4.304  -5.627  21.556  1.00  0.00     0.031 C 
ATOM     15  C   UNL     1       1.630  -3.328  21.904  1.00  0.00     0.017 C 
ENDROOT
TORSDOF 0
ENDMDL
MODEL 3
REMARK VINA RESULT:    -5.463      1.470      3.692
REMARK INTER + INTRA:          -5.463
REMARK INTER:                  -5.463
REMARK INTRA:                   0.000
REMARK UNBOUND:                 0.000
REMARK SMILES C[C@@H]1CCC=C2CC[C@H]3[C@@H](C3(C)C)[C@]21C
REMARK SMILES IDX 1 1 2 2 3 3 4 4 5 5 6 6 14 7 10 8 9 9 11 10 12 11 13 12 8 13
REMARK SMILES IDX 7 14 15 15
REMARK H PARENT
REMARK Flexibility Score: inf
ROOT
ATOM      1  C   UNL     1       6.032  -2.641  17.947  1.00  0.00     0.008 C 
ATOM      2  C   UNL     1       5.090  -2.570  19.167  1.00  0.00    -0.004 C 
ATOM      3  C   UNL     1       5.933  -2.526  20.482  1.00  0.00     0.008 C 
ATOM      4  C   UNL     1       5.336  -3.270  21.693  1.00  0.00     0.027 C 
ATOM      5  C   UNL     1       3.844  -3.411  21.640  1.00  0.00    -0.027 C 
ATOM      6  C   UNL     1       3.201  -3.654  20.486  1.00  0.00    -0.068 C 
ATOM      7  C   UNL     1       3.985  -3.685  19.153  1.00  0.00    -0.005 C 
ATOM      8  C   UNL     1       2.954  -3.558  17.968  1.00  0.00     0.009 C 
ATOM      9  C   UNL     1       1.956  -2.437  18.433  1.00  0.00    -0.000 C 
ATOM     10  C   UNL     1       2.323  -2.557  16.982  1.00  0.00    -0.028 C 
ATOM     11  C   UNL     1       1.211  -3.082  16.060  1.00  0.00     0.012 C 
ATOM     12  C   UNL     1       3.179  -1.423  16.409  1.00  0.00     0.012 C 
ATOM     13  C   UNL     1       0.941  -3.187  19.293  1.00  0.00     0.009 C 
ATOM     14  C   UNL     1       1.673  -3.838  20.503  1.00  0.00     0.031 C 
ATOM     15  C   UNL     1       4.640  -5.085  19.021  1.00  0.00     0.017 C 
ENDROOT
TORSDOF 0
ENDMDL
MODEL 4
REMARK VINA RESULT:    -5.448      1.927      2.784
REMARK INTER + INTRA:          -5.448
REMARK INTER:                  -5.448
REMARK INTRA:                   0.000
REMARK UNBOUND:                 0.000
REMARK SMILES C[C@@H]1CCC=C2CC[C@H]3[C@@H](C3(C)C)[C@]21C
REMARK SMILES IDX 1 1 2 2 3 3 4 4 5 5 6 6 14 7 10 8 9 9 11 10 12 11 13 12 8 13
REMARK SMILES IDX 7 14 15 15
REMARK H PARENT
REMARK Flexibility Score: inf
ROOT
ATOM      1  C   UNL     1       5.468  -3.552  21.988  1.00  0.00     0.008 C 
ATOM      2  C   UNL     1       4.204  -3.346  21.129  1.00  0.00    -0.004 C 
ATOM      3  C   UNL     1       2.938  -3.764  21.943  1.00  0.00     0.008 C 
ATOM      4  C   UNL     1       1.806  -4.432  21.138  1.00  0.00     0.027 C 
ATOM      5  C   UNL     1       1.803  -4.067  19.684  1.00  0.00    -0.027 C 
ATOM      6  C   UNL     1       2.945  -3.922  18.991  1.00  0.00    -0.068 C 
ATOM      7  C   UNL     1       4.307  -4.023  19.716  1.00  0.00    -0.005 C 
ATOM      8  C   UNL     1       5.413  -3.402  18.781  1.00  0.00     0.009 C 
ATOM      9  C   UNL     1       4.757  -2.090  18.213  1.00  0.00    -0.000 C 
ATOM     10  C   UNL     1       6.228  -2.121  18.514  1.00  0.00    -0.028 C 
ATOM     11  C   UNL     1       7.154  -2.119  17.287  1.00  0.00     0.012 C 
ATOM     12  C   UNL     1       6.691  -1.264  19.696  1.00  0.00     0.012 C 
ATOM     13  C   UNL     1       3.952  -2.578  17.010  1.00  0.00     0.009 C 
ATOM     14  C   UNL     1       2.875  -3.595  17.489  1.00  0.00     0.031 C 
ATOM     15  C   UNL     1       4.653  -5.528  19.868  1.00  0.00     0.017 C 
ENDROOT
TORSDOF 0
ENDMDL
MODEL 5
REMARK VINA RESULT:    -5.423      1.783      3.421
REMARK INTER + INTRA:          -5.423
REMARK INTER:                  -5.423
REMARK INTRA:                   0.000
REMARK UNBOUND:                 0.000
REMARK SMILES C[C@@H]1CCC=C2CC[C@H]3[C@@H](C3(C)C)[C@]21C
REMARK SMILES IDX 1 1 2 2 3 3 4 4 5 5 6 6 14 7 10 8 9 9 11 10 12 11 13 12 8 13
REMARK SMILES IDX 7 14 15 15
REMARK H PARENT
REMARK Flexibility Score: inf
ROOT
ATOM      1  C   UNL     1       0.461  -3.474  22.684  1.00  0.00     0.008 C 
ATOM      2  C   UNL     1       0.764  -2.836  21.312  1.00  0.00    -0.004 C 
ATOM      3  C   UNL     1      -0.435  -1.935  20.873  1.00  0.00     0.008 C 
ATOM      4  C   UNL     1      -0.750  -1.917  19.365  1.00  0.00     0.027 C 
ATOM      5  C   UNL     1       0.426  -2.255  18.498  1.00  0.00    -0.027 C 
ATOM      6  C   UNL     1       1.315  -3.198  18.853  1.00  0.00    -0.068 C 
ATOM      7  C   UNL     1       1.202  -3.888  20.232  1.00  0.00    -0.005 C 
ATOM      8  C   UNL     1       2.573  -4.601  20.543  1.00  0.00     0.009 C 
ATOM      9  C   UNL     1       3.666  -3.556  20.113  1.00  0.00    -0.000 C 
ATOM     10  C   UNL     1       3.904  -4.441  21.302  1.00  0.00    -0.028 C 
ATOM     11  C   UNL     1       4.961  -5.539  21.110  1.00  0.00     0.012 C 
ATOM     12  C   UNL     1       3.913  -3.744  22.667  1.00  0.00     0.012 C 
ATOM     13  C   UNL     1       3.830  -3.799  18.613  1.00  0.00     0.009 C 
ATOM     14  C   UNL     1       2.474  -3.534  17.897  1.00  0.00     0.031 C 
ATOM     15  C   UNL     1       0.137  -5.010  20.116  1.00  0.00     0.017 C 
ENDROOT
TORSDOF 0
ENDMDL
MODEL 6
REMARK VINA RESULT:    -5.377      1.591      4.109
REMARK INTER + INTRA:          -5.377
REMARK INTER:                  -5.377
REMARK INTRA:                   0.000
REMARK UNBOUND:                 0.000
REMARK SMILES C[C@@H]1CCC=C2CC[C@H]3[C@@H](C3(C)C)[C@]21C
REMARK SMILES IDX 1 1 2 2 3 3 4 4 5 5 6 6 14 7 10 8 9 9 11 10 12 11 13 12 8 13
REMARK SMILES IDX 7 14 15 15
REMARK H PARENT
REMARK Flexibility Score: inf
ROOT
ATOM      1  C   UNL     1       4.618  -1.539  14.385  1.00  0.00     0.008 C 
ATOM      2  C   UNL     1       3.497  -2.429  14.961  1.00  0.00    -0.004 C 
ATOM      3  C   UNL     1       2.495  -2.815  13.826  1.00  0.00     0.008 C 
ATOM      4  C   UNL     1       1.012  -2.913  14.237  1.00  0.00     0.027 C 
ATOM      5  C   UNL     1       0.808  -3.208  15.693  1.00  0.00    -0.027 C 
ATOM      6  C   UNL     1       1.596  -2.669  16.638  1.00  0.00    -0.068 C 
ATOM      7  C   UNL     1       2.815  -1.809  16.232  1.00  0.00    -0.005 C 
ATOM      8  C   UNL     1       3.769  -1.680  17.479  1.00  0.00     0.009 C 
ATOM      9  C   UNL     1       3.816  -3.128  18.090  1.00  0.00    -0.000 C 
ATOM     10  C   UNL     1       5.041  -2.261  18.126  1.00  0.00    -0.028 C 
ATOM     11  C   UNL     1       5.433  -1.728  19.513  1.00  0.00     0.012 C 
ATOM     12  C   UNL     1       6.205  -2.704  17.233  1.00  0.00     0.012 C 
ATOM     13  C   UNL     1       2.580  -3.185  18.986  1.00  0.00     0.009 C 
ATOM     14  C   UNL     1       1.305  -2.971  18.119  1.00  0.00     0.031 C 
ATOM     15  C   UNL     1       2.302  -0.378  15.919  1.00  0.00     0.017 C 
ENDROOT
TORSDOF 0
ENDMDL
MODEL 7
REMARK VINA RESULT:    -5.349      1.296      4.789
REMARK INTER + INTRA:          -5.349
REMARK INTER:                  -5.349
REMARK INTRA:                   0.000
REMARK UNBOUND:                 0.000
REMARK SMILES C[C@@H]1CCC=C2CC[C@H]3[C@@H](C3(C)C)[C@]21C
REMARK SMILES IDX 1 1 2 2 3 3 4 4 5 5 6 6 14 7 10 8 9 9 11 10 12 11 13 12 8 13
REMARK SMILES IDX 7 14 15 15
REMARK H PARENT
REMARK Flexibility Score: inf
ROOT
ATOM      1  C   UNL     1      -0.201  -0.792  15.962  1.00  0.00     0.008 C 
ATOM      2  C   UNL     1       1.283  -1.031  16.309  1.00  0.00    -0.004 C 
ATOM      3  C   UNL     1       2.192  -0.347  15.237  1.00  0.00     0.008 C 
ATOM      4  C   UNL     1       3.493  -1.092  14.879  1.00  0.00     0.027 C 
ATOM      5  C   UNL     1       3.989  -1.998  15.967  1.00  0.00    -0.027 C 
ATOM      6  C   UNL     1       3.145  -2.719  16.723  1.00  0.00    -0.068 C 
ATOM      7  C   UNL     1       1.617  -2.545  16.558  1.00  0.00    -0.005 C 
ATOM      8  C   UNL     1       0.908  -3.164  17.821  1.00  0.00     0.009 C 
ATOM      9  C   UNL     1       1.773  -2.672  19.038  1.00  0.00    -0.000 C 
ATOM     10  C   UNL     1       0.285  -2.809  19.186  1.00  0.00    -0.028 C 
ATOM     11  C   UNL     1      -0.187  -3.975  20.069  1.00  0.00     0.012 C 
ATOM     12  C   UNL     1      -0.500  -1.502  19.338  1.00  0.00     0.012 C 
ATOM     13  C   UNL     1       2.905  -3.695  19.118  1.00  0.00     0.009 C 
ATOM     14  C   UNL     1       3.717  -3.668  17.790  1.00  0.00     0.031 C 
ATOM     15  C   UNL     1       1.172  -3.398  15.340  1.00  0.00     0.017 C 
ENDROOT
TORSDOF 0
ENDMDL
MODEL 8
REMARK VINA RESULT:    -5.256      2.035      5.379
REMARK INTER + INTRA:          -5.256
REMARK INTER:                  -5.256
REMARK INTRA:                   0.000
REMARK UNBOUND:                 0.000
REMARK SMILES C[C@@H]1CCC=C2CC[C@H]3[C@@H](C3(C)C)[C@]21C
REMARK SMILES IDX 1 1 2 2 3 3 4 4 5 5 6 6 14 7 10 8 9 9 11 10 12 11 13 12 8 13
REMARK SMILES IDX 7 14 15 15
REMARK H PARENT
REMARK Flexibility Score: inf
ROOT
ATOM      1  C   UNL     1       2.897  -3.704  17.634  1.00  0.00     0.008 C 
ATOM      2  C   UNL     1       3.516  -3.068  18.896  1.00  0.00    -0.004 C 
ATOM      3  C   UNL     1       4.702  -2.136  18.489  1.00  0.00     0.008 C 
ATOM      4  C   UNL     1       5.900  -2.104  19.459  1.00  0.00     0.027 C 
ATOM      5  C   UNL     1       5.545  -2.467  20.870  1.00  0.00    -0.027 C 
ATOM      6  C   UNL     1       4.653  -3.433  21.145  1.00  0.00    -0.068 C 
ATOM      7  C   UNL     1       3.883  -4.126  19.997  1.00  0.00    -0.005 C 
ATOM      8  C   UNL     1       2.641  -4.874  20.613  1.00  0.00     0.009 C 
ATOM      9  C   UNL     1       2.043  -3.855  21.651  1.00  0.00    -0.000 C 
ATOM     10  C   UNL     1       1.126  -4.750  20.869  1.00  0.00    -0.028 C 
ATOM     11  C   UNL     1       0.453  -5.873  21.673  1.00  0.00     0.012 C 
ATOM     12  C   UNL     1       0.241  -4.060  19.826  1.00  0.00     0.012 C 
ATOM     13  C   UNL     1       2.870  -4.096  22.913  1.00  0.00     0.009 C 
ATOM     14  C   UNL     1       4.367  -3.794  22.613  1.00  0.00     0.031 C 
ATOM     15  C   UNL     1       4.806  -5.221  19.400  1.00  0.00     0.017 C 
ENDROOT
TORSDOF 0
ENDMDL
MODEL 9
REMARK VINA RESULT:    -5.213      1.235      1.973
REMARK INTER + INTRA:          -5.213
REMARK INTER:                  -5.213
REMARK INTRA:                   0.000
REMARK UNBOUND:                 0.000
REMARK SMILES C[C@@H]1CCC=C2CC[C@H]3[C@@H](C3(C)C)[C@]21C
REMARK SMILES IDX 1 1 2 2 3 3 4 4 5 5 6 6 14 7 10 8 9 9 11 10 12 11 13 12 8 13
REMARK SMILES IDX 7 14 15 15
REMARK H PARENT
REMARK Flexibility Score: inf
ROOT
ATOM      1  C   UNL     1       3.336  -4.824  20.476  1.00  0.00     0.008 C 
ATOM      2  C   UNL     1       2.345  -3.659  20.680  1.00  0.00    -0.004 C 
ATOM      3  C   UNL     1       1.969  -3.545  22.192  1.00  0.00     0.008 C 
ATOM      4  C   UNL     1       0.517  -3.130  22.498  1.00  0.00     0.027 C 
ATOM      5  C   UNL     1      -0.133  -2.348  21.396  1.00  0.00    -0.027 C 
ATOM      6  C   UNL     1       0.085  -2.640  20.103  1.00  0.00    -0.068 C 
ATOM      7  C   UNL     1       1.107  -3.733  19.717  1.00  0.00    -0.005 C 
ATOM      8  C   UNL     1       1.464  -3.563  18.192  1.00  0.00     0.009 C 
ATOM      9  C   UNL     1       1.644  -2.013  18.000  1.00  0.00    -0.000 C 
ATOM     10  C   UNL     1       2.507  -2.968  17.226  1.00  0.00    -0.028 C 
ATOM     11  C   UNL     1       2.207  -3.059  15.722  1.00  0.00     0.012 C 
ATOM     12  C   UNL     1       3.990  -2.997  17.609  1.00  0.00     0.012 C 
ATOM     13  C   UNL     1       0.221  -1.508  17.769  1.00  0.00     0.009 C 
ATOM     14  C   UNL     1      -0.649  -1.832  19.018  1.00  0.00     0.031 C 
ATOM     15  C   UNL     1       0.405  -5.110  19.855  1.00  0.00     0.017 C 
ENDROOT
TORSDOF 0
ENDMDL
