MODEL 1
REMARK VINA RESULT:    -5.338      0.000      0.000
REMARK INTER + INTRA:          -7.533
REMARK INTER:                  -7.210
REMARK INTRA:                  -0.322
REMARK UNBOUND:                -0.322
REMARK SMILES CCCCCCC=CC(=O)[O-]
REMARK SMILES IDX 5 1 6 2 7 3 8 4 9 5 10 6 11 7 4 8 3 9 2 10 1 11
REMARK H PARENT
REMARK Flexibility Score: inf
ROOT
ATOM      1  C   UNL     1      11.781 -46.862  38.930  1.00  0.00     0.004 C 
ENDROOT
BRANCH   1   2
ATOM      2  C   UNL     1      11.679 -45.991  37.668  1.00  0.00     0.027 C 
BRANCH   2   3
ATOM      3  C   UNL     1      10.465 -46.318  36.844  1.00  0.00    -0.025 C 
ATOM      4  C   UNL     1      10.409 -46.034  35.538  1.00  0.00     0.020 C 
BRANCH   4   5
ATOM      5  C   UNL     1       9.231 -46.344  34.714  1.00  0.00     0.064 C 
ATOM      6  O   UNL     1       9.354 -46.728  33.520  1.00  0.00    -0.545 OA
ATOM      7  O   UNL     1       7.961 -46.209  35.260  1.00  0.00    -0.545 OA
ENDBRANCH   4   5
ENDBRANCH   2   3
ENDBRANCH   1   2
BRANCH   1   8
ATOM      8  C   UNL     1      13.214 -47.368  39.169  1.00  0.00     0.000 C 
BRANCH   8   9
ATOM      9  C   UNL     1      14.218 -46.835  38.132  1.00  0.00    -0.000 C 
BRANCH   9  10
ATOM     10  C   UNL     1      15.046 -47.918  37.417  1.00  0.00    -0.003 C 
ATOM     11  C   UNL     1      15.882 -47.368  36.262  1.00  0.00     0.004 C 
ENDBRANCH   9  10
ENDBRANCH   8   9
ENDBRANCH   1   8
TORSDOF 6
ENDMDL
MODEL 2
REMARK VINA RESULT:    -5.164      0.825      1.202
REMARK INTER + INTRA:          -7.298
REMARK INTER:                  -6.953
REMARK INTRA:                  -0.345
REMARK UNBOUND:                -0.322
REMARK SMILES CCCCCCC=CC(=O)[O-]
REMARK SMILES IDX 5 1 6 2 7 3 8 4 9 5 10 6 11 7 4 8 3 9 2 10 1 11
REMARK H PARENT
REMARK Flexibility Score: inf
ROOT
ATOM      1  C   UNL     1      12.825 -45.737  36.767  1.00  0.00     0.004 C 
ENDROOT
BRANCH   1   2
ATOM      2  C   UNL     1      11.696 -46.100  37.744  1.00  0.00     0.027 C 
BRANCH   2   3
ATOM      3  C   UNL     1      10.431 -46.497  37.034  1.00  0.00    -0.025 C 
ATOM      4  C   UNL     1      10.295 -46.350  35.711  1.00  0.00     0.020 C 
BRANCH   4   5
ATOM      5  C   UNL     1       9.067 -46.731  34.998  1.00  0.00     0.064 C 
ATOM      6  O   UNL     1       9.077 -47.632  34.118  1.00  0.00    -0.545 OA
ATOM      7  O   UNL     1       7.875 -46.083  35.297  1.00  0.00    -0.545 OA
ENDBRANCH   4   5
ENDBRANCH   2   3
ENDBRANCH   1   2
BRANCH   1   8
ATOM      8  C   UNL     1      14.205 -45.755  37.446  1.00  0.00     0.000 C 
BRANCH   8   9
ATOM      9  C   UNL     1      14.565 -47.132  38.034  1.00  0.00    -0.000 C 
BRANCH   9  10
ATOM     10  C   UNL     1      15.278 -48.085  37.058  1.00  0.00    -0.003 C 
ATOM     11  C   UNL     1      16.027 -47.353  35.945  1.00  0.00     0.004 C 
ENDBRANCH   9  10
ENDBRANCH   8   9
ENDBRANCH   1   8
TORSDOF 6
ENDMDL
MODEL 3
REMARK VINA RESULT:    -5.077      3.385      5.380
REMARK INTER + INTRA:          -7.179
REMARK INTER:                  -6.617
REMARK INTRA:                  -0.562
REMARK UNBOUND:                -0.322
REMARK SMILES CCCCCCC=CC(=O)[O-]
REMARK SMILES IDX 5 1 6 2 7 3 8 4 9 5 10 6 11 7 4 8 3 9 2 10 1 11
REMARK H PARENT
REMARK Flexibility Score: inf
ROOT
ATOM      1  C   UNL     1       9.858 -47.430  38.972  1.00  0.00     0.004 C 
ENDROOT
BRANCH   1   2
ATOM      2  C   UNL     1      10.958 -46.362  39.075  1.00  0.00     0.027 C 
BRANCH   2   3
ATOM      3  C   UNL     1      12.338 -46.953  38.981  1.00  0.00    -0.025 C 
ATOM      4  C   UNL     1      13.196 -46.577  38.027  1.00  0.00     0.020 C 
BRANCH   4   5
ATOM      5  C   UNL     1      14.549 -47.142  37.917  1.00  0.00     0.064 C 
ATOM      6  O   UNL     1      15.363 -47.074  38.876  1.00  0.00    -0.545 OA
ATOM      7  O   UNL     1      14.937 -47.758  36.734  1.00  0.00    -0.545 OA
ENDBRANCH   4   5
ENDBRANCH   2   3
ENDBRANCH   1   2
BRANCH   1   8
ATOM      8  C   UNL     1       8.546 -46.856  38.409  1.00  0.00     0.000 C 
BRANCH   8   9
ATOM      9  C   UNL     1       8.773 -45.674  37.450  1.00  0.00    -0.000 C 
BRANCH   9  10
ATOM     10  C   UNL     1       8.867 -46.057  35.962  1.00  0.00    -0.003 C 
ATOM     11  C   UNL     1      10.294 -45.999  35.418  1.00  0.00     0.004 C 
ENDBRANCH   9  10
ENDBRANCH   8   9
ENDBRANCH   1   8
TORSDOF 6
ENDMDL
MODEL 4
REMARK VINA RESULT:    -5.066      2.012      2.443
REMARK INTER + INTRA:          -7.165
REMARK INTER:                  -6.827
REMARK INTRA:                  -0.338
REMARK UNBOUND:                -0.322
REMARK SMILES CCCCCCC=CC(=O)[O-]
REMARK SMILES IDX 5 1 6 2 7 3 8 4 9 5 10 6 11 7 4 8 3 9 2 10 1 11
REMARK H PARENT
REMARK Flexibility Score: inf
ROOT
ATOM      1  C   UNL     1      12.534 -46.963  39.039  1.00  0.00     0.004 C 
ENDROOT
BRANCH   1   2
ATOM      2  C   UNL     1      11.131 -47.274  39.582  1.00  0.00     0.027 C 
BRANCH   2   3
ATOM      3  C   UNL     1      10.045 -46.868  38.624  1.00  0.00    -0.025 C 
ATOM      4  C   UNL     1       8.953 -47.618  38.446  1.00  0.00     0.020 C 
BRANCH   4   5
ATOM      5  C   UNL     1       7.880 -47.240  37.514  1.00  0.00     0.064 C 
ATOM      6  O   UNL     1       6.951 -48.043  37.229  1.00  0.00    -0.545 OA
ATOM      7  O   UNL     1       7.892 -45.977  36.936  1.00  0.00    -0.545 OA
ENDBRANCH   4   5
ENDBRANCH   2   3
ENDBRANCH   1   2
BRANCH   1   8
ATOM      8  C   UNL     1      12.483 -46.161  37.727  1.00  0.00     0.000 C 
BRANCH   8   9
ATOM      9  C   UNL     1      13.853 -46.063  37.032  1.00  0.00    -0.000 C 
BRANCH   9  10
ATOM     10  C   UNL     1      14.984 -46.849  37.718  1.00  0.00    -0.003 C 
ATOM     11  C   UNL     1      15.528 -47.990  36.858  1.00  0.00     0.004 C 
ENDBRANCH   9  10
ENDBRANCH   8   9
ENDBRANCH   1   8
TORSDOF 6
ENDMDL
MODEL 5
REMARK VINA RESULT:    -5.056      3.653      5.828
REMARK INTER + INTRA:          -7.151
REMARK INTER:                  -6.702
REMARK INTRA:                  -0.449
REMARK UNBOUND:                -0.322
REMARK SMILES CCCCCCC=CC(=O)[O-]
REMARK SMILES IDX 5 1 6 2 7 3 8 4 9 5 10 6 11 7 4 8 3 9 2 10 1 11
REMARK H PARENT
REMARK Flexibility Score: inf
ROOT
ATOM      1  C   UNL     1      10.549 -46.291  36.222  1.00  0.00     0.004 C 
ENDROOT
BRANCH   1   2
ATOM      2  C   UNL     1      11.179 -45.750  37.515  1.00  0.00     0.027 C 
BRANCH   2   3
ATOM      3  C   UNL     1      12.375 -46.553  37.948  1.00  0.00    -0.025 C 
ATOM      4  C   UNL     1      13.583 -46.355  37.410  1.00  0.00     0.020 C 
BRANCH   4   5
ATOM      5  C   UNL     1      14.765 -47.130  37.818  1.00  0.00     0.064 C 
ATOM      6  O   UNL     1      15.302 -46.953  38.944  1.00  0.00    -0.545 OA
ATOM      7  O   UNL     1      15.299 -48.070  36.946  1.00  0.00    -0.545 OA
ENDBRANCH   4   5
ENDBRANCH   2   3
ENDBRANCH   1   2
BRANCH   1   8
ATOM      8  C   UNL     1       9.037 -46.528  36.371  1.00  0.00     0.000 C 
BRANCH   8   9
ATOM      9  C   UNL     1       8.701 -47.925  36.923  1.00  0.00    -0.000 C 
BRANCH   9  10
ATOM     10  C   UNL     1       8.347 -47.961  38.421  1.00  0.00    -0.003 C 
ATOM     11  C   UNL     1       7.685 -46.674  38.911  1.00  0.00     0.004 C 
ENDBRANCH   9  10
ENDBRANCH   8   9
ENDBRANCH   1   8
TORSDOF 6
ENDMDL
MODEL 6
REMARK VINA RESULT:    -5.038      3.716      5.613
REMARK INTER + INTRA:          -7.127
REMARK INTER:                  -6.727
REMARK INTRA:                  -0.399
REMARK UNBOUND:                -0.322
REMARK SMILES CCCCCCC=CC(=O)[O-]
REMARK SMILES IDX 5 1 6 2 7 3 8 4 9 5 10 6 11 7 4 8 3 9 2 10 1 11
REMARK H PARENT
REMARK Flexibility Score: inf
ROOT
ATOM      1  C   UNL     1      10.214 -45.838  38.304  1.00  0.00     0.004 C 
ENDROOT
BRANCH   1   2
ATOM      2  C   UNL     1      11.372 -45.858  37.295  1.00  0.00     0.027 C 
BRANCH   2   3
ATOM      3  C   UNL     1      12.618 -46.477  37.865  1.00  0.00    -0.025 C 
ATOM      4  C   UNL     1      13.780 -46.449  37.204  1.00  0.00     0.020 C 
BRANCH   4   5
ATOM      5  C   UNL     1      15.009 -47.050  37.744  1.00  0.00     0.064 C 
ATOM      6  O   UNL     1      15.273 -46.997  38.974  1.00  0.00    -0.545 OA
ATOM      7  O   UNL     1      15.895 -47.683  36.881  1.00  0.00    -0.545 OA
ENDBRANCH   4   5
ENDBRANCH   2   3
ENDBRANCH   1   2
BRANCH   1   8
ATOM      8  C   UNL     1       9.776 -47.255  38.710  1.00  0.00     0.000 C 
BRANCH   8   9
ATOM      9  C   UNL     1       8.356 -47.604  38.227  1.00  0.00    -0.000 C 
BRANCH   9  10
ATOM     10  C   UNL     1       8.299 -48.605  37.059  1.00  0.00    -0.003 C 
ATOM     11  C   UNL     1       8.605 -47.965  35.706  1.00  0.00     0.004 C 
ENDBRANCH   9  10
ENDBRANCH   8   9
ENDBRANCH   1   8
TORSDOF 6
ENDMDL
MODEL 7
REMARK VINA RESULT:    -4.934      3.656      5.544
REMARK INTER + INTRA:          -6.987
REMARK INTER:                  -6.412
REMARK INTRA:                  -0.575
REMARK UNBOUND:                -0.322
REMARK SMILES CCCCCCC=CC(=O)[O-]
REMARK SMILES IDX 5 1 6 2 7 3 8 4 9 5 10 6 11 7 4 8 3 9 2 10 1 11
REMARK H PARENT
REMARK Flexibility Score: inf
ROOT
ATOM      1  C   UNL     1       8.160 -48.323  38.066  1.00  0.00     0.004 C 
ENDROOT
BRANCH   1   2
ATOM      2  C   UNL     1       8.953 -47.126  38.613  1.00  0.00     0.027 C 
BRANCH   2   3
ATOM      3  C   UNL     1      10.244 -47.543  39.261  1.00  0.00    -0.025 C 
ATOM      4  C   UNL     1      11.333 -46.767  39.216  1.00  0.00     0.020 C 
BRANCH   4   5
ATOM      5  C   UNL     1      12.605 -47.157  39.843  1.00  0.00     0.064 C 
ATOM      6  O   UNL     1      13.625 -47.406  39.146  1.00  0.00    -0.545 OA
ATOM      7  O   UNL     1      12.682 -47.256  41.226  1.00  0.00    -0.545 OA
ENDBRANCH   4   5
ENDBRANCH   2   3
ENDBRANCH   1   2
BRANCH   1   8
ATOM      8  C   UNL     1       8.076 -48.308  36.530  1.00  0.00     0.000 C 
BRANCH   8   9
ATOM      9  C   UNL     1       8.283 -46.904  35.933  1.00  0.00    -0.000 C 
BRANCH   9  10
ATOM     10  C   UNL     1       9.487 -46.777  34.982  1.00  0.00    -0.003 C 
ATOM     11  C   UNL     1      10.630 -45.952  35.570  1.00  0.00     0.004 C 
ENDBRANCH   9  10
ENDBRANCH   8   9
ENDBRANCH   1   8
TORSDOF 6
ENDMDL
MODEL 8
REMARK VINA RESULT:    -4.933      2.382      3.452
REMARK INTER + INTRA:          -6.985
REMARK INTER:                  -6.353
REMARK INTRA:                  -0.632
REMARK UNBOUND:                -0.322
REMARK SMILES CCCCCCC=CC(=O)[O-]
REMARK SMILES IDX 5 1 6 2 7 3 8 4 9 5 10 6 11 7 4 8 3 9 2 10 1 11
REMARK H PARENT
REMARK Flexibility Score: inf
ROOT
ATOM      1  C   UNL     1       8.135 -48.330  37.964  1.00  0.00     0.004 C 
ENDROOT
BRANCH   1   2
ATOM      2  C   UNL     1       8.249 -48.401  36.434  1.00  0.00     0.027 C 
BRANCH   2   3
ATOM      3  C   UNL     1       8.459 -47.048  35.813  1.00  0.00    -0.025 C 
ATOM      4  C   UNL     1       9.332 -46.863  34.816  1.00  0.00     0.020 C 
BRANCH   4   5
ATOM      5  C   UNL     1       9.552 -45.548  34.196  1.00  0.00     0.064 C 
ATOM      6  O   UNL     1      10.702 -45.186  33.828  1.00  0.00    -0.545 OA
ATOM      7  O   UNL     1       8.476 -44.689  34.015  1.00  0.00    -0.545 OA
ENDBRANCH   4   5
ENDBRANCH   2   3
ENDBRANCH   1   2
BRANCH   1   8
ATOM      8  C   UNL     1       8.791 -47.061  38.535  1.00  0.00     0.000 C 
BRANCH   8   9
ATOM      9  C   UNL     1      10.204 -47.315  39.090  1.00  0.00    -0.000 C 
BRANCH   9  10
ATOM     10  C   UNL     1      11.190 -46.147  38.907  1.00  0.00    -0.003 C 
ATOM     11  C   UNL     1      11.714 -46.023  37.477  1.00  0.00     0.004 C 
ENDBRANCH   9  10
ENDBRANCH   8   9
ENDBRANCH   1   8
TORSDOF 6
ENDMDL
MODEL 9
REMARK VINA RESULT:    -4.908      3.211      5.336
REMARK INTER + INTRA:          -6.951
REMARK INTER:                  -6.601
REMARK INTRA:                  -0.350
REMARK UNBOUND:                -0.322
REMARK SMILES CCCCCCC=CC(=O)[O-]
REMARK SMILES IDX 5 1 6 2 7 3 8 4 9 5 10 6 11 7 4 8 3 9 2 10 1 11
REMARK H PARENT
REMARK Flexibility Score: inf
ROOT
ATOM      1  C   UNL     1       9.598 -46.736  37.318  1.00  0.00     0.004 C 
ENDROOT
BRANCH   1   2
ATOM      2  C   UNL     1      10.636 -45.788  37.936  1.00  0.00     0.027 C 
BRANCH   2   3
ATOM      3  C   UNL     1      12.006 -46.407  38.006  1.00  0.00    -0.025 C 
ATOM      4  C   UNL     1      12.995 -46.008  37.199  1.00  0.00     0.020 C 
BRANCH   4   5
ATOM      5  C   UNL     1      14.340 -46.601  37.250  1.00  0.00     0.064 C 
ATOM      6  O   UNL     1      14.834 -47.183  36.248  1.00  0.00    -0.545 OA
ATOM      7  O   UNL     1      15.078 -46.519  38.424  1.00  0.00    -0.545 OA
ENDBRANCH   4   5
ENDBRANCH   2   3
ENDBRANCH   1   2
BRANCH   1   8
ATOM      8  C   UNL     1       9.761 -46.859  35.793  1.00  0.00     0.000 C 
BRANCH   8   9
ATOM      9  C   UNL     1       9.308 -45.595  35.039  1.00  0.00    -0.000 C 
BRANCH   9  10
ATOM     10  C   UNL     1      10.089 -45.299  33.747  1.00  0.00    -0.003 C 
ATOM     11  C   UNL     1       9.931 -43.856  33.269  1.00  0.00     0.004 C 
ENDBRANCH   9  10
ENDBRANCH   8   9
ENDBRANCH   1   8
TORSDOF 6
ENDMDL
