MODEL 1
REMARK VINA RESULT:    -5.469      0.000      0.000
REMARK INTER + INTRA:          -6.364
REMARK INTER:                  -6.268
REMARK INTRA:                  -0.096
REMARK UNBOUND:                -0.096
REMARK SMILES COc1cc(C(=O)[O-])ccc1O
REMARK SMILES IDX 5 1 9 2 4 3 10 4 3 5 11 6 6 7 7 8 8 9 2 10 1 11 12 12
REMARK H PARENT 12 13
REMARK Flexibility Score: inf
ROOT
ATOM      1  C   UNL     1     203.636 206.735 278.877  1.00  0.00     0.001 A 
ATOM      2  C   UNL     1     202.886 206.021 279.826  1.00  0.00     0.014 A 
ATOM      3  C   UNL     1     203.514 208.135 278.822  1.00  0.00     0.060 A 
ATOM      4  C   UNL     1     202.032 206.692 280.702  1.00  0.00     0.051 A 
ATOM      5  C   UNL     1     202.652 208.817 279.705  1.00  0.00     0.161 A 
ATOM      6  C   UNL     1     201.911 208.083 280.648  1.00  0.00     0.157 A 
ENDROOT
BRANCH   1   7
ATOM      7  C   UNL     1     204.543 206.027 277.946  1.00  0.00     0.072 C 
ATOM      8  O   UNL     1     204.796 204.803 278.105  1.00  0.00    -0.545 OA
ATOM      9  O   UNL     1     205.130 206.702 276.882  1.00  0.00    -0.545 OA
ENDBRANCH   1   7
BRANCH   5  10
ATOM     10  O   UNL     1     202.510 210.215 279.674  1.00  0.00    -0.493 OA
ATOM     11  C   UNL     1     202.044 210.956 278.552  1.00  0.00     0.278 C 
ENDBRANCH   5  10
BRANCH   6  12
ATOM     12  O   UNL     1     201.046 208.717 281.540  1.00  0.00    -0.504 OA
ATOM     13  H   UNL     1     200.040 208.617 281.481  1.00  0.00     0.293 HD
ENDBRANCH   6  12
TORSDOF 3
ENDMDL
MODEL 2
REMARK VINA RESULT:    -5.462      1.697      3.154
REMARK INTER + INTRA:          -6.356
REMARK INTER:                  -6.275
REMARK INTRA:                  -0.080
REMARK UNBOUND:                -0.096
REMARK SMILES COc1cc(C(=O)[O-])ccc1O
REMARK SMILES IDX 5 1 9 2 4 3 10 4 3 5 11 6 6 7 7 8 8 9 2 10 1 11 12 12
REMARK H PARENT 12 13
REMARK Flexibility Score: inf
ROOT
ATOM      1  C   UNL     1     203.561 209.039 278.427  1.00  0.00     0.001 A 
ATOM      2  C   UNL     1     202.792 210.214 278.422  1.00  0.00     0.014 A 
ATOM      3  C   UNL     1     203.223 208.004 279.319  1.00  0.00     0.060 A 
ATOM      4  C   UNL     1     201.708 210.353 279.289  1.00  0.00     0.051 A 
ATOM      5  C   UNL     1     202.129 208.140 280.197  1.00  0.00     0.161 A 
ATOM      6  C   UNL     1     201.372 209.326 280.175  1.00  0.00     0.157 A 
ENDROOT
BRANCH   1   7
ATOM      7  C   UNL     1     204.712 208.887 277.509  1.00  0.00     0.072 C 
ATOM      8  O   UNL     1     205.118 207.743 277.173  1.00  0.00    -0.545 OA
ATOM      9  O   UNL     1     205.364 210.006 277.004  1.00  0.00    -0.545 OA
ENDBRANCH   1   7
BRANCH   5  10
ATOM     10  O   UNL     1     201.768 207.124 281.098  1.00  0.00    -0.493 OA
ATOM     11  C   UNL     1     202.059 205.743 280.919  1.00  0.00     0.278 C 
ENDBRANCH   5  10
BRANCH   6  12
ATOM     12  O   UNL     1     200.282 209.502 281.027  1.00  0.00    -0.504 OA
ATOM     13  H   UNL     1     199.579 208.784 281.160  1.00  0.00     0.293 HD
ENDBRANCH   6  12
TORSDOF 3
ENDMDL
MODEL 3
REMARK VINA RESULT:    -5.422      1.384      4.511
REMARK INTER + INTRA:          -6.310
REMARK INTER:                  -6.208
REMARK INTRA:                  -0.103
REMARK UNBOUND:                -0.096
REMARK SMILES COc1cc(C(=O)[O-])ccc1O
REMARK SMILES IDX 5 1 9 2 4 3 10 4 3 5 11 6 6 7 7 8 8 9 2 10 1 11 12 12
REMARK H PARENT 12 13
REMARK Flexibility Score: inf
ROOT
ATOM      1  C   UNL     1     202.986 208.068 278.559  1.00  0.00     0.001 A 
ATOM      2  C   UNL     1     202.988 207.204 279.667  1.00  0.00     0.014 A 
ATOM      3  C   UNL     1     203.716 207.710 277.412  1.00  0.00     0.060 A 
ATOM      4  C   UNL     1     203.704 206.008 279.629  1.00  0.00     0.051 A 
ATOM      5  C   UNL     1     204.441 206.502 277.369  1.00  0.00     0.161 A 
ATOM      6  C   UNL     1     204.430 205.651 278.489  1.00  0.00     0.157 A 
ENDROOT
BRANCH   1   7
ATOM      7  C   UNL     1     202.227 209.338 278.596  1.00  0.00     0.072 C 
ATOM      8  O   UNL     1     201.834 209.818 279.692  1.00  0.00    -0.545 OA
ATOM      9  O   UNL     1     201.936 210.020 277.421  1.00  0.00    -0.545 OA
ENDBRANCH   1   7
BRANCH   5  10
ATOM     10  O   UNL     1     205.180 206.118 276.236  1.00  0.00    -0.493 OA
ATOM     11  C   UNL     1     204.621 205.526 275.069  1.00  0.00     0.278 C 
ENDBRANCH   5  10
BRANCH   6  12
ATOM     12  O   UNL     1     205.134 204.448 278.489  1.00  0.00    -0.504 OA
ATOM     13  H   UNL     1     205.926 204.285 279.099  1.00  0.00     0.293 HD
ENDBRANCH   6  12
TORSDOF 3
ENDMDL
MODEL 4
REMARK VINA RESULT:    -5.216      1.685      4.522
REMARK INTER + INTRA:          -6.074
REMARK INTER:                  -5.988
REMARK INTRA:                  -0.086
REMARK UNBOUND:                -0.096
REMARK SMILES COc1cc(C(=O)[O-])ccc1O
REMARK SMILES IDX 5 1 9 2 4 3 10 4 3 5 11 6 6 7 7 8 8 9 2 10 1 11 12 12
REMARK H PARENT 12 13
REMARK Flexibility Score: inf
ROOT
ATOM      1  C   UNL     1     203.882 208.987 278.890  1.00  0.00     0.001 A 
ATOM      2  C   UNL     1     204.641 208.516 277.806  1.00  0.00     0.014 A 
ATOM      3  C   UNL     1     203.414 208.068 279.847  1.00  0.00     0.060 A 
ATOM      4  C   UNL     1     204.925 207.156 277.679  1.00  0.00     0.051 A 
ATOM      5  C   UNL     1     203.699 206.693 279.723  1.00  0.00     0.161 A 
ATOM      6  C   UNL     1     204.460 206.243 278.629  1.00  0.00     0.157 A 
ENDROOT
BRANCH   1   7
ATOM      7  C   UNL     1     203.578 210.428 279.028  1.00  0.00     0.072 C 
ATOM      8  O   UNL     1     202.586 210.933 278.438  1.00  0.00    -0.545 OA
ATOM      9  O   UNL     1     204.384 211.248 279.809  1.00  0.00    -0.545 OA
ENDBRANCH   1   7
BRANCH   5  10
ATOM     10  O   UNL     1     203.244 205.752 280.663  1.00  0.00    -0.493 OA
ATOM     11  C   UNL     1     201.879 205.552 281.013  1.00  0.00     0.278 C 
ENDBRANCH   5  10
BRANCH   6  12
ATOM     12  O   UNL     1     204.764 204.892 278.468  1.00  0.00    -0.504 OA
ATOM     13  H   UNL     1     204.659 204.416 277.580  1.00  0.00     0.293 HD
ENDBRANCH   6  12
TORSDOF 3
ENDMDL
MODEL 5
REMARK VINA RESULT:    -5.213      2.142      3.674
REMARK INTER + INTRA:          -6.071
REMARK INTER:                  -5.974
REMARK INTRA:                  -0.096
REMARK UNBOUND:                -0.096
REMARK SMILES COc1cc(C(=O)[O-])ccc1O
REMARK SMILES IDX 5 1 9 2 4 3 10 4 3 5 11 6 6 7 7 8 8 9 2 10 1 11 12 12
REMARK H PARENT 12 13
REMARK Flexibility Score: inf
ROOT
ATOM      1  C   UNL     1     203.163 206.758 278.593  1.00  0.00     0.001 A 
ATOM      2  C   UNL     1     204.117 206.161 277.752  1.00  0.00     0.014 A 
ATOM      3  C   UNL     1     203.171 208.155 278.753  1.00  0.00     0.060 A 
ATOM      4  C   UNL     1     205.060 206.945 277.087  1.00  0.00     0.051 A 
ATOM      5  C   UNL     1     204.121 208.951 278.082  1.00  0.00     0.161 A 
ATOM      6  C   UNL     1     205.069 208.333 277.245  1.00  0.00     0.157 A 
ENDROOT
BRANCH   1   7
ATOM      7  C   UNL     1     202.161 205.930 279.301  1.00  0.00     0.072 C 
ATOM      8  O   UNL     1     201.189 205.426 278.677  1.00  0.00    -0.545 OA
ATOM      9  O   UNL     1     202.276 205.696 280.666  1.00  0.00    -0.545 OA
ENDBRANCH   1   7
BRANCH   5  10
ATOM     10  O   UNL     1     204.154 210.349 278.223  1.00  0.00    -0.493 OA
ATOM     11  C   UNL     1     204.707 211.037 279.340  1.00  0.00     0.278 C 
ENDBRANCH   5  10
BRANCH   6  12
ATOM     12  O   UNL     1     206.027 209.083 276.564  1.00  0.00    -0.504 OA
ATOM     13  H   UNL     1     205.914 209.350 275.593  1.00  0.00     0.293 HD
ENDBRANCH   6  12
TORSDOF 3
ENDMDL
MODEL 6
REMARK VINA RESULT:    -5.201      1.945      5.116
REMARK INTER + INTRA:          -6.057
REMARK INTER:                  -5.963
REMARK INTRA:                  -0.094
REMARK UNBOUND:                -0.096
REMARK SMILES COc1cc(C(=O)[O-])ccc1O
REMARK SMILES IDX 5 1 9 2 4 3 10 4 3 5 11 6 6 7 7 8 8 9 2 10 1 11 12 12
REMARK H PARENT 12 13
REMARK Flexibility Score: inf
ROOT
ATOM      1  C   UNL     1     204.090 208.836 279.062  1.00  0.00     0.001 A 
ATOM      2  C   UNL     1     204.486 209.959 278.317  1.00  0.00     0.014 A 
ATOM      3  C   UNL     1     204.320 207.551 278.538  1.00  0.00     0.060 A 
ATOM      4  C   UNL     1     205.099 209.801 277.074  1.00  0.00     0.051 A 
ATOM      5  C   UNL     1     204.940 207.387 277.282  1.00  0.00     0.161 A 
ATOM      6  C   UNL     1     205.329 208.525 276.553  1.00  0.00     0.157 A 
ENDROOT
BRANCH   1   7
ATOM      7  C   UNL     1     203.438 208.999 280.381  1.00  0.00     0.072 C 
ATOM      8  O   UNL     1     204.031 209.596 281.319  1.00  0.00    -0.545 OA
ATOM      9  O   UNL     1     202.163 208.494 280.605  1.00  0.00    -0.545 OA
ENDBRANCH   1   7
BRANCH   5  10
ATOM     10  O   UNL     1     205.183 206.116 276.733  1.00  0.00    -0.493 OA
ATOM     11  C   UNL     1     204.242 205.372 275.968  1.00  0.00     0.278 C 
ENDBRANCH   5  10
BRANCH   6  12
ATOM     12  O   UNL     1     205.944 208.408 275.307  1.00  0.00    -0.504 OA
ATOM     13  H   UNL     1     206.937 208.563 275.178  1.00  0.00     0.293 HD
ENDBRANCH   6  12
TORSDOF 3
ENDMDL
MODEL 7
REMARK VINA RESULT:    -5.159      1.599      4.117
REMARK INTER + INTRA:          -6.008
REMARK INTER:                  -5.911
REMARK INTRA:                  -0.097
REMARK UNBOUND:                -0.096
REMARK SMILES COc1cc(C(=O)[O-])ccc1O
REMARK SMILES IDX 5 1 9 2 4 3 10 4 3 5 11 6 6 7 7 8 8 9 2 10 1 11 12 12
REMARK H PARENT 12 13
REMARK Flexibility Score: inf
ROOT
ATOM      1  C   UNL     1     202.974 209.188 279.629  1.00  0.00     0.001 A 
ATOM      2  C   UNL     1     201.856 208.815 280.392  1.00  0.00     0.014 A 
ATOM      3  C   UNL     1     203.864 208.191 279.187  1.00  0.00     0.060 A 
ATOM      4  C   UNL     1     201.630 207.475 280.707  1.00  0.00     0.051 A 
ATOM      5  C   UNL     1     203.640 206.836 279.503  1.00  0.00     0.161 A 
ATOM      6  C   UNL     1     202.513 206.484 280.269  1.00  0.00     0.157 A 
ENDROOT
BRANCH   1   7
ATOM      7  C   UNL     1     203.217 210.608 279.293  1.00  0.00     0.072 C 
ATOM      8  O   UNL     1     204.247 211.199 279.713  1.00  0.00    -0.545 OA
ATOM      9  O   UNL     1     202.311 211.313 278.509  1.00  0.00    -0.545 OA
ENDBRANCH   1   7
BRANCH   5  10
ATOM     10  O   UNL     1     204.511 205.819 279.076  1.00  0.00    -0.493 OA
ATOM     11  C   UNL     1     204.521 205.260 277.767  1.00  0.00     0.278 C 
ENDBRANCH   5  10
BRANCH   6  12
ATOM     12  O   UNL     1     202.254 205.156 280.604  1.00  0.00    -0.504 OA
ATOM     13  H   UNL     1     201.315 204.814 280.770  1.00  0.00     0.293 HD
ENDBRANCH   6  12
TORSDOF 3
ENDMDL
MODEL 8
REMARK VINA RESULT:    -5.113      2.007      4.727
REMARK INTER + INTRA:          -5.955
REMARK INTER:                  -5.867
REMARK INTRA:                  -0.088
REMARK UNBOUND:                -0.096
REMARK SMILES COc1cc(C(=O)[O-])ccc1O
REMARK SMILES IDX 5 1 9 2 4 3 10 4 3 5 11 6 6 7 7 8 8 9 2 10 1 11 12 12
REMARK H PARENT 12 13
REMARK Flexibility Score: inf
ROOT
ATOM      1  C   UNL     1     203.215 207.135 278.645  1.00  0.00     0.001 A 
ATOM      2  C   UNL     1     203.587 208.485 278.756  1.00  0.00     0.014 A 
ATOM      3  C   UNL     1     203.801 206.344 277.641  1.00  0.00     0.060 A 
ATOM      4  C   UNL     1     204.526 209.033 277.881  1.00  0.00     0.051 A 
ATOM      5  C   UNL     1     204.750 206.893 276.755  1.00  0.00     0.161 A 
ATOM      6  C   UNL     1     205.109 208.247 276.883  1.00  0.00     0.157 A 
ENDROOT
BRANCH   1   7
ATOM      7  C   UNL     1     202.219 206.550 279.571  1.00  0.00     0.072 C 
ATOM      8  O   UNL     1     201.502 205.578 279.211  1.00  0.00    -0.545 OA
ATOM      9  O   UNL     1     202.058 207.065 280.852  1.00  0.00    -0.545 OA
ENDBRANCH   1   7
BRANCH   5  10
ATOM     10  O   UNL     1     205.353 206.128 275.742  1.00  0.00    -0.493 OA
ATOM     11  C   UNL     1     204.644 205.319 274.809  1.00  0.00     0.278 C 
ENDBRANCH   5  10
BRANCH   6  12
ATOM     12  O   UNL     1     206.043 208.831 276.028  1.00  0.00    -0.504 OA
ATOM     13  H   UNL     1     207.039 208.669 276.124  1.00  0.00     0.293 HD
ENDBRANCH   6  12
TORSDOF 3
ENDMDL
MODEL 9
REMARK VINA RESULT:    -5.110      2.028      3.036
REMARK INTER + INTRA:          -5.952
REMARK INTER:                  -5.878
REMARK INTRA:                  -0.074
REMARK UNBOUND:                -0.096
REMARK SMILES COc1cc(C(=O)[O-])ccc1O
REMARK SMILES IDX 5 1 9 2 4 3 10 4 3 5 11 6 6 7 7 8 8 9 2 10 1 11 12 12
REMARK H PARENT 12 13
REMARK Flexibility Score: inf
ROOT
ATOM      1  C   UNL     1     203.435 207.916 279.350  1.00  0.00     0.001 A 
ATOM      2  C   UNL     1     204.101 208.934 280.051  1.00  0.00     0.014 A 
ATOM      3  C   UNL     1     202.561 208.264 278.304  1.00  0.00     0.060 A 
ATOM      4  C   UNL     1     203.899 210.273 279.713  1.00  0.00     0.051 A 
ATOM      5  C   UNL     1     202.354 209.615 277.959  1.00  0.00     0.161 A 
ATOM      6  C   UNL     1     203.031 210.619 278.674  1.00  0.00     0.157 A 
ENDROOT
BRANCH   1   7
ATOM      7  C   UNL     1     203.646 206.495 279.705  1.00  0.00     0.072 C 
ATOM      8  O   UNL     1     203.023 205.975 280.669  1.00  0.00    -0.545 OA
ATOM      9  O   UNL     1     204.537 205.711 278.981  1.00  0.00    -0.545 OA
ENDBRANCH   1   7
BRANCH   5  10
ATOM     10  O   UNL     1     201.487 209.993 276.919  1.00  0.00    -0.493 OA
ATOM     11  C   UNL     1     201.124 209.157 275.825  1.00  0.00     0.278 C 
ENDBRANCH   5  10
BRANCH   6  12
ATOM     12  O   UNL     1     202.855 211.968 278.366  1.00  0.00    -0.504 OA
ATOM     13  H   UNL     1     203.590 212.528 277.952  1.00  0.00     0.293 HD
ENDBRANCH   6  12
TORSDOF 3
ENDMDL
