MODEL 1
REMARK VINA RESULT:    -4.861      0.000      0.000
REMARK INTER + INTRA:          -5.239
REMARK INTER:                  -5.145
REMARK INTRA:                  -0.094
REMARK UNBOUND:                -0.094
REMARK SMILES C=C(C)[C@@H]1CC=C(C)C(=O)C1
REMARK SMILES IDX 8 1 7 2 6 3 5 4 4 5 11 6 9 7 10 8 2 9 1 10 3 11
REMARK H PARENT
REMARK Flexibility Score: inf
ROOT
ATOM      1  C   UNL     1      -1.042  -0.031  26.598  1.00  0.00     0.048 C 
ATOM      2  C   UNL     1      -1.839  -0.071  27.873  1.00  0.00    -0.012 C 
ATOM      3  C   UNL     1      -3.140  -0.403  27.839  1.00  0.00    -0.019 C 
ATOM      4  C   UNL     1      -3.980  -0.475  29.087  1.00  0.00     0.036 C 
ATOM      5  C   UNL     1      -3.513   0.558  30.130  1.00  0.00     0.025 C 
ATOM      6  C   UNL     1      -2.011   0.378  30.424  1.00  0.00     0.089 C 
ATOM      7  C   UNL     1      -1.219   0.374  29.147  1.00  0.00     0.158 C 
ATOM      8  O   UNL     1      -0.006   0.720  29.174  1.00  0.00    -0.295 OA
ENDROOT
BRANCH   5   9
ATOM      9  C   UNL     1      -4.346   0.489  31.403  1.00  0.00    -0.077 C 
ATOM     10  C   UNL     1      -4.357   1.503  32.287  1.00  0.00     0.008 C 
ATOM     11  C   UNL     1      -5.180  -0.731  31.696  1.00  0.00     0.039 C 
ENDBRANCH   5   9
TORSDOF 1
ENDMDL
MODEL 2
REMARK VINA RESULT:    -4.497      2.049      4.686
REMARK INTER + INTRA:          -4.853
REMARK INTER:                  -4.759
REMARK INTRA:                  -0.095
REMARK UNBOUND:                -0.094
REMARK SMILES C=C(C)[C@@H]1CC=C(C)C(=O)C1
REMARK SMILES IDX 8 1 7 2 6 3 5 4 4 5 11 6 9 7 10 8 2 9 1 10 3 11
REMARK H PARENT
REMARK Flexibility Score: inf
ROOT
ATOM      1  C   UNL     1      -4.457   1.309  32.235  1.00  0.00     0.048 C 
ATOM      2  C   UNL     1      -3.802   0.854  30.960  1.00  0.00    -0.012 C 
ATOM      3  C   UNL     1      -2.751   1.532  30.469  1.00  0.00    -0.019 C 
ATOM      4  C   UNL     1      -2.046   1.109  29.207  1.00  0.00     0.036 C 
ATOM      5  C   UNL     1      -3.028   0.458  28.215  1.00  0.00     0.025 C 
ATOM      6  C   UNL     1      -3.771  -0.711  28.889  1.00  0.00     0.089 C 
ATOM      7  C   UNL     1      -4.391  -0.267  30.185  1.00  0.00     0.158 C 
ATOM      8  O   UNL     1      -5.399  -0.882  30.627  1.00  0.00    -0.295 OA
ENDROOT
BRANCH   5   9
ATOM      9  C   UNL     1      -2.328   0.016  26.938  1.00  0.00    -0.077 C 
ATOM     10  C   UNL     1      -1.045  -0.387  26.947  1.00  0.00     0.008 C 
ATOM     11  C   UNL     1      -3.070   0.025  25.626  1.00  0.00     0.039 C 
ENDBRANCH   5   9
TORSDOF 1
ENDMDL
MODEL 3
REMARK VINA RESULT:    -4.468      1.842      4.335
REMARK INTER + INTRA:          -4.823
REMARK INTER:                  -4.726
REMARK INTRA:                  -0.097
REMARK UNBOUND:                -0.094
REMARK SMILES C=C(C)[C@@H]1CC=C(C)C(=O)C1
REMARK SMILES IDX 8 1 7 2 6 3 5 4 4 5 11 6 9 7 10 8 2 9 1 10 3 11
REMARK H PARENT
REMARK Flexibility Score: inf
ROOT
ATOM      1  C   UNL     1      -5.868  -0.251  32.156  1.00  0.00     0.048 C 
ATOM      2  C   UNL     1      -4.740   0.055  31.209  1.00  0.00    -0.012 C 
ATOM      3  C   UNL     1      -4.512  -0.750  30.158  1.00  0.00    -0.019 C 
ATOM      4  C   UNL     1      -3.408  -0.480  29.170  1.00  0.00     0.036 C 
ATOM      5  C   UNL     1      -2.203   0.193  29.855  1.00  0.00     0.025 C 
ATOM      6  C   UNL     1      -2.652   1.469  30.592  1.00  0.00     0.089 C 
ATOM      7  C   UNL     1      -3.808   1.172  31.506  1.00  0.00     0.158 C 
ATOM      8  O   UNL     1      -4.000   1.907  32.513  1.00  0.00    -0.295 OA
ENDROOT
BRANCH   5   9
ATOM      9  C   UNL     1      -1.082   0.481  28.865  1.00  0.00    -0.077 C 
ATOM     10  C   UNL     1       0.014   1.170  29.231  1.00  0.00     0.008 C 
ATOM     11  C   UNL     1      -1.185  -0.006  27.443  1.00  0.00     0.039 C 
ENDBRANCH   5   9
TORSDOF 1
ENDMDL
MODEL 4
REMARK VINA RESULT:    -4.427      1.457      2.043
REMARK INTER + INTRA:          -4.779
REMARK INTER:                  -4.685
REMARK INTRA:                  -0.094
REMARK UNBOUND:                -0.094
REMARK SMILES C=C(C)[C@@H]1CC=C(C)C(=O)C1
REMARK SMILES IDX 8 1 7 2 6 3 5 4 4 5 11 6 9 7 10 8 2 9 1 10 3 11
REMARK H PARENT
REMARK Flexibility Score: inf
ROOT
ATOM      1  C   UNL     1      -0.873  -0.220  26.677  1.00  0.00     0.048 C 
ATOM      2  C   UNL     1      -1.740   0.094  27.865  1.00  0.00    -0.012 C 
ATOM      3  C   UNL     1      -1.217   0.063  29.102  1.00  0.00    -0.019 C 
ATOM      4  C   UNL     1      -2.036   0.386  30.324  1.00  0.00     0.036 C 
ATOM      5  C   UNL     1      -3.504  -0.042  30.137  1.00  0.00     0.025 C 
ATOM      6  C   UNL     1      -4.086   0.593  28.859  1.00  0.00     0.089 C 
ATOM      7  C   UNL     1      -3.196   0.316  27.679  1.00  0.00     0.158 C 
ATOM      8  O   UNL     1      -3.695   0.310  26.521  1.00  0.00    -0.295 OA
ENDROOT
BRANCH   5   9
ATOM      9  C   UNL     1      -4.347   0.288  31.361  1.00  0.00    -0.077 C 
ATOM     10  C   UNL     1      -4.210   1.458  32.010  1.00  0.00     0.008 C 
ATOM     11  C   UNL     1      -5.359  -0.705  31.872  1.00  0.00     0.039 C 
ENDBRANCH   5   9
TORSDOF 1
ENDMDL
MODEL 5
REMARK VINA RESULT:    -4.401      2.093      4.481
REMARK INTER + INTRA:          -4.752
REMARK INTER:                  -4.657
REMARK INTRA:                  -0.095
REMARK UNBOUND:                -0.094
REMARK SMILES C=C(C)[C@@H]1CC=C(C)C(=O)C1
REMARK SMILES IDX 8 1 7 2 6 3 5 4 4 5 11 6 9 7 10 8 2 9 1 10 3 11
REMARK H PARENT
REMARK Flexibility Score: inf
ROOT
ATOM      1  C   UNL     1      -1.262   2.640  31.986  1.00  0.00     0.048 C 
ATOM      2  C   UNL     1      -1.459   1.807  30.750  1.00  0.00    -0.012 C 
ATOM      3  C   UNL     1      -0.474   1.715  29.840  1.00  0.00    -0.019 C 
ATOM      4  C   UNL     1      -0.612   0.881  28.595  1.00  0.00     0.036 C 
ATOM      5  C   UNL     1      -2.072   0.858  28.102  1.00  0.00     0.025 C 
ATOM      6  C   UNL     1      -3.008   0.384  29.229  1.00  0.00     0.089 C 
ATOM      7  C   UNL     1      -2.781   1.189  30.479  1.00  0.00     0.158 C 
ATOM      8  O   UNL     1      -3.718   1.304  31.315  1.00  0.00    -0.295 OA
ENDROOT
BRANCH   5   9
ATOM      9  C   UNL     1      -2.229   0.009  26.848  1.00  0.00    -0.077 C 
ATOM     10  C   UNL     1      -1.381  -0.998  26.574  1.00  0.00     0.008 C 
ATOM     11  C   UNL     1      -3.351   0.288  25.881  1.00  0.00     0.039 C 
ENDBRANCH   5   9
TORSDOF 1
ENDMDL
MODEL 6
REMARK VINA RESULT:    -4.306     16.887     17.727
REMARK INTER + INTRA:          -4.651
REMARK INTER:                  -4.556
REMARK INTRA:                  -0.095
REMARK UNBOUND:                -0.094
REMARK SMILES C=C(C)[C@@H]1CC=C(C)C(=O)C1
REMARK SMILES IDX 8 1 7 2 6 3 5 4 4 5 11 6 9 7 10 8 2 9 1 10 3 11
REMARK H PARENT
REMARK Flexibility Score: inf
ROOT
ATOM      1  C   UNL     1      -9.164  12.357  19.346  1.00  0.00     0.048 C 
ATOM      2  C   UNL     1     -10.205  11.457  18.739  1.00  0.00    -0.012 C 
ATOM      3  C   UNL     1     -11.220  11.988  18.036  1.00  0.00    -0.019 C 
ATOM      4  C   UNL     1     -12.279  11.132  17.392  1.00  0.00     0.036 C 
ATOM      5  C   UNL     1     -12.545   9.862  18.222  1.00  0.00     0.025 C 
ATOM      6  C   UNL     1     -11.232   9.091  18.453  1.00  0.00     0.089 C 
ATOM      7  C   UNL     1     -10.177  10.000  19.020  1.00  0.00     0.158 C 
ATOM      8  O   UNL     1      -9.245   9.505  19.710  1.00  0.00    -0.295 OA
ENDROOT
BRANCH   5   9
ATOM      9  C   UNL     1     -13.607   8.981  17.577  1.00  0.00    -0.077 C 
ATOM     10  C   UNL     1     -13.274   7.883  16.876  1.00  0.00     0.008 C 
ATOM     11  C   UNL     1     -15.066   9.331  17.716  1.00  0.00     0.039 C 
ENDBRANCH   5   9
TORSDOF 1
ENDMDL
MODEL 7
REMARK VINA RESULT:    -4.293      3.317      3.941
REMARK INTER + INTRA:          -4.638
REMARK INTER:                  -4.542
REMARK INTRA:                  -0.097
REMARK UNBOUND:                -0.094
REMARK SMILES C=C(C)[C@@H]1CC=C(C)C(=O)C1
REMARK SMILES IDX 8 1 7 2 6 3 5 4 4 5 11 6 9 7 10 8 2 9 1 10 3 11
REMARK H PARENT
REMARK Flexibility Score: inf
ROOT
ATOM      1  C   UNL     1      -1.969  -0.198  26.292  1.00  0.00     0.048 C 
ATOM      2  C   UNL     1      -1.404   0.752  27.312  1.00  0.00    -0.012 C 
ATOM      3  C   UNL     1      -0.742   0.272  28.378  1.00  0.00    -0.019 C 
ATOM      4  C   UNL     1      -0.141   1.179  29.420  1.00  0.00     0.036 C 
ATOM      5  C   UNL     1      -0.980   2.459  29.592  1.00  0.00     0.025 C 
ATOM      6  C   UNL     1      -1.159   3.166  28.234  1.00  0.00     0.089 C 
ATOM      7  C   UNL     1      -1.683   2.206  27.203  1.00  0.00     0.158 C 
ATOM      8  O   UNL     1      -2.335   2.654  26.221  1.00  0.00    -0.295 OA
ENDROOT
BRANCH   5   9
ATOM      9  C   UNL     1      -0.379   3.391  30.635  1.00  0.00    -0.077 C 
ATOM     10  C   UNL     1       0.001   4.642  30.319  1.00  0.00     0.008 C 
ATOM     11  C   UNL     1      -0.196   2.920  32.054  1.00  0.00     0.039 C 
ENDBRANCH   5   9
TORSDOF 1
ENDMDL
MODEL 8
REMARK VINA RESULT:    -4.151      2.024      4.583
REMARK INTER + INTRA:          -4.488
REMARK INTER:                  -4.392
REMARK INTRA:                  -0.095
REMARK UNBOUND:                -0.094
REMARK SMILES C=C(C)[C@@H]1CC=C(C)C(=O)C1
REMARK SMILES IDX 8 1 7 2 6 3 5 4 4 5 11 6 9 7 10 8 2 9 1 10 3 11
REMARK H PARENT
REMARK Flexibility Score: inf
ROOT
ATOM      1  C   UNL     1      -4.786   0.994  32.281  1.00  0.00     0.048 C 
ATOM      2  C   UNL     1      -4.408   0.708  30.854  1.00  0.00    -0.012 C 
ATOM      3  C   UNL     1      -4.010  -0.526  30.502  1.00  0.00    -0.019 C 
ATOM      4  C   UNL     1      -3.639  -0.871  29.084  1.00  0.00     0.036 C 
ATOM      5  C   UNL     1      -3.006   0.337  28.366  1.00  0.00     0.025 C 
ATOM      6  C   UNL     1      -3.946   1.555  28.444  1.00  0.00     0.089 C 
ATOM      7  C   UNL     1      -4.359   1.815  29.866  1.00  0.00     0.158 C 
ATOM      8  O   UNL     1      -4.698   2.982  30.205  1.00  0.00    -0.295 OA
ENDROOT
BRANCH   5   9
ATOM      9  C   UNL     1      -2.634   0.006  26.928  1.00  0.00    -0.077 C 
ATOM     10  C   UNL     1      -3.415   0.383  25.899  1.00  0.00     0.008 C 
ATOM     11  C   UNL     1      -1.371  -0.760  26.630  1.00  0.00     0.039 C 
ENDBRANCH   5   9
TORSDOF 1
ENDMDL
MODEL 9
REMARK VINA RESULT:    -4.107     10.087     11.800
REMARK INTER + INTRA:          -4.441
REMARK INTER:                  -4.347
REMARK INTRA:                  -0.093
REMARK UNBOUND:                -0.094
REMARK SMILES C=C(C)[C@@H]1CC=C(C)C(=O)C1
REMARK SMILES IDX 8 1 7 2 6 3 5 4 4 5 11 6 9 7 10 8 2 9 1 10 3 11
REMARK H PARENT
REMARK Flexibility Score: inf
ROOT
ATOM      1  C   UNL     1     -11.887   0.715  32.430  1.00  0.00     0.048 C 
ATOM      2  C   UNL     1     -12.840   1.171  31.359  1.00  0.00    -0.012 C 
ATOM      3  C   UNL     1     -13.179   0.333  30.365  1.00  0.00    -0.019 C 
ATOM      4  C   UNL     1     -14.142   0.731  29.278  1.00  0.00     0.036 C 
ATOM      5  C   UNL     1     -14.033   2.236  28.965  1.00  0.00     0.025 C 
ATOM      6  C   UNL     1     -14.227   3.064  30.250  1.00  0.00     0.089 C 
ATOM      7  C   UNL     1     -13.305   2.580  31.334  1.00  0.00     0.158 C 
ATOM      8  O   UNL     1     -12.958   3.378  32.247  1.00  0.00    -0.295 OA
ENDROOT
BRANCH   5   9
ATOM      9  C   UNL     1     -15.008   2.656  27.874  1.00  0.00    -0.077 C 
ATOM     10  C   UNL     1     -16.333   2.706  28.101  1.00  0.00     0.008 C 
ATOM     11  C   UNL     1     -14.498   3.026  26.505  1.00  0.00     0.039 C 
ENDBRANCH   5   9
TORSDOF 1
ENDMDL
