MODEL 1
REMARK VINA RESULT:    -4.033      0.000      0.000
REMARK INTER + INTRA:          -4.033
REMARK INTER:                  -4.033
REMARK INTRA:                   0.000
REMARK UNBOUND:                 0.000
REMARK SMILES c1ccc2ccccc2c1
REMARK SMILES IDX 2 1 1 2 10 3 9 4 8 5 7 6 6 7 5 8 4 9 3 10
REMARK H PARENT
REMARK Flexibility Score: inf
ROOT
ATOM      1  C   UNL     1      -0.927  -8.359  39.173  1.00  0.00     0.001 A 
ATOM      2  C   UNL     1      -0.095  -9.482  39.148  1.00  0.00     0.001 A 
ATOM      3  C   UNL     1      -0.431 -10.624  39.882  1.00  0.00     0.009 A 
ATOM      4  C   UNL     1      -1.608 -10.649  40.647  1.00  0.00    -0.018 A 
ATOM      5  C   UNL     1      -1.957 -11.788  41.387  1.00  0.00     0.009 A 
ATOM      6  C   UNL     1      -3.131 -11.800  42.145  1.00  0.00     0.001 A 
ATOM      7  C   UNL     1      -3.964 -10.677  42.170  1.00  0.00     0.001 A 
ATOM      8  C   UNL     1      -3.627  -9.535  41.437  1.00  0.00     0.009 A 
ATOM      9  C   UNL     1      -2.451  -9.510  40.672  1.00  0.00    -0.018 A 
ATOM     10  C   UNL     1      -2.102  -8.371  39.931  1.00  0.00     0.009 A 
ENDROOT
TORSDOF 0
ENDMDL
MODEL 2
REMARK VINA RESULT:    -4.026      0.074      3.436
REMARK INTER + INTRA:          -4.026
REMARK INTER:                  -4.026
REMARK INTRA:                   0.000
REMARK UNBOUND:                 0.000
REMARK SMILES c1ccc2ccccc2c1
REMARK SMILES IDX 2 1 1 2 10 3 9 4 8 5 7 6 6 7 5 8 4 9 3 10
REMARK H PARENT
REMARK Flexibility Score: inf
ROOT
ATOM      1  C   UNL     1      -3.963 -10.761  42.183  1.00  0.00     0.001 A 
ATOM      2  C   UNL     1      -3.087 -11.850  42.159  1.00  0.00     0.001 A 
ATOM      3  C   UNL     1      -1.916 -11.794  41.397  1.00  0.00     0.009 A 
ATOM      4  C   UNL     1      -1.613 -10.644  40.653  1.00  0.00    -0.018 A 
ATOM      5  C   UNL     1      -0.442 -10.575  39.884  1.00  0.00     0.009 A 
ATOM      6  C   UNL     1      -0.152  -9.423  39.148  1.00  0.00     0.001 A 
ATOM      7  C   UNL     1      -1.028  -8.334  39.172  1.00  0.00     0.001 A 
ATOM      8  C   UNL     1      -2.199  -8.390  39.934  1.00  0.00     0.009 A 
ATOM      9  C   UNL     1      -2.502  -9.540  40.678  1.00  0.00    -0.018 A 
ATOM     10  C   UNL     1      -3.674  -9.608  41.447  1.00  0.00     0.009 A 
ENDROOT
TORSDOF 0
ENDMDL
MODEL 3
REMARK VINA RESULT:    -3.989      0.204      4.022
REMARK INTER + INTRA:          -3.989
REMARK INTER:                  -3.989
REMARK INTRA:                   0.000
REMARK UNBOUND:                 0.000
REMARK SMILES c1ccc2ccccc2c1
REMARK SMILES IDX 2 1 1 2 10 3 9 4 8 5 7 6 6 7 5 8 4 9 3 10
REMARK H PARENT
REMARK Flexibility Score: inf
ROOT
ATOM      1  C   UNL     1      -3.287 -11.863  42.244  1.00  0.00     0.001 A 
ATOM      2  C   UNL     1      -4.136 -10.752  42.257  1.00  0.00     0.001 A 
ATOM      3  C   UNL     1      -3.805  -9.605  41.530  1.00  0.00     0.009 A 
ATOM      4  C   UNL     1      -2.618  -9.562  40.782  1.00  0.00    -0.018 A 
ATOM      5  C   UNL     1      -2.274  -8.417  40.049  1.00  0.00     0.009 A 
ATOM      6  C   UNL     1      -1.088  -8.388  39.308  1.00  0.00     0.001 A 
ATOM      7  C   UNL     1      -0.239  -9.498  39.295  1.00  0.00     0.001 A 
ATOM      8  C   UNL     1      -0.571 -10.645  40.022  1.00  0.00     0.009 A 
ATOM      9  C   UNL     1      -1.758 -10.688  40.770  1.00  0.00    -0.018 A 
ATOM     10  C   UNL     1      -2.102 -11.834  41.504  1.00  0.00     0.009 A 
ENDROOT
TORSDOF 0
ENDMDL
MODEL 4
REMARK VINA RESULT:    -3.985      0.176      2.088
REMARK INTER + INTRA:          -3.985
REMARK INTER:                  -3.985
REMARK INTRA:                   0.000
REMARK UNBOUND:                 0.000
REMARK SMILES c1ccc2ccccc2c1
REMARK SMILES IDX 2 1 1 2 10 3 9 4 8 5 7 6 6 7 5 8 4 9 3 10
REMARK H PARENT
REMARK Flexibility Score: inf
ROOT
ATOM      1  C   UNL     1      -0.238  -9.532  39.225  1.00  0.00     0.001 A 
ATOM      2  C   UNL     1      -1.082  -8.417  39.257  1.00  0.00     0.001 A 
ATOM      3  C   UNL     1      -2.256  -8.447  40.015  1.00  0.00     0.009 A 
ATOM      4  C   UNL     1      -2.595  -9.595  40.747  1.00  0.00    -0.018 A 
ATOM      5  C   UNL     1      -3.771  -9.637  41.511  1.00  0.00     0.009 A 
ATOM      6  C   UNL     1      -4.097 -10.787  42.236  1.00  0.00     0.001 A 
ATOM      7  C   UNL     1      -3.253 -11.901  42.203  1.00  0.00     0.001 A 
ATOM      8  C   UNL     1      -2.078 -11.872  41.446  1.00  0.00     0.009 A 
ATOM      9  C   UNL     1      -1.740 -10.724  40.714  1.00  0.00    -0.018 A 
ATOM     10  C   UNL     1      -0.563 -10.682  39.950  1.00  0.00     0.009 A 
ENDROOT
TORSDOF 0
ENDMDL
MODEL 5
REMARK VINA RESULT:    -3.875      1.895      3.179
REMARK INTER + INTRA:          -3.875
REMARK INTER:                  -3.875
REMARK INTRA:                   0.000
REMARK UNBOUND:                 0.000
REMARK SMILES c1ccc2ccccc2c1
REMARK SMILES IDX 2 1 1 2 10 3 9 4 8 5 7 6 6 7 5 8 4 9 3 10
REMARK H PARENT
REMARK Flexibility Score: inf
ROOT
ATOM      1  C   UNL     1      -2.713  -7.031  37.581  1.00  0.00     0.001 A 
ATOM      2  C   UNL     1      -4.107  -7.121  37.646  1.00  0.00     0.001 A 
ATOM      3  C   UNL     1      -4.718  -7.858  38.665  1.00  0.00     0.009 A 
ATOM      4  C   UNL     1      -3.935  -8.511  39.629  1.00  0.00    -0.018 A 
ATOM      5  C   UNL     1      -4.535  -9.254  40.657  1.00  0.00     0.009 A 
ATOM      6  C   UNL     1      -3.743  -9.899  41.611  1.00  0.00     0.001 A 
ATOM      7  C   UNL     1      -2.350  -9.810  41.547  1.00  0.00     0.001 A 
ATOM      8  C   UNL     1      -1.739  -9.072  40.527  1.00  0.00     0.009 A 
ATOM      9  C   UNL     1      -2.522  -8.419  39.563  1.00  0.00    -0.018 A 
ATOM     10  C   UNL     1      -1.921  -7.676  38.536  1.00  0.00     0.009 A 
ENDROOT
TORSDOF 0
ENDMDL
MODEL 6
REMARK VINA RESULT:    -3.848      2.144      3.260
REMARK INTER + INTRA:          -3.848
REMARK INTER:                  -3.848
REMARK INTRA:                   0.000
REMARK UNBOUND:                 0.000
REMARK SMILES c1ccc2ccccc2c1
REMARK SMILES IDX 2 1 1 2 10 3 9 4 8 5 7 6 6 7 5 8 4 9 3 10
REMARK H PARENT
REMARK Flexibility Score: inf
ROOT
ATOM      1  C   UNL     1      -4.865  -7.222  37.734  1.00  0.00     0.001 A 
ATOM      2  C   UNL     1      -3.554  -6.841  37.432  1.00  0.00     0.001 A 
ATOM      3  C   UNL     1      -2.492  -7.284  38.227  1.00  0.00     0.009 A 
ATOM      4  C   UNL     1      -2.737  -8.113  39.332  1.00  0.00    -0.018 A 
ATOM      5  C   UNL     1      -1.680  -8.564  40.138  1.00  0.00     0.009 A 
ATOM      6  C   UNL     1      -1.938  -9.390  41.236  1.00  0.00     0.001 A 
ATOM      7  C   UNL     1      -3.249  -9.770  41.538  1.00  0.00     0.001 A 
ATOM      8  C   UNL     1      -4.310  -9.328  40.743  1.00  0.00     0.009 A 
ATOM      9  C   UNL     1      -4.066  -8.498  39.638  1.00  0.00    -0.018 A 
ATOM     10  C   UNL     1      -5.123  -8.048  38.832  1.00  0.00     0.009 A 
ENDROOT
TORSDOF 0
ENDMDL
MODEL 7
REMARK VINA RESULT:    -3.830      1.089      1.573
REMARK INTER + INTRA:          -3.830
REMARK INTER:                  -3.830
REMARK INTRA:                   0.000
REMARK UNBOUND:                 0.000
REMARK SMILES c1ccc2ccccc2c1
REMARK SMILES IDX 2 1 1 2 10 3 9 4 8 5 7 6 6 7 5 8 4 9 3 10
REMARK H PARENT
REMARK Flexibility Score: inf
ROOT
ATOM      1  C   UNL     1      -2.258  -7.541  38.208  1.00  0.00     0.001 A 
ATOM      2  C   UNL     1      -0.998  -8.061  37.899  1.00  0.00     0.001 A 
ATOM      3  C   UNL     1      -0.469  -9.115  38.650  1.00  0.00     0.009 A 
ATOM      4  C   UNL     1      -1.201  -9.657  39.718  1.00  0.00    -0.018 A 
ATOM      5  C   UNL     1      -0.681 -10.714  40.480  1.00  0.00     0.009 A 
ATOM      6  C   UNL     1      -1.421 -11.245  41.540  1.00  0.00     0.001 A 
ATOM      7  C   UNL     1      -2.682 -10.725  41.849  1.00  0.00     0.001 A 
ATOM      8  C   UNL     1      -3.210  -9.671  41.097  1.00  0.00     0.009 A 
ATOM      9  C   UNL     1      -2.479  -9.129  40.030  1.00  0.00    -0.018 A 
ATOM     10  C   UNL     1      -2.998  -8.071  39.268  1.00  0.00     0.009 A 
ENDROOT
TORSDOF 0
ENDMDL
MODEL 8
REMARK VINA RESULT:    -3.788      1.186      4.183
REMARK INTER + INTRA:          -3.788
REMARK INTER:                  -3.788
REMARK INTRA:                   0.000
REMARK UNBOUND:                 0.000
REMARK SMILES c1ccc2ccccc2c1
REMARK SMILES IDX 2 1 1 2 10 3 9 4 8 5 7 6 6 7 5 8 4 9 3 10
REMARK H PARENT
REMARK Flexibility Score: inf
ROOT
ATOM      1  C   UNL     1      -1.309 -11.022  41.170  1.00  0.00     0.001 A 
ATOM      2  C   UNL     1      -2.474 -10.330  41.515  1.00  0.00     0.001 A 
ATOM      3  C   UNL     1      -2.912  -9.259  40.731  1.00  0.00     0.009 A 
ATOM      4  C   UNL     1      -2.186  -8.872  39.594  1.00  0.00    -0.018 A 
ATOM      5  C   UNL     1      -2.615  -7.798  38.800  1.00  0.00     0.009 A 
ATOM      6  C   UNL     1      -1.882  -7.424  37.670  1.00  0.00     0.001 A 
ATOM      7  C   UNL     1      -0.717  -8.116  37.326  1.00  0.00     0.001 A 
ATOM      8  C   UNL     1      -0.278  -9.188  38.110  1.00  0.00     0.009 A 
ATOM      9  C   UNL     1      -1.005  -9.574  39.246  1.00  0.00    -0.018 A 
ATOM     10  C   UNL     1      -0.575 -10.648  40.041  1.00  0.00     0.009 A 
ENDROOT
TORSDOF 0
ENDMDL
MODEL 9
REMARK VINA RESULT:    -3.783      1.451      3.972
REMARK INTER + INTRA:          -3.783
REMARK INTER:                  -3.783
REMARK INTRA:                   0.000
REMARK UNBOUND:                 0.000
REMARK SMILES c1ccc2ccccc2c1
REMARK SMILES IDX 2 1 1 2 10 3 9 4 8 5 7 6 6 7 5 8 4 9 3 10
REMARK H PARENT
REMARK Flexibility Score: inf
ROOT
ATOM      1  C   UNL     1      -4.928  -9.623  41.398  1.00  0.00     0.001 A 
ATOM      2  C   UNL     1      -3.724 -10.062  41.956  1.00  0.00     0.001 A 
ATOM      3  C   UNL     1      -2.507  -9.733  41.351  1.00  0.00     0.009 A 
ATOM      4  C   UNL     1      -2.487  -8.958  40.181  1.00  0.00    -0.018 A 
ATOM      5  C   UNL     1      -1.273  -8.621  39.565  1.00  0.00     0.009 A 
ATOM      6  C   UNL     1      -1.268  -7.848  38.400  1.00  0.00     0.001 A 
ATOM      7  C   UNL     1      -2.472  -7.409  37.841  1.00  0.00     0.001 A 
ATOM      8  C   UNL     1      -3.689  -7.738  38.446  1.00  0.00     0.009 A 
ATOM      9  C   UNL     1      -3.709  -8.513  39.616  1.00  0.00    -0.018 A 
ATOM     10  C   UNL     1      -4.923  -8.850  40.232  1.00  0.00     0.009 A 
ENDROOT
TORSDOF 0
ENDMDL
