MODEL 1
REMARK VINA RESULT:    -3.802      0.000      0.000
REMARK INTER + INTRA:          -8.491
REMARK INTER:                  -6.914
REMARK INTRA:                  -1.577
REMARK UNBOUND:                -1.577
REMARK SMILES CCCCCCCCCCCCCCCC(=O)[O-]
REMARK SMILES IDX 9 1 10 2 11 3 12 4 13 5 14 6 15 7 16 8 17 9 18 10 8 11 7 12
REMARK SMILES IDX 6 13 5 14 4 15 3 16 2 17 1 18
REMARK H PARENT
REMARK Flexibility Score: inf
ROOT
ATOM      1  C   UNL     1       3.490  -0.630   9.719  1.00  0.00     0.000 C 
ENDROOT
BRANCH   1   2
ATOM      2  C   UNL     1       4.012   0.799   9.521  1.00  0.00     0.000 C 
BRANCH   2   3
ATOM      3  C   UNL     1       5.489   0.793   9.110  1.00  0.00     0.000 C 
BRANCH   3   4
ATOM      4  C   UNL     1       5.719   1.678   7.876  1.00  0.00     0.000 C 
BRANCH   4   5
ATOM      5  C   UNL     1       4.522   2.595   7.564  1.00  0.00     0.000 C 
BRANCH   5   6
ATOM      6  C   UNL     1       4.712   4.074   7.958  1.00  0.00     0.006 C 
BRANCH   6   7
ATOM      7  C   UNL     1       6.142   4.442   8.385  1.00  0.00     0.053 C 
BRANCH   7   8
ATOM      8  C   UNL     1       6.886   5.157   7.300  1.00  0.00     0.041 C 
ATOM      9  O   UNL     1       8.144   5.116   7.263  1.00  0.00    -0.550 OA
ATOM     10  O   UNL     1       6.190   5.839   6.311  1.00  0.00    -0.550 OA
ENDBRANCH   7   8
ENDBRANCH   6   7
ENDBRANCH   5   6
ENDBRANCH   4   5
ENDBRANCH   3   4
ENDBRANCH   2   3
ENDBRANCH   1   2
BRANCH   1  11
ATOM     11  C   UNL     1       1.957  -0.664   9.693  1.00  0.00     0.000 C 
BRANCH  11  12
ATOM     12  C   UNL     1       1.448  -1.821   8.825  1.00  0.00    -0.000 C 
BRANCH  12  13
ATOM     13  C   UNL     1       0.074  -1.490   8.219  1.00  0.00    -0.000 C 
BRANCH  13  14
ATOM     14  C   UNL     1       0.026  -0.089   7.590  1.00  0.00    -0.000 C 
BRANCH  14  15
ATOM     15  C   UNL     1      -1.124   0.769   8.140  1.00  0.00    -0.000 C 
BRANCH  15  16
ATOM     16  C   UNL     1      -0.589   2.059   8.778  1.00  0.00    -0.000 C 
BRANCH  16  17
ATOM     17  C   UNL     1       0.781   2.472   8.217  1.00  0.00    -0.003 C 
ATOM     18  C   UNL     1       0.744   3.823   7.503  1.00  0.00     0.004 C 
ENDBRANCH  16  17
ENDBRANCH  15  16
ENDBRANCH  14  15
ENDBRANCH  13  14
ENDBRANCH  12  13
ENDBRANCH  11  12
ENDBRANCH   1  11
TORSDOF 14
ENDMDL
MODEL 2
REMARK VINA RESULT:    -3.787      2.296      3.674
REMARK INTER + INTRA:          -8.463
REMARK INTER:                  -6.602
REMARK INTRA:                  -1.861
REMARK UNBOUND:                -1.577
REMARK SMILES CCCCCCCCCCCCCCCC(=O)[O-]
REMARK SMILES IDX 9 1 10 2 11 3 12 4 13 5 14 6 15 7 16 8 17 9 18 10 8 11 7 12
REMARK SMILES IDX 6 13 5 14 4 15 3 16 2 17 1 18
REMARK H PARENT
REMARK Flexibility Score: inf
ROOT
ATOM      1  C   UNL     1       1.874  -0.400   9.701  1.00  0.00     0.000 C 
ENDROOT
BRANCH   1   2
ATOM      2  C   UNL     1       3.228   0.184   9.280  1.00  0.00     0.000 C 
BRANCH   2   3
ATOM      3  C   UNL     1       3.134   1.700   9.077  1.00  0.00     0.000 C 
BRANCH   3   4
ATOM      4  C   UNL     1       2.048   2.309   9.978  1.00  0.00     0.000 C 
BRANCH   4   5
ATOM      5  C   UNL     1       1.192   3.365   9.257  1.00  0.00     0.000 C 
BRANCH   5   6
ATOM      6  C   UNL     1       0.975   3.112   7.750  1.00  0.00     0.006 C 
BRANCH   6   7
ATOM      7  C   UNL     1       1.252   4.328   6.853  1.00  0.00     0.053 C 
BRANCH   7   8
ATOM      8  C   UNL     1       2.662   4.815   6.986  1.00  0.00     0.041 C 
ATOM      9  O   UNL     1       3.615   4.129   6.531  1.00  0.00    -0.550 OA
ATOM     10  O   UNL     1       2.921   6.043   7.581  1.00  0.00    -0.550 OA
ENDBRANCH   7   8
ENDBRANCH   6   7
ENDBRANCH   5   6
ENDBRANCH   4   5
ENDBRANCH   3   4
ENDBRANCH   2   3
ENDBRANCH   1   2
BRANCH   1  11
ATOM     11  C   UNL     1       1.511  -1.621   8.848  1.00  0.00     0.000 C 
BRANCH  11  12
ATOM     12  C   UNL     1       0.106  -1.477   8.250  1.00  0.00    -0.000 C 
BRANCH  12  13
ATOM     13  C   UNL     1      -0.091  -0.081   7.639  1.00  0.00    -0.000 C 
BRANCH  13  14
ATOM     14  C   UNL     1      -1.541   0.417   7.754  1.00  0.00    -0.000 C 
BRANCH  14  15
ATOM     15  C   UNL     1      -1.854   1.017   9.133  1.00  0.00    -0.000 C 
BRANCH  15  16
ATOM     16  C   UNL     1      -3.323   0.779   9.512  1.00  0.00    -0.000 C 
BRANCH  16  17
ATOM     17  C   UNL     1      -4.102   0.027   8.422  1.00  0.00    -0.003 C 
ATOM     18  C   UNL     1      -4.455  -1.403   8.829  1.00  0.00     0.004 C 
ENDBRANCH  16  17
ENDBRANCH  15  16
ENDBRANCH  14  15
ENDBRANCH  13  14
ENDBRANCH  12  13
ENDBRANCH  11  12
ENDBRANCH   1  11
TORSDOF 14
ENDMDL
MODEL 3
REMARK VINA RESULT:    -3.696      2.267      3.950
REMARK INTER + INTRA:          -8.298
REMARK INTER:                  -6.830
REMARK INTRA:                  -1.467
REMARK UNBOUND:                -1.577
REMARK SMILES CCCCCCCCCCCCCCCC(=O)[O-]
REMARK SMILES IDX 9 1 10 2 11 3 12 4 13 5 14 6 15 7 16 8 17 9 18 10 8 11 7 12
REMARK SMILES IDX 6 13 5 14 4 15 3 16 2 17 1 18
REMARK H PARENT
REMARK Flexibility Score: inf
ROOT
ATOM      1  C   UNL     1       1.295  -0.257   8.696  1.00  0.00     0.000 C 
ENDROOT
BRANCH   1   2
ATOM      2  C   UNL     1       0.044   0.149   7.908  1.00  0.00     0.000 C 
BRANCH   2   3
ATOM      3  C   UNL     1      -0.223   1.653   8.038  1.00  0.00     0.000 C 
BRANCH   3   4
ATOM      4  C   UNL     1       1.053   2.405   8.443  1.00  0.00     0.000 C 
BRANCH   4   5
ATOM      5  C   UNL     1       1.479   3.463   7.409  1.00  0.00     0.000 C 
BRANCH   5   6
ATOM      6  C   UNL     1       3.002   3.598   7.201  1.00  0.00     0.006 C 
BRANCH   6   7
ATOM      7  C   UNL     1       3.835   2.478   7.845  1.00  0.00     0.053 C 
BRANCH   7   8
ATOM      8  C   UNL     1       5.305   2.723   7.708  1.00  0.00     0.041 C 
ATOM      9  O   UNL     1       6.077   1.780   7.386  1.00  0.00    -0.550 OA
ATOM     10  O   UNL     1       5.821   3.998   7.902  1.00  0.00    -0.550 OA
ENDBRANCH   7   8
ENDBRANCH   6   7
ENDBRANCH   5   6
ENDBRANCH   4   5
ENDBRANCH   3   4
ENDBRANCH   2   3
ENDBRANCH   1   2
BRANCH   1  11
ATOM     11  C   UNL     1       1.285  -1.758   9.010  1.00  0.00     0.000 C 
BRANCH  11  12
ATOM     12  C   UNL     1       0.247  -2.493   8.152  1.00  0.00    -0.000 C 
BRANCH  12  13
ATOM     13  C   UNL     1      -0.668  -3.366   9.025  1.00  0.00    -0.000 C 
BRANCH  13  14
ATOM     14  C   UNL     1      -1.142  -2.642  10.295  1.00  0.00    -0.000 C 
BRANCH  14  15
ATOM     15  C   UNL     1      -2.264  -1.630  10.018  1.00  0.00    -0.000 C 
BRANCH  15  16
ATOM     16  C   UNL     1      -3.512  -2.333   9.465  1.00  0.00    -0.000 C 
BRANCH  16  17
ATOM     17  C   UNL     1      -4.586  -1.343   8.988  1.00  0.00    -0.003 C 
ATOM     18  C   UNL     1      -3.991  -0.085   8.356  1.00  0.00     0.004 C 
ENDBRANCH  16  17
ENDBRANCH  15  16
ENDBRANCH  14  15
ENDBRANCH  13  14
ENDBRANCH  12  13
ENDBRANCH  11  12
ENDBRANCH   1  11
TORSDOF 14
ENDMDL
MODEL 4
REMARK VINA RESULT:    -3.680      1.675      2.910
REMARK INTER + INTRA:          -8.270
REMARK INTER:                  -6.732
REMARK INTRA:                  -1.538
REMARK UNBOUND:                -1.577
REMARK SMILES CCCCCCCCCCCCCCCC(=O)[O-]
REMARK SMILES IDX 9 1 10 2 11 3 12 4 13 5 14 6 15 7 16 8 17 9 18 10 8 11 7 12
REMARK SMILES IDX 6 13 5 14 4 15 3 16 2 17 1 18
REMARK H PARENT
REMARK Flexibility Score: inf
ROOT
ATOM      1  C   UNL     1       1.544  -1.418  10.074  1.00  0.00     0.000 C 
ENDROOT
BRANCH   1   2
ATOM      2  C   UNL     1       2.730  -0.457   9.930  1.00  0.00     0.000 C 
BRANCH   2   3
ATOM      3  C   UNL     1       2.301   0.990  10.196  1.00  0.00     0.000 C 
BRANCH   3   4
ATOM      4  C   UNL     1       2.717   1.909   9.037  1.00  0.00     0.000 C 
BRANCH   4   5
ATOM      5  C   UNL     1       4.197   1.746   8.644  1.00  0.00     0.000 C 
BRANCH   5   6
ATOM      6  C   UNL     1       4.658   2.618   7.458  1.00  0.00     0.006 C 
BRANCH   6   7
ATOM      7  C   UNL     1       5.286   3.961   7.860  1.00  0.00     0.053 C 
BRANCH   7   8
ATOM      8  C   UNL     1       6.762   3.989   7.606  1.00  0.00     0.041 C 
ATOM      9  O   UNL     1       7.440   2.932   7.695  1.00  0.00    -0.550 OA
ATOM     10  O   UNL     1       7.382   5.176   7.237  1.00  0.00    -0.550 OA
ENDBRANCH   7   8
ENDBRANCH   6   7
ENDBRANCH   5   6
ENDBRANCH   4   5
ENDBRANCH   3   4
ENDBRANCH   2   3
ENDBRANCH   1   2
BRANCH   1  11
ATOM     11  C   UNL     1       1.150  -2.014   8.717  1.00  0.00     0.000 C 
BRANCH  11  12
ATOM     12  C   UNL     1      -0.231  -1.512   8.276  1.00  0.00    -0.000 C 
BRANCH  12  13
ATOM     13  C   UNL     1      -0.116  -0.177   7.523  1.00  0.00    -0.000 C 
BRANCH  13  14
ATOM     14  C   UNL     1      -0.988   0.928   8.141  1.00  0.00    -0.000 C 
BRANCH  14  15
ATOM     15  C   UNL     1      -1.805   0.435   9.346  1.00  0.00    -0.000 C 
BRANCH  15  16
ATOM     16  C   UNL     1      -3.274   0.867   9.225  1.00  0.00    -0.000 C 
BRANCH  16  17
ATOM     17  C   UNL     1      -4.080  -0.037   8.280  1.00  0.00    -0.003 C 
ATOM     18  C   UNL     1      -4.369  -1.412   8.882  1.00  0.00     0.004 C 
ENDBRANCH  16  17
ENDBRANCH  15  16
ENDBRANCH  14  15
ENDBRANCH  13  14
ENDBRANCH  12  13
ENDBRANCH  11  12
ENDBRANCH   1  11
TORSDOF 14
ENDMDL
MODEL 5
REMARK VINA RESULT:    -3.662      4.353      6.881
REMARK INTER + INTRA:          -8.236
REMARK INTER:                  -6.500
REMARK INTRA:                  -1.736
REMARK UNBOUND:                -1.577
REMARK SMILES CCCCCCCCCCCCCCCC(=O)[O-]
REMARK SMILES IDX 9 1 10 2 11 3 12 4 13 5 14 6 15 7 16 8 17 9 18 10 8 11 7 12
REMARK SMILES IDX 6 13 5 14 4 15 3 16 2 17 1 18
REMARK H PARENT
REMARK Flexibility Score: inf
ROOT
ATOM      1  C   UNL     1       3.056  -0.310  10.215  1.00  0.00     0.000 C 
ENDROOT
BRANCH   1   2
ATOM      2  C   UNL     1       2.034  -0.200   9.076  1.00  0.00     0.000 C 
BRANCH   2   3
ATOM      3  C   UNL     1       1.306  -1.531   8.858  1.00  0.00     0.000 C 
BRANCH   3   4
ATOM      4  C   UNL     1       0.032  -1.330   8.024  1.00  0.00     0.000 C 
BRANCH   4   5
ATOM      5  C   UNL     1      -0.212   0.142   7.647  1.00  0.00     0.000 C 
BRANCH   5   6
ATOM      6  C   UNL     1      -1.291   0.860   8.484  1.00  0.00     0.006 C 
BRANCH   6   7
ATOM      7  C   UNL     1      -2.287  -0.079   9.182  1.00  0.00     0.053 C 
BRANCH   7   8
ATOM      8  C   UNL     1      -3.707   0.267   8.857  1.00  0.00     0.041 C 
ATOM      9  O   UNL     1      -4.362  -0.440   8.046  1.00  0.00    -0.550 OA
ATOM     10  O   UNL     1      -4.320   1.349   9.476  1.00  0.00    -0.550 OA
ENDBRANCH   7   8
ENDBRANCH   6   7
ENDBRANCH   5   6
ENDBRANCH   4   5
ENDBRANCH   3   4
ENDBRANCH   2   3
ENDBRANCH   1   2
BRANCH   1  11
ATOM     11  C   UNL     1       4.490  -0.234   9.677  1.00  0.00     0.000 C 
BRANCH  11  12
ATOM     12  C   UNL     1       4.977   1.218   9.613  1.00  0.00    -0.000 C 
BRANCH  12  13
ATOM     13  C   UNL     1       5.647   1.513   8.262  1.00  0.00    -0.000 C 
BRANCH  13  14
ATOM     14  C   UNL     1       4.907   2.593   7.456  1.00  0.00    -0.000 C 
BRANCH  14  15
ATOM     15  C   UNL     1       3.651   3.112   8.174  1.00  0.00    -0.000 C 
BRANCH  15  16
ATOM     16  C   UNL     1       2.546   3.454   7.164  1.00  0.00    -0.000 C 
BRANCH  16  17
ATOM     17  C   UNL     1       1.162   3.577   7.821  1.00  0.00    -0.003 C 
ATOM     18  C   UNL     1       1.217   3.440   9.342  1.00  0.00     0.004 C 
ENDBRANCH  16  17
ENDBRANCH  15  16
ENDBRANCH  14  15
ENDBRANCH  13  14
ENDBRANCH  12  13
ENDBRANCH  11  12
ENDBRANCH   1  11
TORSDOF 14
ENDMDL
MODEL 6
REMARK VINA RESULT:    -3.651      1.289      3.042
REMARK INTER + INTRA:          -8.217
REMARK INTER:                  -6.502
REMARK INTRA:                  -1.715
REMARK UNBOUND:                -1.577
REMARK SMILES CCCCCCCCCCCCCCCC(=O)[O-]
REMARK SMILES IDX 9 1 10 2 11 3 12 4 13 5 14 6 15 7 16 8 17 9 18 10 8 11 7 12
REMARK SMILES IDX 6 13 5 14 4 15 3 16 2 17 1 18
REMARK H PARENT
REMARK Flexibility Score: inf
ROOT
ATOM      1  C   UNL     1       0.698  -0.627   9.250  1.00  0.00     0.000 C 
ENDROOT
BRANCH   1   2
ATOM      2  C   UNL     1       2.213  -0.860   9.202  1.00  0.00     0.000 C 
BRANCH   2   3
ATOM      3  C   UNL     1       2.958   0.199  10.023  1.00  0.00     0.000 C 
BRANCH   3   4
ATOM      4  C   UNL     1       4.102   0.820   9.207  1.00  0.00     0.000 C 
BRANCH   4   5
ATOM      5  C   UNL     1       5.448   0.102   9.417  1.00  0.00     0.000 C 
BRANCH   5   6
ATOM      6  C   UNL     1       6.649   0.738   8.687  1.00  0.00     0.006 C 
BRANCH   6   7
ATOM      7  C   UNL     1       6.285   1.911   7.763  1.00  0.00     0.053 C 
BRANCH   7   8
ATOM      8  C   UNL     1       7.422   2.871   7.600  1.00  0.00     0.041 C 
ATOM      9  O   UNL     1       8.600   2.508   7.858  1.00  0.00    -0.550 OA
ATOM     10  O   UNL     1       7.186   4.157   7.129  1.00  0.00    -0.550 OA
ENDBRANCH   7   8
ENDBRANCH   6   7
ENDBRANCH   5   6
ENDBRANCH   4   5
ENDBRANCH   3   4
ENDBRANCH   2   3
ENDBRANCH   1   2
BRANCH   1  11
ATOM     11  C   UNL     1       0.125  -0.439   7.840  1.00  0.00     0.000 C 
BRANCH  11  12
ATOM     12  C   UNL     1      -0.901   0.700   7.809  1.00  0.00    -0.000 C 
BRANCH  12  13
ATOM     13  C   UNL     1      -0.572   1.765   8.868  1.00  0.00    -0.000 C 
BRANCH  13  14
ATOM     14  C   UNL     1       0.015   3.047   8.257  1.00  0.00    -0.000 C 
BRANCH  14  15
ATOM     15  C   UNL     1       1.546   3.005   8.148  1.00  0.00    -0.000 C 
BRANCH  15  16
ATOM     16  C   UNL     1       2.023   3.692   6.860  1.00  0.00    -0.000 C 
BRANCH  16  17
ATOM     17  C   UNL     1       3.467   4.208   6.964  1.00  0.00    -0.003 C 
ATOM     18  C   UNL     1       3.851   4.605   8.389  1.00  0.00     0.004 C 
ENDBRANCH  16  17
ENDBRANCH  15  16
ENDBRANCH  14  15
ENDBRANCH  13  14
ENDBRANCH  12  13
ENDBRANCH  11  12
ENDBRANCH   1  11
TORSDOF 14
ENDMDL
MODEL 7
REMARK VINA RESULT:    -3.650     12.424     14.119
REMARK INTER + INTRA:          -8.214
REMARK INTER:                  -5.831
REMARK INTRA:                  -2.383
REMARK UNBOUND:                -1.577
REMARK SMILES CCCCCCCCCCCCCCCC(=O)[O-]
REMARK SMILES IDX 9 1 10 2 11 3 12 4 13 5 14 6 15 7 16 8 17 9 18 10 8 11 7 12
REMARK SMILES IDX 6 13 5 14 4 15 3 16 2 17 1 18
REMARK H PARENT
REMARK Flexibility Score: inf
ROOT
ATOM      1  C   UNL     1       1.954  -1.817  -5.954  1.00  0.00     0.000 C 
ENDROOT
BRANCH   1   2
ATOM      2  C   UNL     1       1.988  -0.465  -5.231  1.00  0.00     0.000 C 
BRANCH   2   3
ATOM      3  C   UNL     1       0.902  -0.391  -4.151  1.00  0.00     0.000 C 
BRANCH   3   4
ATOM      4  C   UNL     1       1.312  -1.191  -2.905  1.00  0.00     0.000 C 
BRANCH   4   5
ATOM      5  C   UNL     1       0.557  -2.526  -2.774  1.00  0.00     0.000 C 
BRANCH   5   6
ATOM      6  C   UNL     1       1.296  -3.618  -1.971  1.00  0.00     0.006 C 
BRANCH   6   7
ATOM      7  C   UNL     1       0.586  -4.980  -1.946  1.00  0.00     0.053 C 
BRANCH   7   8
ATOM      8  C   UNL     1       0.410  -5.496  -0.552  1.00  0.00     0.041 C 
ATOM      9  O   UNL     1       1.092  -6.475  -0.147  1.00  0.00    -0.550 OA
ATOM     10  O   UNL     1      -0.482  -4.875   0.313  1.00  0.00    -0.550 OA
ENDBRANCH   7   8
ENDBRANCH   6   7
ENDBRANCH   5   6
ENDBRANCH   4   5
ENDBRANCH   3   4
ENDBRANCH   2   3
ENDBRANCH   1   2
BRANCH   1  11
ATOM     11  C   UNL     1       3.366  -2.397  -6.103  1.00  0.00     0.000 C 
BRANCH  11  12
ATOM     12  C   UNL     1       3.654  -3.431  -5.009  1.00  0.00    -0.000 C 
BRANCH  12  13
ATOM     13  C   UNL     1       4.947  -3.087  -4.253  1.00  0.00    -0.000 C 
BRANCH  13  14
ATOM     14  C   UNL     1       4.683  -2.343  -2.935  1.00  0.00    -0.000 C 
BRANCH  14  15
ATOM     15  C   UNL     1       4.994  -0.842  -3.027  1.00  0.00    -0.000 C 
BRANCH  15  16
ATOM     16  C   UNL     1       5.843  -0.534  -4.270  1.00  0.00    -0.000 C 
BRANCH  16  17
ATOM     17  C   UNL     1       5.505   0.828  -4.895  1.00  0.00    -0.003 C 
ATOM     18  C   UNL     1       5.366   0.763  -6.415  1.00  0.00     0.004 C 
ENDBRANCH  16  17
ENDBRANCH  15  16
ENDBRANCH  14  15
ENDBRANCH  13  14
ENDBRANCH  12  13
ENDBRANCH  11  12
ENDBRANCH   1  11
TORSDOF 14
ENDMDL
MODEL 8
REMARK VINA RESULT:    -3.630      1.417      3.700
REMARK INTER + INTRA:          -8.178
REMARK INTER:                  -6.541
REMARK INTRA:                  -1.637
REMARK UNBOUND:                -1.577
REMARK SMILES CCCCCCCCCCCCCCCC(=O)[O-]
REMARK SMILES IDX 9 1 10 2 11 3 12 4 13 5 14 6 15 7 16 8 17 9 18 10 8 11 7 12
REMARK SMILES IDX 6 13 5 14 4 15 3 16 2 17 1 18
REMARK H PARENT
REMARK Flexibility Score: inf
ROOT
ATOM      1  C   UNL     1       0.430   1.849   9.450  1.00  0.00     0.000 C 
ENDROOT
BRANCH   1   2
ATOM      2  C   UNL     1       1.594   2.841   9.557  1.00  0.00     0.000 C 
BRANCH   2   3
ATOM      3  C   UNL     1       1.946   3.427   8.184  1.00  0.00     0.000 C 
BRANCH   3   4
ATOM      4  C   UNL     1       3.434   3.222   7.865  1.00  0.00     0.000 C 
BRANCH   4   5
ATOM      5  C   UNL     1       3.974   1.870   8.363  1.00  0.00     0.000 C 
BRANCH   5   6
ATOM      6  C   UNL     1       5.436   1.891   8.856  1.00  0.00     0.006 C 
BRANCH   6   7
ATOM      7  C   UNL     1       6.486   1.722   7.747  1.00  0.00     0.053 C 
BRANCH   7   8
ATOM      8  C   UNL     1       7.298   2.963   7.547  1.00  0.00     0.041 C 
ATOM      9  O   UNL     1       8.312   2.943   6.801  1.00  0.00    -0.550 OA
ATOM     10  O   UNL     1       6.916   4.151   8.158  1.00  0.00    -0.550 OA
ENDBRANCH   7   8
ENDBRANCH   6   7
ENDBRANCH   5   6
ENDBRANCH   4   5
ENDBRANCH   3   4
ENDBRANCH   2   3
ENDBRANCH   1   2
BRANCH   1  11
ATOM     11  C   UNL     1      -0.068   1.737   8.004  1.00  0.00     0.000 C 
BRANCH  11  12
ATOM     12  C   UNL     1      -0.358   0.278   7.633  1.00  0.00    -0.000 C 
BRANCH  12  13
ATOM     13  C   UNL     1      -0.123  -0.652   8.833  1.00  0.00    -0.000 C 
BRANCH  13  14
ATOM     14  C   UNL     1       0.265  -2.078   8.411  1.00  0.00    -0.000 C 
BRANCH  14  15
ATOM     15  C   UNL     1       1.656  -2.489   8.918  1.00  0.00    -0.000 C 
BRANCH  15  16
ATOM     16  C   UNL     1       2.493  -1.254   9.284  1.00  0.00    -0.000 C 
BRANCH  16  17
ATOM     17  C   UNL     1       3.694  -1.597  10.178  1.00  0.00    -0.003 C 
ATOM     18  C   UNL     1       4.270  -2.983   9.888  1.00  0.00     0.004 C 
ENDBRANCH  16  17
ENDBRANCH  15  16
ENDBRANCH  14  15
ENDBRANCH  13  14
ENDBRANCH  12  13
ENDBRANCH  11  12
ENDBRANCH   1  11
TORSDOF 14
ENDMDL
MODEL 9
REMARK VINA RESULT:    -3.579     12.652     14.521
REMARK INTER + INTRA:          -8.085
REMARK INTER:                  -5.744
REMARK INTRA:                  -2.341
REMARK UNBOUND:                -1.577
REMARK SMILES CCCCCCCCCCCCCCCC(=O)[O-]
REMARK SMILES IDX 9 1 10 2 11 3 12 4 13 5 14 6 15 7 16 8 17 9 18 10 8 11 7 12
REMARK SMILES IDX 6 13 5 14 4 15 3 16 2 17 1 18
REMARK H PARENT
REMARK Flexibility Score: inf
ROOT
ATOM      1  C   UNL     1       2.298  -1.259  -5.762  1.00  0.00     0.000 C 
ENDROOT
BRANCH   1   2
ATOM      2  C   UNL     1       1.549  -0.048  -5.192  1.00  0.00     0.000 C 
BRANCH   2   3
ATOM      3  C   UNL     1       0.846  -0.405  -3.877  1.00  0.00     0.000 C 
BRANCH   3   4
ATOM      4  C   UNL     1       0.840  -1.924  -3.652  1.00  0.00     0.000 C 
BRANCH   4   5
ATOM      5  C   UNL     1       1.051  -2.313  -2.178  1.00  0.00     0.000 C 
BRANCH   5   6
ATOM      6  C   UNL     1       0.827  -3.805  -1.857  1.00  0.00     0.006 C 
BRANCH   6   7
ATOM      7  C   UNL     1      -0.012  -4.562  -2.898  1.00  0.00     0.053 C 
BRANCH   7   8
ATOM      8  C   UNL     1      -1.453  -4.653  -2.499  1.00  0.00     0.041 C 
ATOM      9  O   UNL     1      -2.337  -4.072  -3.182  1.00  0.00    -0.550 OA
ATOM     10  O   UNL     1      -1.823  -5.409  -1.394  1.00  0.00    -0.550 OA
ENDBRANCH   7   8
ENDBRANCH   6   7
ENDBRANCH   5   6
ENDBRANCH   4   5
ENDBRANCH   3   4
ENDBRANCH   2   3
ENDBRANCH   1   2
BRANCH   1  11
ATOM     11  C   UNL     1       3.773  -0.924  -6.014  1.00  0.00     0.000 C 
BRANCH  11  12
ATOM     12  C   UNL     1       4.241   0.220  -5.107  1.00  0.00    -0.000 C 
BRANCH  12  13
ATOM     13  C   UNL     1       5.186  -0.298  -4.011  1.00  0.00    -0.000 C 
BRANCH  13  14
ATOM     14  C   UNL     1       4.442  -1.042  -2.891  1.00  0.00    -0.000 C 
BRANCH  14  15
ATOM     15  C   UNL     1       5.011  -2.445  -2.630  1.00  0.00    -0.000 C 
BRANCH  15  16
ATOM     16  C   UNL     1       4.249  -3.504  -3.440  1.00  0.00    -0.000 C 
BRANCH  16  17
ATOM     17  C   UNL     1       5.187  -4.497  -4.145  1.00  0.00    -0.003 C 
ATOM     18  C   UNL     1       5.886  -3.889  -5.360  1.00  0.00     0.004 C 
ENDBRANCH  16  17
ENDBRANCH  15  16
ENDBRANCH  14  15
ENDBRANCH  13  14
ENDBRANCH  12  13
ENDBRANCH  11  12
ENDBRANCH   1  11
TORSDOF 14
ENDMDL
