MODEL 1
REMARK VINA RESULT:    29.799      0.000      0.000
REMARK INTER + INTRA:          37.495
REMARK INTER:                  37.638
REMARK INTRA:                  -0.143
REMARK UNBOUND:                -0.143
REMARK SMILES COc1cc(O)c2c(=O)c(OC)c(-c3ccc(O)c(O)c3)oc2c1
REMARK SMILES IDX 3 1 4 2 5 3 7 4 23 5 24 6 22 7 13 8 10 9 8 10 9 11 2 12 1 13
REMARK SMILES IDX 6 14 14 16 21 17 15 18 19 19 16 20 17 21 20 22 18 24 11 26
REMARK SMILES IDX 12 27
REMARK H PARENT 6 15 20 23 18 25
REMARK Flexibility Score: inf
ROOT
ATOM      1  C   UNL     1     -12.310 -12.245  16.381  1.00  0.00     0.126 A 
ATOM      2  C   UNL     1     -11.544 -13.394  16.126  1.00  0.00     0.093 A 
ATOM      3  C   UNL     1     -12.116 -14.530  15.539  1.00  0.00     0.134 A 
ATOM      4  C   UNL     1     -13.516 -14.553  15.261  1.00  0.00     0.111 A 
ATOM      5  C   UNL     1     -14.269 -13.379  15.503  1.00  0.00     0.146 A 
ATOM      6  C   UNL     1     -13.663 -12.244  16.050  1.00  0.00     0.094 A 
ATOM      7  O   UNL     1     -15.565 -13.332  15.230  1.00  0.00    -0.452 OA
ATOM      8  C   UNL     1     -16.247 -14.359  14.740  1.00  0.00     0.180 A 
ATOM      9  C   UNL     1     -15.598 -15.581  14.479  1.00  0.00     0.210 A 
ATOM     10  C   UNL     1     -14.221 -15.686  14.786  1.00  0.00     0.239 A 
ATOM     11  O   UNL     1     -13.641 -16.795  14.669  1.00  0.00    -0.285 OA
ENDROOT
BRANCH   1  12
ATOM     12  O   UNL     1     -11.763 -11.085  16.950  1.00  0.00    -0.496 OA
ATOM     13  C   UNL     1     -12.482  -9.875  17.161  1.00  0.00     0.278 C 
ENDBRANCH   1  12
BRANCH   3  14
ATOM     14  O   UNL     1     -11.243 -15.577  15.231  1.00  0.00    -0.507 OA
ATOM     15  H   UNL     1     -11.521 -16.539  15.111  1.00  0.00     0.293 HD
ENDBRANCH   3  14
BRANCH   8  16
ATOM     16  C   UNL     1     -17.691 -14.166  14.476  1.00  0.00     0.025 A 
ATOM     17  C   UNL     1     -18.627 -14.127  15.525  1.00  0.00     0.062 A 
ATOM     18  C   UNL     1     -18.130 -13.955  13.160  1.00  0.00     0.016 A 
ATOM     19  C   UNL     1     -19.986 -13.918  15.260  1.00  0.00     0.158 A 
ATOM     20  C   UNL     1     -19.486 -13.749  12.891  1.00  0.00     0.051 A 
ATOM     21  C   UNL     1     -20.420 -13.733  13.936  1.00  0.00     0.157 A 
BRANCH  19  22
ATOM     22  O   UNL     1     -20.888 -13.895  16.323  1.00  0.00    -0.504 OA
ATOM     23  H   UNL     1     -21.145 -14.734  16.830  1.00  0.00     0.293 HD
ENDBRANCH  19  22
BRANCH  21  24
ATOM     24  O   UNL     1     -21.772 -13.529  13.664  1.00  0.00    -0.504 OA
ATOM     25  H   UNL     1     -22.441 -13.353  14.404  1.00  0.00     0.293 HD
ENDBRANCH  21  24
ENDBRANCH   8  16
BRANCH   9  26
ATOM     26  O   UNL     1     -16.351 -16.626  13.907  1.00  0.00    -0.490 OA
ATOM     27  C   UNL     1     -15.950 -17.478  12.839  1.00  0.00     0.278 C 
ENDBRANCH   9  26
TORSDOF 6
ENDMDL
MODEL 2
REMARK VINA RESULT:    30.382      1.513      6.889
REMARK INTER + INTRA:          38.232
REMARK INTER:                  38.477
REMARK INTRA:                  -0.245
REMARK UNBOUND:                -0.143
REMARK SMILES COc1cc(O)c2c(=O)c(OC)c(-c3ccc(O)c(O)c3)oc2c1
REMARK SMILES IDX 3 1 4 2 5 3 7 4 23 5 24 6 22 7 13 8 10 9 8 10 9 11 2 12 1 13
REMARK SMILES IDX 6 14 14 16 21 17 15 18 19 19 16 20 17 21 20 22 18 24 11 26
REMARK SMILES IDX 12 27
REMARK H PARENT 6 15 20 23 18 25
REMARK Flexibility Score: inf
ROOT
ATOM      1  C   UNL     1     -20.504 -13.662  16.029  1.00  0.00     0.126 A 
ATOM      2  C   UNL     1     -20.967 -14.091  14.775  1.00  0.00     0.093 A 
ATOM      3  C   UNL     1     -20.076 -14.512  13.780  1.00  0.00     0.134 A 
ATOM      4  C   UNL     1     -18.670 -14.436  14.012  1.00  0.00     0.111 A 
ATOM      5  C   UNL     1     -18.221 -14.022  15.290  1.00  0.00     0.146 A 
ATOM      6  C   UNL     1     -19.134 -13.648  16.279  1.00  0.00     0.094 A 
ATOM      7  O   UNL     1     -16.927 -13.967  15.572  1.00  0.00    -0.452 OA
ATOM      8  C   UNL     1     -15.974 -14.269  14.701  1.00  0.00     0.180 A 
ATOM      9  C   UNL     1     -16.311 -14.675  13.394  1.00  0.00     0.210 A 
ATOM     10  C   UNL     1     -17.680 -14.716  13.039  1.00  0.00     0.239 A 
ATOM     11  O   UNL     1     -18.005 -14.966  11.851  1.00  0.00    -0.285 OA
ENDROOT
BRANCH   1  12
ATOM     12  O   UNL     1     -21.372 -13.251  17.053  1.00  0.00    -0.496 OA
ATOM     13  C   UNL     1     -22.792 -13.339  16.988  1.00  0.00     0.278 C 
ENDBRANCH   1  12
BRANCH   3  14
ATOM     14  O   UNL     1     -20.646 -15.020  12.609  1.00  0.00    -0.507 OA
ATOM     15  H   UNL     1     -20.820 -15.998  12.434  1.00  0.00     0.293 HD
ENDBRANCH   3  14
BRANCH   8  16
ATOM     16  C   UNL     1     -14.568 -14.169  15.153  1.00  0.00     0.025 A 
ATOM     17  C   UNL     1     -13.996 -12.931  15.496  1.00  0.00     0.062 A 
ATOM     18  C   UNL     1     -13.806 -15.338  15.301  1.00  0.00     0.016 A 
ATOM     19  C   UNL     1     -12.672 -12.858  15.946  1.00  0.00     0.158 A 
ATOM     20  C   UNL     1     -12.484 -15.269  15.748  1.00  0.00     0.051 A 
ATOM     21  C   UNL     1     -11.909 -14.032  16.068  1.00  0.00     0.157 A 
BRANCH  19  22
ATOM     22  O   UNL     1     -12.134 -11.613  16.269  1.00  0.00    -0.504 OA
ATOM     23  H   UNL     1     -11.623 -11.455  17.129  1.00  0.00     0.293 HD
ENDBRANCH  19  22
BRANCH  21  24
ATOM     24  O   UNL     1     -10.589 -13.966  16.512  1.00  0.00    -0.504 OA
ATOM     25  H   UNL     1     -10.337 -14.208  17.462  1.00  0.00     0.293 HD
ENDBRANCH  21  24
ENDBRANCH   8  16
BRANCH   9  26
ATOM     26  O   UNL     1     -15.267 -15.037  12.520  1.00  0.00    -0.490 OA
ATOM     27  C   UNL     1     -15.021 -16.331  11.979  1.00  0.00     0.278 C 
ENDBRANCH   9  26
TORSDOF 6
ENDMDL
MODEL 3
REMARK VINA RESULT:    31.883      2.703      6.630
REMARK INTER + INTRA:          40.128
REMARK INTER:                  40.197
REMARK INTRA:                  -0.068
REMARK UNBOUND:                -0.143
REMARK SMILES COc1cc(O)c2c(=O)c(OC)c(-c3ccc(O)c(O)c3)oc2c1
REMARK SMILES IDX 3 1 4 2 5 3 7 4 23 5 24 6 22 7 13 8 10 9 8 10 9 11 2 12 1 13
REMARK SMILES IDX 6 14 14 16 21 17 15 18 19 19 16 20 17 21 20 22 18 24 11 26
REMARK SMILES IDX 12 27
REMARK H PARENT 6 15 20 23 18 25
REMARK Flexibility Score: inf
ROOT
ATOM      1  C   UNL     1     -20.997 -13.356  15.071  1.00  0.00     0.126 A 
ATOM      2  C   UNL     1     -20.623 -13.591  16.404  1.00  0.00     0.093 A 
ATOM      3  C   UNL     1     -19.350 -14.081  16.723  1.00  0.00     0.134 A 
ATOM      4  C   UNL     1     -18.440 -14.418  15.677  1.00  0.00     0.111 A 
ATOM      5  C   UNL     1     -18.825 -14.154  14.340  1.00  0.00     0.146 A 
ATOM      6  C   UNL     1     -20.085 -13.625  14.053  1.00  0.00     0.094 A 
ATOM      7  O   UNL     1     -18.005 -14.414  13.331  1.00  0.00    -0.452 OA
ATOM      8  C   UNL     1     -16.800 -14.946  13.485  1.00  0.00     0.180 A 
ATOM      9  C   UNL     1     -16.325 -15.264  14.773  1.00  0.00     0.210 A 
ATOM     10  C   UNL     1     -17.179 -15.033  15.876  1.00  0.00     0.239 A 
ATOM     11  O   UNL     1     -16.828 -15.410  17.023  1.00  0.00    -0.285 OA
ENDROOT
BRANCH   1  12
ATOM     12  O   UNL     1     -22.258 -12.850  14.721  1.00  0.00    -0.496 OA
ATOM     13  C   UNL     1     -23.120 -12.150  15.611  1.00  0.00     0.278 C 
ENDBRANCH   1  12
BRANCH   3  14
ATOM     14  O   UNL     1     -19.043 -14.176  18.083  1.00  0.00    -0.507 OA
ATOM     15  H   UNL     1     -19.537 -14.756  18.744  1.00  0.00     0.293 HD
ENDBRANCH   3  14
BRANCH   8  16
ATOM     16  C   UNL     1     -15.987 -15.179  12.270  1.00  0.00     0.025 A 
ATOM     17  C   UNL     1     -15.794 -14.166  11.314  1.00  0.00     0.062 A 
ATOM     18  C   UNL     1     -15.345 -16.414  12.096  1.00  0.00     0.016 A 
ATOM     19  C   UNL     1     -15.001 -14.396  10.183  1.00  0.00     0.158 A 
ATOM     20  C   UNL     1     -14.555 -16.648  10.967  1.00  0.00     0.051 A 
ATOM     21  C   UNL     1     -14.382 -15.644  10.005  1.00  0.00     0.157 A 
BRANCH  19  22
ATOM     22  O   UNL     1     -14.839 -13.371   9.251  1.00  0.00    -0.504 OA
ATOM     23  H   UNL     1     -15.628 -12.903   8.822  1.00  0.00     0.293 HD
ENDBRANCH  19  22
BRANCH  21  24
ATOM     24  O   UNL     1     -13.595 -15.881   8.879  1.00  0.00    -0.504 OA
ATOM     25  H   UNL     1     -12.990 -16.691   8.815  1.00  0.00     0.293 HD
ENDBRANCH  21  24
ENDBRANCH   8  16
BRANCH   9  26
ATOM     26  O   UNL     1     -15.018 -15.777  14.892  1.00  0.00    -0.490 OA
ATOM     27  C   UNL     1     -13.857 -15.058  15.297  1.00  0.00     0.278 C 
ENDBRANCH   9  26
TORSDOF 6
ENDMDL
