MODEL 1
REMARK VINA RESULT:    61.916      0.000      0.000
REMARK INTER + INTRA:          91.291
REMARK INTER:                  90.873
REMARK INTRA:                   0.418
REMARK UNBOUND:                 0.418
REMARK SMILES O=c1c(O[C@@H]2O[C@@H](CO)[C@H](O)[C@H](O)[C@H]2O)c(-c2ccc(O)c(O)c2)oc2cc(O)cc(O)c12
REMARK SMILES IDX 4 1 3 2 16 3 25 4 2 5 26 6 1 7 33 8 27 9 31 10 28 11 30 12
REMARK SMILES IDX 17 13 18 14 19 15 20 16 24 17 22 18 21 19 23 21 32 23 29 25
REMARK SMILES IDX 5 27 14 28 6 29 12 30 7 31 10 32 15 33 13 35 8 37 9 38 11 40
REMARK H PARENT 21 20 23 22 32 24 29 26 15 34 13 36 9 39 11 41
REMARK Flexibility Score: inf
ROOT
ATOM      1  O   UNL     1      -4.095  -1.327   3.362  1.00  0.00    -0.454 OA
ENDROOT
BRANCH   1   2
ATOM      2  C   UNL     1      -4.473   0.023   3.384  1.00  0.00     0.214 A 
ATOM      3  C   UNL     1      -3.510   1.040   3.328  1.00  0.00     0.180 A 
ATOM      4  O   UNL     1      -3.879   2.312   3.375  1.00  0.00    -0.452 OA
ATOM      5  C   UNL     1      -5.825   0.374   3.455  1.00  0.00     0.239 A 
ATOM      6  C   UNL     1      -5.150   2.696   3.441  1.00  0.00     0.146 A 
ATOM      7  O   UNL     1      -6.677  -0.546   3.554  1.00  0.00    -0.285 OA
ATOM      8  C   UNL     1      -6.202   1.739   3.452  1.00  0.00     0.111 A 
ATOM      9  C   UNL     1      -5.430   4.062   3.509  1.00  0.00     0.094 A 
ATOM     10  C   UNL     1      -7.549   2.214   3.502  1.00  0.00     0.134 A 
ATOM     11  C   UNL     1      -6.748   4.509   3.597  1.00  0.00     0.123 A 
ATOM     12  C   UNL     1      -7.795   3.589   3.598  1.00  0.00     0.093 A 
BRANCH   3  13
ATOM     13  C   UNL     1      -2.084   0.722   3.192  1.00  0.00     0.025 A 
ATOM     14  C   UNL     1      -1.345   0.329   4.319  1.00  0.00     0.016 A 
ATOM     15  C   UNL     1       0.006   0.001   4.190  1.00  0.00     0.051 A 
ATOM     16  C   UNL     1       0.629   0.052   2.933  1.00  0.00     0.157 A 
ATOM     17  C   UNL     1      -1.461   0.788   1.935  1.00  0.00     0.062 A 
ATOM     18  C   UNL     1      -0.107   0.460   1.804  1.00  0.00     0.158 A 
BRANCH  16  19
ATOM     19  O   UNL     1       1.973  -0.298   2.803  1.00  0.00    -0.504 OA
ATOM     20  H   UNL     1       2.409  -0.411   1.894  1.00  0.00     0.293 HD
ENDBRANCH  16  19
BRANCH  18  21
ATOM     21  O   UNL     1       0.490   0.548   0.542  1.00  0.00    -0.504 OA
ATOM     22  H   UNL     1       1.430   0.901   0.409  1.00  0.00     0.293 HD
ENDBRANCH  18  21
ENDBRANCH   3  13
BRANCH  10  23
ATOM     23  O   UNL     1      -8.676   1.390   3.432  1.00  0.00    -0.507 OA
ATOM     24  H   UNL     1      -9.624   1.708   3.294  1.00  0.00     0.293 HD
ENDBRANCH  10  23
BRANCH  11  25
ATOM     25  O   UNL     1      -7.031   5.870   3.675  1.00  0.00    -0.508 OA
ATOM     26  H   UNL     1      -7.976   6.224   3.580  1.00  0.00     0.293 HD
ENDBRANCH  11  25
ENDBRANCH   1   2
BRANCH   1  27
ATOM     27  C   UNL     1      -4.304  -2.147   2.211  1.00  0.00     0.339 C 
ATOM     28  C   UNL     1      -5.811  -2.193   1.851  1.00  0.00     0.214 C 
ATOM     29  O   UNL     1      -3.452  -1.709   1.156  1.00  0.00    -0.332 OA
ATOM     30  C   UNL     1      -5.959  -2.582   0.370  1.00  0.00     0.180 C 
ATOM     31  C   UNL     1      -4.105  -0.821   0.266  1.00  0.00     0.179 C 
ATOM     32  C   UNL     1      -5.191  -1.582  -0.543  1.00  0.00     0.177 C 
BRANCH  28  33
ATOM     33  O   UNL     1      -6.467  -3.125   2.678  1.00  0.00    -0.384 OA
ATOM     34  H   UNL     1      -7.340  -3.324   2.249  1.00  0.00     0.211 HD
ENDBRANCH  28  33
BRANCH  30  35
ATOM     35  O   UNL     1      -7.322  -2.655   0.022  1.00  0.00    -0.387 OA
ATOM     36  H   UNL     1      -7.821  -2.179   0.734  1.00  0.00     0.211 HD
ENDBRANCH  30  35
BRANCH  31  37
ATOM     37  C   UNL     1      -3.062  -0.172  -0.653  1.00  0.00     0.191 C 
BRANCH  37  38
ATOM     38  O   UNL     1      -2.134  -1.126  -1.091  1.00  0.00    -0.394 OA
ATOM     39  H   UNL     1      -1.778  -1.556  -0.271  1.00  0.00     0.210 HD
ENDBRANCH  37  38
ENDBRANCH  31  37
BRANCH  32  40
ATOM     40  O   UNL     1      -6.079  -0.654  -1.124  1.00  0.00    -0.387 OA
ATOM     41  H   UNL     1      -6.360  -1.021  -2.003  1.00  0.00     0.211 HD
ENDBRANCH  32  40
ENDBRANCH   1  27
TORSDOF 12
ENDMDL
