MODEL 1
REMARK VINA RESULT:    -6.527      0.000      0.000
REMARK INTER + INTRA:          -7.970
REMARK INTER:                  -7.672
REMARK INTRA:                  -0.298
REMARK UNBOUND:                -0.298
REMARK SMILES O=c1c(O)c(-c2ccc(O)cc2)oc2cc(O)cc(O)c12
REMARK SMILES IDX 5 1 3 2 2 3 1 4 21 5 19 6 18 7 16 8 15 9 14 10 13 11 6 12
REMARK SMILES IDX 7 13 8 14 9 15 12 16 11 17 10 18 4 20 20 22 17 24
REMARK H PARENT 10 19 4 21 20 23 17 25
REMARK Flexibility Score: inf
ROOT
ATOM      1  C   UNL     1      14.520  55.983  33.953  1.00  0.00     0.180 A 
ATOM      2  C   UNL     1      14.333  55.809  32.568  1.00  0.00     0.208 A 
ATOM      3  C   UNL     1      14.876  56.757  31.687  1.00  0.00     0.238 A 
ATOM      4  O   UNL     1      14.727  56.605  30.443  1.00  0.00    -0.285 OA
ATOM      5  C   UNL     1      15.574  57.868  32.201  1.00  0.00     0.111 A 
ATOM      6  C   UNL     1      16.147  58.871  31.381  1.00  0.00     0.134 A 
ATOM      7  C   UNL     1      16.819  59.952  31.971  1.00  0.00     0.093 A 
ATOM      8  C   UNL     1      16.927  60.050  33.363  1.00  0.00     0.123 A 
ATOM      9  C   UNL     1      16.364  59.064  34.174  1.00  0.00     0.094 A 
ATOM     10  C   UNL     1      15.692  57.978  33.606  1.00  0.00     0.146 A 
ATOM     11  O   UNL     1      15.170  57.052  34.402  1.00  0.00    -0.452 OA
ENDROOT
BRANCH   1  12
ATOM     12  C   UNL     1      13.994  55.018  34.945  1.00  0.00     0.021 A 
ATOM     13  C   UNL     1      12.737  55.242  35.530  1.00  0.00     0.016 A 
ATOM     14  C   UNL     1      12.232  54.356  36.486  1.00  0.00     0.047 A 
ATOM     15  C   UNL     1      12.980  53.243  36.880  1.00  0.00     0.115 A 
ATOM     16  C   UNL     1      14.752  53.908  35.360  1.00  0.00     0.016 A 
ATOM     17  C   UNL     1      14.244  53.023  36.317  1.00  0.00     0.047 A 
BRANCH  15  18
ATOM     18  O   UNL     1      12.464  52.368  37.832  1.00  0.00    -0.508 OA
ATOM     19  H   UNL     1      12.356  51.379  37.639  1.00  0.00     0.293 HD
ENDBRANCH  15  18
ENDBRANCH   1  12
BRANCH   2  20
ATOM     20  O   UNL     1      13.597  54.725  32.085  1.00  0.00    -0.502 OA
ATOM     21  H   UNL     1      13.738  53.780  32.422  1.00  0.00     0.293 HD
ENDBRANCH   2  20
BRANCH   6  22
ATOM     22  O   UNL     1      16.055  58.800  29.990  1.00  0.00    -0.507 OA
ATOM     23  H   UNL     1      15.493  59.455  29.459  1.00  0.00     0.293 HD
ENDBRANCH   6  22
BRANCH   8  24
ATOM     24  O   UNL     1      17.593  61.124  33.949  1.00  0.00    -0.508 OA
ATOM     25  H   UNL     1      18.605  61.162  33.989  1.00  0.00     0.293 HD
ENDBRANCH   8  24
TORSDOF 5
ENDMDL
MODEL 2
REMARK VINA RESULT:    -6.527      0.107      1.062
REMARK INTER + INTRA:          -7.969
REMARK INTER:                  -7.686
REMARK INTRA:                  -0.284
REMARK UNBOUND:                -0.298
REMARK SMILES O=c1c(O)c(-c2ccc(O)cc2)oc2cc(O)cc(O)c12
REMARK SMILES IDX 5 1 3 2 2 3 1 4 21 5 19 6 18 7 16 8 15 9 14 10 13 11 6 12
REMARK SMILES IDX 7 13 8 14 9 15 12 16 11 17 10 18 4 20 20 22 17 24
REMARK H PARENT 10 19 4 21 20 23 17 25
REMARK Flexibility Score: inf
ROOT
ATOM      1  C   UNL     1      14.525  55.979  33.993  1.00  0.00     0.180 A 
ATOM      2  C   UNL     1      14.320  55.759  32.618  1.00  0.00     0.208 A 
ATOM      3  C   UNL     1      14.849  56.678  31.698  1.00  0.00     0.238 A 
ATOM      4  O   UNL     1      14.682  56.485  30.463  1.00  0.00    -0.285 OA
ATOM      5  C   UNL     1      15.551  57.807  32.166  1.00  0.00     0.111 A 
ATOM      6  C   UNL     1      16.111  58.782  31.305  1.00  0.00     0.134 A 
ATOM      7  C   UNL     1      16.788  59.884  31.850  1.00  0.00     0.093 A 
ATOM      8  C   UNL     1      16.915  60.028  33.237  1.00  0.00     0.123 A 
ATOM      9  C   UNL     1      16.365  59.069  34.088  1.00  0.00     0.094 A 
ATOM     10  C   UNL     1      15.688  57.964  33.565  1.00  0.00     0.146 A 
ATOM     11  O   UNL     1      15.179  57.063  34.399  1.00  0.00    -0.452 OA
ENDROOT
BRANCH   1  12
ATOM     12  C   UNL     1      14.015  55.046  35.024  1.00  0.00     0.021 A 
ATOM     13  C   UNL     1      14.767  53.907  35.359  1.00  0.00     0.016 A 
ATOM     14  C   UNL     1      14.294  53.001  36.312  1.00  0.00     0.047 A 
ATOM     15  C   UNL     1      13.060  53.211  36.932  1.00  0.00     0.115 A 
ATOM     16  C   UNL     1      12.764  55.242  35.636  1.00  0.00     0.016 A 
ATOM     17  C   UNL     1      12.293  54.332  36.589  1.00  0.00     0.047 A 
BRANCH  15  18
ATOM     18  O   UNL     1      12.601  52.300  37.881  1.00  0.00    -0.508 OA
ATOM     19  H   UNL     1      12.916  52.335  38.843  1.00  0.00     0.293 HD
ENDBRANCH  15  18
ENDBRANCH   1  12
BRANCH   2  20
ATOM     20  O   UNL     1      13.579  54.658  32.181  1.00  0.00    -0.502 OA
ATOM     21  H   UNL     1      13.856  54.099  31.384  1.00  0.00     0.293 HD
ENDBRANCH   2  20
BRANCH   6  22
ATOM     22  O   UNL     1      16.000  58.666  29.919  1.00  0.00    -0.507 OA
ATOM     23  H   UNL     1      15.141  58.361  29.477  1.00  0.00     0.293 HD
ENDBRANCH   6  22
BRANCH   8  24
ATOM     24  O   UNL     1      17.587  61.122  33.777  1.00  0.00    -0.508 OA
ATOM     25  H   UNL     1      18.598  61.144  33.842  1.00  0.00     0.293 HD
ENDBRANCH   8  24
TORSDOF 5
ENDMDL
MODEL 3
REMARK VINA RESULT:    -5.206      2.638      3.726
REMARK INTER + INTRA:          -6.417
REMARK INTER:                  -6.127
REMARK INTRA:                  -0.290
REMARK UNBOUND:                -0.298
REMARK SMILES O=c1c(O)c(-c2ccc(O)cc2)oc2cc(O)cc(O)c12
REMARK SMILES IDX 5 1 3 2 2 3 1 4 21 5 19 6 18 7 16 8 15 9 14 10 13 11 6 12
REMARK SMILES IDX 7 13 8 14 9 15 12 16 11 17 10 18 4 20 20 22 17 24
REMARK H PARENT 10 19 4 21 20 23 17 25
REMARK Flexibility Score: inf
ROOT
ATOM      1  C   UNL     1      15.325  56.202  33.035  1.00  0.00     0.180 A 
ATOM      2  C   UNL     1      16.526  56.882  32.757  1.00  0.00     0.208 A 
ATOM      3  C   UNL     1      16.590  58.266  32.983  1.00  0.00     0.238 A 
ATOM      4  O   UNL     1      17.665  58.883  32.749  1.00  0.00    -0.285 OA
ATOM      5  C   UNL     1      15.452  58.948  33.458  1.00  0.00     0.111 A 
ATOM      6  C   UNL     1      15.432  60.342  33.706  1.00  0.00     0.134 A 
ATOM      7  C   UNL     1      14.255  60.949  34.171  1.00  0.00     0.093 A 
ATOM      8  C   UNL     1      13.100  60.189  34.391  1.00  0.00     0.123 A 
ATOM      9  C   UNL     1      13.116  58.815  34.148  1.00  0.00     0.094 A 
ATOM     10  C   UNL     1      14.278  58.191  33.686  1.00  0.00     0.146 A 
ATOM     11  O   UNL     1      14.267  56.881  33.468  1.00  0.00    -0.452 OA
ENDROOT
BRANCH   1  12
ATOM     12  C   UNL     1      15.184  54.741  32.842  1.00  0.00     0.021 A 
ATOM     13  C   UNL     1      14.784  54.244  31.591  1.00  0.00     0.016 A 
ATOM     14  C   UNL     1      14.623  52.869  31.392  1.00  0.00     0.047 A 
ATOM     15  C   UNL     1      14.845  51.975  32.444  1.00  0.00     0.115 A 
ATOM     16  C   UNL     1      15.386  53.838  33.902  1.00  0.00     0.016 A 
ATOM     17  C   UNL     1      15.224  52.463  33.701  1.00  0.00     0.047 A 
BRANCH  15  18
ATOM     18  O   UNL     1      14.682  50.608  32.232  1.00  0.00    -0.508 OA
ATOM     19  H   UNL     1      14.492  49.973  32.998  1.00  0.00     0.293 HD
ENDBRANCH  15  18
ENDBRANCH   1  12
BRANCH   2  20
ATOM     20  O   UNL     1      17.625  56.191  32.241  1.00  0.00    -0.502 OA
ATOM     21  H   UNL     1      18.531  56.626  32.117  1.00  0.00     0.293 HD
ENDBRANCH   2  20
BRANCH   6  22
ATOM     22  O   UNL     1      16.567  61.125  33.496  1.00  0.00    -0.507 OA
ATOM     23  H   UNL     1      16.501  62.104  33.242  1.00  0.00     0.293 HD
ENDBRANCH   6  22
BRANCH   8  24
ATOM     24  O   UNL     1      11.932  60.792  34.851  1.00  0.00    -0.508 OA
ATOM     25  H   UNL     1      11.142  60.243  35.171  1.00  0.00     0.293 HD
ENDBRANCH   8  24
TORSDOF 5
ENDMDL
MODEL 4
REMARK VINA RESULT:    -5.165      1.963      3.940
REMARK INTER + INTRA:          -6.368
REMARK INTER:                  -6.095
REMARK INTRA:                  -0.273
REMARK UNBOUND:                -0.298
REMARK SMILES O=c1c(O)c(-c2ccc(O)cc2)oc2cc(O)cc(O)c12
REMARK SMILES IDX 5 1 3 2 2 3 1 4 21 5 19 6 18 7 16 8 15 9 14 10 13 11 6 12
REMARK SMILES IDX 7 13 8 14 9 15 12 16 11 17 10 18 4 20 20 22 17 24
REMARK H PARENT 10 19 4 21 20 23 17 25
REMARK Flexibility Score: inf
ROOT
ATOM      1  C   UNL     1      14.519  55.061  33.180  1.00  0.00     0.180 A 
ATOM      2  C   UNL     1      14.864  56.426  33.151  1.00  0.00     0.208 A 
ATOM      3  C   UNL     1      15.305  56.988  31.944  1.00  0.00     0.238 A 
ATOM      4  O   UNL     1      15.605  58.213  31.903  1.00  0.00    -0.285 OA
ATOM      5  C   UNL     1      15.415  56.178  30.796  1.00  0.00     0.111 A 
ATOM      6  C   UNL     1      15.857  56.667  29.542  1.00  0.00     0.134 A 
ATOM      7  C   UNL     1      15.948  55.793  28.448  1.00  0.00     0.093 A 
ATOM      8  C   UNL     1      15.607  54.442  28.585  1.00  0.00     0.123 A 
ATOM      9  C   UNL     1      15.172  53.957  29.818  1.00  0.00     0.094 A 
ATOM     10  C   UNL     1      15.073  54.811  30.920  1.00  0.00     0.146 A 
ATOM     11  O   UNL     1      14.650  54.323  32.081  1.00  0.00    -0.452 OA
ENDROOT
BRANCH   1  12
ATOM     12  C   UNL     1      14.028  54.399  34.409  1.00  0.00     0.021 A 
ATOM     13  C   UNL     1      14.891  53.564  35.139  1.00  0.00     0.016 A 
ATOM     14  C   UNL     1      14.441  52.911  36.289  1.00  0.00     0.047 A 
ATOM     15  C   UNL     1      13.121  53.071  36.719  1.00  0.00     0.115 A 
ATOM     16  C   UNL     1      12.694  54.539  34.835  1.00  0.00     0.016 A 
ATOM     17  C   UNL     1      12.246  53.884  35.987  1.00  0.00     0.047 A 
BRANCH  15  18
ATOM     18  O   UNL     1      12.686  52.415  37.869  1.00  0.00    -0.508 OA
ATOM     19  H   UNL     1      11.749  52.547  38.232  1.00  0.00     0.293 HD
ENDBRANCH  15  18
ENDBRANCH   1  12
BRANCH   2  20
ATOM     20  O   UNL     1      14.792  57.196  34.314  1.00  0.00    -0.502 OA
ATOM     21  H   UNL     1      15.019  56.822  35.228  1.00  0.00     0.293 HD
ENDBRANCH   2  20
BRANCH   6  22
ATOM     22  O   UNL     1      16.203  58.008  29.376  1.00  0.00    -0.507 OA
ATOM     23  H   UNL     1      15.719  58.749  29.870  1.00  0.00     0.293 HD
ENDBRANCH   6  22
BRANCH   8  24
ATOM     24  O   UNL     1      15.699  53.574  27.499  1.00  0.00    -0.508 OA
ATOM     25  H   UNL     1      14.942  52.946  27.257  1.00  0.00     0.293 HD
ENDBRANCH   8  24
TORSDOF 5
ENDMDL
MODEL 5
REMARK VINA RESULT:    -5.090      2.680      6.590
REMARK INTER + INTRA:          -6.281
REMARK INTER:                  -6.158
REMARK INTRA:                  -0.123
REMARK UNBOUND:                -0.298
REMARK SMILES O=c1c(O)c(-c2ccc(O)cc2)oc2cc(O)cc(O)c12
REMARK SMILES IDX 5 1 3 2 2 3 1 4 21 5 19 6 18 7 16 8 15 9 14 10 13 11 6 12
REMARK SMILES IDX 7 13 8 14 9 15 12 16 11 17 10 18 4 20 20 22 17 24
REMARK H PARENT 10 19 4 21 20 23 17 25
REMARK Flexibility Score: inf
ROOT
ATOM      1  C   UNL     1      15.594  55.848  32.891  1.00  0.00     0.180 A 
ATOM      2  C   UNL     1      15.132  54.977  33.897  1.00  0.00     0.208 A 
ATOM      3  C   UNL     1      14.757  53.672  33.543  1.00  0.00     0.238 A 
ATOM      4  O   UNL     1      14.353  52.879  34.438  1.00  0.00    -0.285 OA
ATOM      5  C   UNL     1      14.828  53.266  32.196  1.00  0.00     0.111 A 
ATOM      6  C   UNL     1      14.464  51.970  31.756  1.00  0.00     0.134 A 
ATOM      7  C   UNL     1      14.555  51.647  30.394  1.00  0.00     0.093 A 
ATOM      8  C   UNL     1      15.001  52.594  29.465  1.00  0.00     0.123 A 
ATOM      9  C   UNL     1      15.361  53.872  29.894  1.00  0.00     0.094 A 
ATOM     10  C   UNL     1      15.279  54.213  31.246  1.00  0.00     0.146 A 
ATOM     11  O   UNL     1      15.633  55.436  31.627  1.00  0.00    -0.452 OA
ENDROOT
BRANCH   1  12
ATOM     12  C   UNL     1      16.026  57.233  33.186  1.00  0.00     0.021 A 
ATOM     13  C   UNL     1      17.375  57.588  33.017  1.00  0.00     0.016 A 
ATOM     14  C   UNL     1      17.809  58.883  33.312  1.00  0.00     0.047 A 
ATOM     15  C   UNL     1      16.907  59.836  33.793  1.00  0.00     0.115 A 
ATOM     16  C   UNL     1      15.126  58.190  33.691  1.00  0.00     0.016 A 
ATOM     17  C   UNL     1      15.564  59.485  33.986  1.00  0.00     0.047 A 
BRANCH  15  18
ATOM     18  O   UNL     1      17.353  61.124  34.082  1.00  0.00    -0.508 OA
ATOM     19  H   UNL     1      17.104  61.589  34.948  1.00  0.00     0.293 HD
ENDBRANCH  15  18
ENDBRANCH   1  12
BRANCH   2  20
ATOM     20  O   UNL     1      15.025  55.419  35.217  1.00  0.00    -0.502 OA
ATOM     21  H   UNL     1      15.670  55.127  35.942  1.00  0.00     0.293 HD
ENDBRANCH   2  20
BRANCH   6  22
ATOM     22  O   UNL     1      14.016  51.006  32.659  1.00  0.00    -0.507 OA
ATOM     23  H   UNL     1      13.674  50.104  32.349  1.00  0.00     0.293 HD
ENDBRANCH   6  22
BRANCH   8  24
ATOM     24  O   UNL     1      15.090  52.272  28.112  1.00  0.00    -0.508 OA
ATOM     25  H   UNL     1      14.469  51.594  27.687  1.00  0.00     0.293 HD
ENDBRANCH   8  24
TORSDOF 5
ENDMDL
MODEL 6
REMARK VINA RESULT:    -4.893      3.294      4.369
REMARK INTER + INTRA:          -6.049
REMARK INTER:                  -5.797
REMARK INTRA:                  -0.252
REMARK UNBOUND:                -0.298
REMARK SMILES O=c1c(O)c(-c2ccc(O)cc2)oc2cc(O)cc(O)c12
REMARK SMILES IDX 5 1 3 2 2 3 1 4 21 5 19 6 18 7 16 8 15 9 14 10 13 11 6 12
REMARK SMILES IDX 7 13 8 14 9 15 12 16 11 17 10 18 4 20 20 22 17 24
REMARK H PARENT 10 19 4 21 20 23 17 25
REMARK Flexibility Score: inf
ROOT
ATOM      1  C   UNL     1      14.486  53.895  32.230  1.00  0.00     0.180 A 
ATOM      2  C   UNL     1      13.393  54.531  32.849  1.00  0.00     0.208 A 
ATOM      3  C   UNL     1      13.543  55.854  33.293  1.00  0.00     0.238 A 
ATOM      4  O   UNL     1      12.567  56.439  33.838  1.00  0.00    -0.285 OA
ATOM      5  C   UNL     1      14.779  56.509  33.130  1.00  0.00     0.111 A 
ATOM      6  C   UNL     1      15.013  57.840  33.554  1.00  0.00     0.134 A 
ATOM      7  C   UNL     1      16.277  58.418  33.365  1.00  0.00     0.093 A 
ATOM      8  C   UNL     1      17.311  57.691  32.761  1.00  0.00     0.123 A 
ATOM      9  C   UNL     1      17.084  56.380  32.342  1.00  0.00     0.094 A 
ATOM     10  C   UNL     1      15.832  55.786  32.520  1.00  0.00     0.146 A 
ATOM     11  O   UNL     1      15.643  54.538  32.107  1.00  0.00    -0.452 OA
ENDROOT
BRANCH   1  12
ATOM     12  C   UNL     1      14.402  52.507  31.718  1.00  0.00     0.021 A 
ATOM     13  C   UNL     1      14.517  51.431  32.614  1.00  0.00     0.016 A 
ATOM     14  C   UNL     1      14.464  50.114  32.150  1.00  0.00     0.047 A 
ATOM     15  C   UNL     1      14.309  49.854  30.786  1.00  0.00     0.115 A 
ATOM     16  C   UNL     1      14.268  52.240  30.344  1.00  0.00     0.016 A 
ATOM     17  C   UNL     1      14.215  50.920  29.882  1.00  0.00     0.047 A 
BRANCH  15  18
ATOM     18  O   UNL     1      14.257  48.536  30.337  1.00  0.00    -0.508 OA
ATOM     19  H   UNL     1      14.264  47.755  30.984  1.00  0.00     0.293 HD
ENDBRANCH  15  18
ENDBRANCH   1  12
BRANCH   2  20
ATOM     20  O   UNL     1      12.193  53.844  33.042  1.00  0.00    -0.502 OA
ATOM     21  H   UNL     1      11.975  52.983  32.554  1.00  0.00     0.293 HD
ENDBRANCH   2  20
BRANCH   6  22
ATOM     22  O   UNL     1      14.003  58.589  34.159  1.00  0.00    -0.507 OA
ATOM     23  H   UNL     1      13.617  59.416  33.719  1.00  0.00     0.293 HD
ENDBRANCH   6  22
BRANCH   8  24
ATOM     24  O   UNL     1      18.566  58.266  32.574  1.00  0.00    -0.508 OA
ATOM     25  H   UNL     1      19.359  58.005  33.149  1.00  0.00     0.293 HD
ENDBRANCH   8  24
TORSDOF 5
ENDMDL
MODEL 7
REMARK VINA RESULT:    -4.879      2.351      3.419
REMARK INTER + INTRA:          -6.033
REMARK INTER:                  -5.738
REMARK INTRA:                  -0.295
REMARK UNBOUND:                -0.298
REMARK SMILES O=c1c(O)c(-c2ccc(O)cc2)oc2cc(O)cc(O)c12
REMARK SMILES IDX 5 1 3 2 2 3 1 4 21 5 19 6 18 7 16 8 15 9 14 10 13 11 6 12
REMARK SMILES IDX 7 13 8 14 9 15 12 16 11 17 10 18 4 20 20 22 17 24
REMARK H PARENT 10 19 4 21 20 23 17 25
REMARK Flexibility Score: inf
ROOT
ATOM      1  C   UNL     1      14.598  56.213  33.344  1.00  0.00     0.180 A 
ATOM      2  C   UNL     1      13.423  56.772  33.881  1.00  0.00     0.208 A 
ATOM      3  C   UNL     1      13.378  58.155  34.116  1.00  0.00     0.238 A 
ATOM      4  O   UNL     1      12.326  58.670  34.585  1.00  0.00    -0.285 OA
ATOM      5  C   UNL     1      14.507  58.948  33.833  1.00  0.00     0.111 A 
ATOM      6  C   UNL     1      14.545  60.348  34.046  1.00  0.00     0.134 A 
ATOM      7  C   UNL     1      15.713  61.066  33.747  1.00  0.00     0.093 A 
ATOM      8  C   UNL     1      16.842  60.412  33.241  1.00  0.00     0.123 A 
ATOM      9  C   UNL     1      16.809  59.033  33.030  1.00  0.00     0.094 A 
ATOM     10  C   UNL     1      15.655  58.300  33.319  1.00  0.00     0.146 A 
ATOM     11  O   UNL     1      15.650  56.989  33.104  1.00  0.00    -0.452 OA
ENDROOT
BRANCH   1  12
ATOM     12  C   UNL     1      14.718  54.766  33.050  1.00  0.00     0.021 A 
ATOM     13  C   UNL     1      15.203  53.896  34.041  1.00  0.00     0.016 A 
ATOM     14  C   UNL     1      15.346  52.531  33.778  1.00  0.00     0.047 A 
ATOM     15  C   UNL     1      15.019  52.019  32.519  1.00  0.00     0.115 A 
ATOM     16  C   UNL     1      14.411  54.249  31.779  1.00  0.00     0.016 A 
ATOM     17  C   UNL     1      14.555  52.881  31.518  1.00  0.00     0.047 A 
BRANCH  15  18
ATOM     18  O   UNL     1      15.165  50.656  32.271  1.00  0.00    -0.508 OA
ATOM     19  H   UNL     1      14.363  50.039  32.216  1.00  0.00     0.293 HD
ENDBRANCH  15  18
ENDBRANCH   1  12
BRANCH   2  20
ATOM     20  O   UNL     1      12.334  55.958  34.198  1.00  0.00    -0.502 OA
ATOM     21  H   UNL     1      11.835  56.036  35.076  1.00  0.00     0.293 HD
ENDBRANCH   2  20
BRANCH   6  22
ATOM     22  O   UNL     1      13.435  61.028  34.549  1.00  0.00    -0.507 OA
ATOM     23  H   UNL     1      12.593  60.539  34.830  1.00  0.00     0.293 HD
ENDBRANCH   6  22
BRANCH   8  24
ATOM     24  O   UNL     1      18.002  61.125  32.946  1.00  0.00    -0.508 OA
ATOM     25  H   UNL     1      17.976  62.117  32.743  1.00  0.00     0.293 HD
ENDBRANCH   8  24
TORSDOF 5
ENDMDL
MODEL 8
REMARK VINA RESULT:    -4.855      4.781      6.192
REMARK INTER + INTRA:          -6.005
REMARK INTER:                  -5.737
REMARK INTRA:                  -0.268
REMARK UNBOUND:                -0.298
REMARK SMILES O=c1c(O)c(-c2ccc(O)cc2)oc2cc(O)cc(O)c12
REMARK SMILES IDX 5 1 3 2 2 3 1 4 21 5 19 6 18 7 16 8 15 9 14 10 13 11 6 12
REMARK SMILES IDX 7 13 8 14 9 15 12 16 11 17 10 18 4 20 20 22 17 24
REMARK H PARENT 10 19 4 21 20 23 17 25
REMARK Flexibility Score: inf
ROOT
ATOM      1  C   UNL     1      15.069  51.187  31.924  1.00  0.00     0.180 A 
ATOM      2  C   UNL     1      14.861  52.156  30.925  1.00  0.00     0.208 A 
ATOM      3  C   UNL     1      14.761  53.505  31.299  1.00  0.00     0.238 A 
ATOM      4  O   UNL     1      14.587  54.384  30.412  1.00  0.00    -0.285 OA
ATOM      5  C   UNL     1      14.850  53.859  32.660  1.00  0.00     0.111 A 
ATOM      6  C   UNL     1      14.755  55.195  33.121  1.00  0.00     0.134 A 
ATOM      7  C   UNL     1      14.844  55.465  34.495  1.00  0.00     0.093 A 
ATOM      8  C   UNL     1      15.025  54.425  35.415  1.00  0.00     0.123 A 
ATOM      9  C   UNL     1      15.119  53.108  34.965  1.00  0.00     0.094 A 
ATOM     10  C   UNL     1      15.035  52.819  33.601  1.00  0.00     0.146 A 
ATOM     11  O   UNL     1      15.133  51.556  33.200  1.00  0.00    -0.452 OA
ENDROOT
BRANCH   1  12
ATOM     12  C   UNL     1      15.204  49.747  31.608  1.00  0.00     0.021 A 
ATOM     13  C   UNL     1      14.131  48.877  31.870  1.00  0.00     0.016 A 
ATOM     14  C   UNL     1      14.245  47.511  31.601  1.00  0.00     0.047 A 
ATOM     15  C   UNL     1      15.433  46.992  31.079  1.00  0.00     0.115 A 
ATOM     16  C   UNL     1      16.405  49.216  31.103  1.00  0.00     0.016 A 
ATOM     17  C   UNL     1      16.515  47.847  30.834  1.00  0.00     0.047 A 
BRANCH  15  18
ATOM     18  O   UNL     1      15.532  45.628  30.814  1.00  0.00    -0.508 OA
ATOM     19  H   UNL     1      14.795  44.983  31.075  1.00  0.00     0.293 HD
ENDBRANCH  15  18
ENDBRANCH   1  12
BRANCH   2  20
ATOM     20  O   UNL     1      14.728  51.775  29.588  1.00  0.00    -0.502 OA
ATOM     21  H   UNL     1      15.219  52.246  28.837  1.00  0.00     0.293 HD
ENDBRANCH   2  20
BRANCH   6  22
ATOM     22  O   UNL     1      14.575  56.252  32.228  1.00  0.00    -0.507 OA
ATOM     23  H   UNL     1      15.284  56.504  31.550  1.00  0.00     0.293 HD
ENDBRANCH   6  22
BRANCH   8  24
ATOM     24  O   UNL     1      15.112  54.694  36.780  1.00  0.00    -0.508 OA
ATOM     25  H   UNL     1      14.607  54.139  37.462  1.00  0.00     0.293 HD
ENDBRANCH   8  24
TORSDOF 5
ENDMDL
MODEL 9
REMARK VINA RESULT:    -4.800      6.937      8.737
REMARK INTER + INTRA:          -5.940
REMARK INTER:                  -5.876
REMARK INTRA:                  -0.064
REMARK UNBOUND:                -0.298
REMARK SMILES O=c1c(O)c(-c2ccc(O)cc2)oc2cc(O)cc(O)c12
REMARK SMILES IDX 5 1 3 2 2 3 1 4 21 5 19 6 18 7 16 8 15 9 14 10 13 11 6 12
REMARK SMILES IDX 7 13 8 14 9 15 12 16 11 17 10 18 4 20 20 22 17 24
REMARK H PARENT 10 19 4 21 20 23 17 25
REMARK Flexibility Score: inf
ROOT
ATOM      1  C   UNL     1      14.350  47.674  32.339  1.00  0.00     0.180 A 
ATOM      2  C   UNL     1      15.449  47.070  31.697  1.00  0.00     0.208 A 
ATOM      3  C   UNL     1      16.176  47.813  30.754  1.00  0.00     0.238 A 
ATOM      4  O   UNL     1      17.169  47.287  30.182  1.00  0.00    -0.285 OA
ATOM      5  C   UNL     1      15.784  49.133  30.454  1.00  0.00     0.111 A 
ATOM      6  C   UNL     1      16.460  49.947  29.513  1.00  0.00     0.134 A 
ATOM      7  C   UNL     1      16.001  51.249  29.264  1.00  0.00     0.093 A 
ATOM      8  C   UNL     1      14.879  51.751  29.935  1.00  0.00     0.123 A 
ATOM      9  C   UNL     1      14.210  50.952  30.863  1.00  0.00     0.094 A 
ATOM     10  C   UNL     1      14.653  49.653  31.127  1.00  0.00     0.146 A 
ATOM     11  O   UNL     1      14.000  48.916  32.019  1.00  0.00    -0.452 OA
ENDROOT
BRANCH   1  12
ATOM     12  C   UNL     1      13.546  46.962  33.358  1.00  0.00     0.021 A 
ATOM     13  C   UNL     1      12.150  46.888  33.209  1.00  0.00     0.016 A 
ATOM     14  C   UNL     1      11.369  46.241  34.171  1.00  0.00     0.047 A 
ATOM     15  C   UNL     1      11.968  45.673  35.299  1.00  0.00     0.115 A 
ATOM     16  C   UNL     1      14.140  46.408  34.506  1.00  0.00     0.016 A 
ATOM     17  C   UNL     1      13.355  45.762  35.467  1.00  0.00     0.047 A 
BRANCH  15  18
ATOM     18  O   UNL     1      11.177  45.031  36.249  1.00  0.00    -0.508 OA
ATOM     19  H   UNL     1      11.260  45.241  37.237  1.00  0.00     0.293 HD
ENDBRANCH  15  18
ENDBRANCH   1  12
BRANCH   2  20
ATOM     20  O   UNL     1      15.788  45.744  31.976  1.00  0.00    -0.502 OA
ATOM     21  H   UNL     1      15.123  45.083  32.360  1.00  0.00     0.293 HD
ENDBRANCH   2  20
BRANCH   6  22
ATOM     22  O   UNL     1      17.580  49.475  28.829  1.00  0.00    -0.507 OA
ATOM     23  H   UNL     1      18.392  49.118  29.318  1.00  0.00     0.293 HD
ENDBRANCH   6  22
BRANCH   8  24
ATOM     24  O   UNL     1      14.423  53.043  29.686  1.00  0.00    -0.508 OA
ATOM     25  H   UNL     1      14.634  53.522  28.818  1.00  0.00     0.293 HD
ENDBRANCH   8  24
TORSDOF 5
ENDMDL
