MODEL 1
REMARK VINA RESULT:     2.190      0.000      0.000
REMARK INTER + INTRA:           2.833
REMARK INTER:                   3.470
REMARK INTRA:                  -0.637
REMARK UNBOUND:                -0.637
REMARK SMILES CCCCCCCCCCCC(=O)[O-]
REMARK SMILES IDX 7 1 8 2 9 3 10 4 11 5 12 6 13 7 14 8 6 9 5 10 4 11 3 12 2 13
REMARK SMILES IDX 1 14
REMARK H PARENT
REMARK Flexibility Score: inf
ROOT
ATOM      1  C   UNL     1     -15.918  24.325 -18.273  1.00  0.00     0.000 C 
ENDROOT
BRANCH   1   2
ATOM      2  C   UNL     1     -16.573  23.766 -19.544  1.00  0.00     0.000 C 
BRANCH   2   3
ATOM      3  C   UNL     1     -15.546  23.024 -20.409  1.00  0.00     0.000 C 
BRANCH   3   4
ATOM      4  C   UNL     1     -15.277  23.782 -21.718  1.00  0.00     0.006 C 
BRANCH   4   5
ATOM      5  C   UNL     1     -14.443  22.957 -22.706  1.00  0.00     0.053 C 
BRANCH   5   6
ATOM      6  C   UNL     1     -13.111  23.589 -22.971  1.00  0.00     0.041 C 
ATOM      7  O   UNL     1     -12.082  22.875 -23.096  1.00  0.00    -0.550 OA
ATOM      8  O   UNL     1     -13.013  24.968 -23.112  1.00  0.00    -0.550 OA
ENDBRANCH   5   6
ENDBRANCH   4   5
ENDBRANCH   3   4
ENDBRANCH   2   3
ENDBRANCH   1   2
BRANCH   1   9
ATOM      9  C   UNL     1     -16.909  25.096 -17.386  1.00  0.00     0.000 C 
BRANCH   9  10
ATOM     10  C   UNL     1     -17.559  26.281 -18.116  1.00  0.00    -0.000 C 
BRANCH  10  11
ATOM     11  C   UNL     1     -16.500  27.154 -18.799  1.00  0.00    -0.000 C 
BRANCH  11  12
ATOM     12  C   UNL     1     -16.828  27.356 -20.286  1.00  0.00    -0.000 C 
BRANCH  12  13
ATOM     13  C   UNL     1     -18.275  27.818 -20.514  1.00  0.00    -0.003 C 
ATOM     14  C   UNL     1     -18.460  28.554 -21.841  1.00  0.00     0.004 C 
ENDBRANCH  12  13
ENDBRANCH  11  12
ENDBRANCH  10  11
ENDBRANCH   9  10
ENDBRANCH   1   9
TORSDOF 10
ENDMDL
MODEL 2
REMARK VINA RESULT:     4.787      2.684      5.483
REMARK INTER + INTRA:           6.949
REMARK INTER:                   5.493
REMARK INTRA:                   1.456
REMARK UNBOUND:                -0.637
REMARK SMILES CCCCCCCCCCCC(=O)[O-]
REMARK SMILES IDX 7 1 8 2 9 3 10 4 11 5 12 6 13 7 14 8 6 9 5 10 4 11 3 12 2 13
REMARK SMILES IDX 1 14
REMARK H PARENT
REMARK Flexibility Score: inf
ROOT
ATOM      1  C   UNL     1     -16.033  24.352 -19.654  1.00  0.00     0.000 C 
ENDROOT
BRANCH   1   2
ATOM      2  C   UNL     1     -15.741  23.950 -18.201  1.00  0.00     0.000 C 
BRANCH   2   3
ATOM      3  C   UNL     1     -16.868  24.410 -17.268  1.00  0.00     0.000 C 
BRANCH   3   4
ATOM      4  C   UNL     1     -17.082  25.928 -17.368  1.00  0.00     0.006 C 
BRANCH   4   5
ATOM      5  C   UNL     1     -18.015  26.308 -18.525  1.00  0.00     0.053 C 
BRANCH   5   6
ATOM      6  C   UNL     1     -17.395  27.333 -19.424  1.00  0.00     0.041 C 
ATOM      7  O   UNL     1     -16.154  27.544 -19.387  1.00  0.00    -0.550 OA
ATOM      8  O   UNL     1     -18.184  28.033 -20.328  1.00  0.00    -0.550 OA
ENDBRANCH   5   6
ENDBRANCH   4   5
ENDBRANCH   3   4
ENDBRANCH   2   3
ENDBRANCH   1   2
BRANCH   1   9
ATOM      9  C   UNL     1     -16.375  23.146 -20.544  1.00  0.00     0.000 C 
BRANCH   9  10
ATOM     10  C   UNL     1     -15.332  22.907 -21.645  1.00  0.00    -0.000 C 
BRANCH  10  11
ATOM     11  C   UNL     1     -13.912  22.898 -21.065  1.00  0.00    -0.000 C 
BRANCH  11  12
ATOM     12  C   UNL     1     -12.860  22.875 -22.183  1.00  0.00    -0.000 C 
BRANCH  12  13
ATOM     13  C   UNL     1     -12.971  24.084 -23.124  1.00  0.00    -0.003 C 
ATOM     14  C   UNL     1     -14.310  24.810 -22.999  1.00  0.00     0.004 C 
ENDBRANCH  12  13
ENDBRANCH  11  12
ENDBRANCH  10  11
ENDBRANCH   9  10
ENDBRANCH   1   9
TORSDOF 10
ENDMDL
