MODEL 1
REMARK VINA RESULT:    -4.237      0.000      0.000
REMARK INTER + INTRA:          -4.504
REMARK INTER:                  -4.485
REMARK INTRA:                  -0.020
REMARK UNBOUND:                -0.020
REMARK SMILES O=C([O-])c1cccnc1
REMARK SMILES IDX 4 1 5 2 9 3 6 4 8 5 7 6 2 7 1 8 3 9
REMARK H PARENT
REMARK Flexibility Score: inf
ROOT
ATOM      1  C   UNL     1      10.881   6.856   5.397  1.00  0.00     0.016 A 
ATOM      2  C   UNL     1      11.000   7.879   4.441  1.00  0.00     0.013 A 
ATOM      3  C   UNL     1      11.515   5.628   5.143  1.00  0.00     0.120 A 
ATOM      4  C   UNL     1      11.734   7.665   3.273  1.00  0.00     0.021 A 
ATOM      5  N   UNL     1      12.224   5.446   3.996  1.00  0.00    -0.264 NA
ATOM      6  C   UNL     1      12.346   6.428   3.066  1.00  0.00     0.111 A 
ENDROOT
BRANCH   1   7
ATOM      7  C   UNL     1      10.109   7.063   6.640  1.00  0.00     0.073 C 
ATOM      8  O   UNL     1      10.257   8.113   7.320  1.00  0.00    -0.545 OA
ATOM      9  O   UNL     1       9.207   6.099   7.077  1.00  0.00    -0.545 OA
ENDBRANCH   1   7
TORSDOF 1
ENDMDL
MODEL 2
REMARK VINA RESULT:    -4.157      0.913      1.930
REMARK INTER + INTRA:          -4.420
REMARK INTER:                  -4.400
REMARK INTRA:                  -0.020
REMARK UNBOUND:                -0.020
REMARK SMILES O=C([O-])c1cccnc1
REMARK SMILES IDX 4 1 5 2 9 3 6 4 8 5 7 6 2 7 1 8 3 9
REMARK H PARENT
REMARK Flexibility Score: inf
ROOT
ATOM      1  C   UNL     1      10.919   6.869   5.391  1.00  0.00     0.016 A 
ATOM      2  C   UNL     1      11.523   5.624   5.150  1.00  0.00     0.013 A 
ATOM      3  C   UNL     1      11.082   7.887   4.436  1.00  0.00     0.120 A 
ATOM      4  C   UNL     1      12.264   5.419   3.985  1.00  0.00     0.021 A 
ATOM      5  N   UNL     1      11.810   7.660   3.309  1.00  0.00    -0.264 NA
ATOM      6  C   UNL     1      12.398   6.460   3.066  1.00  0.00     0.111 A 
ENDROOT
BRANCH   1   7
ATOM      7  C   UNL     1      10.130   7.107   6.619  1.00  0.00     0.073 C 
ATOM      8  O   UNL     1       9.318   6.240   7.037  1.00  0.00    -0.545 OA
ATOM      9  O   UNL     1      10.274   8.294   7.329  1.00  0.00    -0.545 OA
ENDBRANCH   1   7
TORSDOF 1
ENDMDL
MODEL 3
REMARK VINA RESULT:    -4.114     11.446     12.049
REMARK INTER + INTRA:          -4.374
REMARK INTER:                  -4.356
REMARK INTRA:                  -0.018
REMARK UNBOUND:                -0.020
REMARK SMILES O=C([O-])c1cccnc1
REMARK SMILES IDX 4 1 5 2 9 3 6 4 8 5 7 6 2 7 1 8 3 9
REMARK H PARENT
REMARK Flexibility Score: inf
ROOT
ATOM      1  C   UNL     1       7.093   8.276  -5.707  1.00  0.00     0.016 A 
ATOM      2  C   UNL     1       8.228   8.997  -5.301  1.00  0.00     0.013 A 
ATOM      3  C   UNL     1       6.197   8.889  -6.600  1.00  0.00     0.120 A 
ATOM      4  C   UNL     1       8.446  10.289  -5.781  1.00  0.00     0.021 A 
ATOM      5  N   UNL     1       6.434  10.150  -7.052  1.00  0.00    -0.264 NA
ATOM      6  C   UNL     1       7.528  10.856  -6.665  1.00  0.00     0.111 A 
ENDROOT
BRANCH   1   7
ATOM      7  C   UNL     1       6.843   6.906  -5.211  1.00  0.00     0.073 C 
ATOM      8  O   UNL     1       7.677   5.986  -5.421  1.00  0.00    -0.545 OA
ATOM      9  O   UNL     1       5.682   6.615  -4.503  1.00  0.00    -0.545 OA
ENDBRANCH   1   7
TORSDOF 1
ENDMDL
MODEL 4
REMARK VINA RESULT:    -4.067      1.425      1.809
REMARK INTER + INTRA:          -4.325
REMARK INTER:                  -4.309
REMARK INTRA:                  -0.016
REMARK UNBOUND:                -0.020
REMARK SMILES O=C([O-])c1cccnc1
REMARK SMILES IDX 4 1 5 2 9 3 6 4 8 5 7 6 2 7 1 8 3 9
REMARK H PARENT
REMARK Flexibility Score: inf
ROOT
ATOM      1  C   UNL     1      11.101   7.482   4.944  1.00  0.00     0.016 A 
ATOM      2  C   UNL     1      11.580   7.672   3.637  1.00  0.00     0.013 A 
ATOM      3  C   UNL     1      11.274   6.222   5.541  1.00  0.00     0.120 A 
ATOM      4  C   UNL     1      12.209   6.626   2.962  1.00  0.00     0.021 A 
ATOM      5  N   UNL     1      11.892   5.218   4.860  1.00  0.00    -0.264 NA
ATOM      6  C   UNL     1      12.357   5.392   3.596  1.00  0.00     0.111 A 
ENDROOT
BRANCH   1   7
ATOM      7  C   UNL     1      10.432   8.577   5.677  1.00  0.00     0.073 C 
ATOM      8  O   UNL     1       9.176   8.677   5.674  1.00  0.00    -0.545 OA
ATOM      9  O   UNL     1      11.181   9.514   6.381  1.00  0.00    -0.545 OA
ENDBRANCH   1   7
TORSDOF 1
ENDMDL
MODEL 5
REMARK VINA RESULT:    -4.048     11.286     12.077
REMARK INTER + INTRA:          -4.305
REMARK INTER:                  -4.287
REMARK INTRA:                  -0.018
REMARK UNBOUND:                -0.020
REMARK SMILES O=C([O-])c1cccnc1
REMARK SMILES IDX 4 1 5 2 9 3 6 4 8 5 7 6 2 7 1 8 3 9
REMARK H PARENT
REMARK Flexibility Score: inf
ROOT
ATOM      1  C   UNL     1       7.193   8.515  -5.776  1.00  0.00     0.016 A 
ATOM      2  C   UNL     1       6.276   9.139  -6.636  1.00  0.00     0.013 A 
ATOM      3  C   UNL     1       8.338   9.231  -5.386  1.00  0.00     0.120 A 
ATOM      4  C   UNL     1       6.509  10.440  -7.084  1.00  0.00     0.021 A 
ATOM      5  N   UNL     1       8.541  10.499  -5.838  1.00  0.00    -0.264 NA
ATOM      6  C   UNL     1       7.660  11.111  -6.670  1.00  0.00     0.111 A 
ENDROOT
BRANCH   1   7
ATOM      7  C   UNL     1       6.965   7.137  -5.289  1.00  0.00     0.073 C 
ATOM      8  O   UNL     1       7.789   6.221  -5.550  1.00  0.00    -0.545 OA
ATOM      9  O   UNL     1       5.837   6.835  -4.535  1.00  0.00    -0.545 OA
ENDBRANCH   1   7
TORSDOF 1
ENDMDL
MODEL 6
REMARK VINA RESULT:    -3.975     11.567     12.469
REMARK INTER + INTRA:          -4.227
REMARK INTER:                  -4.210
REMARK INTRA:                  -0.017
REMARK UNBOUND:                -0.020
REMARK SMILES O=C([O-])c1cccnc1
REMARK SMILES IDX 4 1 5 2 9 3 6 4 8 5 7 6 2 7 1 8 3 9
REMARK H PARENT
REMARK Flexibility Score: inf
ROOT
ATOM      1  C   UNL     1       8.238  10.807  -5.898  1.00  0.00     0.016 A 
ATOM      2  C   UNL     1       8.532   9.531  -5.388  1.00  0.00     0.013 A 
ATOM      3  C   UNL     1       7.152  10.939  -6.780  1.00  0.00     0.120 A 
ATOM      4  C   UNL     1       7.756   8.432  -5.758  1.00  0.00     0.021 A 
ATOM      5  N   UNL     1       6.412   9.850  -7.125  1.00  0.00    -0.264 NA
ATOM      6  C   UNL     1       6.688   8.613  -6.638  1.00  0.00     0.111 A 
ENDROOT
BRANCH   1   7
ATOM      7  C   UNL     1       9.048  11.984  -5.518  1.00  0.00     0.073 C 
ATOM      8  O   UNL     1       9.735  12.594  -6.379  1.00  0.00    -0.545 OA
ATOM      9  O   UNL     1       9.061  12.434  -4.202  1.00  0.00    -0.545 OA
ENDBRANCH   1   7
TORSDOF 1
ENDMDL
MODEL 7
REMARK VINA RESULT:    -3.943     11.664     12.206
REMARK INTER + INTRA:          -4.193
REMARK INTER:                  -4.174
REMARK INTRA:                  -0.019
REMARK UNBOUND:                -0.020
REMARK SMILES O=C([O-])c1cccnc1
REMARK SMILES IDX 4 1 5 2 9 3 6 4 8 5 7 6 2 7 1 8 3 9
REMARK H PARENT
REMARK Flexibility Score: inf
ROOT
ATOM      1  C   UNL     1       7.035   8.339  -5.830  1.00  0.00     0.016 A 
ATOM      2  C   UNL     1       7.782   7.150  -5.806  1.00  0.00     0.013 A 
ATOM      3  C   UNL     1       5.642   8.255  -5.666  1.00  0.00     0.120 A 
ATOM      4  C   UNL     1       7.143   5.924  -5.622  1.00  0.00     0.021 A 
ATOM      5  N   UNL     1       5.043   7.046  -5.488  1.00  0.00    -0.264 NA
ATOM      6  C   UNL     1       5.757   5.891  -5.463  1.00  0.00     0.111 A 
ENDROOT
BRANCH   1   7
ATOM      7  C   UNL     1       7.693   9.649  -6.024  1.00  0.00     0.073 C 
ATOM      8  O   UNL     1       8.700   9.967  -5.338  1.00  0.00    -0.545 OA
ATOM      9  O   UNL     1       7.208  10.548  -6.968  1.00  0.00    -0.545 OA
ENDBRANCH   1   7
TORSDOF 1
ENDMDL
MODEL 8
REMARK VINA RESULT:    -3.779     11.488     12.415
REMARK INTER + INTRA:          -4.019
REMARK INTER:                  -4.003
REMARK INTRA:                  -0.017
REMARK UNBOUND:                -0.020
REMARK SMILES O=C([O-])c1cccnc1
REMARK SMILES IDX 4 1 5 2 9 3 6 4 8 5 7 6 2 7 1 8 3 9
REMARK H PARENT
REMARK Flexibility Score: inf
ROOT
ATOM      1  C   UNL     1       8.248  10.866  -5.913  1.00  0.00     0.016 A 
ATOM      2  C   UNL     1       7.132  11.084  -6.738  1.00  0.00     0.013 A 
ATOM      3  C   UNL     1       8.523   9.553  -5.496  1.00  0.00     0.120 A 
ATOM      4  C   UNL     1       6.326  10.013  -7.125  1.00  0.00     0.021 A 
ATOM      5  N   UNL     1       7.720   8.526  -5.888  1.00  0.00    -0.264 NA
ATOM      6  C   UNL     1       6.639   8.727  -6.685  1.00  0.00     0.111 A 
ENDROOT
BRANCH   1   7
ATOM      7  C   UNL     1       9.115  11.987  -5.492  1.00  0.00     0.073 C 
ATOM      8  O   UNL     1       9.926  12.510  -6.303  1.00  0.00    -0.545 OA
ATOM      9  O   UNL     1       9.047  12.481  -4.195  1.00  0.00    -0.545 OA
ENDBRANCH   1   7
TORSDOF 1
ENDMDL
MODEL 9
REMARK VINA RESULT:    -3.694     10.520     10.759
REMARK INTER + INTRA:          -3.930
REMARK INTER:                  -3.913
REMARK INTRA:                  -0.017
REMARK UNBOUND:                -0.020
REMARK SMILES O=C([O-])c1cccnc1
REMARK SMILES IDX 4 1 5 2 9 3 6 4 8 5 7 6 2 7 1 8 3 9
REMARK H PARENT
REMARK Flexibility Score: inf
ROOT
ATOM      1  C   UNL     1      19.231   8.171  11.391  1.00  0.00     0.016 A 
ATOM      2  C   UNL     1      19.392   9.532  11.699  1.00  0.00     0.013 A 
ATOM      3  C   UNL     1      20.295   7.496  10.768  1.00  0.00     0.120 A 
ATOM      4  C   UNL     1      20.586  10.184  11.388  1.00  0.00     0.021 A 
ATOM      5  N   UNL     1      21.448   8.157  10.476  1.00  0.00    -0.264 NA
ATOM      6  C   UNL     1      21.614   9.472  10.770  1.00  0.00     0.111 A 
ENDROOT
BRANCH   1   7
ATOM      7  C   UNL     1      17.975   7.461  11.712  1.00  0.00     0.073 C 
ATOM      8  O   UNL     1      17.213   7.058  10.793  1.00  0.00    -0.545 OA
ATOM      9  O   UNL     1      17.616   7.228  13.036  1.00  0.00    -0.545 OA
ENDBRANCH   1   7
TORSDOF 1
ENDMDL
