MODEL 1
REMARK VINA RESULT:    -4.630      0.000      0.000
REMARK INTER + INTRA:          -7.006
REMARK INTER:                  -6.795
REMARK INTRA:                  -0.211
REMARK UNBOUND:                -0.211
REMARK SMILES O=C([O-])CCCCCCCC(=O)[O-]
REMARK SMILES IDX 7 1 6 2 5 3 4 4 2 5 1 6 3 7 8 8 9 9 10 10 11 11 12 12 13 13
REMARK H PARENT
REMARK Flexibility Score: inf
ROOT
ATOM      1  C   UNL     1      12.969 -31.109  21.807  1.00  0.00     0.000 C 
ENDROOT
BRANCH   1   2
ATOM      2  C   UNL     1      13.440 -31.930  20.597  1.00  0.00     0.000 C 
BRANCH   2   3
ATOM      3  C   UNL     1      14.558 -32.905  20.998  1.00  0.00     0.006 C 
BRANCH   3   4
ATOM      4  C   UNL     1      14.749 -34.025  19.966  1.00  0.00     0.053 C 
BRANCH   4   5
ATOM      5  C   UNL     1      15.748 -35.041  20.428  1.00  0.00     0.041 C 
ATOM      6  O   UNL     1      16.280 -34.935  21.565  1.00  0.00    -0.550 OA
ATOM      7  O   UNL     1      16.067 -36.123  19.619  1.00  0.00    -0.550 OA
ENDBRANCH   4   5
ENDBRANCH   3   4
ENDBRANCH   2   3
ENDBRANCH   1   2
BRANCH   1   8
ATOM      8  C   UNL     1      11.529 -30.596  21.650  1.00  0.00     0.000 C 
BRANCH   8   9
ATOM      9  C   UNL     1      11.288 -29.272  22.393  1.00  0.00     0.006 C 
BRANCH   9  10
ATOM     10  C   UNL     1      12.235 -29.134  23.587  1.00  0.00     0.053 C 
BRANCH  10  11
ATOM     11  C   UNL     1      12.107 -27.777  24.204  1.00  0.00     0.041 C 
ATOM     12  O   UNL     1      12.730 -27.501  25.263  1.00  0.00    -0.550 OA
ATOM     13  O   UNL     1      11.260 -26.833  23.637  1.00  0.00    -0.550 OA
ENDBRANCH  10  11
ENDBRANCH   9  10
ENDBRANCH   8   9
ENDBRANCH   1   8
TORSDOF 8
ENDMDL
MODEL 2
REMARK VINA RESULT:    -4.580      0.832      7.382
REMARK INTER + INTRA:          -6.933
REMARK INTER:                  -6.632
REMARK INTRA:                  -0.301
REMARK UNBOUND:                -0.211
REMARK SMILES O=C([O-])CCCCCCCC(=O)[O-]
REMARK SMILES IDX 7 1 6 2 5 3 4 4 2 5 1 6 3 7 8 8 9 9 10 10 11 11 12 12 13 13
REMARK H PARENT
REMARK Flexibility Score: inf
ROOT
ATOM      1  C   UNL     1      13.162 -30.998  21.512  1.00  0.00     0.000 C 
ENDROOT
BRANCH   1   2
ATOM      2  C   UNL     1      13.610 -31.381  22.931  1.00  0.00     0.000 C 
BRANCH   2   3
ATOM      3  C   UNL     1      13.338 -30.236  23.919  1.00  0.00     0.006 C 
BRANCH   3   4
ATOM      4  C   UNL     1      13.164 -28.886  23.210  1.00  0.00     0.053 C 
BRANCH   4   5
ATOM      5  C   UNL     1      12.377 -27.919  24.040  1.00  0.00     0.041 C 
ATOM      6  O   UNL     1      12.764 -27.620  25.201  1.00  0.00    -0.550 OA
ATOM      7  O   UNL     1      11.236 -27.322  23.521  1.00  0.00    -0.550 OA
ENDBRANCH   4   5
ENDBRANCH   3   4
ENDBRANCH   2   3
ENDBRANCH   1   2
BRANCH   1   8
ATOM      8  C   UNL     1      13.453 -32.101  20.482  1.00  0.00     0.000 C 
BRANCH   8   9
ATOM      9  C   UNL     1      14.446 -33.152  21.004  1.00  0.00     0.006 C 
BRANCH   9  10
ATOM     10  C   UNL     1      14.959 -34.035  19.863  1.00  0.00     0.053 C 
BRANCH  10  11
ATOM     11  C   UNL     1      15.842 -35.118  20.395  1.00  0.00     0.041 C 
ATOM     12  O   UNL     1      16.063 -36.151  19.709  1.00  0.00    -0.550 OA
ATOM     13  O   UNL     1      16.383 -35.011  21.670  1.00  0.00    -0.550 OA
ENDBRANCH  10  11
ENDBRANCH   9  10
ENDBRANCH   8   9
ENDBRANCH   1   8
TORSDOF 8
ENDMDL
MODEL 3
REMARK VINA RESULT:    -4.535      1.646      2.168
REMARK INTER + INTRA:          -6.866
REMARK INTER:                  -6.232
REMARK INTRA:                  -0.634
REMARK UNBOUND:                -0.211
REMARK SMILES O=C([O-])CCCCCCCC(=O)[O-]
REMARK SMILES IDX 7 1 6 2 5 3 4 4 2 5 1 6 3 7 8 8 9 9 10 10 11 11 12 12 13 13
REMARK H PARENT
REMARK Flexibility Score: inf
ROOT
ATOM      1  C   UNL     1      14.779 -30.618  21.300  1.00  0.00     0.000 C 
ENDROOT
BRANCH   1   2
ATOM      2  C   UNL     1      13.621 -31.602  21.076  1.00  0.00     0.000 C 
BRANCH   2   3
ATOM      3  C   UNL     1      14.148 -32.985  20.665  1.00  0.00     0.006 C 
BRANCH   3   4
ATOM      4  C   UNL     1      15.609 -33.198  21.086  1.00  0.00     0.053 C 
BRANCH   4   5
ATOM      5  C   UNL     1      15.715 -34.054  22.311  1.00  0.00     0.041 C 
ATOM      6  O   UNL     1      14.945 -33.859  23.289  1.00  0.00    -0.550 OA
ATOM      7  O   UNL     1      16.641 -35.088  22.361  1.00  0.00    -0.550 OA
ENDBRANCH   4   5
ENDBRANCH   3   4
ENDBRANCH   2   3
ENDBRANCH   1   2
BRANCH   1   8
ATOM      8  C   UNL     1      14.689 -29.894  22.653  1.00  0.00     0.000 C 
BRANCH   8   9
ATOM      9  C   UNL     1      13.525 -30.401  23.519  1.00  0.00     0.006 C 
BRANCH   9  10
ATOM     10  C   UNL     1      12.823 -29.239  24.227  1.00  0.00     0.053 C 
BRANCH  10  11
ATOM     11  C   UNL     1      11.761 -28.654  23.351  1.00  0.00     0.041 C 
ATOM     12  O   UNL     1      11.390 -27.461  23.515  1.00  0.00    -0.550 OA
ATOM     13  O   UNL     1      11.145 -29.441  22.387  1.00  0.00    -0.550 OA
ENDBRANCH  10  11
ENDBRANCH   9  10
ENDBRANCH   8   9
ENDBRANCH   1   8
TORSDOF 8
ENDMDL
MODEL 4
REMARK VINA RESULT:    -4.476      1.375      7.385
REMARK INTER + INTRA:          -6.781
REMARK INTER:                  -6.400
REMARK INTRA:                  -0.381
REMARK UNBOUND:                -0.211
REMARK SMILES O=C([O-])CCCCCCCC(=O)[O-]
REMARK SMILES IDX 7 1 6 2 5 3 4 4 2 5 1 6 3 7 8 8 9 9 10 10 11 11 12 12 13 13
REMARK H PARENT
REMARK Flexibility Score: inf
ROOT
ATOM      1  C   UNL     1      13.525 -31.400  21.530  1.00  0.00     0.000 C 
ENDROOT
BRANCH   1   2
ATOM      2  C   UNL     1      14.488 -30.213  21.373  1.00  0.00     0.000 C 
BRANCH   2   3
ATOM      3  C   UNL     1      14.467 -29.321  22.623  1.00  0.00     0.006 C 
BRANCH   3   4
ATOM      4  C   UNL     1      13.455 -29.810  23.669  1.00  0.00     0.053 C 
BRANCH   4   5
ATOM      5  C   UNL     1      12.387 -28.792  23.927  1.00  0.00     0.041 C 
ATOM      6  O   UNL     1      11.346 -28.771  23.217  1.00  0.00    -0.550 OA
ATOM      7  O   UNL     1      12.524 -27.887  24.971  1.00  0.00    -0.550 OA
ENDBRANCH   4   5
ENDBRANCH   3   4
ENDBRANCH   2   3
ENDBRANCH   1   2
BRANCH   1   8
ATOM      8  C   UNL     1      13.931 -32.609  20.673  1.00  0.00     0.000 C 
BRANCH   8   9
ATOM      9  C   UNL     1      15.313 -33.166  21.051  1.00  0.00     0.006 C 
BRANCH   9  10
ATOM     10  C   UNL     1      15.323 -34.695  20.986  1.00  0.00     0.053 C 
BRANCH  10  11
ATOM     11  C   UNL     1      16.152 -35.166  19.833  1.00  0.00     0.041 C 
ATOM     12  O   UNL     1      16.558 -34.347  18.967  1.00  0.00    -0.550 OA
ATOM     13  O   UNL     1      16.435 -36.518  19.687  1.00  0.00    -0.550 OA
ENDBRANCH  10  11
ENDBRANCH   9  10
ENDBRANCH   8   9
ENDBRANCH   1   8
TORSDOF 8
ENDMDL
MODEL 5
REMARK VINA RESULT:    -4.455      8.893     10.374
REMARK INTER + INTRA:          -6.750
REMARK INTER:                  -6.404
REMARK INTRA:                  -0.346
REMARK UNBOUND:                -0.211
REMARK SMILES O=C([O-])CCCCCCCC(=O)[O-]
REMARK SMILES IDX 7 1 6 2 5 3 4 4 2 5 1 6 3 7 8 8 9 9 10 10 11 11 12 12 13 13
REMARK H PARENT
REMARK Flexibility Score: inf
ROOT
ATOM      1  C   UNL     1      19.933 -27.402  20.733  1.00  0.00     0.000 C 
ENDROOT
BRANCH   1   2
ATOM      2  C   UNL     1      20.628 -26.100  20.305  1.00  0.00     0.000 C 
BRANCH   2   3
ATOM      3  C   UNL     1      22.153 -26.222  20.445  1.00  0.00     0.006 C 
BRANCH   3   4
ATOM      4  C   UNL     1      22.901 -25.268  19.503  1.00  0.00     0.053 C 
BRANCH   4   5
ATOM      5  C   UNL     1      23.598 -24.177  20.256  1.00  0.00     0.041 C 
ATOM      6  O   UNL     1      24.476 -23.475  19.686  1.00  0.00    -0.550 OA
ATOM      7  O   UNL     1      23.257 -23.912  21.575  1.00  0.00    -0.550 OA
ENDBRANCH   4   5
ENDBRANCH   3   4
ENDBRANCH   2   3
ENDBRANCH   1   2
BRANCH   1   8
ATOM      8  C   UNL     1      20.904 -28.590  20.822  1.00  0.00     0.000 C 
BRANCH   8   9
ATOM      9  C   UNL     1      20.197 -29.907  21.179  1.00  0.00     0.006 C 
BRANCH   9  10
ATOM     10  C   UNL     1      18.676 -29.731  21.171  1.00  0.00     0.053 C 
BRANCH  10  11
ATOM     11  C   UNL     1      17.997 -31.047  20.961  1.00  0.00     0.041 C 
ATOM     12  O   UNL     1      16.756 -31.158  21.148  1.00  0.00    -0.550 OA
ATOM     13  O   UNL     1      18.742 -32.165  20.606  1.00  0.00    -0.550 OA
ENDBRANCH  10  11
ENDBRANCH   9  10
ENDBRANCH   8   9
ENDBRANCH   1   8
TORSDOF 8
ENDMDL
MODEL 6
REMARK VINA RESULT:    -4.405      2.079      2.563
REMARK INTER + INTRA:          -6.676
REMARK INTER:                  -6.113
REMARK INTRA:                  -0.563
REMARK UNBOUND:                -0.211
REMARK SMILES O=C([O-])CCCCCCCC(=O)[O-]
REMARK SMILES IDX 7 1 6 2 5 3 4 4 2 5 1 6 3 7 8 8 9 9 10 10 11 11 12 12 13 13
REMARK H PARENT
REMARK Flexibility Score: inf
ROOT
ATOM      1  C   UNL     1      14.065 -32.347  20.945  1.00  0.00     0.000 C 
ENDROOT
BRANCH   1   2
ATOM      2  C   UNL     1      14.969 -33.043  21.974  1.00  0.00     0.000 C 
BRANCH   2   3
ATOM      3  C   UNL     1      15.312 -34.471  21.526  1.00  0.00     0.006 C 
BRANCH   3   4
ATOM      4  C   UNL     1      15.175 -34.652  20.008  1.00  0.00     0.053 C 
BRANCH   4   5
ATOM      5  C   UNL     1      16.472 -35.055  19.376  1.00  0.00     0.041 C 
ATOM      6  O   UNL     1      16.808 -36.269  19.339  1.00  0.00    -0.550 OA
ATOM      7  O   UNL     1      17.294 -34.096  18.800  1.00  0.00    -0.550 OA
ENDBRANCH   4   5
ENDBRANCH   3   4
ENDBRANCH   2   3
ENDBRANCH   1   2
BRANCH   1   8
ATOM      8  C   UNL     1      13.100 -31.339  21.589  1.00  0.00     0.000 C 
BRANCH   8   9
ATOM      9  C   UNL     1      13.187 -31.334  23.124  1.00  0.00     0.006 C 
BRANCH   9  10
ATOM     10  C   UNL     1      13.417 -29.917  23.654  1.00  0.00     0.053 C 
BRANCH  10  11
ATOM     11  C   UNL     1      14.692 -29.354  23.111  1.00  0.00     0.041 C 
ATOM     12  O   UNL     1      15.792 -29.911  23.368  1.00  0.00    -0.550 OA
ATOM     13  O   UNL     1      14.671 -28.184  22.362  1.00  0.00    -0.550 OA
ENDBRANCH  10  11
ENDBRANCH   9  10
ENDBRANCH   8   9
ENDBRANCH   1   8
TORSDOF 8
ENDMDL
MODEL 7
REMARK VINA RESULT:    -4.396      2.838      6.024
REMARK INTER + INTRA:          -6.663
REMARK INTER:                  -5.851
REMARK INTRA:                  -0.812
REMARK UNBOUND:                -0.211
REMARK SMILES O=C([O-])CCCCCCCC(=O)[O-]
REMARK SMILES IDX 7 1 6 2 5 3 4 4 2 5 1 6 3 7 8 8 9 9 10 10 11 11 12 12 13 13
REMARK H PARENT
REMARK Flexibility Score: inf
ROOT
ATOM      1  C   UNL     1      16.169 -29.530  21.916  1.00  0.00     0.000 C 
ENDROOT
BRANCH   1   2
ATOM      2  C   UNL     1      15.005 -28.530  21.990  1.00  0.00     0.000 C 
BRANCH   2   3
ATOM      3  C   UNL     1      14.142 -28.785  23.234  1.00  0.00     0.006 C 
BRANCH   3   4
ATOM      4  C   UNL     1      12.667 -29.016  22.881  1.00  0.00     0.053 C 
BRANCH   4   5
ATOM      5  C   UNL     1      12.407 -30.434  22.475  1.00  0.00     0.041 C 
ATOM      6  O   UNL     1      12.906 -31.384  23.135  1.00  0.00    -0.550 OA
ATOM      7  O   UNL     1      11.589 -30.709  21.387  1.00  0.00    -0.550 OA
ENDBRANCH   4   5
ENDBRANCH   3   4
ENDBRANCH   2   3
ENDBRANCH   1   2
BRANCH   1   8
ATOM      8  C   UNL     1      16.250 -30.437  23.155  1.00  0.00     0.000 C 
BRANCH   8   9
ATOM      9  C   UNL     1      16.451 -31.918  22.793  1.00  0.00     0.006 C 
BRANCH   9  10
ATOM     10  C   UNL     1      16.147 -32.165  21.313  1.00  0.00     0.053 C 
BRANCH  10  11
ATOM     11  C   UNL     1      15.094 -33.217  21.162  1.00  0.00     0.041 C 
ATOM     12  O   UNL     1      14.075 -32.996  20.456  1.00  0.00    -0.550 OA
ATOM     13  O   UNL     1      15.214 -34.422  21.842  1.00  0.00    -0.550 OA
ENDBRANCH  10  11
ENDBRANCH   9  10
ENDBRANCH   8   9
ENDBRANCH   1   8
TORSDOF 8
ENDMDL
MODEL 8
REMARK VINA RESULT:    -4.319      2.367      3.129
REMARK INTER + INTRA:          -6.550
REMARK INTER:                  -6.049
REMARK INTRA:                  -0.501
REMARK UNBOUND:                -0.211
REMARK SMILES O=C([O-])CCCCCCCC(=O)[O-]
REMARK SMILES IDX 7 1 6 2 5 3 4 4 2 5 1 6 3 7 8 8 9 9 10 10 11 11 12 12 13 13
REMARK H PARENT
REMARK Flexibility Score: inf
ROOT
ATOM      1  C   UNL     1      15.979 -31.977  22.195  1.00  0.00     0.000 C 
ENDROOT
BRANCH   1   2
ATOM      2  C   UNL     1      16.403 -33.449  22.315  1.00  0.00     0.000 C 
BRANCH   2   3
ATOM      3  C   UNL     1      15.342 -34.375  21.702  1.00  0.00     0.006 C 
BRANCH   3   4
ATOM      4  C   UNL     1      15.210 -34.184  20.185  1.00  0.00     0.053 C 
BRANCH   4   5
ATOM      5  C   UNL     1      16.329 -34.845  19.441  1.00  0.00     0.041 C 
ATOM      6  O   UNL     1      16.467 -36.096  19.485  1.00  0.00    -0.550 OA
ATOM      7  O   UNL     1      17.200 -34.084  18.672  1.00  0.00    -0.550 OA
ENDBRANCH   4   5
ENDBRANCH   3   4
ENDBRANCH   2   3
ENDBRANCH   1   2
BRANCH   1   8
ATOM      8  C   UNL     1      15.493 -31.390  23.530  1.00  0.00     0.000 C 
BRANCH   8   9
ATOM      9  C   UNL     1      13.986 -31.592  23.751  1.00  0.00     0.006 C 
BRANCH   9  10
ATOM     10  C   UNL     1      13.231 -30.267  23.621  1.00  0.00     0.053 C 
BRANCH  10  11
ATOM     11  C   UNL     1      12.340 -30.286  22.420  1.00  0.00     0.041 C 
ATOM     12  O   UNL     1      11.279 -29.608  22.406  1.00  0.00    -0.550 OA
ATOM     13  O   UNL     1      12.655 -31.093  21.334  1.00  0.00    -0.550 OA
ENDBRANCH  10  11
ENDBRANCH   9  10
ENDBRANCH   8   9
ENDBRANCH   1   8
TORSDOF 8
ENDMDL
MODEL 9
REMARK VINA RESULT:    -4.275      2.506      6.943
REMARK INTER + INTRA:          -6.485
REMARK INTER:                  -5.961
REMARK INTRA:                  -0.525
REMARK UNBOUND:                -0.211
REMARK SMILES O=C([O-])CCCCCCCC(=O)[O-]
REMARK SMILES IDX 7 1 6 2 5 3 4 4 2 5 1 6 3 7 8 8 9 9 10 10 11 11 12 12 13 13
REMARK H PARENT
REMARK Flexibility Score: inf
ROOT
ATOM      1  C   UNL     1      15.910 -33.389  23.828  1.00  0.00     0.000 C 
ENDROOT
BRANCH   1   2
ATOM      2  C   UNL     1      14.528 -32.728  23.942  1.00  0.00     0.000 C 
BRANCH   2   3
ATOM      3  C   UNL     1      14.582 -31.262  23.486  1.00  0.00     0.006 C 
BRANCH   3   4
ATOM      4  C   UNL     1      13.192 -30.613  23.451  1.00  0.00     0.053 C 
BRANCH   4   5
ATOM      5  C   UNL     1      12.579 -30.684  22.086  1.00  0.00     0.041 C 
ATOM      6  O   UNL     1      11.388 -30.316  21.906  1.00  0.00    -0.550 OA
ATOM      7  O   UNL     1      13.332 -31.126  21.006  1.00  0.00    -0.550 OA
ENDBRANCH   4   5
ENDBRANCH   3   4
ENDBRANCH   2   3
ENDBRANCH   1   2
BRANCH   1   8
ATOM      8  C   UNL     1      16.310 -33.680  22.373  1.00  0.00     0.000 C 
BRANCH   8   9
ATOM      9  C   UNL     1      15.214 -34.429  21.597  1.00  0.00     0.006 C 
BRANCH   9  10
ATOM     10  C   UNL     1      15.243 -34.056  20.112  1.00  0.00     0.053 C 
BRANCH  10  11
ATOM     11  C   UNL     1      16.342 -34.789  19.409  1.00  0.00     0.041 C 
ATOM     12  O   UNL     1      17.180 -34.158  18.712  1.00  0.00    -0.550 OA
ATOM     13  O   UNL     1      16.411 -36.174  19.482  1.00  0.00    -0.550 OA
ENDBRANCH  10  11
ENDBRANCH   9  10
ENDBRANCH   8   9
ENDBRANCH   1   8
TORSDOF 8
ENDMDL
