MODEL 1
REMARK VINA RESULT:    -6.587      0.000      0.000
REMARK INTER + INTRA:          -7.426
REMARK INTER:                  -7.357
REMARK INTRA:                  -0.069
REMARK UNBOUND:                -0.069
REMARK SMILES COc1cc2ccc(=O)oc2cc1OC
REMARK SMILES IDX 3 1 13 2 12 3 11 4 5 5 4 6 6 7 7 8 8 9 9 10 10 11 2 12 1 13
REMARK SMILES IDX 14 14 15 15
REMARK H PARENT
REMARK Flexibility Score: inf
ROOT
ATOM      1  C   UNL     1      93.233 -59.660 103.197  1.00  0.00     0.161 A 
ATOM      2  C   UNL     1      93.331 -61.034 102.921  1.00  0.00     0.164 A 
ATOM      3  C   UNL     1      94.450 -61.761 103.375  1.00  0.00     0.098 A 
ATOM      4  C   UNL     1      95.462 -61.124 104.096  1.00  0.00     0.142 A 
ATOM      5  C   UNL     1      95.365 -59.745 104.372  1.00  0.00     0.022 A 
ATOM      6  C   UNL     1      94.256 -59.017 103.924  1.00  0.00     0.062 A 
ATOM      7  C   UNL     1      96.396 -59.135 105.096  1.00  0.00     0.019 A 
ATOM      8  C   UNL     1      97.480 -59.902 105.522  1.00  0.00     0.094 A 
ATOM      9  C   UNL     1      97.509 -61.265 105.210  1.00  0.00     0.336 A 
ATOM     10  O   UNL     1      98.480 -61.975 105.584  1.00  0.00    -0.246 OA
ATOM     11  O   UNL     1      96.516 -61.819 104.520  1.00  0.00    -0.423 OA
ENDROOT
BRANCH   1  12
ATOM     12  O   UNL     1      92.105 -58.967 102.730  1.00  0.00    -0.493 OA
ATOM     13  C   UNL     1      91.996 -58.375 101.440  1.00  0.00     0.278 C 
ENDBRANCH   1  12
BRANCH   2  14
ATOM     14  O   UNL     1      92.295 -61.643 102.194  1.00  0.00    -0.493 OA
ATOM     15  C   UNL     1      91.888 -62.998 102.349  1.00  0.00     0.278 C 
ENDBRANCH   2  14
TORSDOF 2
ENDMDL
MODEL 2
REMARK VINA RESULT:    -6.428      1.546      5.634
REMARK INTER + INTRA:          -7.249
REMARK INTER:                  -7.096
REMARK INTRA:                  -0.153
REMARK UNBOUND:                -0.069
REMARK SMILES COc1cc2ccc(=O)oc2cc1OC
REMARK SMILES IDX 3 1 13 2 12 3 11 4 5 5 4 6 6 7 7 8 8 9 9 10 10 11 2 12 1 13
REMARK SMILES IDX 14 14 15 15
REMARK H PARENT
REMARK Flexibility Score: inf
ROOT
ATOM      1  C   UNL     1      95.112 -61.649 103.426  1.00  0.00     0.161 A 
ATOM      2  C   UNL     1      95.146 -60.455 104.166  1.00  0.00     0.164 A 
ATOM      3  C   UNL     1      94.311 -59.380 103.800  1.00  0.00     0.098 A 
ATOM      4  C   UNL     1      93.451 -59.493 102.706  1.00  0.00     0.142 A 
ATOM      5  C   UNL     1      93.417 -60.690 101.962  1.00  0.00     0.022 A 
ATOM      6  C   UNL     1      94.243 -61.762 102.321  1.00  0.00     0.062 A 
ATOM      7  C   UNL     1      92.545 -60.773 100.871  1.00  0.00     0.019 A 
ATOM      8  C   UNL     1      91.741 -59.678 100.552  1.00  0.00     0.094 A 
ATOM      9  C   UNL     1      91.829 -58.523 101.336  1.00  0.00     0.336 A 
ATOM     10  O   UNL     1      91.112 -57.524 101.064  1.00  0.00    -0.246 OA
ATOM     11  O   UNL     1      92.667 -58.472 102.367  1.00  0.00    -0.423 OA
ENDROOT
BRANCH   1  12
ATOM     12  O   UNL     1      95.955 -62.699 103.819  1.00  0.00    -0.493 OA
ATOM     13  C   UNL     1      97.183 -63.033 103.179  1.00  0.00     0.278 C 
ENDBRANCH   1  12
BRANCH   2  14
ATOM     14  O   UNL     1      96.022 -60.376 105.261  1.00  0.00    -0.493 OA
ATOM     15  C   UNL     1      97.122 -59.477 105.351  1.00  0.00     0.278 C 
ENDBRANCH   2  14
TORSDOF 2
ENDMDL
MODEL 3
REMARK VINA RESULT:    -6.162      1.554      5.022
REMARK INTER + INTRA:          -6.951
REMARK INTER:                  -6.818
REMARK INTRA:                  -0.133
REMARK UNBOUND:                -0.069
REMARK SMILES COc1cc2ccc(=O)oc2cc1OC
REMARK SMILES IDX 3 1 13 2 12 3 11 4 5 5 4 6 6 7 7 8 8 9 9 10 10 11 2 12 1 13
REMARK SMILES IDX 14 14 15 15
REMARK H PARENT
REMARK Flexibility Score: inf
ROOT
ATOM      1  C   UNL     1      95.156 -60.394 104.300  1.00  0.00     0.161 A 
ATOM      2  C   UNL     1      95.141 -61.701 103.784  1.00  0.00     0.164 A 
ATOM      3  C   UNL     1      94.349 -61.999 102.657  1.00  0.00     0.098 A 
ATOM      4  C   UNL     1      93.578 -61.004 102.051  1.00  0.00     0.142 A 
ATOM      5  C   UNL     1      93.592 -59.693 102.569  1.00  0.00     0.022 A 
ATOM      6  C   UNL     1      94.378 -59.391 103.688  1.00  0.00     0.062 A 
ATOM      7  C   UNL     1      92.810 -58.719 101.940  1.00  0.00     0.019 A 
ATOM      8  C   UNL     1      92.044 -59.069 100.828  1.00  0.00     0.094 A 
ATOM      9  C   UNL     1      92.080 -60.389 100.370  1.00  0.00     0.336 A 
ATOM     10  O   UNL     1      91.395 -60.725  99.368  1.00  0.00    -0.246 OA
ATOM     11  O   UNL     1      92.833 -61.296 100.988  1.00  0.00    -0.423 OA
ENDROOT
BRANCH   1  12
ATOM     12  O   UNL     1      95.957 -60.132 105.423  1.00  0.00    -0.493 OA
ATOM     13  C   UNL     1      97.142 -59.342 105.405  1.00  0.00     0.278 C 
ENDBRANCH   1  12
BRANCH   2  14
ATOM     14  O   UNL     1      95.928 -62.676 104.418  1.00  0.00    -0.493 OA
ATOM     15  C   UNL     1      95.435 -63.626 105.356  1.00  0.00     0.278 C 
ENDBRANCH   2  14
TORSDOF 2
ENDMDL
MODEL 4
REMARK VINA RESULT:    -6.057      0.951      2.670
REMARK INTER + INTRA:          -6.834
REMARK INTER:                  -6.829
REMARK INTRA:                  -0.005
REMARK UNBOUND:                -0.069
REMARK SMILES COc1cc2ccc(=O)oc2cc1OC
REMARK SMILES IDX 3 1 13 2 12 3 11 4 5 5 4 6 6 7 7 8 8 9 9 10 10 11 2 12 1 13
REMARK SMILES IDX 14 14 15 15
REMARK H PARENT
REMARK Flexibility Score: inf
ROOT
ATOM      1  C   UNL     1      93.336 -61.157 102.888  1.00  0.00     0.161 A 
ATOM      2  C   UNL     1      93.386 -59.796 103.231  1.00  0.00     0.164 A 
ATOM      3  C   UNL     1      94.491 -59.295 103.948  1.00  0.00     0.098 A 
ATOM      4  C   UNL     1      95.536 -60.143 104.320  1.00  0.00     0.142 A 
ATOM      5  C   UNL     1      95.486 -61.509 103.977  1.00  0.00     0.022 A 
ATOM      6  C   UNL     1      94.391 -62.013 103.264  1.00  0.00     0.062 A 
ATOM      7  C   UNL     1      96.548 -62.334 104.365  1.00  0.00     0.019 A 
ATOM      8  C   UNL     1      97.617 -61.785 105.073  1.00  0.00     0.094 A 
ATOM      9  C   UNL     1      97.598 -60.421 105.379  1.00  0.00     0.336 A 
ATOM     10  O   UNL     1      98.553 -59.907 106.018  1.00  0.00    -0.246 OA
ATOM     11  O   UNL     1      96.575 -59.660 104.998  1.00  0.00    -0.423 OA
ENDROOT
BRANCH   1  12
ATOM     12  O   UNL     1      92.221 -61.623 102.172  1.00  0.00    -0.493 OA
ATOM     13  C   UNL     1      91.919 -62.996 101.949  1.00  0.00     0.278 C 
ENDBRANCH   1  12
BRANCH   2  14
ATOM     14  O   UNL     1      92.318 -58.971 102.840  1.00  0.00    -0.493 OA
ATOM     15  C   UNL     1      92.151 -58.433 101.533  1.00  0.00     0.278 C 
ENDBRANCH   2  14
TORSDOF 2
ENDMDL
MODEL 5
REMARK VINA RESULT:    -5.836      1.557      5.051
REMARK INTER + INTRA:          -6.587
REMARK INTER:                  -6.473
REMARK INTRA:                  -0.115
REMARK UNBOUND:                -0.069
REMARK SMILES COc1cc2ccc(=O)oc2cc1OC
REMARK SMILES IDX 3 1 13 2 12 3 11 4 5 5 4 6 6 7 7 8 8 9 9 10 10 11 2 12 1 13
REMARK SMILES IDX 14 14 15 15
REMARK H PARENT
REMARK Flexibility Score: inf
ROOT
ATOM      1  C   UNL     1      96.926 -61.304 104.950  1.00  0.00     0.161 A 
ATOM      2  C   UNL     1      96.786 -62.405 104.089  1.00  0.00     0.164 A 
ATOM      3  C   UNL     1      95.736 -62.431 103.150  1.00  0.00     0.098 A 
ATOM      4  C   UNL     1      94.833 -61.369 103.070  1.00  0.00     0.142 A 
ATOM      5  C   UNL     1      94.971 -60.264 103.934  1.00  0.00     0.022 A 
ATOM      6  C   UNL     1      96.013 -60.232 104.869  1.00  0.00     0.062 A 
ATOM      7  C   UNL     1      94.050 -59.216 103.830  1.00  0.00     0.019 A 
ATOM      8  C   UNL     1      93.030 -59.293 102.883  1.00  0.00     0.094 A 
ATOM      9  C   UNL     1      92.954 -60.420 102.060  1.00  0.00     0.336 A 
ATOM     10  O   UNL     1      92.040 -60.509 101.198  1.00  0.00    -0.246 OA
ATOM     11  O   UNL     1      93.843 -61.403 102.180  1.00  0.00    -0.423 OA
ENDROOT
BRANCH   1  12
ATOM     12  O   UNL     1      97.984 -61.311 105.873  1.00  0.00    -0.493 OA
ATOM     13  C   UNL     1      99.013 -60.329 105.930  1.00  0.00     0.278 C 
ENDBRANCH   1  12
BRANCH   2  14
ATOM     14  O   UNL     1      97.713 -63.455 104.196  1.00  0.00    -0.493 OA
ATOM     15  C   UNL     1      97.665 -64.655 103.432  1.00  0.00     0.278 C 
ENDBRANCH   2  14
TORSDOF 2
ENDMDL
MODEL 6
REMARK VINA RESULT:    -5.690      1.520      5.620
REMARK INTER + INTRA:          -6.425
REMARK INTER:                  -6.271
REMARK INTRA:                  -0.154
REMARK UNBOUND:                -0.069
REMARK SMILES COc1cc2ccc(=O)oc2cc1OC
REMARK SMILES IDX 3 1 13 2 12 3 11 4 5 5 4 6 6 7 7 8 8 9 9 10 10 11 2 12 1 13
REMARK SMILES IDX 14 14 15 15
REMARK H PARENT
REMARK Flexibility Score: inf
ROOT
ATOM      1  C   UNL     1      96.689 -62.543 104.033  1.00  0.00     0.161 A 
ATOM      2  C   UNL     1      96.726 -61.390 104.836  1.00  0.00     0.164 A 
ATOM      3  C   UNL     1      95.755 -60.384 104.661  1.00  0.00     0.098 A 
ATOM      4  C   UNL     1      94.757 -60.524 103.694  1.00  0.00     0.142 A 
ATOM      5  C   UNL     1      94.719 -61.679 102.888  1.00  0.00     0.022 A 
ATOM      6  C   UNL     1      95.681 -62.683 103.057  1.00  0.00     0.062 A 
ATOM      7  C   UNL     1      93.708 -61.791 101.928  1.00  0.00     0.019 A 
ATOM      8  C   UNL     1      92.772 -60.764 101.797  1.00  0.00     0.094 A 
ATOM      9  C   UNL     1      92.872 -59.648 102.632  1.00  0.00     0.336 A 
ATOM     10  O   UNL     1      92.038 -58.710 102.530  1.00  0.00    -0.246 OA
ATOM     11  O   UNL     1      93.845 -59.568 103.536  1.00  0.00    -0.423 OA
ENDROOT
BRANCH   1  12
ATOM     12  O   UNL     1      97.671 -63.525 104.235  1.00  0.00    -0.493 OA
ATOM     13  C   UNL     1      98.846 -63.668 103.444  1.00  0.00     0.278 C 
ENDBRANCH   1  12
BRANCH   2  14
ATOM     14  O   UNL     1      97.743 -61.282 105.799  1.00  0.00    -0.493 OA
ATOM     15  C   UNL     1      98.776 -60.304 105.774  1.00  0.00     0.278 C 
ENDBRANCH   2  14
TORSDOF 2
ENDMDL
MODEL 7
REMARK VINA RESULT:    -5.663      2.182      4.500
REMARK INTER + INTRA:          -6.395
REMARK INTER:                  -6.281
REMARK INTRA:                  -0.114
REMARK UNBOUND:                -0.069
REMARK SMILES COc1cc2ccc(=O)oc2cc1OC
REMARK SMILES IDX 3 1 13 2 12 3 11 4 5 5 4 6 6 7 7 8 8 9 9 10 10 11 2 12 1 13
REMARK SMILES IDX 14 14 15 15
REMARK H PARENT
REMARK Flexibility Score: inf
ROOT
ATOM      1  C   UNL     1      94.141 -60.085 103.238  1.00  0.00     0.161 A 
ATOM      2  C   UNL     1      92.929 -60.101 102.526  1.00  0.00     0.164 A 
ATOM      3  C   UNL     1      92.569 -61.244 101.783  1.00  0.00     0.098 A 
ATOM      4  C   UNL     1      93.410 -62.358 101.749  1.00  0.00     0.142 A 
ATOM      5  C   UNL     1      94.626 -62.342 102.461  1.00  0.00     0.022 A 
ATOM      6  C   UNL     1      94.989 -61.211 103.202  1.00  0.00     0.062 A 
ATOM      7  C   UNL     1      95.446 -63.474 102.406  1.00  0.00     0.019 A 
ATOM      8  C   UNL     1      95.041 -64.578 101.655  1.00  0.00     0.094 A 
ATOM      9  C   UNL     1      93.822 -64.521 100.974  1.00  0.00     0.336 A 
ATOM     10  O   UNL     1      93.438 -65.507 100.290  1.00  0.00    -0.246 OA
ATOM     11  O   UNL     1      93.061 -63.432 101.043  1.00  0.00    -0.423 OA
ENDROOT
BRANCH   1  12
ATOM     12  O   UNL     1      94.468 -58.931 103.968  1.00  0.00    -0.493 OA
ATOM     13  C   UNL     1      95.652 -58.773 104.741  1.00  0.00     0.278 C 
ENDBRANCH   1  12
BRANCH   2  14
ATOM     14  O   UNL     1      92.108 -58.963 102.584  1.00  0.00    -0.493 OA
ATOM     15  C   UNL     1      91.700 -58.205 101.451  1.00  0.00     0.278 C 
ENDBRANCH   2  14
TORSDOF 2
ENDMDL
MODEL 8
REMARK VINA RESULT:    -5.509      2.315      3.948
REMARK INTER + INTRA:          -6.222
REMARK INTER:                  -6.062
REMARK INTRA:                  -0.160
REMARK UNBOUND:                -0.069
REMARK SMILES COc1cc2ccc(=O)oc2cc1OC
REMARK SMILES IDX 3 1 13 2 12 3 11 4 5 5 4 6 6 7 7 8 8 9 9 10 10 11 2 12 1 13
REMARK SMILES IDX 14 14 15 15
REMARK H PARENT
REMARK Flexibility Score: inf
ROOT
ATOM      1  C   UNL     1      92.750 -63.022 101.284  1.00  0.00     0.161 A 
ATOM      2  C   UNL     1      94.016 -63.453 101.714  1.00  0.00     0.164 A 
ATOM      3  C   UNL     1      94.817 -62.599 102.500  1.00  0.00     0.098 A 
ATOM      4  C   UNL     1      94.359 -61.328 102.853  1.00  0.00     0.142 A 
ATOM      5  C   UNL     1      93.089 -60.895 102.422  1.00  0.00     0.022 A 
ATOM      6  C   UNL     1      92.289 -61.738 101.641  1.00  0.00     0.062 A 
ATOM      7  C   UNL     1      92.660 -59.616 102.791  1.00  0.00     0.019 A 
ATOM      8  C   UNL     1      93.492 -58.812 103.570  1.00  0.00     0.094 A 
ATOM      9  C   UNL     1      94.739 -59.309 103.961  1.00  0.00     0.336 A 
ATOM     10  O   UNL     1      95.506 -58.599 104.664  1.00  0.00    -0.246 OA
ATOM     11  O   UNL     1      95.123 -60.529 103.595  1.00  0.00    -0.423 OA
ENDROOT
BRANCH   1  12
ATOM     12  O   UNL     1      91.979 -63.898 100.504  1.00  0.00    -0.493 OA
ATOM     13  C   UNL     1      90.947 -64.738 101.011  1.00  0.00     0.278 C 
ENDBRANCH   1  12
BRANCH   2  14
ATOM     14  O   UNL     1      94.444 -64.738 101.341  1.00  0.00    -0.493 OA
ATOM     15  C   UNL     1      94.395 -65.882 102.186  1.00  0.00     0.278 C 
ENDBRANCH   2  14
TORSDOF 2
ENDMDL
MODEL 9
REMARK VINA RESULT:    -5.416      2.124      4.202
REMARK INTER + INTRA:          -6.119
REMARK INTER:                  -6.007
REMARK INTRA:                  -0.112
REMARK UNBOUND:                -0.069
REMARK SMILES COc1cc2ccc(=O)oc2cc1OC
REMARK SMILES IDX 3 1 13 2 12 3 11 4 5 5 4 6 6 7 7 8 8 9 9 10 10 11 2 12 1 13
REMARK SMILES IDX 14 14 15 15
REMARK H PARENT
REMARK Flexibility Score: inf
ROOT
ATOM      1  C   UNL     1      92.890 -60.091 102.440  1.00  0.00     0.161 A 
ATOM      2  C   UNL     1      94.060 -60.111 103.218  1.00  0.00     0.164 A 
ATOM      3  C   UNL     1      94.856 -61.273 103.255  1.00  0.00     0.098 A 
ATOM      4  C   UNL     1      94.490 -62.405 102.524  1.00  0.00     0.142 A 
ATOM      5  C   UNL     1      93.316 -62.387 101.744  1.00  0.00     0.022 A 
ATOM      6  C   UNL     1      92.521 -61.235 101.703  1.00  0.00     0.062 A 
ATOM      7  C   UNL     1      92.975 -63.536 101.023  1.00  0.00     0.019 A 
ATOM      8  C   UNL     1      93.800 -64.659 101.096  1.00  0.00     0.094 A 
ATOM      9  C   UNL     1      94.949 -64.605 101.891  1.00  0.00     0.336 A 
ATOM     10  O   UNL     1      95.706 -65.608 101.971  1.00  0.00    -0.246 OA
ATOM     11  O   UNL     1      95.248 -63.498 102.566  1.00  0.00    -0.423 OA
ENDROOT
BRANCH   1  12
ATOM     12  O   UNL     1      92.121 -58.917 102.425  1.00  0.00    -0.493 OA
ATOM     13  C   UNL     1      91.714 -58.232 101.245  1.00  0.00     0.278 C 
ENDBRANCH   1  12
BRANCH   2  14
ATOM     14  O   UNL     1      94.398 -58.955 103.940  1.00  0.00    -0.493 OA
ATOM     15  C   UNL     1      95.582 -58.806 104.716  1.00  0.00     0.278 C 
ENDBRANCH   2  14
TORSDOF 2
ENDMDL
