MODEL 1
REMARK VINA RESULT:    -5.638      0.000      0.000
REMARK INTER + INTRA:          -7.293
REMARK INTER:                  -6.956
REMARK INTRA:                  -0.337
REMARK UNBOUND:                -0.337
REMARK SMILES Oc1cc(O)c2cc(O)c(-c3cc(O)c(O)c(O)c3)[o+]c2c1
REMARK SMILES IDX 10 1 20 2 21 3 22 4 2 5 3 6 4 7 6 8 7 9 8 10 11 11 12 12
REMARK SMILES IDX 13 13 19 14 15 15 17 16 14 17 16 19 18 21 9 23 1 25 5 27
REMARK H PARENT 14 18 16 20 18 22 9 24 1 26 5 28
REMARK Flexibility Score: inf
ROOT
ATOM      1  C   UNL     1      24.502   7.179 -21.856  1.00  0.00     0.402 A 
ATOM      2  O   UNL     1      23.985   6.701 -22.984  1.00  0.00    -0.202 OA
ATOM      3  C   UNL     1      24.606   6.769 -24.157  1.00  0.00     0.368 A 
ATOM      4  C   UNL     1      23.983   6.236 -25.289  1.00  0.00     0.162 A 
ATOM      5  C   UNL     1      24.615   6.291 -26.534  1.00  0.00     0.128 A 
ATOM      6  C   UNL     1      25.876   6.881 -26.649  1.00  0.00     0.093 A 
ATOM      7  C   UNL     1      26.522   7.421 -25.530  1.00  0.00     0.136 A 
ATOM      8  C   UNL     1      25.883   7.371 -24.264  1.00  0.00     0.125 A 
ATOM      9  C   UNL     1      26.448   7.898 -23.092  1.00  0.00     0.078 A 
ATOM     10  C   UNL     1      25.756   7.815 -21.881  1.00  0.00     0.223 A 
ENDROOT
BRANCH   1  11
ATOM     11  C   UNL     1      23.716   7.034 -20.610  1.00  0.00     0.091 A 
ATOM     12  C   UNL     1      22.985   8.129 -20.123  1.00  0.00     0.068 A 
ATOM     13  C   UNL     1      22.216   8.013 -18.957  1.00  0.00     0.162 A 
ATOM     14  C   UNL     1      23.638   5.806 -19.932  1.00  0.00     0.068 A 
ATOM     15  C   UNL     1      22.160   6.788 -18.273  1.00  0.00     0.200 A 
ATOM     16  C   UNL     1      22.872   5.681 -18.768  1.00  0.00     0.162 A 
BRANCH  13  17
ATOM     17  O   UNL     1      21.507   9.113 -18.476  1.00  0.00    -0.504 OA
ATOM     18  H   UNL     1      21.405   9.960 -19.023  1.00  0.00     0.293 HD
ENDBRANCH  13  17
BRANCH  15  19
ATOM     19  O   UNL     1      21.403   6.655 -17.108  1.00  0.00    -0.502 OA
ATOM     20  H   UNL     1      20.941   5.788 -16.862  1.00  0.00     0.293 HD
ENDBRANCH  15  19
BRANCH  16  21
ATOM     21  O   UNL     1      22.825   4.446 -18.120  1.00  0.00    -0.504 OA
ATOM     22  H   UNL     1      23.415   3.670 -18.396  1.00  0.00     0.293 HD
ENDBRANCH  16  21
ENDBRANCH   1  11
BRANCH  10  23
ATOM     23  O   UNL     1      26.295   8.384 -20.726  1.00  0.00    -0.500 OA
ATOM     24  H   UNL     1      25.784   8.398 -19.851  1.00  0.00     0.294 HD
ENDBRANCH  10  23
BRANCH   5  25
ATOM     25  O   UNL     1      23.999   5.761 -27.667  1.00  0.00    -0.507 OA
ATOM     26  H   UNL     1      23.924   4.761 -27.810  1.00  0.00     0.293 HD
ENDBRANCH   5  25
BRANCH   7  27
ATOM     27  O   UNL     1      27.784   7.991 -25.728  1.00  0.00    -0.507 OA
ATOM     28  H   UNL     1      28.220   8.110 -26.630  1.00  0.00     0.293 HD
ENDBRANCH   7  27
TORSDOF 7
ENDMDL
MODEL 2
REMARK VINA RESULT:    -5.514      1.294      7.280
REMARK INTER + INTRA:          -7.140
REMARK INTER:                  -6.903
REMARK INTRA:                  -0.237
REMARK UNBOUND:                -0.337
REMARK SMILES Oc1cc(O)c2cc(O)c(-c3cc(O)c(O)c(O)c3)[o+]c2c1
REMARK SMILES IDX 10 1 20 2 21 3 22 4 2 5 3 6 4 7 6 8 7 9 8 10 11 11 12 12
REMARK SMILES IDX 13 13 19 14 15 15 17 16 14 17 16 19 18 21 9 23 1 25 5 27
REMARK H PARENT 14 18 16 20 18 22 9 24 1 26 5 28
REMARK Flexibility Score: inf
ROOT
ATOM      1  C   UNL     1      24.244   5.843 -22.646  1.00  0.00     0.402 A 
ATOM      2  O   UNL     1      23.816   6.812 -21.841  1.00  0.00    -0.202 OA
ATOM      3  C   UNL     1      23.393   6.596 -20.600  1.00  0.00     0.368 A 
ATOM      4  C   UNL     1      22.964   7.680 -19.829  1.00  0.00     0.162 A 
ATOM      5  C   UNL     1      22.518   7.481 -18.519  1.00  0.00     0.128 A 
ATOM      6  C   UNL     1      22.501   6.194 -17.978  1.00  0.00     0.093 A 
ATOM      7  C   UNL     1      22.926   5.091 -18.729  1.00  0.00     0.136 A 
ATOM      8  C   UNL     1      23.378   5.287 -20.061  1.00  0.00     0.125 A 
ATOM      9  C   UNL     1      23.809   4.241 -20.891  1.00  0.00     0.078 A 
ATOM     10  C   UNL     1      24.236   4.511 -22.194  1.00  0.00     0.223 A 
ENDROOT
BRANCH   1  11
ATOM     11  C   UNL     1      24.699   6.213 -24.005  1.00  0.00     0.091 A 
ATOM     12  C   UNL     1      25.884   6.949 -24.160  1.00  0.00     0.068 A 
ATOM     13  C   UNL     1      26.348   7.294 -25.437  1.00  0.00     0.162 A 
ATOM     14  C   UNL     1      24.001   5.793 -25.150  1.00  0.00     0.068 A 
ATOM     15  C   UNL     1      25.633   6.889 -26.576  1.00  0.00     0.200 A 
ATOM     16  C   UNL     1      24.458   6.131 -26.428  1.00  0.00     0.162 A 
BRANCH  13  17
ATOM     17  O   UNL     1      27.518   8.039 -25.576  1.00  0.00    -0.504 OA
ATOM     18  H   UNL     1      28.044   8.045 -26.443  1.00  0.00     0.293 HD
ENDBRANCH  13  17
BRANCH  15  19
ATOM     19  O   UNL     1      26.078   7.227 -27.855  1.00  0.00    -0.502 OA
ATOM     20  H   UNL     1      25.497   7.110 -28.677  1.00  0.00     0.293 HD
ENDBRANCH  15  19
BRANCH  16  21
ATOM     21  O   UNL     1      23.734   5.701 -27.540  1.00  0.00    -0.504 OA
ATOM     22  H   UNL     1      22.926   5.095 -27.456  1.00  0.00     0.293 HD
ENDBRANCH  16  21
ENDBRANCH   1  11
BRANCH  10  23
ATOM     23  O   UNL     1      24.618   3.466 -23.037  1.00  0.00    -0.500 OA
ATOM     24  H   UNL     1      24.106   2.591 -23.066  1.00  0.00     0.294 HD
ENDBRANCH  10  23
BRANCH   5  25
ATOM     25  O   UNL     1      22.088   8.557 -17.745  1.00  0.00    -0.507 OA
ATOM     26  H   UNL     1      22.677   8.960 -17.025  1.00  0.00     0.293 HD
ENDBRANCH   5  25
BRANCH   7  27
ATOM     27  O   UNL     1      22.881   3.837 -18.114  1.00  0.00    -0.507 OA
ATOM     28  H   UNL     1      23.623   3.452 -17.549  1.00  0.00     0.293 HD
ENDBRANCH   7  27
TORSDOF 7
ENDMDL
MODEL 3
REMARK VINA RESULT:    -5.329      2.736      3.529
REMARK INTER + INTRA:          -6.912
REMARK INTER:                  -6.583
REMARK INTRA:                  -0.328
REMARK UNBOUND:                -0.337
REMARK SMILES Oc1cc(O)c2cc(O)c(-c3cc(O)c(O)c(O)c3)[o+]c2c1
REMARK SMILES IDX 10 1 20 2 21 3 22 4 2 5 3 6 4 7 6 8 7 9 8 10 11 11 12 12
REMARK SMILES IDX 13 13 19 14 15 15 17 16 14 17 16 19 18 21 9 23 1 25 5 27
REMARK H PARENT 14 18 16 20 18 22 9 24 1 26 5 28
REMARK Flexibility Score: inf
ROOT
ATOM      1  C   UNL     1      23.414   4.984 -22.642  1.00  0.00     0.402 A 
ATOM      2  O   UNL     1      22.364   4.388 -23.201  1.00  0.00    -0.202 OA
ATOM      3  C   UNL     1      22.417   3.765 -24.373  1.00  0.00     0.368 A 
ATOM      4  C   UNL     1      21.260   3.166 -24.878  1.00  0.00     0.162 A 
ATOM      5  C   UNL     1      21.289   2.501 -26.107  1.00  0.00     0.128 A 
ATOM      6  C   UNL     1      22.479   2.435 -26.834  1.00  0.00     0.093 A 
ATOM      7  C   UNL     1      23.652   3.027 -26.351  1.00  0.00     0.136 A 
ATOM      8  C   UNL     1      23.628   3.705 -25.104  1.00  0.00     0.125 A 
ATOM      9  C   UNL     1      24.751   4.339 -24.548  1.00  0.00     0.078 A 
ATOM     10  C   UNL     1      24.649   4.992 -23.317  1.00  0.00     0.223 A 
ENDROOT
BRANCH   1  11
ATOM     11  C   UNL     1      23.231   5.637 -21.327  1.00  0.00     0.091 A 
ATOM     12  C   UNL     1      23.096   7.033 -21.261  1.00  0.00     0.068 A 
ATOM     13  C   UNL     1      22.901   7.674 -20.031  1.00  0.00     0.162 A 
ATOM     14  C   UNL     1      23.130   4.886 -20.143  1.00  0.00     0.068 A 
ATOM     15  C   UNL     1      22.823   6.918 -18.849  1.00  0.00     0.200 A 
ATOM     16  C   UNL     1      22.934   5.517 -18.912  1.00  0.00     0.162 A 
BRANCH  13  17
ATOM     17  O   UNL     1      22.784   9.063 -19.978  1.00  0.00    -0.504 OA
ATOM     18  H   UNL     1      23.297   9.664 -20.612  1.00  0.00     0.293 HD
ENDBRANCH  13  17
BRANCH  15  19
ATOM     19  O   UNL     1      22.633   7.540 -17.615  1.00  0.00    -0.502 OA
ATOM     20  H   UNL     1      21.712   7.782 -17.269  1.00  0.00     0.293 HD
ENDBRANCH  15  19
BRANCH  16  21
ATOM     21  O   UNL     1      22.846   4.737 -17.759  1.00  0.00    -0.504 OA
ATOM     22  H   UNL     1      22.162   3.996 -17.661  1.00  0.00     0.293 HD
ENDBRANCH  16  21
ENDBRANCH   1  11
BRANCH  10  23
ATOM     23  O   UNL     1      25.752   5.664 -22.787  1.00  0.00    -0.500 OA
ATOM     24  H   UNL     1      26.381   5.219 -22.130  1.00  0.00     0.294 HD
ENDBRANCH  10  23
BRANCH   5  25
ATOM     25  O   UNL     1      20.138   1.901 -26.616  1.00  0.00    -0.507 OA
ATOM     26  H   UNL     1      20.109   1.525 -27.557  1.00  0.00     0.293 HD
ENDBRANCH   5  25
BRANCH   7  27
ATOM     27  O   UNL     1      24.802   2.913 -27.137  1.00  0.00    -0.507 OA
ATOM     28  H   UNL     1      25.255   2.039 -27.363  1.00  0.00     0.293 HD
ENDBRANCH   7  27
TORSDOF 7
ENDMDL
MODEL 4
REMARK VINA RESULT:    -5.231     16.210     17.667
REMARK INTER + INTRA:          -6.791
REMARK INTER:                  -6.477
REMARK INTRA:                  -0.314
REMARK UNBOUND:                -0.337
REMARK SMILES Oc1cc(O)c2cc(O)c(-c3cc(O)c(O)c(O)c3)[o+]c2c1
REMARK SMILES IDX 10 1 20 2 21 3 22 4 2 5 3 6 4 7 6 8 7 9 8 10 11 11 12 12
REMARK SMILES IDX 13 13 19 14 15 15 17 16 14 17 16 19 18 21 9 23 1 25 5 27
REMARK H PARENT 14 18 16 20 18 22 9 24 1 26 5 28
REMARK Flexibility Score: inf
ROOT
ATOM      1  C   UNL     1      31.707  -8.202 -27.256  1.00  0.00     0.402 A 
ATOM      2  O   UNL     1      30.524  -8.023 -27.838  1.00  0.00    -0.202 OA
ATOM      3  C   UNL     1      30.361  -7.966 -29.155  1.00  0.00     0.368 A 
ATOM      4  C   UNL     1      29.077  -7.777 -29.674  1.00  0.00     0.162 A 
ATOM      5  C   UNL     1      28.876  -7.717 -31.056  1.00  0.00     0.128 A 
ATOM      6  C   UNL     1      29.962  -7.846 -31.922  1.00  0.00     0.093 A 
ATOM      7  C   UNL     1      31.259  -8.037 -31.429  1.00  0.00     0.136 A 
ATOM      8  C   UNL     1      31.469  -8.097 -30.026  1.00  0.00     0.125 A 
ATOM      9  C   UNL     1      32.733  -8.271 -29.441  1.00  0.00     0.078 A 
ATOM     10  C   UNL     1      32.863  -8.315 -28.051  1.00  0.00     0.223 A 
ENDROOT
BRANCH   1  11
ATOM     11  C   UNL     1      31.759  -8.257 -25.777  1.00  0.00     0.091 A 
ATOM     12  C   UNL     1      31.482  -7.100 -25.033  1.00  0.00     0.068 A 
ATOM     13  C   UNL     1      31.504  -7.130 -23.632  1.00  0.00     0.162 A 
ATOM     14  C   UNL     1      32.023  -9.459 -25.098  1.00  0.00     0.068 A 
ATOM     15  C   UNL     1      31.790  -8.330 -22.960  1.00  0.00     0.200 A 
ATOM     16  C   UNL     1      32.045  -9.498 -23.701  1.00  0.00     0.162 A 
BRANCH  13  17
ATOM     17  O   UNL     1      31.242  -5.969 -22.905  1.00  0.00    -0.504 OA
ATOM     18  H   UNL     1      30.695  -5.210 -23.294  1.00  0.00     0.293 HD
ENDBRANCH  13  17
BRANCH  15  19
ATOM     19  O   UNL     1      31.820  -8.378 -21.567  1.00  0.00    -0.502 OA
ATOM     20  H   UNL     1      32.087  -7.578 -21.005  1.00  0.00     0.293 HD
ENDBRANCH  15  19
BRANCH  16  21
ATOM     21  O   UNL     1      32.317 -10.709 -23.064  1.00  0.00    -0.504 OA
ATOM     22  H   UNL     1      33.245 -11.117 -23.056  1.00  0.00     0.293 HD
ENDBRANCH  16  21
ENDBRANCH   1  11
BRANCH  10  23
ATOM     23  O   UNL     1      34.125  -8.438 -27.468  1.00  0.00    -0.500 OA
ATOM     24  H   UNL     1      34.338  -9.181 -26.813  1.00  0.00     0.294 HD
ENDBRANCH  10  23
BRANCH   5  25
ATOM     25  O   UNL     1      27.598  -7.528 -31.579  1.00  0.00    -0.507 OA
ATOM     26  H   UNL     1      26.771  -7.595 -30.997  1.00  0.00     0.293 HD
ENDBRANCH   5  25
BRANCH   7  27
ATOM     27  O   UNL     1      32.292  -8.161 -32.363  1.00  0.00    -0.507 OA
ATOM     28  H   UNL     1      33.004  -8.876 -32.334  1.00  0.00     0.293 HD
ENDBRANCH   7  27
TORSDOF 7
ENDMDL
MODEL 5
REMARK VINA RESULT:    -5.194     11.205     14.239
REMARK INTER + INTRA:          -6.745
REMARK INTER:                  -6.449
REMARK INTRA:                  -0.296
REMARK UNBOUND:                -0.337
REMARK SMILES Oc1cc(O)c2cc(O)c(-c3cc(O)c(O)c(O)c3)[o+]c2c1
REMARK SMILES IDX 10 1 20 2 21 3 22 4 2 5 3 6 4 7 6 8 7 9 8 10 11 11 12 12
REMARK SMILES IDX 13 13 19 14 15 15 17 16 14 17 16 19 18 21 9 23 1 25 5 27
REMARK H PARENT 14 18 16 20 18 22 9 24 1 26 5 28
REMARK Flexibility Score: inf
ROOT
ATOM      1  C   UNL     1      28.460  -3.701 -29.250  1.00  0.00     0.402 A 
ATOM      2  O   UNL     1      27.513  -2.797 -29.019  1.00  0.00    -0.202 OA
ATOM      3  C   UNL     1      27.761  -1.497 -28.890  1.00  0.00     0.368 A 
ATOM      4  C   UNL     1      26.698  -0.623 -28.651  1.00  0.00     0.162 A 
ATOM      5  C   UNL     1      26.930   0.749 -28.514  1.00  0.00     0.128 A 
ATOM      6  C   UNL     1      28.229   1.248 -28.618  1.00  0.00     0.093 A 
ATOM      7  C   UNL     1      29.312   0.393 -28.858  1.00  0.00     0.136 A 
ATOM      8  C   UNL     1      29.083  -1.002 -28.995  1.00  0.00     0.125 A 
ATOM      9  C   UNL     1      30.107  -1.934 -29.223  1.00  0.00     0.078 A 
ATOM     10  C   UNL     1      29.803  -3.293 -29.342  1.00  0.00     0.223 A 
ENDROOT
BRANCH   1  11
ATOM     11  C   UNL     1      28.056  -5.119 -29.384  1.00  0.00     0.091 A 
ATOM     12  C   UNL     1      27.519  -5.792 -28.276  1.00  0.00     0.068 A 
ATOM     13  C   UNL     1      27.110  -7.128 -28.381  1.00  0.00     0.162 A 
ATOM     14  C   UNL     1      28.145  -5.793 -30.615  1.00  0.00     0.068 A 
ATOM     15  C   UNL     1      27.222  -7.802 -29.610  1.00  0.00     0.200 A 
ATOM     16  C   UNL     1      27.737  -7.125 -30.729  1.00  0.00     0.162 A 
BRANCH  13  17
ATOM     17  O   UNL     1      26.592  -7.790 -27.268  1.00  0.00    -0.504 OA
ATOM     18  H   UNL     1      25.965  -7.328 -26.620  1.00  0.00     0.293 HD
ENDBRANCH  13  17
BRANCH  15  19
ATOM     19  O   UNL     1      26.823  -9.133 -29.732  1.00  0.00    -0.502 OA
ATOM     20  H   UNL     1      26.507  -9.523 -30.612  1.00  0.00     0.293 HD
ENDBRANCH  15  19
BRANCH  16  21
ATOM     21  O   UNL     1      27.847  -7.761 -31.966  1.00  0.00    -0.504 OA
ATOM     22  H   UNL     1      27.147  -7.654 -32.691  1.00  0.00     0.293 HD
ENDBRANCH  16  21
ENDBRANCH   1  11
BRANCH  10  23
ATOM     23  O   UNL     1      30.826  -4.226 -29.519  1.00  0.00    -0.500 OA
ATOM     24  H   UNL     1      31.631  -4.030 -30.103  1.00  0.00     0.294 HD
ENDBRANCH  10  23
BRANCH   5  25
ATOM     25  O   UNL     1      25.874   1.627 -28.276  1.00  0.00    -0.507 OA
ATOM     26  H   UNL     1      25.653   1.948 -27.340  1.00  0.00     0.293 HD
ENDBRANCH   5  25
BRANCH   7  27
ATOM     27  O   UNL     1      30.582   0.971 -28.951  1.00  0.00    -0.507 OA
ATOM     28  H   UNL     1      30.912   1.718 -28.359  1.00  0.00     0.293 HD
ENDBRANCH   7  27
TORSDOF 7
ENDMDL
MODEL 6
REMARK VINA RESULT:    -5.052     13.730     16.864
REMARK INTER + INTRA:          -6.571
REMARK INTER:                  -6.194
REMARK INTRA:                  -0.377
REMARK UNBOUND:                -0.337
REMARK SMILES Oc1cc(O)c2cc(O)c(-c3cc(O)c(O)c(O)c3)[o+]c2c1
REMARK SMILES IDX 10 1 20 2 21 3 22 4 2 5 3 6 4 7 6 8 7 9 8 10 11 11 12 12
REMARK SMILES IDX 13 13 19 14 15 15 17 16 14 17 16 19 18 21 9 23 1 25 5 27
REMARK H PARENT 14 18 16 20 18 22 9 24 1 26 5 28
REMARK Flexibility Score: inf
ROOT
ATOM      1  C   UNL     1      27.207  -6.494 -28.435  1.00  0.00     0.402 A 
ATOM      2  O   UNL     1      26.752  -7.269 -27.454  1.00  0.00    -0.202 OA
ATOM      3  C   UNL     1      25.766  -6.910 -26.638  1.00  0.00     0.368 A 
ATOM      4  C   UNL     1      25.355  -7.795 -25.638  1.00  0.00     0.162 A 
ATOM      5  C   UNL     1      24.319  -7.444 -24.768  1.00  0.00     0.128 A 
ATOM      6  C   UNL     1      23.691  -6.204 -24.899  1.00  0.00     0.093 A 
ATOM      7  C   UNL     1      24.084  -5.299 -25.893  1.00  0.00     0.136 A 
ATOM      8  C   UNL     1      25.137  -5.649 -26.778  1.00  0.00     0.125 A 
ATOM      9  C   UNL     1      25.606  -4.802 -27.794  1.00  0.00     0.078 A 
ATOM     10  C   UNL     1      26.652  -5.215 -28.624  1.00  0.00     0.223 A 
ENDROOT
BRANCH   1  11
ATOM     11  C   UNL     1      28.304  -7.011 -29.284  1.00  0.00     0.091 A 
ATOM     12  C   UNL     1      27.995  -7.739 -30.444  1.00  0.00     0.068 A 
ATOM     13  C   UNL     1      29.014  -8.222 -31.276  1.00  0.00     0.162 A 
ATOM     14  C   UNL     1      29.650  -6.741 -28.986  1.00  0.00     0.068 A 
ATOM     15  C   UNL     1      30.358  -7.966 -30.960  1.00  0.00     0.200 A 
ATOM     16  C   UNL     1      30.673  -7.217 -29.812  1.00  0.00     0.162 A 
BRANCH  13  17
ATOM     17  O   UNL     1      28.694  -8.957 -32.417  1.00  0.00    -0.504 OA
ATOM     18  H   UNL     1      28.335  -8.510 -33.253  1.00  0.00     0.293 HD
ENDBRANCH  13  17
BRANCH  15  19
ATOM     19  O   UNL     1      31.386  -8.442 -31.775  1.00  0.00    -0.502 OA
ATOM     20  H   UNL     1      32.139  -9.016 -31.414  1.00  0.00     0.293 HD
ENDBRANCH  15  19
BRANCH  16  21
ATOM     21  O   UNL     1      31.997  -6.933 -29.479  1.00  0.00    -0.504 OA
ATOM     22  H   UNL     1      32.778  -7.402 -29.924  1.00  0.00     0.293 HD
ENDBRANCH  16  21
ENDBRANCH   1  11
BRANCH  10  23
ATOM     23  O   UNL     1      27.152  -4.354 -29.602  1.00  0.00    -0.500 OA
ATOM     24  H   UNL     1      27.863  -3.664 -29.391  1.00  0.00     0.294 HD
ENDBRANCH  10  23
BRANCH   5  25
ATOM     25  O   UNL     1      23.904  -8.321 -23.768  1.00  0.00    -0.507 OA
ATOM     26  H   UNL     1      22.925  -8.425 -23.526  1.00  0.00     0.293 HD
ENDBRANCH   5  25
BRANCH   7  27
ATOM     27  O   UNL     1      23.403  -4.080 -25.960  1.00  0.00    -0.507 OA
ATOM     28  H   UNL     1      23.461  -3.356 -25.260  1.00  0.00     0.293 HD
ENDBRANCH   7  27
TORSDOF 7
ENDMDL
MODEL 7
REMARK VINA RESULT:    -5.044     11.551     14.795
REMARK INTER + INTRA:          -6.561
REMARK INTER:                  -6.282
REMARK INTRA:                  -0.279
REMARK UNBOUND:                -0.337
REMARK SMILES Oc1cc(O)c2cc(O)c(-c3cc(O)c(O)c(O)c3)[o+]c2c1
REMARK SMILES IDX 10 1 20 2 21 3 22 4 2 5 3 6 4 7 6 8 7 9 8 10 11 11 12 12
REMARK SMILES IDX 13 13 19 14 15 15 17 16 14 17 16 19 18 21 9 23 1 25 5 27
REMARK H PARENT 14 18 16 20 18 22 9 24 1 26 5 28
REMARK Flexibility Score: inf
ROOT
ATOM      1  C   UNL     1      27.903  -4.345 -28.616  1.00  0.00     0.402 A 
ATOM      2  O   UNL     1      27.503  -3.188 -29.137  1.00  0.00    -0.202 OA
ATOM      3  C   UNL     1      27.331  -2.085 -28.416  1.00  0.00     0.368 A 
ATOM      4  C   UNL     1      26.909  -0.915 -29.054  1.00  0.00     0.162 A 
ATOM      5  C   UNL     1      26.724   0.261 -28.320  1.00  0.00     0.128 A 
ATOM      6  C   UNL     1      26.962   0.267 -26.945  1.00  0.00     0.093 A 
ATOM      7  C   UNL     1      27.386  -0.892 -26.282  1.00  0.00     0.136 A 
ATOM      8  C   UNL     1      27.573  -2.089 -27.021  1.00  0.00     0.125 A 
ATOM      9  C   UNL     1      27.982  -3.300 -26.440  1.00  0.00     0.078 A 
ATOM     10  C   UNL     1      28.140  -4.440 -27.233  1.00  0.00     0.223 A 
ENDROOT
BRANCH   1  11
ATOM     11  C   UNL     1      28.067  -5.502 -29.525  1.00  0.00     0.091 A 
ATOM     12  C   UNL     1      29.159  -5.539 -30.406  1.00  0.00     0.068 A 
ATOM     13  C   UNL     1      29.348  -6.631 -31.263  1.00  0.00     0.162 A 
ATOM     14  C   UNL     1      27.184  -6.595 -29.486  1.00  0.00     0.068 A 
ATOM     15  C   UNL     1      28.449  -7.711 -31.233  1.00  0.00     0.200 A 
ATOM     16  C   UNL     1      27.367  -7.690 -30.336  1.00  0.00     0.162 A 
BRANCH  13  17
ATOM     17  O   UNL     1      30.429  -6.648 -32.145  1.00  0.00    -0.504 OA
ATOM     18  H   UNL     1      30.507  -7.346 -32.875  1.00  0.00     0.293 HD
ENDBRANCH  13  17
BRANCH  15  19
ATOM     19  O   UNL     1      28.621  -8.805 -32.081  1.00  0.00    -0.502 OA
ATOM     20  H   UNL     1      28.385  -9.749 -31.798  1.00  0.00     0.293 HD
ENDBRANCH  15  19
BRANCH  16  21
ATOM     21  O   UNL     1      26.466  -8.753 -30.271  1.00  0.00    -0.504 OA
ATOM     22  H   UNL     1      26.721  -9.694 -30.546  1.00  0.00     0.293 HD
ENDBRANCH  16  21
ENDBRANCH   1  11
BRANCH  10  23
ATOM     23  O   UNL     1      28.498  -5.655 -26.648  1.00  0.00    -0.500 OA
ATOM     24  H   UNL     1      29.067  -5.696 -25.810  1.00  0.00     0.294 HD
ENDBRANCH  10  23
BRANCH   5  25
ATOM     25  O   UNL     1      26.304   1.431 -28.950  1.00  0.00    -0.507 OA
ATOM     26  H   UNL     1      26.949   2.014 -29.471  1.00  0.00     0.293 HD
ENDBRANCH   5  25
BRANCH   7  27
ATOM     27  O   UNL     1      27.605  -0.802 -24.904  1.00  0.00    -0.507 OA
ATOM     28  H   UNL     1      26.951  -0.402 -24.248  1.00  0.00     0.293 HD
ENDBRANCH   7  27
TORSDOF 7
ENDMDL
MODEL 8
REMARK VINA RESULT:    -5.020     13.659     16.725
REMARK INTER + INTRA:          -6.531
REMARK INTER:                  -6.185
REMARK INTRA:                  -0.347
REMARK UNBOUND:                -0.337
REMARK SMILES Oc1cc(O)c2cc(O)c(-c3cc(O)c(O)c(O)c3)[o+]c2c1
REMARK SMILES IDX 10 1 20 2 21 3 22 4 2 5 3 6 4 7 6 8 7 9 8 10 11 11 12 12
REMARK SMILES IDX 13 13 19 14 15 15 17 16 14 17 16 19 18 21 9 23 1 25 5 27
REMARK H PARENT 14 18 16 20 18 22 9 24 1 26 5 28
REMARK Flexibility Score: inf
ROOT
ATOM      1  C   UNL     1      26.734  -6.528 -28.033  1.00  0.00     0.402 A 
ATOM      2  O   UNL     1      26.372  -7.374 -27.073  1.00  0.00    -0.202 OA
ATOM      3  C   UNL     1      25.420  -7.106 -26.185  1.00  0.00     0.368 A 
ATOM      4  C   UNL     1      25.108  -8.060 -25.213  1.00  0.00     0.162 A 
ATOM      5  C   UNL     1      24.109  -7.805 -24.270  1.00  0.00     0.128 A 
ATOM      6  C   UNL     1      23.419  -6.592 -24.297  1.00  0.00     0.093 A 
ATOM      7  C   UNL     1      23.713  -5.619 -25.261  1.00  0.00     0.136 A 
ATOM      8  C   UNL     1      24.728  -5.871 -26.220  1.00  0.00     0.125 A 
ATOM      9  C   UNL     1      25.099  -4.951 -27.213  1.00  0.00     0.078 A 
ATOM     10  C   UNL     1      26.112  -5.269 -28.121  1.00  0.00     0.223 A 
ENDROOT
BRANCH   1  11
ATOM     11  C   UNL     1      27.803  -6.946 -28.969  1.00  0.00     0.091 A 
ATOM     12  C   UNL     1      29.133  -6.987 -28.524  1.00  0.00     0.068 A 
ATOM     13  C   UNL     1      30.161  -7.398 -29.383  1.00  0.00     0.162 A 
ATOM     14  C   UNL     1      27.508  -7.360 -30.279  1.00  0.00     0.068 A 
ATOM     15  C   UNL     1      29.861  -7.791 -30.698  1.00  0.00     0.200 A 
ATOM     16  C   UNL     1      28.526  -7.774 -31.142  1.00  0.00     0.162 A 
BRANCH  13  17
ATOM     17  O   UNL     1      31.481  -7.419 -28.933  1.00  0.00    -0.504 OA
ATOM     18  H   UNL     1      32.081  -6.606 -29.009  1.00  0.00     0.293 HD
ENDBRANCH  13  17
BRANCH  15  19
ATOM     19  O   UNL     1      30.871  -8.200 -31.568  1.00  0.00    -0.502 OA
ATOM     20  H   UNL     1      30.683  -8.466 -32.528  1.00  0.00     0.293 HD
ENDBRANCH  15  19
BRANCH  16  21
ATOM     21  O   UNL     1      28.194  -8.172 -32.437  1.00  0.00    -0.504 OA
ATOM     22  H   UNL     1      27.858  -9.105 -32.645  1.00  0.00     0.293 HD
ENDBRANCH  16  21
ENDBRANCH   1  11
BRANCH  10  23
ATOM     23  O   UNL     1      26.516  -4.334 -29.076  1.00  0.00    -0.500 OA
ATOM     24  H   UNL     1      26.098  -3.413 -29.129  1.00  0.00     0.294 HD
ENDBRANCH  10  23
BRANCH   5  25
ATOM     25  O   UNL     1      23.792  -8.753 -23.298  1.00  0.00    -0.507 OA
ATOM     26  H   UNL     1      23.725  -8.505 -22.317  1.00  0.00     0.293 HD
ENDBRANCH   5  25
BRANCH   7  27
ATOM     27  O   UNL     1      22.975  -4.432 -25.223  1.00  0.00    -0.507 OA
ATOM     28  H   UNL     1      22.296  -4.206 -24.511  1.00  0.00     0.293 HD
ENDBRANCH   7  27
TORSDOF 7
ENDMDL
MODEL 9
REMARK VINA RESULT:    -4.888     12.602     14.495
REMARK INTER + INTRA:          -6.368
REMARK INTER:                  -6.228
REMARK INTRA:                  -0.140
REMARK UNBOUND:                -0.337
REMARK SMILES Oc1cc(O)c2cc(O)c(-c3cc(O)c(O)c(O)c3)[o+]c2c1
REMARK SMILES IDX 10 1 20 2 21 3 22 4 2 5 3 6 4 7 6 8 7 9 8 10 11 11 12 12
REMARK SMILES IDX 13 13 19 14 15 15 17 16 14 17 16 19 18 21 9 23 1 25 5 27
REMARK H PARENT 14 18 16 20 18 22 9 24 1 26 5 28
REMARK Flexibility Score: inf
ROOT
ATOM      1  C   UNL     1      26.640  -5.211 -28.528  1.00  0.00     0.402 A 
ATOM      2  O   UNL     1      26.761  -6.334 -29.230  1.00  0.00    -0.202 OA
ATOM      3  C   UNL     1      27.753  -6.556 -30.086  1.00  0.00     0.368 A 
ATOM      4  C   UNL     1      27.797  -7.771 -30.776  1.00  0.00     0.162 A 
ATOM      5  C   UNL     1      28.831  -8.031 -31.680  1.00  0.00     0.128 A 
ATOM      6  C   UNL     1      29.824  -7.075 -31.894  1.00  0.00     0.093 A 
ATOM      7  C   UNL     1      29.804  -5.850 -31.215  1.00  0.00     0.136 A 
ATOM      8  C   UNL     1      28.755  -5.579 -30.298  1.00  0.00     0.125 A 
ATOM      9  C   UNL     1      28.646  -4.376 -29.584  1.00  0.00     0.078 A 
ATOM     10  C   UNL     1      27.581  -4.179 -28.700  1.00  0.00     0.223 A 
ENDROOT
BRANCH   1  11
ATOM     11  C   UNL     1      25.495  -5.086 -27.598  1.00  0.00     0.091 A 
ATOM     12  C   UNL     1      24.562  -4.055 -27.785  1.00  0.00     0.068 A 
ATOM     13  C   UNL     1      23.458  -3.926 -26.931  1.00  0.00     0.162 A 
ATOM     14  C   UNL     1      25.288  -6.014 -26.563  1.00  0.00     0.068 A 
ATOM     15  C   UNL     1      23.270  -4.846 -25.886  1.00  0.00     0.200 A 
ATOM     16  C   UNL     1      24.188  -5.895 -25.708  1.00  0.00     0.162 A 
BRANCH  13  17
ATOM     17  O   UNL     1      22.547  -2.887 -27.119  1.00  0.00    -0.504 OA
ATOM     18  H   UNL     1      22.303  -2.556 -28.045  1.00  0.00     0.293 HD
ENDBRANCH  13  17
BRANCH  15  19
ATOM     19  O   UNL     1      22.178  -4.731 -25.024  1.00  0.00    -0.502 OA
ATOM     20  H   UNL     1      21.480  -4.005 -25.131  1.00  0.00     0.293 HD
ENDBRANCH  15  19
BRANCH  16  21
ATOM     21  O   UNL     1      24.021  -6.833 -24.689  1.00  0.00    -0.504 OA
ATOM     22  H   UNL     1      24.603  -7.659 -24.615  1.00  0.00     0.293 HD
ENDBRANCH  16  21
ENDBRANCH   1  11
BRANCH  10  23
ATOM     23  O   UNL     1      27.444  -2.964 -28.028  1.00  0.00    -0.500 OA
ATOM     24  H   UNL     1      26.801  -2.248 -28.346  1.00  0.00     0.294 HD
ENDBRANCH  10  23
BRANCH   5  25
ATOM     25  O   UNL     1      28.880  -9.241 -32.372  1.00  0.00    -0.507 OA
ATOM     26  H   UNL     1      29.298 -10.068 -31.962  1.00  0.00     0.293 HD
ENDBRANCH   5  25
BRANCH   7  27
ATOM     27  O   UNL     1      30.837  -4.948 -31.484  1.00  0.00    -0.507 OA
ATOM     28  H   UNL     1      31.775  -5.031 -31.121  1.00  0.00     0.293 HD
ENDBRANCH   7  27
TORSDOF 7
ENDMDL
