MODEL 1
REMARK VINA RESULT:    -2.851      0.000      0.000
REMARK INTER + INTRA:          -3.766
REMARK INTER:                  -3.602
REMARK INTRA:                  -0.165
REMARK UNBOUND:                -0.165
REMARK SMILES CCCCCCO
REMARK SMILES IDX 4 1 3 2 2 3 1 4 5 5 6 6 7 7
REMARK H PARENT 7 8
REMARK Flexibility Score: inf
ROOT
ATOM      1  C   UNL     1     136.225 140.508 130.142  1.00  0.00     0.002 C 
ENDROOT
BRANCH   1   2
ATOM      2  C   UNL     1     134.879 140.042 129.569  1.00  0.00    -0.000 C 
BRANCH   2   3
ATOM      3  C   UNL     1     134.783 138.513 129.455  1.00  0.00    -0.003 C 
ATOM      4  C   UNL     1     135.182 137.996 128.073  1.00  0.00     0.004 C 
ENDBRANCH   2   3
ENDBRANCH   1   2
BRANCH   1   5
ATOM      5  C   UNL     1     137.151 141.011 129.028  1.00  0.00     0.028 C 
BRANCH   5   6
ATOM      6  C   UNL     1     136.374 141.820 127.986  1.00  0.00     0.156 C 
BRANCH   6   7
ATOM      7  O   UNL     1     136.605 143.191 128.167  1.00  0.00    -0.396 OA
ATOM      8  H   UNL     1     135.741 143.590 128.450  1.00  0.00     0.210 HD
ENDBRANCH   6   7
ENDBRANCH   5   6
ENDBRANCH   1   5
TORSDOF 5
ENDMDL
MODEL 2
REMARK VINA RESULT:    -2.845      3.362      4.701
REMARK INTER + INTRA:          -3.758
REMARK INTER:                  -3.685
REMARK INTRA:                  -0.073
REMARK UNBOUND:                -0.165
REMARK SMILES CCCCCCO
REMARK SMILES IDX 4 1 3 2 2 3 1 4 5 5 6 6 7 7
REMARK H PARENT 7 8
REMARK Flexibility Score: inf
ROOT
ATOM      1  C   UNL     1     135.243 137.665 128.946  1.00  0.00     0.002 C 
ENDROOT
BRANCH   1   2
ATOM      2  C   UNL     1     135.326 138.727 130.052  1.00  0.00    -0.000 C 
BRANCH   2   3
ATOM      3  C   UNL     1     134.822 140.102 129.590  1.00  0.00    -0.003 C 
ATOM      4  C   UNL     1     135.588 140.639 128.381  1.00  0.00     0.004 C 
ENDBRANCH   2   3
ENDBRANCH   1   2
BRANCH   1   5
ATOM      5  C   UNL     1     134.090 136.689 129.208  1.00  0.00     0.028 C 
BRANCH   5   6
ATOM      6  C   UNL     1     133.310 136.398 127.922  1.00  0.00     0.156 C 
BRANCH   6   7
ATOM      7  O   UNL     1     131.938 136.586 128.136  1.00  0.00    -0.396 OA
ATOM      8  H   UNL     1     131.613 137.170 127.402  1.00  0.00     0.210 HD
ENDBRANCH   6   7
ENDBRANCH   5   6
ENDBRANCH   1   5
TORSDOF 5
ENDMDL
MODEL 3
REMARK VINA RESULT:    -2.822      6.621      7.661
REMARK INTER + INTRA:          -3.729
REMARK INTER:                  -3.609
REMARK INTRA:                  -0.120
REMARK UNBOUND:                -0.165
REMARK SMILES CCCCCCO
REMARK SMILES IDX 4 1 3 2 2 3 1 4 5 5 6 6 7 7
REMARK H PARENT 7 8
REMARK Flexibility Score: inf
ROOT
ATOM      1  C   UNL     1     139.050 134.542 130.085  1.00  0.00     0.002 C 
ENDROOT
BRANCH   1   2
ATOM      2  C   UNL     1     140.327 135.281 129.661  1.00  0.00    -0.000 C 
BRANCH   2   3
ATOM      3  C   UNL     1     140.209 136.805 129.825  1.00  0.00    -0.003 C 
ATOM      4  C   UNL     1     140.274 137.551 128.493  1.00  0.00     0.004 C 
ENDBRANCH   2   3
ENDBRANCH   1   2
BRANCH   1   5
ATOM      5  C   UNL     1     138.177 134.212 128.867  1.00  0.00     0.028 C 
BRANCH   5   6
ATOM      6  C   UNL     1     138.926 133.315 127.878  1.00  0.00     0.156 C 
BRANCH   6   7
ATOM      7  O   UNL     1     138.614 131.969 128.113  1.00  0.00    -0.396 OA
ATOM      8  H   UNL     1     138.217 131.619 127.273  1.00  0.00     0.210 HD
ENDBRANCH   6   7
ENDBRANCH   5   6
ENDBRANCH   1   5
TORSDOF 5
ENDMDL
MODEL 4
REMARK VINA RESULT:    -2.811      5.151      5.928
REMARK INTER + INTRA:          -3.715
REMARK INTER:                  -3.630
REMARK INTRA:                  -0.086
REMARK UNBOUND:                -0.165
REMARK SMILES CCCCCCO
REMARK SMILES IDX 4 1 3 2 2 3 1 4 5 5 6 6 7 7
REMARK H PARENT 7 8
REMARK Flexibility Score: inf
ROOT
ATOM      1  C   UNL     1     135.413 135.360 128.873  1.00  0.00     0.002 C 
ENDROOT
BRANCH   1   2
ATOM      2  C   UNL     1     135.004 134.482 130.065  1.00  0.00    -0.000 C 
BRANCH   2   3
ATOM      3  C   UNL     1     135.165 135.203 131.412  1.00  0.00    -0.003 C 
ATOM      4  C   UNL     1     134.175 134.713 132.468  1.00  0.00     0.004 C 
ENDBRANCH   2   3
ENDBRANCH   1   2
BRANCH   1   5
ATOM      5  C   UNL     1     134.210 135.648 127.966  1.00  0.00     0.028 C 
BRANCH   5   6
ATOM      6  C   UNL     1     133.314 136.734 128.567  1.00  0.00     0.156 C 
BRANCH   6   7
ATOM      7  O   UNL     1     131.980 136.521 128.195  1.00  0.00    -0.396 OA
ATOM      8  H   UNL     1     131.520 136.142 128.989  1.00  0.00     0.210 HD
ENDBRANCH   6   7
ENDBRANCH   5   6
ENDBRANCH   1   5
TORSDOF 5
ENDMDL
MODEL 5
REMARK VINA RESULT:    -2.803      2.302      3.565
REMARK INTER + INTRA:          -3.706
REMARK INTER:                  -3.659
REMARK INTRA:                  -0.046
REMARK UNBOUND:                -0.165
REMARK SMILES CCCCCCO
REMARK SMILES IDX 4 1 3 2 2 3 1 4 5 5 6 6 7 7
REMARK H PARENT 7 8
REMARK Flexibility Score: inf
ROOT
ATOM      1  C   UNL     1     137.809 140.022 128.999  1.00  0.00     0.002 C 
ENDROOT
BRANCH   1   2
ATOM      2  C   UNL     1     138.993 140.210 129.958  1.00  0.00    -0.000 C 
BRANCH   2   3
ATOM      3  C   UNL     1     140.352 140.089 129.251  1.00  0.00    -0.003 C 
ATOM      4  C   UNL     1     140.868 138.651 129.201  1.00  0.00     0.004 C 
ENDBRANCH   2   3
ENDBRANCH   1   2
BRANCH   1   5
ATOM      5  C   UNL     1     136.721 141.071 129.258  1.00  0.00     0.028 C 
BRANCH   5   6
ATOM      6  C   UNL     1     136.368 141.830 127.975  1.00  0.00     0.156 C 
BRANCH   6   7
ATOM      7  O   UNL     1     136.636 143.196 128.132  1.00  0.00    -0.396 OA
ATOM      8  H   UNL     1     137.491 143.262 128.633  1.00  0.00     0.210 HD
ENDBRANCH   6   7
ENDBRANCH   5   6
ENDBRANCH   1   5
TORSDOF 5
ENDMDL
MODEL 6
REMARK VINA RESULT:    -2.780      4.973      5.840
REMARK INTER + INTRA:          -3.676
REMARK INTER:                  -3.622
REMARK INTRA:                  -0.055
REMARK UNBOUND:                -0.165
REMARK SMILES CCCCCCO
REMARK SMILES IDX 4 1 3 2 2 3 1 4 5 5 6 6 7 7
REMARK H PARENT 7 8
REMARK Flexibility Score: inf
ROOT
ATOM      1  C   UNL     1     134.952 135.085 129.505  1.00  0.00     0.002 C 
ENDROOT
BRANCH   1   2
ATOM      2  C   UNL     1     136.445 135.276 129.807  1.00  0.00    -0.000 C 
BRANCH   2   3
ATOM      3  C   UNL     1     137.336 134.983 128.591  1.00  0.00    -0.003 C 
ATOM      4  C   UNL     1     138.370 133.891 128.864  1.00  0.00     0.004 C 
ENDBRANCH   2   3
ENDBRANCH   1   2
BRANCH   1   5
ATOM      5  C   UNL     1     134.312 136.403 129.050  1.00  0.00     0.028 C 
BRANCH   5   6
ATOM      6  C   UNL     1     133.356 136.176 127.875  1.00  0.00     0.156 C 
BRANCH   6   7
ATOM      7  O   UNL     1     132.058 136.574 128.223  1.00  0.00    -0.396 OA
ATOM      8  H   UNL     1     131.709 137.105 127.460  1.00  0.00     0.210 HD
ENDBRANCH   6   7
ENDBRANCH   5   6
ENDBRANCH   1   5
TORSDOF 5
ENDMDL
MODEL 7
REMARK VINA RESULT:    -2.767      6.241      6.988
REMARK INTER + INTRA:          -3.660
REMARK INTER:                  -3.525
REMARK INTRA:                  -0.135
REMARK UNBOUND:                -0.165
REMARK SMILES CCCCCCO
REMARK SMILES IDX 4 1 3 2 2 3 1 4 5 5 6 6 7 7
REMARK H PARENT 7 8
REMARK Flexibility Score: inf
ROOT
ATOM      1  C   UNL     1     137.685 134.898 129.619  1.00  0.00     0.002 C 
ENDROOT
BRANCH   1   2
ATOM      2  C   UNL     1     136.855 135.402 128.430  1.00  0.00    -0.000 C 
BRANCH   2   3
ATOM      3  C   UNL     1     135.344 135.369 128.708  1.00  0.00    -0.003 C 
ATOM      4  C   UNL     1     134.999 134.671 130.023  1.00  0.00     0.004 C 
ENDBRANCH   2   3
ENDBRANCH   1   2
BRANCH   1   5
ATOM      5  C   UNL     1     138.960 134.193 129.139  1.00  0.00     0.028 C 
BRANCH   5   6
ATOM      6  C   UNL     1     138.693 133.370 127.875  1.00  0.00     0.156 C 
BRANCH   6   7
ATOM      7  O   UNL     1     138.604 132.009 128.195  1.00  0.00    -0.396 OA
ATOM      8  H   UNL     1     139.141 131.875 129.019  1.00  0.00     0.210 HD
ENDBRANCH   6   7
ENDBRANCH   5   6
ENDBRANCH   1   5
TORSDOF 5
ENDMDL
MODEL 8
REMARK VINA RESULT:    -2.761      5.898      6.161
REMARK INTER + INTRA:          -3.653
REMARK INTER:                  -3.589
REMARK INTRA:                  -0.064
REMARK UNBOUND:                -0.165
REMARK SMILES CCCCCCO
REMARK SMILES IDX 4 1 3 2 2 3 1 4 5 5 6 6 7 7
REMARK H PARENT 7 8
REMARK Flexibility Score: inf
ROOT
ATOM      1  C   UNL     1     140.228 137.087 128.589  1.00  0.00     0.002 C 
ENDROOT
BRANCH   1   2
ATOM      2  C   UNL     1     140.262 136.097 129.762  1.00  0.00    -0.000 C 
BRANCH   2   3
ATOM      3  C   UNL     1     139.339 134.889 129.542  1.00  0.00    -0.003 C 
ATOM      4  C   UNL     1     139.512 134.254 128.163  1.00  0.00     0.004 C 
ENDBRANCH   2   3
ENDBRANCH   1   2
BRANCH   1   5
ATOM      5  C   UNL     1     140.899 138.413 128.970  1.00  0.00     0.028 C 
BRANCH   5   6
ATOM      6  C   UNL     1     141.863 138.879 127.875  1.00  0.00     0.156 C 
BRANCH   6   7
ATOM      7  O   UNL     1     143.181 138.556 128.221  1.00  0.00    -0.396 OA
ATOM      8  H   UNL     1     143.293 137.586 128.041  1.00  0.00     0.210 HD
ENDBRANCH   6   7
ENDBRANCH   5   6
ENDBRANCH   1   5
TORSDOF 5
ENDMDL
MODEL 9
REMARK VINA RESULT:    -2.761      4.264      5.076
REMARK INTER + INTRA:          -3.651
REMARK INTER:                  -3.586
REMARK INTRA:                  -0.066
REMARK UNBOUND:                -0.165
REMARK SMILES CCCCCCO
REMARK SMILES IDX 4 1 3 2 2 3 1 4 5 5 6 6 7 7
REMARK H PARENT 7 8
REMARK Flexibility Score: inf
ROOT
ATOM      1  C   UNL     1     140.097 140.042 129.321  1.00  0.00     0.002 C 
ENDROOT
BRANCH   1   2
ATOM      2  C   UNL     1     138.726 139.871 128.650  1.00  0.00    -0.000 C 
BRANCH   2   3
ATOM      3  C   UNL     1     137.615 140.653 129.367  1.00  0.00    -0.003 C 
ATOM      4  C   UNL     1     137.086 139.928 130.605  1.00  0.00     0.004 C 
ENDBRANCH   2   3
ENDBRANCH   1   2
BRANCH   1   5
ATOM      5  C   UNL     1     140.978 138.808 129.091  1.00  0.00     0.028 C 
BRANCH   5   6
ATOM      6  C   UNL     1     141.891 139.000 127.876  1.00  0.00     0.156 C 
BRANCH   6   7
ATOM      7  O   UNL     1     143.197 138.598 128.184  1.00  0.00    -0.396 OA
ATOM      8  H   UNL     1     143.631 139.366 128.639  1.00  0.00     0.210 HD
ENDBRANCH   6   7
ENDBRANCH   5   6
ENDBRANCH   1   5
TORSDOF 5
ENDMDL
