MODEL 1
REMARK VINA RESULT:    -4.027      0.000      0.000
REMARK INTER + INTRA:          -5.053
REMARK INTER:                  -5.675
REMARK INTRA:                   0.621
REMARK UNBOUND:                 0.621
REMARK SMILES CC1=CCCC(C)=CCC(C)(C)C=CC1
REMARK SMILES IDX 2 1 3 2 1 3 4 4 5 5 6 6 7 7 8 8 15 10 14 11 13 12 10 13
REMARK SMILES IDX 11 14 12 15 9 16
REMARK H PARENT
REMARK Flexibility Score: 60.00
ROOT
ATOM      1  C   UNL     1      20.743  49.246  45.214  1.00  0.00    -0.074 C 
ATOM      2  C   UNL     1      21.223  48.007  44.927  1.00  0.00    -0.027 C 
ATOM      3  C   UNL     1      21.172  49.868  46.521  1.00  0.00     0.039 C 
ENDROOT
BRANCH   2   4
ATOM      4  C   UNL     1      20.925  47.167  43.702  1.00  0.00     0.032 C 
BRANCH   4   5
ATOM      5  C   UNL     1      19.595  46.398  43.868  1.00  0.00     0.034 C 
BRANCH   5   6
ATOM      6  C   UNL     1      18.678  46.559  42.666  1.00  0.00    -0.077 C 
ATOM      7  C   UNL     1      19.015  45.839  41.385  1.00  0.00     0.039 C 
ATOM      8  C   UNL     1      17.548  47.304  42.703  1.00  0.00    -0.027 CG0
ATOM      9  G   UNL     1      17.073  48.081  43.913  1.00  0.00     0.000 G0
ENDBRANCH   5   6
ENDBRANCH   4   5
ENDBRANCH   2   4
BRANCH   1  10
ATOM     10  C   UNL     1      19.873  50.077  44.283  1.00  0.00     0.057 C 
BRANCH  10  11
ATOM     11  C   UNL     1      18.668  50.665  44.988  1.00  0.00    -0.026 C 
ATOM     12  C   UNL     1      17.356  50.477  44.705  1.00  0.00    -0.024 C 
BRANCH  12  13
ATOM     13  C   UNL     1      16.728  49.585  43.626  1.00  0.00    -0.014 C 
ATOM     14  C   UNL     1      17.153  50.055  42.206  1.00  0.00     0.016 C 
ATOM     15  C   UNL     1      15.191  49.751  43.720  1.00  0.00     0.016 C 
BRANCH  13  16
ATOM     16  C   UNL     1      17.074  48.091  43.918  1.00  0.00     0.038 CG0
ATOM     17  G   UNL     1      17.544  47.317  42.704  1.00  0.00     0.000 G0
ENDBRANCH  13  16
ENDBRANCH  12  13
ENDBRANCH  10  11
ENDBRANCH   1  10
TORSDOF 0
ENDMDL
MODEL 2
REMARK VINA RESULT:    -3.848      1.274      3.268
REMARK INTER + INTRA:          -4.800
REMARK INTER:                  -5.487
REMARK INTRA:                   0.687
REMARK UNBOUND:                 0.621
REMARK SMILES CC1=CCCC(C)=CCC(C)(C)C=CC1
REMARK SMILES IDX 2 1 3 2 1 3 4 4 5 5 6 6 7 7 8 8 15 10 14 11 13 12 10 13
REMARK SMILES IDX 11 14 12 15 9 16
REMARK H PARENT
REMARK Flexibility Score: 60.00
ROOT
ATOM      1  C   UNL     1      20.679  46.026  43.246  1.00  0.00    -0.074 C 
ATOM      2  C   UNL     1      19.800  45.530  42.336  1.00  0.00    -0.027 C 
ATOM      3  C   UNL     1      21.640  45.051  43.882  1.00  0.00     0.039 C 
ENDROOT
BRANCH   2   4
ATOM      4  C   UNL     1      18.729  46.292  41.583  1.00  0.00     0.032 C 
BRANCH   4   5
ATOM      5  C   UNL     1      17.496  46.546  42.480  1.00  0.00     0.034 C 
BRANCH   5   6
ATOM      6  C   UNL     1      17.125  48.018  42.552  1.00  0.00    -0.077 C 
ATOM      7  C   UNL     1      16.503  48.678  41.347  1.00  0.00     0.039 C 
ATOM      8  C   UNL     1      17.303  48.762  43.669  1.00  0.00    -0.027 CG0
ATOM      9  G   UNL     1      17.908  48.246  44.957  1.00  0.00     0.000 G0
ENDBRANCH   5   6
ENDBRANCH   4   5
ENDBRANCH   2   4
BRANCH   1  10
ATOM     10  C   UNL     1      20.813  47.496  43.612  1.00  0.00     0.057 C 
BRANCH  10  11
ATOM     11  C   UNL     1      20.995  47.709  45.100  1.00  0.00    -0.026 C 
ATOM     12  C   UNL     1      20.222  48.433  45.945  1.00  0.00    -0.024 C 
BRANCH  12  13
ATOM     13  C   UNL     1      18.928  49.200  45.639  1.00  0.00    -0.014 C 
ATOM     14  C   UNL     1      19.227  50.474  44.801  1.00  0.00     0.016 C 
ATOM     15  C   UNL     1      18.335  49.672  46.990  1.00  0.00     0.016 C 
BRANCH  13  16
ATOM     16  C   UNL     1      17.900  48.238  44.967  1.00  0.00     0.038 CG0
ATOM     17  G   UNL     1      17.312  48.766  43.675  1.00  0.00     0.000 G0
ENDBRANCH  13  16
ENDBRANCH  12  13
ENDBRANCH  10  11
ENDBRANCH   1  10
TORSDOF 0
ENDMDL
MODEL 3
REMARK VINA RESULT:    -3.827      1.813      3.407
REMARK INTER + INTRA:          -4.771
REMARK INTER:                  -5.417
REMARK INTRA:                   0.646
REMARK UNBOUND:                 0.621
REMARK SMILES CC1=CCCC(C)=CCC(C)(C)C=CC1
REMARK SMILES IDX 2 1 3 2 1 3 4 4 5 5 6 6 7 7 8 8 15 10 14 11 13 12 10 13
REMARK SMILES IDX 11 14 12 15 9 16
REMARK H PARENT
REMARK Flexibility Score: 60.00
ROOT
ATOM      1  C   UNL     1      16.790  49.487  46.870  1.00  0.00    -0.074 C 
ATOM      2  C   UNL     1      17.989  49.169  47.426  1.00  0.00    -0.027 C 
ATOM      3  C   UNL     1      15.549  48.979  47.563  1.00  0.00     0.039 C 
ENDROOT
BRANCH   2   4
ATOM      4  C   UNL     1      19.366  49.536  46.913  1.00  0.00     0.032 C 
BRANCH   4   5
ATOM      5  C   UNL     1      19.964  48.390  46.066  1.00  0.00     0.034 C 
BRANCH   5   6
ATOM      6  C   UNL     1      20.414  48.859  44.692  1.00  0.00    -0.077 C 
ATOM      7  C   UNL     1      21.825  49.361  44.513  1.00  0.00     0.039 C 
ATOM      8  C   UNL     1      19.606  48.818  43.606  1.00  0.00    -0.027 CG0
ATOM      9  G   UNL     1      18.170  48.338  43.623  1.00  0.00     0.000 G0
ENDBRANCH   5   6
ENDBRANCH   4   5
ENDBRANCH   2   4
BRANCH   1  10
ATOM     10  C   UNL     1      16.608  50.377  45.650  1.00  0.00     0.057 C 
BRANCH  10  11
ATOM     11  C   UNL     1      15.610  49.808  44.663  1.00  0.00    -0.026 C 
ATOM     12  C   UNL     1      15.846  49.307  43.426  1.00  0.00    -0.024 C 
BRANCH  12  13
ATOM     13  C   UNL     1      17.188  49.135  42.703  1.00  0.00    -0.014 C 
ATOM     14  C   UNL     1      17.759  50.512  42.264  1.00  0.00     0.016 C 
ATOM     15  C   UNL     1      16.923  48.320  41.413  1.00  0.00     0.016 C 
BRANCH  13  16
ATOM     16  C   UNL     1      18.163  48.314  43.604  1.00  0.00     0.038 CG0
ATOM     17  G   UNL     1      19.590  48.823  43.594  1.00  0.00     0.000 G0
ENDBRANCH  13  16
ENDBRANCH  12  13
ENDBRANCH  10  11
ENDBRANCH   1  10
TORSDOF 0
ENDMDL
MODEL 4
REMARK VINA RESULT:    -3.789      1.586      4.065
REMARK INTER + INTRA:          -4.718
REMARK INTER:                  -5.345
REMARK INTRA:                   0.627
REMARK UNBOUND:                 0.621
REMARK SMILES CC1=CCCC(C)=CCC(C)(C)C=CC1
REMARK SMILES IDX 2 1 3 2 1 3 4 4 5 5 6 6 7 7 8 8 15 10 14 11 13 12 10 13
REMARK SMILES IDX 11 14 12 15 9 16
REMARK H PARENT
REMARK Flexibility Score: 60.00
ROOT
ATOM      1  C   UNL     1      19.774  46.685  43.301  1.00  0.00    -0.074 C 
ATOM      2  C   UNL     1      21.060  47.021  43.586  1.00  0.00    -0.027 C 
ATOM      3  C   UNL     1      19.501  46.078  41.946  1.00  0.00     0.039 C 
ENDROOT
BRANCH   2   4
ATOM      4  C   UNL     1      21.582  47.661  44.855  1.00  0.00     0.032 C 
BRANCH   4   5
ATOM      5  C   UNL     1      21.754  49.186  44.676  1.00  0.00     0.034 C 
BRANCH   5   6
ATOM      6  C   UNL     1      21.181  49.975  45.842  1.00  0.00    -0.077 C 
ATOM      7  C   UNL     1      22.052  50.250  47.041  1.00  0.00     0.039 C 
ATOM      8  C   UNL     1      19.921  50.471  45.839  1.00  0.00    -0.027 CG0
ATOM      9  G   UNL     1      18.928  50.284  44.710  1.00  0.00     0.000 G0
ENDBRANCH   5   6
ENDBRANCH   4   5
ENDBRANCH   2   4
BRANCH   1  10
ATOM     10  C   UNL     1      18.609  46.806  44.272  1.00  0.00     0.057 C 
BRANCH  10  11
ATOM     11  C   UNL     1      17.445  47.578  43.687  1.00  0.00    -0.026 C 
ATOM     12  C   UNL     1      16.980  48.797  44.053  1.00  0.00    -0.024 C 
BRANCH  12  13
ATOM     13  C   UNL     1      17.527  49.749  45.125  1.00  0.00    -0.014 C 
ATOM     14  C   UNL     1      17.519  49.070  46.522  1.00  0.00     0.016 C 
ATOM     15  C   UNL     1      16.569  50.964  45.203  1.00  0.00     0.016 C 
BRANCH  13  16
ATOM     16  C   UNL     1      18.934  50.268  44.691  1.00  0.00     0.038 CG0
ATOM     17  G   UNL     1      19.900  50.468  45.841  1.00  0.00     0.000 G0
ENDBRANCH  13  16
ENDBRANCH  12  13
ENDBRANCH  10  11
ENDBRANCH   1  10
TORSDOF 0
ENDMDL
MODEL 5
REMARK VINA RESULT:    -3.754      1.693      4.918
REMARK INTER + INTRA:          -4.669
REMARK INTER:                  -5.477
REMARK INTRA:                   0.809
REMARK UNBOUND:                 0.621
REMARK SMILES CC1=CCCC(C)=CCC(C)(C)C=CC1
REMARK SMILES IDX 2 1 3 2 1 3 4 4 5 5 6 6 7 7 8 8 15 10 14 11 13 12 10 13
REMARK SMILES IDX 11 14 12 15 9 16
REMARK H PARENT
REMARK Flexibility Score: 60.00
ROOT
ATOM      1  C   UNL     1      16.537  49.617  43.305  1.00  0.00    -0.074 C 
ATOM      2  C   UNL     1      16.383  50.311  44.464  1.00  0.00    -0.027 C 
ATOM      3  C   UNL     1      15.315  49.447  42.434  1.00  0.00     0.039 C 
ENDROOT
BRANCH   2   4
ATOM      4  C   UNL     1      17.440  50.597  45.510  1.00  0.00     0.032 C 
BRANCH   4   5
ATOM      5  C   UNL     1      17.848  49.304  46.252  1.00  0.00     0.034 C 
BRANCH   5   6
ATOM      6  C   UNL     1      19.341  49.242  46.531  1.00  0.00    -0.077 C 
ATOM      7  C   UNL     1      19.997  50.379  47.272  1.00  0.00     0.039 C 
ATOM      8  C   UNL     1      20.109  48.188  46.165  1.00  0.00    -0.027 CG0
ATOM      9  G   UNL     1      19.599  46.972  45.421  1.00  0.00     0.000 G0
ENDBRANCH   5   6
ENDBRANCH   4   5
ENDBRANCH   2   4
BRANCH   1  10
ATOM     10  C   UNL     1      17.859  49.070  42.789  1.00  0.00     0.057 C 
BRANCH  10  11
ATOM     11  C   UNL     1      17.835  47.565  42.620  1.00  0.00    -0.026 C 
ATOM     12  C   UNL     1      18.733  46.656  43.072  1.00  0.00    -0.024 C 
BRANCH  12  13
ATOM     13  C   UNL     1      19.993  46.893  43.916  1.00  0.00    -0.014 C 
ATOM     14  C   UNL     1      20.763  48.148  43.417  1.00  0.00     0.016 C 
ATOM     15  C   UNL     1      20.927  45.675  43.711  1.00  0.00     0.016 C 
BRANCH  13  16
ATOM     16  C   UNL     1      19.604  46.958  45.425  1.00  0.00     0.038 CG0
ATOM     17  G   UNL     1      20.124  48.185  46.145  1.00  0.00     0.000 G0
ENDBRANCH  13  16
ENDBRANCH  12  13
ENDBRANCH  10  11
ENDBRANCH   1  10
TORSDOF 0
ENDMDL
MODEL 6
REMARK VINA RESULT:    -3.748      2.433      4.081
REMARK INTER + INTRA:          -4.660
REMARK INTER:                  -5.584
REMARK INTRA:                   0.924
REMARK UNBOUND:                 0.621
REMARK SMILES CC1=CCCC(C)=CCC(C)(C)C=CC1
REMARK SMILES IDX 2 1 3 2 1 3 4 4 5 5 6 6 7 7 8 8 15 10 14 11 13 12 10 13
REMARK SMILES IDX 11 14 12 15 9 16
REMARK H PARENT
REMARK Flexibility Score: 60.00
ROOT
ATOM      1  C   UNL     1      20.564  46.855  45.261  1.00  0.00    -0.074 C 
ATOM      2  C   UNL     1      19.861  46.340  46.305  1.00  0.00    -0.027 C 
ATOM      3  C   UNL     1      20.945  45.907  44.150  1.00  0.00     0.039 C 
ENDROOT
BRANCH   2   4
ATOM      4  C   UNL     1      19.385  47.072  47.542  1.00  0.00     0.032 C 
BRANCH   4   5
ATOM      5  C   UNL     1      17.844  47.184  47.560  1.00  0.00     0.034 C 
BRANCH   5   6
ATOM      6  C   UNL     1      17.368  48.597  47.855  1.00  0.00    -0.077 C 
ATOM      7  C   UNL     1      17.050  48.983  49.277  1.00  0.00     0.039 C 
ATOM      8  C   UNL     1      17.246  49.542  46.892  1.00  0.00    -0.027 CG0
ATOM      9  G   UNL     1      17.531  49.312  45.423  1.00  0.00     0.000 G0
ENDBRANCH   5   6
ENDBRANCH   4   5
ENDBRANCH   2   4
BRANCH   1  10
ATOM     10  C   UNL     1      20.924  48.323  45.097  1.00  0.00     0.057 C 
BRANCH  10  11
ATOM     11  C   UNL     1      20.367  48.917  43.821  1.00  0.00    -0.026 C 
ATOM     12  C   UNL     1      19.326  49.774  43.679  1.00  0.00    -0.024 C 
BRANCH  12  13
ATOM     13  C   UNL     1      18.457  50.414  44.770  1.00  0.00    -0.014 C 
ATOM     14  C   UNL     1      17.678  51.635  44.209  1.00  0.00     0.016 C 
ATOM     15  C   UNL     1      19.408  50.947  45.871  1.00  0.00     0.016 C 
BRANCH  13  16
ATOM     16  C   UNL     1      17.538  49.326  45.408  1.00  0.00     0.038 CG0
ATOM     17  G   UNL     1      17.257  49.540  46.881  1.00  0.00     0.000 G0
ENDBRANCH  13  16
ENDBRANCH  12  13
ENDBRANCH  10  11
ENDBRANCH   1  10
TORSDOF 0
ENDMDL
MODEL 7
REMARK VINA RESULT:    -3.739      2.663      4.516
REMARK INTER + INTRA:          -4.648
REMARK INTER:                  -5.879
REMARK INTRA:                   1.231
REMARK UNBOUND:                 0.621
REMARK SMILES CC1=CCCC(C)=CCC(C)(C)C=CC1
REMARK SMILES IDX 2 1 3 2 1 3 4 4 5 5 6 6 7 7 8 8 15 10 14 11 13 12 10 13
REMARK SMILES IDX 11 14 12 15 9 16
REMARK H PARENT
REMARK Flexibility Score: 60.00
ROOT
ATOM      1  C   UNL     1      20.580  46.347  44.609  1.00  0.00    -0.074 C 
ATOM      2  C   UNL     1      20.391  47.280  43.639  1.00  0.00    -0.027 C 
ATOM      3  C   UNL     1      21.483  45.183  44.281  1.00  0.00     0.039 C 
ENDROOT
BRANCH   2   4
ATOM      4  C   UNL     1      19.520  48.518  43.712  1.00  0.00     0.032 C 
BRANCH   4   5
ATOM      5  C   UNL     1      20.378  49.786  43.922  1.00  0.00     0.034 C 
BRANCH   5   6
ATOM      6  C   UNL     1      21.137  49.760  45.239  1.00  0.00    -0.077 C 
ATOM      7  C   UNL     1      22.643  49.676  45.217  1.00  0.00     0.039 C 
ATOM      8  C   UNL     1      20.518  49.840  46.441  1.00  0.00    -0.027 CG0
ATOM      9  G   UNL     1      19.018  49.934  46.628  1.00  0.00     0.000 G0
ENDBRANCH   5   6
ENDBRANCH   4   5
ENDBRANCH   2   4
BRANCH   1  10
ATOM     10  C   UNL     1      20.014  46.432  46.017  1.00  0.00     0.057 C 
BRANCH  10  11
ATOM     11  C   UNL     1      18.525  46.708  46.027  1.00  0.00    -0.026 C 
ATOM     12  C   UNL     1      17.858  47.688  46.682  1.00  0.00    -0.024 C 
BRANCH  12  13
ATOM     13  C   UNL     1      18.427  48.815  47.556  1.00  0.00    -0.014 C 
ATOM     14  C   UNL     1      19.441  48.251  48.590  1.00  0.00     0.016 C 
ATOM     15  C   UNL     1      17.250  49.424  48.358  1.00  0.00     0.016 C 
BRANCH  13  16
ATOM     16  C   UNL     1      19.023  49.932  46.643  1.00  0.00     0.038 CG0
ATOM     17  G   UNL     1      20.519  49.828  46.435  1.00  0.00     0.000 G0
ENDBRANCH  13  16
ENDBRANCH  12  13
ENDBRANCH  10  11
ENDBRANCH   1  10
TORSDOF 0
ENDMDL
MODEL 8
REMARK VINA RESULT:    -3.613      1.585      3.875
REMARK INTER + INTRA:          -4.470
REMARK INTER:                  -5.393
REMARK INTRA:                   0.923
REMARK UNBOUND:                 0.621
REMARK SMILES CC1=CCCC(C)=CCC(C)(C)C=CC1
REMARK SMILES IDX 2 1 3 2 1 3 4 4 5 5 6 6 7 7 8 8 15 10 14 11 13 12 10 13
REMARK SMILES IDX 11 14 12 15 9 16
REMARK H PARENT
REMARK Flexibility Score: 60.00
ROOT
ATOM      1  C   UNL     1      17.981  49.692  46.897  1.00  0.00    -0.074 C 
ATOM      2  C   UNL     1      16.852  50.114  46.270  1.00  0.00    -0.027 C 
ATOM      3  C   UNL     1      17.869  49.337  48.359  1.00  0.00     0.039 C 
ENDROOT
BRANCH   2   4
ATOM      4  C   UNL     1      16.710  50.547  44.825  1.00  0.00     0.032 C 
BRANCH   4   5
ATOM      5  C   UNL     1      16.235  49.374  43.939  1.00  0.00     0.034 C 
BRANCH   5   6
ATOM      6  C   UNL     1      17.125  49.168  42.724  1.00  0.00    -0.077 C 
ATOM      7  C   UNL     1      16.946  50.063  41.523  1.00  0.00     0.039 C 
ATOM      8  C   UNL     1      18.100  48.229  42.682  1.00  0.00    -0.027 CG0
ATOM      9  G   UNL     1      18.406  47.260  43.805  1.00  0.00     0.000 G0
ENDBRANCH   5   6
ENDBRANCH   4   5
ENDBRANCH   2   4
BRANCH   1  10
ATOM     10  C   UNL     1      19.325  49.481  46.216  1.00  0.00     0.057 C 
BRANCH  10  11
ATOM     11  C   UNL     1      19.914  48.117  46.507  1.00  0.00    -0.026 C 
ATOM     12  C   UNL     1      20.147  47.102  45.640  1.00  0.00    -0.024 C 
BRANCH  12  13
ATOM     13  C   UNL     1      19.924  47.069  44.123  1.00  0.00    -0.014 C 
ATOM     14  C   UNL     1      20.526  45.776  43.504  1.00  0.00     0.016 C 
ATOM     15  C   UNL     1      20.693  48.266  43.512  1.00  0.00     0.016 C 
BRANCH  13  16
ATOM     16  C   UNL     1      18.406  47.259  43.815  1.00  0.00     0.038 CG0
ATOM     17  G   UNL     1      18.121  48.222  42.682  1.00  0.00     0.000 G0
ENDBRANCH  13  16
ENDBRANCH  12  13
ENDBRANCH  10  11
ENDBRANCH   1  10
TORSDOF 0
ENDMDL
MODEL 9
REMARK VINA RESULT:    -3.536      2.239      4.969
REMARK INTER + INTRA:          -4.362
REMARK INTER:                  -5.026
REMARK INTRA:                   0.665
REMARK UNBOUND:                 0.621
REMARK SMILES CC1=CCCC(C)=CCC(C)(C)C=CC1
REMARK SMILES IDX 2 1 3 2 1 3 4 4 5 5 6 6 7 7 8 8 15 10 14 11 13 12 10 13
REMARK SMILES IDX 11 14 12 15 9 16
REMARK H PARENT
REMARK Flexibility Score: 60.00
ROOT
ATOM      1  C   UNL     1      15.931  49.749  42.843  1.00  0.00    -0.074 C 
ATOM      2  C   UNL     1      14.881  49.160  43.473  1.00  0.00    -0.027 C 
ATOM      3  C   UNL     1      15.921  49.748  41.333  1.00  0.00     0.039 C 
ENDROOT
BRANCH   2   4
ATOM      4  C   UNL     1      14.671  49.012  44.966  1.00  0.00     0.032 C 
BRANCH   4   5
ATOM      5  C   UNL     1      15.647  47.972  45.561  1.00  0.00     0.034 C 
BRANCH   5   6
ATOM      6  C   UNL     1      16.402  48.509  46.767  1.00  0.00    -0.077 C 
ATOM      7  C   UNL     1      15.629  48.908  47.998  1.00  0.00     0.039 C 
ATOM      8  C   UNL     1      17.751  48.617  46.795  1.00  0.00    -0.027 CG0
ATOM      9  G   UNL     1      18.665  48.254  45.643  1.00  0.00     0.000 G0
ENDBRANCH   5   6
ENDBRANCH   4   5
ENDBRANCH   2   4
BRANCH   1  10
ATOM     10  C   UNL     1      17.070  50.473  43.544  1.00  0.00     0.057 C 
BRANCH  10  11
ATOM     11  C   UNL     1      18.428  50.073  43.006  1.00  0.00    -0.026 C 
ATOM     12  C   UNL     1      19.512  49.643  43.698  1.00  0.00    -0.024 C 
BRANCH  12  13
ATOM     13  C   UNL     1      19.649  49.399  45.206  1.00  0.00    -0.014 C 
ATOM     14  C   UNL     1      19.446  50.720  46.000  1.00  0.00     0.016 C 
ATOM     15  C   UNL     1      21.099  48.926  45.473  1.00  0.00     0.016 C 
BRANCH  13  16
ATOM     16  C   UNL     1      18.678  48.256  45.639  1.00  0.00     0.038 CG0
ATOM     17  G   UNL     1      17.766  48.623  46.792  1.00  0.00     0.000 G0
ENDBRANCH  13  16
ENDBRANCH  12  13
ENDBRANCH  10  11
ENDBRANCH   1  10
TORSDOF 0
ENDMDL
