MODEL 1
REMARK VINA RESULT:    -4.206      0.000      0.000
REMARK INTER + INTRA:          -4.604
REMARK INTER:                  -4.574
REMARK INTRA:                  -0.030
REMARK UNBOUND:                -0.030
REMARK SMILES O=C([O-])c1ccc(O)cc1
REMARK SMILES IDX 4 1 5 2 10 3 6 4 9 5 7 6 2 7 1 8 3 9 8 10
REMARK H PARENT 8 11
REMARK Flexibility Score: inf
ROOT
ATOM      1  C   UNL     1      18.251  28.828  28.404  1.00  0.00    -0.003 A 
ATOM      2  C   UNL     1      18.086  28.237  29.668  1.00  0.00     0.014 A 
ATOM      3  C   UNL     1      18.447  30.219  28.321  1.00  0.00     0.014 A 
ATOM      4  C   UNL     1      18.117  29.021  30.826  1.00  0.00     0.047 A 
ATOM      5  C   UNL     1      18.477  31.000  29.482  1.00  0.00     0.047 A 
ATOM      6  C   UNL     1      18.313  30.402  30.738  1.00  0.00     0.115 A 
ENDROOT
BRANCH   1   7
ATOM      7  C   UNL     1      18.218  27.998  27.179  1.00  0.00     0.071 C 
ATOM      8  O   UNL     1      17.246  27.230  26.952  1.00  0.00    -0.545 OA
ATOM      9  O   UNL     1      19.261  28.055  26.262  1.00  0.00    -0.545 OA
ENDBRANCH   1   7
BRANCH   6  10
ATOM     10  O   UNL     1      18.341  31.169  31.899  1.00  0.00    -0.508 OA
ATOM     11  H   UNL     1      19.193  31.617  32.218  1.00  0.00     0.293 HD
ENDBRANCH   6  10
TORSDOF 2
ENDMDL
MODEL 2
REMARK VINA RESULT:    -4.177      0.241      1.549
REMARK INTER + INTRA:          -4.573
REMARK INTER:                  -4.543
REMARK INTRA:                  -0.030
REMARK UNBOUND:                -0.030
REMARK SMILES O=C([O-])c1ccc(O)cc1
REMARK SMILES IDX 4 1 5 2 10 3 6 4 9 5 7 6 2 7 1 8 3 9 8 10
REMARK H PARENT 8 11
REMARK Flexibility Score: inf
ROOT
ATOM      1  C   UNL     1      18.214  28.769  28.549  1.00  0.00    -0.003 A 
ATOM      2  C   UNL     1      18.419  30.160  28.555  1.00  0.00     0.014 A 
ATOM      3  C   UNL     1      18.001  28.106  29.771  1.00  0.00     0.014 A 
ATOM      4  C   UNL     1      18.411  30.872  29.759  1.00  0.00     0.047 A 
ATOM      5  C   UNL     1      17.994  28.821  30.973  1.00  0.00     0.047 A 
ATOM      6  C   UNL     1      18.199  30.207  30.970  1.00  0.00     0.115 A 
ENDROOT
BRANCH   1   7
ATOM      7  C   UNL     1      18.223  28.018  27.274  1.00  0.00     0.071 C 
ATOM      8  O   UNL     1      17.270  27.249  26.978  1.00  0.00    -0.545 OA
ATOM      9  O   UNL     1      19.283  28.151  26.386  1.00  0.00    -0.545 OA
ENDBRANCH   1   7
BRANCH   6  10
ATOM     10  O   UNL     1      18.193  30.930  32.160  1.00  0.00    -0.508 OA
ATOM     11  H   UNL     1      17.896  30.510  33.033  1.00  0.00     0.293 HD
ENDBRANCH   6  10
TORSDOF 2
ENDMDL
MODEL 3
REMARK VINA RESULT:    -4.073      1.242      4.162
REMARK INTER + INTRA:          -4.460
REMARK INTER:                  -4.424
REMARK INTRA:                  -0.036
REMARK UNBOUND:                -0.030
REMARK SMILES O=C([O-])c1ccc(O)cc1
REMARK SMILES IDX 4 1 5 2 10 3 6 4 9 5 7 6 2 7 1 8 3 9 8 10
REMARK H PARENT 8 11
REMARK Flexibility Score: inf
ROOT
ATOM      1  C   UNL     1      18.313  29.367  29.312  1.00  0.00    -0.003 A 
ATOM      2  C   UNL     1      18.267  28.101  29.922  1.00  0.00     0.014 A 
ATOM      3  C   UNL     1      18.416  29.445  27.911  1.00  0.00     0.014 A 
ATOM      4  C   UNL     1      18.323  26.938  29.146  1.00  0.00     0.047 A 
ATOM      5  C   UNL     1      18.471  28.280  27.138  1.00  0.00     0.047 A 
ATOM      6  C   UNL     1      18.424  27.023  27.755  1.00  0.00     0.115 A 
ENDROOT
BRANCH   1   7
ATOM      7  C   UNL     1      18.255  30.596  30.134  1.00  0.00     0.071 C 
ATOM      8  O   UNL     1      18.254  31.731  29.589  1.00  0.00    -0.545 OA
ATOM      9  O   UNL     1      18.199  30.513  31.520  1.00  0.00    -0.545 OA
ENDBRANCH   1   7
BRANCH   6  10
ATOM     10  O   UNL     1      18.478  25.857  26.996  1.00  0.00    -0.508 OA
ATOM     11  H   UNL     1      18.239  25.854  26.011  1.00  0.00     0.293 HD
ENDBRANCH   6  10
TORSDOF 2
ENDMDL
MODEL 4
REMARK VINA RESULT:    -4.071      1.263      4.357
REMARK INTER + INTRA:          -4.458
REMARK INTER:                  -4.422
REMARK INTRA:                  -0.036
REMARK UNBOUND:                -0.030
REMARK SMILES O=C([O-])c1ccc(O)cc1
REMARK SMILES IDX 4 1 5 2 10 3 6 4 9 5 7 6 2 7 1 8 3 9 8 10
REMARK H PARENT 8 11
REMARK Flexibility Score: inf
ROOT
ATOM      1  C   UNL     1      18.366  29.344  29.328  1.00  0.00    -0.003 A 
ATOM      2  C   UNL     1      18.398  29.424  27.925  1.00  0.00     0.014 A 
ATOM      3  C   UNL     1      18.368  28.076  29.938  1.00  0.00     0.014 A 
ATOM      4  C   UNL     1      18.433  28.261  27.149  1.00  0.00     0.047 A 
ATOM      5  C   UNL     1      18.402  26.915  29.159  1.00  0.00     0.047 A 
ATOM      6  C   UNL     1      18.435  27.005  27.762  1.00  0.00     0.115 A 
ENDROOT
BRANCH   1   7
ATOM      7  C   UNL     1      18.329  30.575  30.147  1.00  0.00     0.071 C 
ATOM      8  O   UNL     1      18.327  30.508  31.405  1.00  0.00    -0.545 OA
ATOM      9  O   UNL     1      18.298  31.825  29.539  1.00  0.00    -0.545 OA
ENDBRANCH   1   7
BRANCH   6  10
ATOM     10  O   UNL     1      18.470  25.856  26.976  1.00  0.00    -0.508 OA
ATOM     11  H   UNL     1      18.863  25.865  26.041  1.00  0.00     0.293 HD
ENDBRANCH   6  10
TORSDOF 2
ENDMDL
MODEL 5
REMARK VINA RESULT:    -4.055      4.236      5.317
REMARK INTER + INTRA:          -4.440
REMARK INTER:                  -4.405
REMARK INTRA:                  -0.035
REMARK UNBOUND:                -0.030
REMARK SMILES O=C([O-])c1ccc(O)cc1
REMARK SMILES IDX 4 1 5 2 10 3 6 4 9 5 7 6 2 7 1 8 3 9 8 10
REMARK H PARENT 8 11
REMARK Flexibility Score: inf
ROOT
ATOM      1  C   UNL     1      18.707  28.364  33.679  1.00  0.00    -0.003 A 
ATOM      2  C   UNL     1      18.079  28.850  34.840  1.00  0.00     0.014 A 
ATOM      3  C   UNL     1      18.484  29.024  32.457  1.00  0.00     0.014 A 
ATOM      4  C   UNL     1      17.246  29.971  34.778  1.00  0.00     0.047 A 
ATOM      5  C   UNL     1      17.649  30.145  32.399  1.00  0.00     0.047 A 
ATOM      6  C   UNL     1      17.028  30.621  33.560  1.00  0.00     0.115 A 
ENDROOT
BRANCH   1   7
ATOM      7  C   UNL     1      19.589  27.178  33.746  1.00  0.00     0.071 C 
ATOM      8  O   UNL     1      19.894  26.546  32.699  1.00  0.00    -0.545 OA
ATOM      9  O   UNL     1      20.093  26.744  34.966  1.00  0.00    -0.545 OA
ENDBRANCH   1   7
BRANCH   6  10
ATOM     10  O   UNL     1      16.196  31.737  33.515  1.00  0.00    -0.508 OA
ATOM     11  H   UNL     1      15.353  31.746  32.953  1.00  0.00     0.293 HD
ENDBRANCH   6  10
TORSDOF 2
ENDMDL
MODEL 6
REMARK VINA RESULT:    -4.039     12.963     13.812
REMARK INTER + INTRA:          -4.424
REMARK INTER:                  -4.394
REMARK INTRA:                  -0.029
REMARK UNBOUND:                -0.030
REMARK SMILES O=C([O-])c1ccc(O)cc1
REMARK SMILES IDX 4 1 5 2 10 3 6 4 9 5 7 6 2 7 1 8 3 9 8 10
REMARK H PARENT 8 11
REMARK Flexibility Score: inf
ROOT
ATOM      1  C   UNL     1      12.321  20.082  36.813  1.00  0.00    -0.003 A 
ATOM      2  C   UNL     1      13.155  19.563  35.807  1.00  0.00     0.014 A 
ATOM      3  C   UNL     1      12.762  20.049  38.149  1.00  0.00     0.014 A 
ATOM      4  C   UNL     1      14.404  19.023  36.131  1.00  0.00     0.047 A 
ATOM      5  C   UNL     1      14.012  19.507  38.468  1.00  0.00     0.047 A 
ATOM      6  C   UNL     1      14.836  18.994  37.459  1.00  0.00     0.115 A 
ENDROOT
BRANCH   1   7
ATOM      7  C   UNL     1      11.000  20.653  36.469  1.00  0.00     0.071 C 
ATOM      8  O   UNL     1       9.950  20.203  36.999  1.00  0.00    -0.545 OA
ATOM      9  O   UNL     1      10.901  21.696  35.556  1.00  0.00    -0.545 OA
ENDBRANCH   1   7
BRANCH   6  10
ATOM     10  O   UNL     1      16.082  18.453  37.765  1.00  0.00    -0.508 OA
ATOM     11  H   UNL     1      16.185  17.483  38.043  1.00  0.00     0.293 HD
ENDBRANCH   6  10
TORSDOF 2
ENDMDL
MODEL 7
REMARK VINA RESULT:    -3.992      4.399      6.116
REMARK INTER + INTRA:          -4.372
REMARK INTER:                  -4.338
REMARK INTRA:                  -0.034
REMARK UNBOUND:                -0.030
REMARK SMILES O=C([O-])c1ccc(O)cc1
REMARK SMILES IDX 4 1 5 2 10 3 6 4 9 5 7 6 2 7 1 8 3 9 8 10
REMARK H PARENT 8 11
REMARK Flexibility Score: inf
ROOT
ATOM      1  C   UNL     1      18.103  29.197  33.761  1.00  0.00    -0.003 A 
ATOM      2  C   UNL     1      18.413  28.842  32.437  1.00  0.00     0.014 A 
ATOM      3  C   UNL     1      18.647  28.440  34.815  1.00  0.00     0.014 A 
ATOM      4  C   UNL     1      19.249  27.752  32.173  1.00  0.00     0.047 A 
ATOM      5  C   UNL     1      19.483  27.351  34.547  1.00  0.00     0.047 A 
ATOM      6  C   UNL     1      19.786  27.005  33.224  1.00  0.00     0.115 A 
ENDROOT
BRANCH   1   7
ATOM      7  C   UNL     1      17.218  30.350  34.039  1.00  0.00     0.071 C 
ATOM      8  O   UNL     1      16.507  30.376  35.079  1.00  0.00    -0.545 OA
ATOM      9  O   UNL     1      17.161  31.422  33.156  1.00  0.00    -0.545 OA
ENDBRANCH   1   7
BRANCH   6  10
ATOM     10  O   UNL     1      20.617  25.923  32.945  1.00  0.00    -0.508 OA
ATOM     11  H   UNL     1      21.393  25.681  33.551  1.00  0.00     0.293 HD
ENDBRANCH   6  10
TORSDOF 2
ENDMDL
MODEL 8
REMARK VINA RESULT:    -3.986      0.921      4.581
REMARK INTER + INTRA:          -4.365
REMARK INTER:                  -4.329
REMARK INTRA:                  -0.036
REMARK UNBOUND:                -0.030
REMARK SMILES O=C([O-])c1ccc(O)cc1
REMARK SMILES IDX 4 1 5 2 10 3 6 4 9 5 7 6 2 7 1 8 3 9 8 10
REMARK H PARENT 8 11
REMARK Flexibility Score: inf
ROOT
ATOM      1  C   UNL     1      18.143  29.897  30.781  1.00  0.00    -0.003 A 
ATOM      2  C   UNL     1      18.361  30.683  29.636  1.00  0.00     0.014 A 
ATOM      3  C   UNL     1      18.024  28.503  30.638  1.00  0.00     0.014 A 
ATOM      4  C   UNL     1      18.458  30.087  28.375  1.00  0.00     0.047 A 
ATOM      5  C   UNL     1      18.120  27.910  29.375  1.00  0.00     0.047 A 
ATOM      6  C   UNL     1      18.338  28.701  28.240  1.00  0.00     0.115 A 
ENDROOT
BRANCH   1   7
ATOM      7  C   UNL     1      18.042  30.530  32.115  1.00  0.00     0.071 C 
ATOM      8  O   UNL     1      18.019  29.825  33.158  1.00  0.00    -0.545 OA
ATOM      9  O   UNL     1      17.970  31.913  32.234  1.00  0.00    -0.545 OA
ENDBRANCH   1   7
BRANCH   6  10
ATOM     10  O   UNL     1      18.437  28.122  26.977  1.00  0.00    -0.508 OA
ATOM     11  H   UNL     1      19.056  28.498  26.268  1.00  0.00     0.293 HD
ENDBRANCH   6  10
TORSDOF 2
ENDMDL
MODEL 9
REMARK VINA RESULT:    -3.932      3.480      4.489
REMARK INTER + INTRA:          -4.307
REMARK INTER:                  -4.271
REMARK INTRA:                  -0.036
REMARK UNBOUND:                -0.030
REMARK SMILES O=C([O-])c1ccc(O)cc1
REMARK SMILES IDX 4 1 5 2 10 3 6 4 9 5 7 6 2 7 1 8 3 9 8 10
REMARK H PARENT 8 11
REMARK Flexibility Score: inf
ROOT
ATOM      1  C   UNL     1      18.415  28.798  32.802  1.00  0.00    -0.003 A 
ATOM      2  C   UNL     1      18.523  28.522  34.177  1.00  0.00     0.014 A 
ATOM      3  C   UNL     1      17.624  29.885  32.386  1.00  0.00     0.014 A 
ATOM      4  C   UNL     1      17.854  29.315  35.114  1.00  0.00     0.047 A 
ATOM      5  C   UNL     1      16.956  30.676  33.326  1.00  0.00     0.047 A 
ATOM      6  C   UNL     1      17.070  30.393  34.693  1.00  0.00     0.115 A 
ENDROOT
BRANCH   1   7
ATOM      7  C   UNL     1      19.124  27.958  31.812  1.00  0.00     0.071 C 
ATOM      8  O   UNL     1      19.733  26.917  32.175  1.00  0.00    -0.545 OA
ATOM      9  O   UNL     1      19.125  28.306  30.466  1.00  0.00    -0.545 OA
ENDBRANCH   1   7
BRANCH   6  10
ATOM     10  O   UNL     1      16.410  31.174  35.638  1.00  0.00    -0.508 OA
ATOM     11  H   UNL     1      15.688  30.786  36.235  1.00  0.00     0.293 HD
ENDBRANCH   6  10
TORSDOF 2
ENDMDL
