MODEL 1
REMARK VINA RESULT:    -6.329      0.000      0.000
REMARK INTER + INTRA:         -17.928
REMARK INTER:                 -14.469
REMARK INTRA:                  -3.459
REMARK UNBOUND:                -3.459
REMARK SMILES CCCCCCCCCCCCCCCCCCCCCCCC(=O)[O-]
REMARK SMILES IDX 13 1 14 2 15 3 16 4 17 5 18 6 19 7 20 8 21 9 22 10 23 11
REMARK SMILES IDX 24 12 25 13 26 14 12 15 11 16 10 17 9 18 8 19 7 20 6 21 5 22
REMARK SMILES IDX 4 23 3 24 2 25 1 26
REMARK H PARENT
REMARK Flexibility Score: inf
ROOT
ATOM      1  C   UNL     1       3.267  26.459  42.878  1.00  0.00     0.000 C 
ENDROOT
BRANCH   1   2
ATOM      2  C   UNL     1       1.937  26.300  43.635  1.00  0.00     0.000 C 
BRANCH   2   3
ATOM      3  C   UNL     1       0.850  27.260  43.125  1.00  0.00     0.000 C 
BRANCH   3   4
ATOM      4  C   UNL     1       1.327  28.723  43.071  1.00  0.00     0.000 C 
BRANCH   4   5
ATOM      5  C   UNL     1       1.107  29.355  41.680  1.00  0.00     0.000 C 
BRANCH   5   6
ATOM      6  C   UNL     1       0.344  28.446  40.702  1.00  0.00     0.000 C 
BRANCH   6   7
ATOM      7  C   UNL     1      -0.946  29.089  40.168  1.00  0.00     0.000 C 
BRANCH   7   8
ATOM      8  C   UNL     1      -2.058  29.156  41.225  1.00  0.00     0.000 C 
BRANCH   8   9
ATOM      9  C   UNL     1      -2.282  30.578  41.760  1.00  0.00     0.000 C 
BRANCH   9  10
ATOM     10  C   UNL     1      -2.438  30.571  43.289  1.00  0.00     0.006 C 
BRANCH  10  11
ATOM     11  C   UNL     1      -2.366  29.156  43.877  1.00  0.00     0.053 C 
BRANCH  11  12
ATOM     12  C   UNL     1      -1.617  29.131  45.174  1.00  0.00     0.041 C 
ATOM     13  O   UNL     1      -1.209  30.203  45.693  1.00  0.00    -0.550 OA
ATOM     14  O   UNL     1      -1.395  27.924  45.826  1.00  0.00    -0.550 OA
ENDBRANCH  11  12
ENDBRANCH  10  11
ENDBRANCH   9  10
ENDBRANCH   8   9
ENDBRANCH   7   8
ENDBRANCH   6   7
ENDBRANCH   5   6
ENDBRANCH   4   5
ENDBRANCH   3   4
ENDBRANCH   2   3
ENDBRANCH   1   2
BRANCH   1  15
ATOM     15  C   UNL     1       4.331  25.446  43.328  1.00  0.00     0.000 C 
BRANCH  15  16
ATOM     16  C   UNL     1       4.032  24.017  42.842  1.00  0.00     0.000 C 
BRANCH  16  17
ATOM     17  C   UNL     1       3.759  23.044  44.000  1.00  0.00     0.000 C 
BRANCH  17  18
ATOM     18  C   UNL     1       4.713  23.248  45.190  1.00  0.00    -0.000 C 
BRANCH  18  19
ATOM     19  C   UNL     1       5.298  21.912  45.699  1.00  0.00    -0.000 C 
BRANCH  19  20
ATOM     20  C   UNL     1       6.729  22.035  46.247  1.00  0.00    -0.000 C 
BRANCH  20  21
ATOM     21  C   UNL     1       7.291  23.461  46.130  1.00  0.00    -0.000 C 
BRANCH  21  22
ATOM     22  C   UNL     1       8.459  23.569  45.131  1.00  0.00    -0.000 C 
BRANCH  22  23
ATOM     23  C   UNL     1       8.255  24.578  43.984  1.00  0.00    -0.000 C 
BRANCH  23  24
ATOM     24  C   UNL     1       7.676  23.934  42.714  1.00  0.00    -0.000 C 
BRANCH  24  25
ATOM     25  C   UNL     1       8.024  22.442  42.600  1.00  0.00    -0.003 C 
ATOM     26  C   UNL     1       6.809  21.570  42.279  1.00  0.00     0.004 C 
ENDBRANCH  24  25
ENDBRANCH  23  24
ENDBRANCH  22  23
ENDBRANCH  21  22
ENDBRANCH  20  21
ENDBRANCH  19  20
ENDBRANCH  18  19
ENDBRANCH  17  18
ENDBRANCH  16  17
ENDBRANCH  15  16
ENDBRANCH   1  15
TORSDOF 22
ENDMDL
MODEL 2
REMARK VINA RESULT:    -6.309      1.927      2.786
REMARK INTER + INTRA:         -17.882
REMARK INTER:                 -14.942
REMARK INTRA:                  -2.940
REMARK UNBOUND:                -3.459
REMARK SMILES CCCCCCCCCCCCCCCCCCCCCCCC(=O)[O-]
REMARK SMILES IDX 13 1 14 2 15 3 16 4 17 5 18 6 19 7 20 8 21 9 22 10 23 11
REMARK SMILES IDX 24 12 25 13 26 14 12 15 11 16 10 17 9 18 8 19 7 20 6 21 5 22
REMARK SMILES IDX 4 23 3 24 2 25 1 26
REMARK H PARENT
REMARK Flexibility Score: inf
ROOT
ATOM      1  C   UNL     1       3.690  25.873  42.914  1.00  0.00     0.000 C 
ENDROOT
BRANCH   1   2
ATOM      2  C   UNL     1       2.352  26.166  43.616  1.00  0.00     0.000 C 
BRANCH   2   3
ATOM      3  C   UNL     1       1.627  27.383  43.019  1.00  0.00     0.000 C 
BRANCH   3   4
ATOM      4  C   UNL     1       0.179  27.518  43.526  1.00  0.00     0.000 C 
BRANCH   4   5
ATOM      5  C   UNL     1       0.074  28.470  44.737  1.00  0.00     0.000 C 
BRANCH   5   6
ATOM      6  C   UNL     1      -1.302  29.143  44.876  1.00  0.00     0.000 C 
BRANCH   6   7
ATOM      7  C   UNL     1      -2.275  28.752  43.752  1.00  0.00     0.000 C 
BRANCH   7   8
ATOM      8  C   UNL     1      -2.807  29.968  42.978  1.00  0.00     0.000 C 
BRANCH   8   9
ATOM      9  C   UNL     1      -1.794  31.121  42.918  1.00  0.00     0.000 C 
BRANCH   9  10
ATOM     10  C   UNL     1      -1.203  31.260  41.506  1.00  0.00     0.006 C 
BRANCH  10  11
ATOM     11  C   UNL     1       0.099  30.468  41.338  1.00  0.00     0.053 C 
BRANCH  11  12
ATOM     12  C   UNL     1      -0.033  29.397  40.298  1.00  0.00     0.041 C 
ATOM     13  O   UNL     1       0.993  28.912  39.753  1.00  0.00    -0.550 OA
ATOM     14  O   UNL     1      -1.289  28.914  39.952  1.00  0.00    -0.550 OA
ENDBRANCH  11  12
ENDBRANCH  10  11
ENDBRANCH   9  10
ENDBRANCH   8   9
ENDBRANCH   7   8
ENDBRANCH   6   7
ENDBRANCH   5   6
ENDBRANCH   4   5
ENDBRANCH   3   4
ENDBRANCH   2   3
ENDBRANCH   1   2
BRANCH   1  15
ATOM     15  C   UNL     1       4.736  25.263  43.860  1.00  0.00     0.000 C 
BRANCH  15  16
ATOM     16  C   UNL     1       4.155  24.146  44.744  1.00  0.00     0.000 C 
BRANCH  16  17
ATOM     17  C   UNL     1       3.790  22.887  43.940  1.00  0.00     0.000 C 
BRANCH  17  18
ATOM     18  C   UNL     1       4.779  21.729  44.161  1.00  0.00    -0.000 C 
BRANCH  18  19
ATOM     19  C   UNL     1       4.836  21.293  45.642  1.00  0.00    -0.000 C 
BRANCH  19  20
ATOM     20  C   UNL     1       6.237  21.412  46.265  1.00  0.00    -0.000 C 
BRANCH  20  21
ATOM     21  C   UNL     1       6.510  22.806  46.853  1.00  0.00    -0.000 C 
BRANCH  21  22
ATOM     22  C   UNL     1       7.818  23.433  46.335  1.00  0.00    -0.000 C 
BRANCH  22  23
ATOM     23  C   UNL     1       8.182  23.089  44.878  1.00  0.00    -0.000 C 
BRANCH  23  24
ATOM     24  C   UNL     1       8.242  24.326  43.966  1.00  0.00    -0.000 C 
BRANCH  24  25
ATOM     25  C   UNL     1       7.875  24.001  42.509  1.00  0.00    -0.003 C 
ATOM     26  C   UNL     1       7.868  22.499  42.218  1.00  0.00     0.004 C 
ENDBRANCH  24  25
ENDBRANCH  23  24
ENDBRANCH  22  23
ENDBRANCH  21  22
ENDBRANCH  20  21
ENDBRANCH  19  20
ENDBRANCH  18  19
ENDBRANCH  17  18
ENDBRANCH  16  17
ENDBRANCH  15  16
ENDBRANCH   1  15
TORSDOF 22
ENDMDL
MODEL 3
REMARK VINA RESULT:    -6.297      8.539     14.731
REMARK INTER + INTRA:         -17.854
REMARK INTER:                 -14.519
REMARK INTRA:                  -3.335
REMARK UNBOUND:                -3.459
REMARK SMILES CCCCCCCCCCCCCCCCCCCCCCCC(=O)[O-]
REMARK SMILES IDX 13 1 14 2 15 3 16 4 17 5 18 6 19 7 20 8 21 9 22 10 23 11
REMARK SMILES IDX 24 12 25 13 26 14 12 15 11 16 10 17 9 18 8 19 7 20 6 21 5 22
REMARK SMILES IDX 4 23 3 24 2 25 1 26
REMARK H PARENT
REMARK Flexibility Score: inf
ROOT
ATOM      1  C   UNL     1      10.011  20.058  45.351  1.00  0.00     0.000 C 
ENDROOT
BRANCH   1   2
ATOM      2  C   UNL     1      11.018  18.988  45.809  1.00  0.00     0.000 C 
BRANCH   2   3
ATOM      3  C   UNL     1      11.028  17.756  44.891  1.00  0.00     0.000 C 
BRANCH   3   4
ATOM      4  C   UNL     1      12.175  16.782  45.216  1.00  0.00     0.000 C 
BRANCH   4   5
ATOM      5  C   UNL     1      13.270  17.442  46.082  1.00  0.00     0.000 C 
BRANCH   5   6
ATOM      6  C   UNL     1      14.029  16.450  46.979  1.00  0.00     0.000 C 
BRANCH   6   7
ATOM      7  C   UNL     1      13.171  15.245  47.398  1.00  0.00     0.000 C 
BRANCH   7   8
ATOM      8  C   UNL     1      13.795  13.902  46.989  1.00  0.00     0.000 C 
BRANCH   8   9
ATOM      9  C   UNL     1      15.276  14.029  46.604  1.00  0.00     0.000 C 
BRANCH   9  10
ATOM     10  C   UNL     1      15.512  13.548  45.164  1.00  0.00     0.006 C 
BRANCH  10  11
ATOM     11  C   UNL     1      14.319  13.842  44.247  1.00  0.00     0.053 C 
BRANCH  11  12
ATOM     12  C   UNL     1      14.570  15.034  43.374  1.00  0.00     0.041 C 
ATOM     13  O   UNL     1      15.613  15.722  43.524  1.00  0.00    -0.550 OA
ATOM     14  O   UNL     1      13.663  15.369  42.376  1.00  0.00    -0.550 OA
ENDBRANCH  11  12
ENDBRANCH  10  11
ENDBRANCH   9  10
ENDBRANCH   8   9
ENDBRANCH   7   8
ENDBRANCH   6   7
ENDBRANCH   5   6
ENDBRANCH   4   5
ENDBRANCH   3   4
ENDBRANCH   2   3
ENDBRANCH   1   2
BRANCH   1  15
ATOM     15  C   UNL     1       8.552  19.592  45.472  1.00  0.00     0.000 C 
BRANCH  15  16
ATOM     16  C   UNL     1       7.891  19.354  44.103  1.00  0.00     0.000 C 
BRANCH  16  17
ATOM     17  C   UNL     1       7.810  20.635  43.256  1.00  0.00     0.000 C 
BRANCH  17  18
ATOM     18  C   UNL     1       6.424  20.843  42.620  1.00  0.00    -0.000 C 
BRANCH  18  19
ATOM     19  C   UNL     1       5.285  20.359  43.545  1.00  0.00    -0.000 C 
BRANCH  19  20
ATOM     20  C   UNL     1       4.667  21.480  44.398  1.00  0.00    -0.000 C 
BRANCH  20  21
ATOM     21  C   UNL     1       4.668  21.154  45.900  1.00  0.00    -0.000 C 
BRANCH  21  22
ATOM     22  C   UNL     1       5.949  21.620  46.617  1.00  0.00    -0.000 C 
BRANCH  22  23
ATOM     23  C   UNL     1       6.422  23.043  46.264  1.00  0.00    -0.000 C 
BRANCH  23  24
ATOM     24  C   UNL     1       7.953  23.184  46.263  1.00  0.00    -0.000 C 
BRANCH  24  25
ATOM     25  C   UNL     1       8.486  23.804  44.961  1.00  0.00    -0.003 C 
ATOM     26  C   UNL     1       7.371  24.289  44.034  1.00  0.00     0.004 C 
ENDBRANCH  24  25
ENDBRANCH  23  24
ENDBRANCH  22  23
ENDBRANCH  21  22
ENDBRANCH  20  21
ENDBRANCH  19  20
ENDBRANCH  18  19
ENDBRANCH  17  18
ENDBRANCH  16  17
ENDBRANCH  15  16
ENDBRANCH   1  15
TORSDOF 22
ENDMDL
MODEL 4
REMARK VINA RESULT:    -6.282      8.340     14.519
REMARK INTER + INTRA:         -17.822
REMARK INTER:                 -14.481
REMARK INTRA:                  -3.340
REMARK UNBOUND:                -3.459
REMARK SMILES CCCCCCCCCCCCCCCCCCCCCCCC(=O)[O-]
REMARK SMILES IDX 13 1 14 2 15 3 16 4 17 5 18 6 19 7 20 8 21 9 22 10 23 11
REMARK SMILES IDX 24 12 25 13 26 14 12 15 11 16 10 17 9 18 8 19 7 20 6 21 5 22
REMARK SMILES IDX 4 23 3 24 2 25 1 26
REMARK H PARENT
REMARK Flexibility Score: inf
ROOT
ATOM      1  C   UNL     1       9.165  19.101  44.283  1.00  0.00     0.000 C 
ENDROOT
BRANCH   1   2
ATOM      2  C   UNL     1      10.379  18.156  44.261  1.00  0.00     0.000 C 
BRANCH   2   3
ATOM      3  C   UNL     1      11.259  18.296  45.514  1.00  0.00     0.000 C 
BRANCH   3   4
ATOM      4  C   UNL     1      12.192  17.090  45.722  1.00  0.00     0.000 C 
BRANCH   4   5
ATOM      5  C   UNL     1      12.759  16.556  44.388  1.00  0.00     0.000 C 
BRANCH   5   6
ATOM      6  C   UNL     1      12.621  15.033  44.225  1.00  0.00     0.000 C 
BRANCH   6   7
ATOM      7  C   UNL     1      13.924  14.360  43.762  1.00  0.00     0.000 C 
BRANCH   7   8
ATOM      8  C   UNL     1      15.163  15.235  44.007  1.00  0.00     0.000 C 
BRANCH   8   9
ATOM      9  C   UNL     1      15.997  14.760  45.205  1.00  0.00     0.000 C 
BRANCH   9  10
ATOM     10  C   UNL     1      15.699  15.606  46.452  1.00  0.00     0.006 C 
BRANCH  10  11
ATOM     11  C   UNL     1      15.393  14.744  47.683  1.00  0.00     0.053 C 
BRANCH  11  12
ATOM     12  C   UNL     1      13.948  14.824  48.072  1.00  0.00     0.041 C 
ATOM     13  O   UNL     1      13.551  15.721  48.860  1.00  0.00    -0.550 OA
ATOM     14  O   UNL     1      13.034  13.923  47.539  1.00  0.00    -0.550 OA
ENDBRANCH  11  12
ENDBRANCH  10  11
ENDBRANCH   9  10
ENDBRANCH   8   9
ENDBRANCH   7   8
ENDBRANCH   6   7
ENDBRANCH   5   6
ENDBRANCH   4   5
ENDBRANCH   3   4
ENDBRANCH   2   3
ENDBRANCH   1   2
BRANCH   1  15
ATOM     15  C   UNL     1       9.522  20.516  44.764  1.00  0.00     0.000 C 
BRANCH  15  16
ATOM     16  C   UNL     1       8.569  21.028  45.858  1.00  0.00     0.000 C 
BRANCH  16  17
ATOM     17  C   UNL     1       8.457  22.562  45.873  1.00  0.00     0.000 C 
BRANCH  17  18
ATOM     18  C   UNL     1       7.010  23.052  46.055  1.00  0.00    -0.000 C 
BRANCH  18  19
ATOM     19  C   UNL     1       6.009  21.879  46.148  1.00  0.00    -0.000 C 
BRANCH  19  20
ATOM     20  C   UNL     1       4.653  22.173  45.484  1.00  0.00    -0.000 C 
BRANCH  20  21
ATOM     21  C   UNL     1       4.606  21.744  44.009  1.00  0.00    -0.000 C 
BRANCH  21  22
ATOM     22  C   UNL     1       5.383  20.443  43.735  1.00  0.00    -0.000 C 
BRANCH  22  23
ATOM     23  C   UNL     1       6.304  20.473  42.499  1.00  0.00    -0.000 C 
BRANCH  23  24
ATOM     24  C   UNL     1       6.466  21.881  41.905  1.00  0.00    -0.000 C 
BRANCH  24  25
ATOM     25  C   UNL     1       7.862  22.471  42.162  1.00  0.00    -0.003 C 
ATOM     26  C   UNL     1       7.820  23.947  42.559  1.00  0.00     0.004 C 
ENDBRANCH  24  25
ENDBRANCH  23  24
ENDBRANCH  22  23
ENDBRANCH  21  22
ENDBRANCH  20  21
ENDBRANCH  19  20
ENDBRANCH  18  19
ENDBRANCH  17  18
ENDBRANCH  16  17
ENDBRANCH  15  16
ENDBRANCH   1  15
TORSDOF 22
ENDMDL
MODEL 5
REMARK VINA RESULT:    -6.272      8.335     14.720
REMARK INTER + INTRA:         -17.797
REMARK INTER:                 -14.723
REMARK INTRA:                  -3.074
REMARK UNBOUND:                -3.459
REMARK SMILES CCCCCCCCCCCCCCCCCCCCCCCC(=O)[O-]
REMARK SMILES IDX 13 1 14 2 15 3 16 4 17 5 18 6 19 7 20 8 21 9 22 10 23 11
REMARK SMILES IDX 24 12 25 13 26 14 12 15 11 16 10 17 9 18 8 19 7 20 6 21 5 22
REMARK SMILES IDX 4 23 3 24 2 25 1 26
REMARK H PARENT
REMARK Flexibility Score: inf
ROOT
ATOM      1  C   UNL     1      10.533  19.589  45.514  1.00  0.00     0.000 C 
ENDROOT
BRANCH   1   2
ATOM      2  C   UNL     1      10.268  18.408  44.563  1.00  0.00     0.000 C 
BRANCH   2   3
ATOM      3  C   UNL     1      11.293  17.275  44.731  1.00  0.00     0.000 C 
BRANCH   3   4
ATOM      4  C   UNL     1      12.258  17.516  45.906  1.00  0.00     0.000 C 
BRANCH   4   5
ATOM      5  C   UNL     1      12.659  16.200  46.608  1.00  0.00     0.000 C 
BRANCH   5   6
ATOM      6  C   UNL     1      13.412  16.412  47.932  1.00  0.00     0.000 C 
BRANCH   6   7
ATOM      7  C   UNL     1      14.621  15.475  48.090  1.00  0.00     0.000 C 
BRANCH   7   8
ATOM      8  C   UNL     1      15.393  15.276  46.776  1.00  0.00     0.000 C 
BRANCH   8   9
ATOM      9  C   UNL     1      15.602  13.795  46.431  1.00  0.00     0.000 C 
BRANCH   9  10
ATOM     10  C   UNL     1      14.992  13.458  45.061  1.00  0.00     0.006 C 
BRANCH  10  11
ATOM     11  C   UNL     1      15.038  14.648  44.094  1.00  0.00     0.053 C 
BRANCH  11  12
ATOM     12  C   UNL     1      13.732  14.838  43.385  1.00  0.00     0.041 C 
ATOM     13  O   UNL     1      12.728  14.152  43.709  1.00  0.00    -0.550 OA
ATOM     14  O   UNL     1      13.617  15.796  42.385  1.00  0.00    -0.550 OA
ENDBRANCH  11  12
ENDBRANCH  10  11
ENDBRANCH   9  10
ENDBRANCH   8   9
ENDBRANCH   7   8
ENDBRANCH   6   7
ENDBRANCH   5   6
ENDBRANCH   4   5
ENDBRANCH   3   4
ENDBRANCH   2   3
ENDBRANCH   1   2
BRANCH   1  15
ATOM     15  C   UNL     1       9.721  20.841  45.147  1.00  0.00     0.000 C 
BRANCH  15  16
ATOM     16  C   UNL     1       8.429  20.971  45.972  1.00  0.00     0.000 C 
BRANCH  16  17
ATOM     17  C   UNL     1       7.833  22.387  45.915  1.00  0.00     0.000 C 
BRANCH  17  18
ATOM     18  C   UNL     1       6.339  22.421  46.284  1.00  0.00    -0.000 C 
BRANCH  18  19
ATOM     19  C   UNL     1       5.628  21.094  45.939  1.00  0.00    -0.000 C 
BRANCH  19  20
ATOM     20  C   UNL     1       4.814  21.152  44.635  1.00  0.00    -0.000 C 
BRANCH  20  21
ATOM     21  C   UNL     1       5.241  20.081  43.619  1.00  0.00    -0.000 C 
BRANCH  21  22
ATOM     22  C   UNL     1       6.567  20.416  42.910  1.00  0.00    -0.000 C 
BRANCH  22  23
ATOM     23  C   UNL     1       6.595  21.767  42.170  1.00  0.00    -0.000 C 
BRANCH  23  24
ATOM     24  C   UNL     1       7.996  22.400  42.131  1.00  0.00    -0.000 C 
BRANCH  24  25
ATOM     25  C   UNL     1       7.997  23.857  42.622  1.00  0.00    -0.003 C 
ATOM     26  C   UNL     1       6.598  24.371  42.962  1.00  0.00     0.004 C 
ENDBRANCH  24  25
ENDBRANCH  23  24
ENDBRANCH  22  23
ENDBRANCH  21  22
ENDBRANCH  20  21
ENDBRANCH  19  20
ENDBRANCH  18  19
ENDBRANCH  17  18
ENDBRANCH  16  17
ENDBRANCH  15  16
ENDBRANCH   1  15
TORSDOF 22
ENDMDL
MODEL 6
REMARK VINA RESULT:    -6.229      1.963      3.365
REMARK INTER + INTRA:         -17.699
REMARK INTER:                 -14.756
REMARK INTRA:                  -2.942
REMARK UNBOUND:                -3.459
REMARK SMILES CCCCCCCCCCCCCCCCCCCCCCCC(=O)[O-]
REMARK SMILES IDX 13 1 14 2 15 3 16 4 17 5 18 6 19 7 20 8 21 9 22 10 23 11
REMARK SMILES IDX 24 12 25 13 26 14 12 15 11 16 10 17 9 18 8 19 7 20 6 21 5 22
REMARK SMILES IDX 4 23 3 24 2 25 1 26
REMARK H PARENT
REMARK Flexibility Score: inf
ROOT
ATOM      1  C   UNL     1       3.392  24.727  43.937  1.00  0.00     0.000 C 
ENDROOT
BRANCH   1   2
ATOM      2  C   UNL     1       2.248  25.757  43.927  1.00  0.00     0.000 C 
BRANCH   2   3
ATOM      3  C   UNL     1       2.504  26.914  42.948  1.00  0.00     0.000 C 
BRANCH   3   4
ATOM      4  C   UNL     1       1.302  27.870  42.832  1.00  0.00     0.000 C 
BRANCH   4   5
ATOM      5  C   UNL     1      -0.017  27.203  43.277  1.00  0.00     0.000 C 
BRANCH   5   6
ATOM      6  C   UNL     1      -0.909  28.112  44.139  1.00  0.00     0.000 C 
BRANCH   6   7
ATOM      7  C   UNL     1      -0.169  29.354  44.663  1.00  0.00     0.000 C 
BRANCH   7   8
ATOM      8  C   UNL     1      -0.890  30.665  44.317  1.00  0.00     0.000 C 
BRANCH   8   9
ATOM      9  C   UNL     1      -2.271  30.433  43.687  1.00  0.00     0.000 C 
BRANCH   9  10
ATOM     10  C   UNL     1      -2.348  31.059  42.286  1.00  0.00     0.006 C 
BRANCH  10  11
ATOM     11  C   UNL     1      -0.967  31.197  41.632  1.00  0.00     0.053 C 
BRANCH  11  12
ATOM     12  C   UNL     1      -0.693  30.080  40.672  1.00  0.00     0.041 C 
ATOM     13  O   UNL     1      -1.603  29.263  40.372  1.00  0.00    -0.550 OA
ATOM     14  O   UNL     1       0.560  29.959  40.085  1.00  0.00    -0.550 OA
ENDBRANCH  11  12
ENDBRANCH  10  11
ENDBRANCH   9  10
ENDBRANCH   8   9
ENDBRANCH   7   8
ENDBRANCH   6   7
ENDBRANCH   5   6
ENDBRANCH   4   5
ENDBRANCH   3   4
ENDBRANCH   2   3
ENDBRANCH   1   2
BRANCH   1  15
ATOM     15  C   UNL     1       4.584  25.156  43.066  1.00  0.00     0.000 C 
BRANCH  15  16
ATOM     16  C   UNL     1       5.939  24.857  43.730  1.00  0.00     0.000 C 
BRANCH  16  17
ATOM     17  C   UNL     1       6.862  24.013  42.835  1.00  0.00     0.000 C 
BRANCH  17  18
ATOM     18  C   UNL     1       8.079  23.454  43.592  1.00  0.00    -0.000 C 
BRANCH  18  19
ATOM     19  C   UNL     1       8.222  24.077  44.998  1.00  0.00    -0.000 C 
BRANCH  19  20
ATOM     20  C   UNL     1       8.182  23.043  46.136  1.00  0.00    -0.000 C 
BRANCH  20  21
ATOM     21  C   UNL     1       7.275  21.844  45.820  1.00  0.00    -0.000 C 
BRANCH  21  22
ATOM     22  C   UNL     1       5.886  21.949  46.479  1.00  0.00    -0.000 C 
BRANCH  22  23
ATOM     23  C   UNL     1       4.761  21.165  45.776  1.00  0.00    -0.000 C 
BRANCH  23  24
ATOM     24  C   UNL     1       4.776  21.337  44.248  1.00  0.00    -0.000 C 
BRANCH  24  25
ATOM     25  C   UNL     1       5.391  20.128  43.526  1.00  0.00    -0.003 C 
ATOM     26  C   UNL     1       5.886  20.464  42.118  1.00  0.00     0.004 C 
ENDBRANCH  24  25
ENDBRANCH  23  24
ENDBRANCH  22  23
ENDBRANCH  21  22
ENDBRANCH  20  21
ENDBRANCH  19  20
ENDBRANCH  18  19
ENDBRANCH  17  18
ENDBRANCH  16  17
ENDBRANCH  15  16
ENDBRANCH   1  15
TORSDOF 22
ENDMDL
MODEL 7
REMARK VINA RESULT:    -6.227      0.878      2.161
REMARK INTER + INTRA:         -17.694
REMARK INTER:                 -14.624
REMARK INTRA:                  -3.071
REMARK UNBOUND:                -3.459
REMARK SMILES CCCCCCCCCCCCCCCCCCCCCCCC(=O)[O-]
REMARK SMILES IDX 13 1 14 2 15 3 16 4 17 5 18 6 19 7 20 8 21 9 22 10 23 11
REMARK SMILES IDX 24 12 25 13 26 14 12 15 11 16 10 17 9 18 8 19 7 20 6 21 5 22
REMARK SMILES IDX 4 23 3 24 2 25 1 26
REMARK H PARENT
REMARK Flexibility Score: inf
ROOT
ATOM      1  C   UNL     1       4.088  25.624  43.695  1.00  0.00     0.000 C 
ENDROOT
BRANCH   1   2
ATOM      2  C   UNL     1       3.227  26.422  42.699  1.00  0.00     0.000 C 
BRANCH   2   3
ATOM      3  C   UNL     1       1.878  26.852  43.296  1.00  0.00     0.000 C 
BRANCH   3   4
ATOM      4  C   UNL     1       0.986  27.586  42.280  1.00  0.00     0.000 C 
BRANCH   4   5
ATOM      5  C   UNL     1       1.262  29.105  42.254  1.00  0.00     0.000 C 
BRANCH   5   6
ATOM      6  C   UNL     1       0.486  29.855  41.159  1.00  0.00     0.000 C 
BRANCH   6   7
ATOM      7  C   UNL     1      -0.649  29.017  40.548  1.00  0.00     0.000 C 
BRANCH   7   8
ATOM      8  C   UNL     1      -2.037  29.438  41.055  1.00  0.00     0.000 C 
BRANCH   8   9
ATOM      9  C   UNL     1      -2.061  30.878  41.587  1.00  0.00     0.000 C 
BRANCH   9  10
ATOM     10  C   UNL     1      -2.369  30.902  43.092  1.00  0.00     0.006 C 
BRANCH  10  11
ATOM     11  C   UNL     1      -2.769  29.521  43.628  1.00  0.00     0.053 C 
BRANCH  11  12
ATOM     12  C   UNL     1      -1.783  29.008  44.632  1.00  0.00     0.041 C 
ATOM     13  O   UNL     1      -1.774  27.789  44.948  1.00  0.00    -0.550 OA
ATOM     14  O   UNL     1      -0.852  29.871  45.197  1.00  0.00    -0.550 OA
ENDBRANCH  11  12
ENDBRANCH  10  11
ENDBRANCH   9  10
ENDBRANCH   8   9
ENDBRANCH   7   8
ENDBRANCH   6   7
ENDBRANCH   5   6
ENDBRANCH   4   5
ENDBRANCH   3   4
ENDBRANCH   2   3
ENDBRANCH   1   2
BRANCH   1  15
ATOM     15  C   UNL     1       3.292  24.528  44.421  1.00  0.00     0.000 C 
BRANCH  15  16
ATOM     16  C   UNL     1       3.690  23.112  43.972  1.00  0.00     0.000 C 
BRANCH  16  17
ATOM     17  C   UNL     1       4.452  22.338  45.061  1.00  0.00     0.000 C 
BRANCH  17  18
ATOM     18  C   UNL     1       4.724  20.874  44.674  1.00  0.00    -0.000 C 
BRANCH  18  19
ATOM     19  C   UNL     1       6.089  20.706  43.970  1.00  0.00    -0.000 C 
BRANCH  19  20
ATOM     20  C   UNL     1       5.981  20.568  42.443  1.00  0.00    -0.000 C 
BRANCH  20  21
ATOM     21  C   UNL     1       6.380  21.854  41.700  1.00  0.00    -0.000 C 
BRANCH  21  22
ATOM     22  C   UNL     1       7.568  22.584  42.353  1.00  0.00    -0.000 C 
BRANCH  22  23
ATOM     23  C   UNL     1       7.327  24.068  42.689  1.00  0.00    -0.000 C 
BRANCH  23  24
ATOM     24  C   UNL     1       7.528  24.387  44.179  1.00  0.00    -0.000 C 
BRANCH  24  25
ATOM     25  C   UNL     1       8.531  23.438  44.853  1.00  0.00    -0.003 C 
ATOM     26  C   UNL     1       8.039  22.913  46.203  1.00  0.00     0.004 C 
ENDBRANCH  24  25
ENDBRANCH  23  24
ENDBRANCH  22  23
ENDBRANCH  21  22
ENDBRANCH  20  21
ENDBRANCH  19  20
ENDBRANCH  18  19
ENDBRANCH  17  18
ENDBRANCH  16  17
ENDBRANCH  15  16
ENDBRANCH   1  15
TORSDOF 22
ENDMDL
MODEL 8
REMARK VINA RESULT:    -6.225      1.854      2.997
REMARK INTER + INTRA:         -17.691
REMARK INTER:                 -14.582
REMARK INTRA:                  -3.109
REMARK UNBOUND:                -3.459
REMARK SMILES CCCCCCCCCCCCCCCCCCCCCCCC(=O)[O-]
REMARK SMILES IDX 13 1 14 2 15 3 16 4 17 5 18 6 19 7 20 8 21 9 22 10 23 11
REMARK SMILES IDX 24 12 25 13 26 14 12 15 11 16 10 17 9 18 8 19 7 20 6 21 5 22
REMARK SMILES IDX 4 23 3 24 2 25 1 26
REMARK H PARENT
REMARK Flexibility Score: inf
ROOT
ATOM      1  C   UNL     1       4.181  25.429  43.217  1.00  0.00     0.000 C 
ENDROOT
BRANCH   1   2
ATOM      2  C   UNL     1       3.130  26.501  42.880  1.00  0.00     0.000 C 
BRANCH   2   3
ATOM      3  C   UNL     1       1.800  26.277  43.618  1.00  0.00     0.000 C 
BRANCH   3   4
ATOM      4  C   UNL     1       0.693  27.240  43.152  1.00  0.00     0.000 C 
BRANCH   4   5
ATOM      5  C   UNL     1       0.661  28.538  43.987  1.00  0.00     0.000 C 
BRANCH   5   6
ATOM      6  C   UNL     1      -0.704  28.821  44.637  1.00  0.00     0.000 C 
BRANCH   6   7
ATOM      7  C   UNL     1      -0.862  30.284  45.085  1.00  0.00     0.000 C 
BRANCH   7   8
ATOM      8  C   UNL     1      -1.505  31.168  44.005  1.00  0.00     0.000 C 
BRANCH   8   9
ATOM      9  C   UNL     1      -2.518  30.405  43.140  1.00  0.00     0.000 C 
BRANCH   9  10
ATOM     10  C   UNL     1      -2.281  30.678  41.647  1.00  0.00     0.006 C 
BRANCH  10  11
ATOM     11  C   UNL     1      -0.815  31.008  41.340  1.00  0.00     0.053 C 
BRANCH  11  12
ATOM     12  C   UNL     1      -0.153  29.919  40.553  1.00  0.00     0.041 C 
ATOM     13  O   UNL     1       1.096  29.920  40.392  1.00  0.00    -0.550 OA
ATOM     14  O   UNL     1      -0.913  28.885  40.020  1.00  0.00    -0.550 OA
ENDBRANCH  11  12
ENDBRANCH  10  11
ENDBRANCH   9  10
ENDBRANCH   8   9
ENDBRANCH   7   8
ENDBRANCH   6   7
ENDBRANCH   5   6
ENDBRANCH   4   5
ENDBRANCH   3   4
ENDBRANCH   2   3
ENDBRANCH   1   2
BRANCH   1  15
ATOM     15  C   UNL     1       3.851  24.658  44.505  1.00  0.00     0.000 C 
BRANCH  15  16
ATOM     16  C   UNL     1       3.978  23.135  44.332  1.00  0.00     0.000 C 
BRANCH  16  17
ATOM     17  C   UNL     1       4.851  22.488  45.421  1.00  0.00     0.000 C 
BRANCH  17  18
ATOM     18  C   UNL     1       5.989  23.407  45.898  1.00  0.00    -0.000 C 
BRANCH  18  19
ATOM     19  C   UNL     1       7.315  22.638  46.082  1.00  0.00    -0.000 C 
BRANCH  19  20
ATOM     20  C   UNL     1       8.406  23.041  45.075  1.00  0.00    -0.000 C 
BRANCH  20  21
ATOM     21  C   UNL     1       8.059  24.324  44.304  1.00  0.00    -0.000 C 
BRANCH  21  22
ATOM     22  C   UNL     1       7.481  24.049  42.903  1.00  0.00    -0.000 C 
BRANCH  22  23
ATOM     23  C   UNL     1       7.765  22.644  42.336  1.00  0.00    -0.000 C 
BRANCH  23  24
ATOM     24  C   UNL     1       6.509  21.955  41.780  1.00  0.00    -0.000 C 
BRANCH  24  25
ATOM     25  C   UNL     1       6.161  20.665  42.539  1.00  0.00    -0.003 C 
ATOM     26  C   UNL     1       7.355  20.077  43.291  1.00  0.00     0.004 C 
ENDBRANCH  24  25
ENDBRANCH  23  24
ENDBRANCH  22  23
ENDBRANCH  21  22
ENDBRANCH  20  21
ENDBRANCH  19  20
ENDBRANCH  18  19
ENDBRANCH  17  18
ENDBRANCH  16  17
ENDBRANCH  15  16
ENDBRANCH   1  15
TORSDOF 22
ENDMDL
MODEL 9
REMARK VINA RESULT:    -6.166      1.098      2.209
REMARK INTER + INTRA:         -17.555
REMARK INTER:                 -14.248
REMARK INTRA:                  -3.307
REMARK UNBOUND:                -3.459
REMARK SMILES CCCCCCCCCCCCCCCCCCCCCCCC(=O)[O-]
REMARK SMILES IDX 13 1 14 2 15 3 16 4 17 5 18 6 19 7 20 8 21 9 22 10 23 11
REMARK SMILES IDX 24 12 25 13 26 14 12 15 11 16 10 17 9 18 8 19 7 20 6 21 5 22
REMARK SMILES IDX 4 23 3 24 2 25 1 26
REMARK H PARENT
REMARK Flexibility Score: inf
ROOT
ATOM      1  C   UNL     1       2.495  24.890  44.006  1.00  0.00     0.000 C 
ENDROOT
BRANCH   1   2
ATOM      2  C   UNL     1       2.628  26.229  43.259  1.00  0.00     0.000 C 
BRANCH   2   3
ATOM      3  C   UNL     1       1.373  27.106  43.393  1.00  0.00     0.000 C 
BRANCH   3   4
ATOM      4  C   UNL     1       1.401  28.329  42.458  1.00  0.00     0.000 C 
BRANCH   4   5
ATOM      5  C   UNL     1       0.670  28.059  41.125  1.00  0.00     0.000 C 
BRANCH   5   6
ATOM      6  C   UNL     1       0.105  29.327  40.463  1.00  0.00     0.000 C 
BRANCH   6   7
ATOM      7  C   UNL     1       0.208  30.569  41.363  1.00  0.00     0.000 C 
BRANCH   7   8
ATOM      8  C   UNL     1      -1.157  31.221  41.632  1.00  0.00     0.000 C 
BRANCH   8   9
ATOM      9  C   UNL     1      -2.308  30.205  41.636  1.00  0.00     0.000 C 
BRANCH   9  10
ATOM     10  C   UNL     1      -2.811  29.951  43.066  1.00  0.00     0.006 C 
BRANCH  10  11
ATOM     11  C   UNL     1      -2.104  28.763  43.731  1.00  0.00     0.053 C 
BRANCH  11  12
ATOM     12  C   UNL     1      -1.340  29.184  44.950  1.00  0.00     0.041 C 
ATOM     13  O   UNL     1      -1.026  28.336  45.826  1.00  0.00    -0.550 OA
ATOM     14  O   UNL     1      -0.951  30.508  45.104  1.00  0.00    -0.550 OA
ENDBRANCH  11  12
ENDBRANCH  10  11
ENDBRANCH   9  10
ENDBRANCH   8   9
ENDBRANCH   7   8
ENDBRANCH   6   7
ENDBRANCH   5   6
ENDBRANCH   4   5
ENDBRANCH   3   4
ENDBRANCH   2   3
ENDBRANCH   1   2
BRANCH   1  15
ATOM     15  C   UNL     1       3.639  23.915  43.685  1.00  0.00     0.000 C 
BRANCH  15  16
ATOM     16  C   UNL     1       5.027  24.534  43.921  1.00  0.00     0.000 C 
BRANCH  16  17
ATOM     17  C   UNL     1       5.453  24.485  45.398  1.00  0.00     0.000 C 
BRANCH  17  18
ATOM     18  C   UNL     1       6.661  23.564  45.641  1.00  0.00    -0.000 C 
BRANCH  18  19
ATOM     19  C   UNL     1       6.349  22.461  46.676  1.00  0.00    -0.000 C 
BRANCH  19  20
ATOM     20  C   UNL     1       6.132  21.073  46.051  1.00  0.00    -0.000 C 
BRANCH  20  21
ATOM     21  C   UNL     1       4.710  20.883  45.499  1.00  0.00    -0.000 C 
BRANCH  21  22
ATOM     22  C   UNL     1       4.690  20.341  44.058  1.00  0.00    -0.000 C 
BRANCH  22  23
ATOM     23  C   UNL     1       6.038  20.395  43.314  1.00  0.00    -0.000 C 
BRANCH  23  24
ATOM     24  C   UNL     1       6.043  21.403  42.153  1.00  0.00    -0.000 C 
BRANCH  24  25
ATOM     25  C   UNL     1       7.303  22.284  42.144  1.00  0.00    -0.003 C 
ATOM     26  C   UNL     1       8.440  21.703  42.985  1.00  0.00     0.004 C 
ENDBRANCH  24  25
ENDBRANCH  23  24
ENDBRANCH  22  23
ENDBRANCH  21  22
ENDBRANCH  20  21
ENDBRANCH  19  20
ENDBRANCH  18  19
ENDBRANCH  17  18
ENDBRANCH  16  17
ENDBRANCH  15  16
ENDBRANCH   1  15
TORSDOF 22
ENDMDL
