MODEL 1
REMARK VINA RESULT:    -3.117      0.000      0.000
REMARK INTER + INTRA:          -4.070
REMARK INTER:                  -3.846
REMARK INTRA:                  -0.223
REMARK UNBOUND:                -0.223
REMARK SMILES CCCCC=CC(C)=O
REMARK SMILES IDX 4 1 3 2 2 3 1 4 5 5 6 6 7 7 9 8 8 9
REMARK H PARENT
REMARK Flexibility Score: inf
ROOT
ATOM      1  C   UNL     1     -32.675   1.524  59.059  1.00  0.00     0.027 C 
ENDROOT
BRANCH   1   2
ATOM      2  C   UNL     1     -32.044   1.205  57.695  1.00  0.00     0.004 C 
BRANCH   2   3
ATOM      3  C   UNL     1     -32.678   2.009  56.550  1.00  0.00    -0.003 C 
ATOM      4  C   UNL     1     -33.705   3.028  57.042  1.00  0.00     0.004 C 
ENDBRANCH   2   3
ENDBRANCH   1   2
BRANCH   1   5
ATOM      5  C   UNL     1     -32.781   0.291  59.909  1.00  0.00    -0.023 C 
ATOM      6  C   UNL     1     -32.197  -0.858  59.550  1.00  0.00     0.042 C 
BRANCH   6   7
ATOM      7  C   UNL     1     -32.278  -2.076  60.376  1.00  0.00     0.152 C 
ATOM      8  O   UNL     1     -32.653  -3.171  59.876  1.00  0.00    -0.295 OA
ATOM      9  C   UNL     1     -31.910  -2.014  61.823  1.00  0.00     0.093 C 
ENDBRANCH   6   7
ENDBRANCH   1   5
TORSDOF 4
ENDMDL
MODEL 2
REMARK VINA RESULT:    -3.052      2.722      5.461
REMARK INTER + INTRA:          -3.988
REMARK INTER:                  -3.884
REMARK INTRA:                  -0.105
REMARK UNBOUND:                -0.223
REMARK SMILES CCCCC=CC(C)=O
REMARK SMILES IDX 4 1 3 2 2 3 1 4 5 5 6 6 7 7 9 8 8 9
REMARK H PARENT
REMARK Flexibility Score: inf
ROOT
ATOM      1  C   UNL     1     -31.875   0.199  59.130  1.00  0.00     0.027 C 
ENDROOT
BRANCH   1   2
ATOM      2  C   UNL     1     -32.655  -0.666  60.132  1.00  0.00     0.004 C 
BRANCH   2   3
ATOM      3  C   UNL     1     -32.319  -2.160  60.006  1.00  0.00    -0.003 C 
ATOM      4  C   UNL     1     -33.432  -3.062  60.539  1.00  0.00     0.004 C 
ENDBRANCH   2   3
ENDBRANCH   1   2
BRANCH   1   5
ATOM      5  C   UNL     1     -32.773   1.204  58.467  1.00  0.00    -0.023 C 
ATOM      6  C   UNL     1     -32.449   1.767  57.297  1.00  0.00     0.042 C 
BRANCH   6   7
ATOM      7  C   UNL     1     -33.321   2.745  56.624  1.00  0.00     0.152 C 
ATOM      8  O   UNL     1     -33.596   3.848  57.169  1.00  0.00    -0.295 OA
ATOM      9  C   UNL     1     -33.886   2.429  55.276  1.00  0.00     0.093 C 
ENDBRANCH   6   7
ENDBRANCH   1   5
TORSDOF 4
ENDMDL
MODEL 3
REMARK VINA RESULT:    -3.045     20.261     21.899
REMARK INTER + INTRA:          -3.980
REMARK INTER:                  -3.809
REMARK INTRA:                  -0.171
REMARK UNBOUND:                -0.223
REMARK SMILES CCCCC=CC(C)=O
REMARK SMILES IDX 4 1 3 2 2 3 1 4 5 5 6 6 7 7 9 8 8 9
REMARK H PARENT
REMARK Flexibility Score: inf
ROOT
ATOM      1  C   UNL     1     -47.606  -1.288  46.114  1.00  0.00     0.027 C 
ENDROOT
BRANCH   1   2
ATOM      2  C   UNL     1     -46.876  -2.534  45.590  1.00  0.00     0.004 C 
BRANCH   2   3
ATOM      3  C   UNL     1     -45.348  -2.390  45.651  1.00  0.00    -0.003 C 
ATOM      4  C   UNL     1     -44.618  -3.631  45.136  1.00  0.00     0.004 C 
ENDBRANCH   2   3
ENDBRANCH   1   2
BRANCH   1   5
ATOM      5  C   UNL     1     -48.912  -1.085  45.402  1.00  0.00    -0.023 C 
ATOM      6  C   UNL     1     -49.326  -1.926  44.447  1.00  0.00     0.042 C 
BRANCH   6   7
ATOM      7  C   UNL     1     -50.609  -1.752  43.744  1.00  0.00     0.152 C 
ATOM      8  O   UNL     1     -50.717  -2.024  42.518  1.00  0.00    -0.295 OA
ATOM      9  C   UNL     1     -51.801  -1.248  44.494  1.00  0.00     0.093 C 
ENDBRANCH   6   7
ENDBRANCH   1   5
TORSDOF 4
ENDMDL
MODEL 4
REMARK VINA RESULT:    -3.040      1.673      2.270
REMARK INTER + INTRA:          -3.974
REMARK INTER:                  -3.799
REMARK INTRA:                  -0.175
REMARK UNBOUND:                -0.223
REMARK SMILES CCCCC=CC(C)=O
REMARK SMILES IDX 4 1 3 2 2 3 1 4 5 5 6 6 7 7 9 8 8 9
REMARK H PARENT
REMARK Flexibility Score: inf
ROOT
ATOM      1  C   UNL     1     -32.129   2.262  57.259  1.00  0.00     0.027 C 
ENDROOT
BRANCH   1   2
ATOM      2  C   UNL     1     -32.977   1.690  56.113  1.00  0.00     0.004 C 
BRANCH   2   3
ATOM      3  C   UNL     1     -33.842   2.761  55.430  1.00  0.00    -0.003 C 
ATOM      4  C   UNL     1     -35.310   2.350  55.319  1.00  0.00     0.004 C 
ENDBRANCH   2   3
ENDBRANCH   1   2
BRANCH   1   5
ATOM      5  C   UNL     1     -31.884   1.228  58.321  1.00  0.00    -0.023 C 
ATOM      6  C   UNL     1     -32.838   0.885  59.195  1.00  0.00     0.042 C 
BRANCH   6   7
ATOM      7  C   UNL     1     -32.623  -0.135  60.237  1.00  0.00     0.152 C 
ATOM      8  O   UNL     1     -32.761   0.148  61.457  1.00  0.00    -0.295 OA
ATOM      9  C   UNL     1     -32.238  -1.525  59.842  1.00  0.00     0.093 C 
ENDBRANCH   6   7
ENDBRANCH   1   5
TORSDOF 4
ENDMDL
MODEL 5
REMARK VINA RESULT:    -2.973     20.043     21.567
REMARK INTER + INTRA:          -3.892
REMARK INTER:                  -3.643
REMARK INTRA:                  -0.249
REMARK UNBOUND:                -0.223
REMARK SMILES CCCCC=CC(C)=O
REMARK SMILES IDX 4 1 3 2 2 3 1 4 5 5 6 6 7 7 9 8 8 9
REMARK H PARENT
REMARK Flexibility Score: inf
ROOT
ATOM      1  C   UNL     1     -49.541  -0.409  44.606  1.00  0.00     0.027 C 
ENDROOT
BRANCH   1   2
ATOM      2  C   UNL     1     -50.930  -0.898  45.043  1.00  0.00     0.004 C 
BRANCH   2   3
ATOM      3  C   UNL     1     -51.638  -1.714  43.951  1.00  0.00    -0.003 C 
ATOM      4  C   UNL     1     -50.843  -1.768  42.647  1.00  0.00     0.004 C 
ENDBRANCH   2   3
ENDBRANCH   1   2
BRANCH   1   5
ATOM      5  C   UNL     1     -48.476  -0.886  45.551  1.00  0.00    -0.023 C 
ATOM      6  C   UNL     1     -47.772  -1.998  45.306  1.00  0.00     0.042 C 
BRANCH   6   7
ATOM      7  C   UNL     1     -46.714  -2.478  46.213  1.00  0.00     0.152 C 
ATOM      8  O   UNL     1     -46.904  -2.523  47.459  1.00  0.00    -0.295 OA
ATOM      9  C   UNL     1     -45.401  -2.918  45.651  1.00  0.00     0.093 C 
ENDBRANCH   6   7
ENDBRANCH   1   5
TORSDOF 4
ENDMDL
MODEL 6
REMARK VINA RESULT:    -2.965      2.387      5.163
REMARK INTER + INTRA:          -3.882
REMARK INTER:                  -3.722
REMARK INTRA:                  -0.160
REMARK UNBOUND:                -0.223
REMARK SMILES CCCCC=CC(C)=O
REMARK SMILES IDX 4 1 3 2 2 3 1 4 5 5 6 6 7 7 9 8 8 9
REMARK H PARENT
REMARK Flexibility Score: inf
ROOT
ATOM      1  C   UNL     1     -32.149  -1.293  60.793  1.00  0.00     0.027 C 
ENDROOT
BRANCH   1   2
ATOM      2  C   UNL     1     -32.382  -2.703  60.229  1.00  0.00     0.004 C 
BRANCH   2   3
ATOM      3  C   UNL     1     -33.755  -3.273  60.616  1.00  0.00    -0.003 C 
ATOM      4  C   UNL     1     -33.998  -3.254  62.125  1.00  0.00     0.004 C 
ENDBRANCH   2   3
ENDBRANCH   1   2
BRANCH   1   5
ATOM      5  C   UNL     1     -32.609  -0.240  59.826  1.00  0.00    -0.023 C 
ATOM      6  C   UNL     1     -31.938   0.908  59.673  1.00  0.00     0.042 C 
BRANCH   6   7
ATOM      7  C   UNL     1     -32.365   1.949  58.721  1.00  0.00     0.152 C 
ATOM      8  O   UNL     1     -33.067   2.924  59.102  1.00  0.00    -0.295 OA
ATOM      9  C   UNL     1     -31.959   1.850  57.285  1.00  0.00     0.093 C 
ENDBRANCH   6   7
ENDBRANCH   1   5
TORSDOF 4
ENDMDL
MODEL 7
REMARK VINA RESULT:    -2.942     20.798     22.425
REMARK INTER + INTRA:          -3.853
REMARK INTER:                  -3.568
REMARK INTRA:                  -0.285
REMARK UNBOUND:                -0.223
REMARK SMILES CCCCC=CC(C)=O
REMARK SMILES IDX 4 1 3 2 2 3 1 4 5 5 6 6 7 7 9 8 8 9
REMARK H PARENT
REMARK Flexibility Score: inf
ROOT
ATOM      1  C   UNL     1     -50.981   0.041  44.829  1.00  0.00     0.027 C 
ENDROOT
BRANCH   1   2
ATOM      2  C   UNL     1     -51.627  -1.302  44.458  1.00  0.00     0.004 C 
BRANCH   2   3
ATOM      3  C   UNL     1     -52.007  -1.383  42.972  1.00  0.00    -0.003 C 
ATOM      4  C   UNL     1     -50.814  -1.708  42.075  1.00  0.00     0.004 C 
ENDBRANCH   2   3
ENDBRANCH   1   2
BRANCH   1   5
ATOM      5  C   UNL     1     -49.561  -0.147  45.280  1.00  0.00    -0.023 C 
ATOM      6  C   UNL     1     -48.963  -1.343  45.227  1.00  0.00     0.042 C 
BRANCH   6   7
ATOM      7  C   UNL     1     -47.567  -1.547  45.653  1.00  0.00     0.152 C 
ATOM      8  O   UNL     1     -47.006  -2.667  45.513  1.00  0.00    -0.295 OA
ATOM      9  C   UNL     1     -46.805  -0.411  46.257  1.00  0.00     0.093 C 
ENDBRANCH   6   7
ENDBRANCH   1   5
TORSDOF 4
ENDMDL
MODEL 8
REMARK VINA RESULT:    -2.884     15.279     16.371
REMARK INTER + INTRA:          -3.782
REMARK INTER:                  -3.574
REMARK INTRA:                  -0.208
REMARK UNBOUND:                -0.223
REMARK SMILES CCCCC=CC(C)=O
REMARK SMILES IDX 4 1 3 2 2 3 1 4 5 5 6 6 7 7 9 8 8 9
REMARK H PARENT
REMARK Flexibility Score: inf
ROOT
ATOM      1  C   UNL     1     -34.115  -6.581  44.420  1.00  0.00     0.027 C 
ENDROOT
BRANCH   1   2
ATOM      2  C   UNL     1     -33.789  -7.992  43.906  1.00  0.00     0.004 C 
BRANCH   2   3
ATOM      3  C   UNL     1     -32.602  -8.004  42.931  1.00  0.00    -0.003 C 
ATOM      4  C   UNL     1     -32.207  -6.603  42.465  1.00  0.00     0.004 C 
ENDBRANCH   2   3
ENDBRANCH   1   2
BRANCH   1   5
ATOM      5  C   UNL     1     -35.244  -6.612  45.410  1.00  0.00    -0.023 C 
ATOM      6  C   UNL     1     -36.004  -7.701  45.570  1.00  0.00     0.042 C 
BRANCH   6   7
ATOM      7  C   UNL     1     -37.109  -7.757  46.544  1.00  0.00     0.152 C 
ATOM      8  O   UNL     1     -37.824  -8.789  46.651  1.00  0.00    -0.295 OA
ATOM      9  C   UNL     1     -37.385  -6.575  47.417  1.00  0.00     0.093 C 
ENDBRANCH   6   7
ENDBRANCH   1   5
TORSDOF 4
ENDMDL
MODEL 9
REMARK VINA RESULT:    -2.817     23.227     24.050
REMARK INTER + INTRA:          -3.699
REMARK INTER:                  -3.462
REMARK INTRA:                  -0.237
REMARK UNBOUND:                -0.223
REMARK SMILES CCCCC=CC(C)=O
REMARK SMILES IDX 4 1 3 2 2 3 1 4 5 5 6 6 7 7 9 8 8 9
REMARK H PARENT
REMARK Flexibility Score: inf
ROOT
ATOM      1  C   UNL     1     -51.641  -1.334  44.624  1.00  0.00     0.027 C 
ENDROOT
BRANCH   1   2
ATOM      2  C   UNL     1     -50.391  -1.698  43.808  1.00  0.00     0.004 C 
BRANCH   2   3
ATOM      3  C   UNL     1     -50.676  -1.782  42.301  1.00  0.00    -0.003 C 
ATOM      4  C   UNL     1     -51.873  -0.932  41.878  1.00  0.00     0.004 C 
ENDBRANCH   2   3
ENDBRANCH   1   2
BRANCH   1   5
ATOM      5  C   UNL     1     -51.378  -0.160  45.524  1.00  0.00    -0.023 C 
ATOM      6  C   UNL     1     -51.988   1.016  45.334  1.00  0.00     0.042 C 
BRANCH   6   7
ATOM      7  C   UNL     1     -51.754   2.176  46.212  1.00  0.00     0.152 C 
ATOM      8  O   UNL     1     -51.490   2.018  47.435  1.00  0.00    -0.295 OA
ATOM      9  C   UNL     1     -51.828   3.558  45.647  1.00  0.00     0.093 C 
ENDBRANCH   6   7
ENDBRANCH   1   5
TORSDOF 4
ENDMDL
