MODEL 1
REMARK VINA RESULT:    -4.935      0.000      0.000
REMARK INTER + INTRA:          -5.752
REMARK INTER:                  -5.512
REMARK INTRA:                  -0.240
REMARK UNBOUND:                -0.240
REMARK SMILES COc1cc(C)ccc1C(C)C
REMARK SMILES IDX 6 1 5 2 4 3 3 4 9 5 8 6 7 7 2 8 1 9 10 10 11 11 12 12
REMARK H PARENT
REMARK Flexibility Score: inf
ROOT
ATOM      1  C   UNL     1      16.865  19.239  56.010  1.00  0.00     0.044 C 
ATOM      2  C   UNL     1      15.422  19.059  56.378  1.00  0.00    -0.047 A 
ATOM      3  C   UNL     1      14.534  18.454  55.479  1.00  0.00     0.050 A 
ATOM      4  C   UNL     1      13.168  18.311  55.797  1.00  0.00     0.122 A 
ATOM      5  C   UNL     1      12.688  18.796  57.039  1.00  0.00    -0.003 A 
ATOM      6  C   UNL     1      13.590  19.419  57.922  1.00  0.00     0.008 A 
ATOM      7  C   UNL     1      14.939  19.553  57.594  1.00  0.00     0.004 A 
ENDROOT
BRANCH   4   8
ATOM      8  O   UNL     1      12.274  17.698  54.905  1.00  0.00    -0.496 OA
ATOM      9  C   UNL     1      12.595  16.603  54.052  1.00  0.00     0.278 C 
ENDBRANCH   4   8
BRANCH   5  10
ATOM     10  C   UNL     1      11.226  18.677  57.454  1.00  0.00     0.017 C 
ATOM     11  C   UNL     1      11.079  18.343  58.943  1.00  0.00     0.012 C 
ATOM     12  C   UNL     1      10.421  19.926  57.072  1.00  0.00     0.012 C 
ENDBRANCH   5  10
TORSDOF 2
ENDMDL
MODEL 2
REMARK VINA RESULT:    -4.781      9.236     10.621
REMARK INTER + INTRA:          -5.580
REMARK INTER:                  -5.387
REMARK INTRA:                  -0.193
REMARK UNBOUND:                -0.240
REMARK SMILES COc1cc(C)ccc1C(C)C
REMARK SMILES IDX 6 1 5 2 4 3 3 4 9 5 8 6 7 7 2 8 1 9 10 10 11 11 12 12
REMARK H PARENT
REMARK Flexibility Score: inf
ROOT
ATOM      1  C   UNL     1      19.884  13.502  52.575  1.00  0.00     0.044 C 
ATOM      2  C   UNL     1      19.105  12.297  53.013  1.00  0.00    -0.047 A 
ATOM      3  C   UNL     1      19.772  11.141  53.439  1.00  0.00     0.050 A 
ATOM      4  C   UNL     1      19.053   9.990  53.819  1.00  0.00     0.122 A 
ATOM      5  C   UNL     1      17.638  10.001  53.757  1.00  0.00    -0.003 A 
ATOM      6  C   UNL     1      16.984  11.163  53.308  1.00  0.00     0.008 A 
ATOM      7  C   UNL     1      17.708  12.295  52.935  1.00  0.00     0.004 A 
ENDROOT
BRANCH   4   8
ATOM      8  O   UNL     1      19.715   8.830  54.256  1.00  0.00    -0.496 OA
ATOM      9  C   UNL     1      20.653   8.087  53.484  1.00  0.00     0.278 C 
ENDBRANCH   4   8
BRANCH   5  10
ATOM     10  C   UNL     1      16.793   8.795  54.151  1.00  0.00     0.017 C 
ATOM     11  C   UNL     1      15.347   9.191  54.476  1.00  0.00     0.012 C 
ATOM     12  C   UNL     1      16.851   7.686  53.093  1.00  0.00     0.012 C 
ENDBRANCH   5  10
TORSDOF 2
ENDMDL
MODEL 3
REMARK VINA RESULT:    -4.778      3.611      6.915
REMARK INTER + INTRA:          -5.577
REMARK INTER:                  -5.340
REMARK INTRA:                  -0.236
REMARK UNBOUND:                -0.240
REMARK SMILES COc1cc(C)ccc1C(C)C
REMARK SMILES IDX 6 1 5 2 4 3 3 4 9 5 8 6 7 7 2 8 1 9 10 10 11 11 12 12
REMARK H PARENT
REMARK Flexibility Score: inf
ROOT
ATOM      1  C   UNL     1       5.305  17.775  59.531  1.00  0.00     0.044 C 
ATOM      2  C   UNL     1       6.706  18.143  59.138  1.00  0.00    -0.047 A 
ATOM      3  C   UNL     1       7.620  18.574  60.108  1.00  0.00     0.050 A 
ATOM      4  C   UNL     1       8.928  18.957  59.748  1.00  0.00     0.122 A 
ATOM      5  C   UNL     1       9.316  18.916  58.386  1.00  0.00    -0.003 A 
ATOM      6  C   UNL     1       8.378  18.500  57.422  1.00  0.00     0.008 A 
ATOM      7  C   UNL     1       7.088  18.124  57.793  1.00  0.00     0.004 A 
ENDROOT
BRANCH   4   8
ATOM      8  O   UNL     1       9.854  19.381  60.715  1.00  0.00    -0.496 OA
ATOM      9  C   UNL     1       9.513  19.932  61.984  1.00  0.00     0.278 C 
ENDBRANCH   4   8
BRANCH   5  10
ATOM     10  C   UNL     1      10.712  19.315  57.920  1.00  0.00     0.017 C 
ATOM     11  C   UNL     1      11.194  18.449  56.751  1.00  0.00     0.012 C 
ATOM     12  C   UNL     1      10.798  20.811  57.590  1.00  0.00     0.012 C 
ENDBRANCH   5  10
TORSDOF 2
ENDMDL
MODEL 4
REMARK VINA RESULT:    -4.764      6.791      9.341
REMARK INTER + INTRA:          -5.561
REMARK INTER:                  -5.278
REMARK INTRA:                  -0.282
REMARK UNBOUND:                -0.240
REMARK SMILES COc1cc(C)ccc1C(C)C
REMARK SMILES IDX 6 1 5 2 4 3 3 4 9 5 8 6 7 7 2 8 1 9 10 10 11 11 12 12
REMARK H PARENT
REMARK Flexibility Score: inf
ROOT
ATOM      1  C   UNL     1       4.747  27.125  54.440  1.00  0.00     0.044 C 
ATOM      2  C   UNL     1       5.805  26.061  54.409  1.00  0.00    -0.047 A 
ATOM      3  C   UNL     1       5.659  24.945  53.576  1.00  0.00     0.050 A 
ATOM      4  C   UNL     1       6.628  23.920  53.564  1.00  0.00     0.122 A 
ATOM      5  C   UNL     1       7.756  24.019  54.416  1.00  0.00    -0.003 A 
ATOM      6  C   UNL     1       7.876  25.137  55.261  1.00  0.00     0.008 A 
ATOM      7  C   UNL     1       6.910  26.143  55.262  1.00  0.00     0.004 A 
ENDROOT
BRANCH   4   8
ATOM      8  O   UNL     1       6.494  22.803  52.724  1.00  0.00    -0.496 OA
ATOM      9  C   UNL     1       6.794  22.789  51.332  1.00  0.00     0.278 C 
ENDBRANCH   4   8
BRANCH   5  10
ATOM     10  C   UNL     1       8.844  22.952  54.458  1.00  0.00     0.017 C 
ATOM     11  C   UNL     1       9.978  23.252  53.471  1.00  0.00     0.012 C 
ATOM     12  C   UNL     1       9.374  22.734  55.881  1.00  0.00     0.012 C 
ENDBRANCH   5  10
TORSDOF 2
ENDMDL
MODEL 5
REMARK VINA RESULT:    -4.761      9.313     11.093
REMARK INTER + INTRA:          -5.557
REMARK INTER:                  -5.367
REMARK INTRA:                  -0.190
REMARK UNBOUND:                -0.240
REMARK SMILES COc1cc(C)ccc1C(C)C
REMARK SMILES IDX 6 1 5 2 4 3 3 4 9 5 8 6 7 7 2 8 1 9 10 10 11 11 12 12
REMARK H PARENT
REMARK Flexibility Score: inf
ROOT
ATOM      1  C   UNL     1      15.365   9.072  54.416  1.00  0.00     0.044 C 
ATOM      2  C   UNL     1      16.614   9.794  54.004  1.00  0.00    -0.047 A 
ATOM      3  C   UNL     1      17.870   9.215  54.225  1.00  0.00     0.050 A 
ATOM      4  C   UNL     1      19.053   9.897  53.876  1.00  0.00     0.122 A 
ATOM      5  C   UNL     1      18.967  11.191  53.304  1.00  0.00    -0.003 A 
ATOM      6  C   UNL     1      17.698  11.766  53.107  1.00  0.00     0.008 A 
ATOM      7  C   UNL     1      16.537  11.079  53.458  1.00  0.00     0.004 A 
ENDROOT
BRANCH   4   8
ATOM      8  O   UNL     1      20.316   9.319  54.086  1.00  0.00    -0.496 OA
ATOM      9  C   UNL     1      20.687   8.004  53.685  1.00  0.00     0.278 C 
ENDBRANCH   4   8
BRANCH   5  10
ATOM     10  C   UNL     1      20.201  11.990  52.901  1.00  0.00     0.017 C 
ATOM     11  C   UNL     1      20.834  11.452  51.612  1.00  0.00     0.012 C 
ATOM     12  C   UNL     1      19.902  13.491  52.801  1.00  0.00     0.012 C 
ENDBRANCH   5  10
TORSDOF 2
ENDMDL
MODEL 6
REMARK VINA RESULT:    -4.722      1.615      2.884
REMARK INTER + INTRA:          -5.514
REMARK INTER:                  -5.267
REMARK INTRA:                  -0.247
REMARK UNBOUND:                -0.240
REMARK SMILES COc1cc(C)ccc1C(C)C
REMARK SMILES IDX 6 1 5 2 4 3 3 4 9 5 8 6 7 7 2 8 1 9 10 10 11 11 12 12
REMARK H PARENT
REMARK Flexibility Score: inf
ROOT
ATOM      1  C   UNL     1      16.802  19.506  55.887  1.00  0.00     0.044 C 
ATOM      2  C   UNL     1      15.338  19.192  55.996  1.00  0.00    -0.047 A 
ATOM      3  C   UNL     1      14.707  19.198  57.246  1.00  0.00     0.050 A 
ATOM      4  C   UNL     1      13.341  18.870  57.368  1.00  0.00     0.122 A 
ATOM      5  C   UNL     1      12.604  18.519  56.210  1.00  0.00    -0.003 A 
ATOM      6  C   UNL     1      13.259  18.499  54.964  1.00  0.00     0.008 A 
ATOM      7  C   UNL     1      14.610  18.826  54.859  1.00  0.00     0.004 A 
ENDROOT
BRANCH   4   8
ATOM      8  O   UNL     1      12.698  18.882  58.616  1.00  0.00    -0.496 OA
ATOM      9  C   UNL     1      13.132  18.159  59.764  1.00  0.00     0.278 C 
ENDBRANCH   4   8
BRANCH   5  10
ATOM     10  C   UNL     1      11.125  18.152  56.262  1.00  0.00     0.017 C 
ATOM     11  C   UNL     1      10.225  19.373  56.033  1.00  0.00     0.012 C 
ATOM     12  C   UNL     1      10.785  17.010  55.297  1.00  0.00     0.012 C 
ENDBRANCH   5  10
TORSDOF 2
ENDMDL
MODEL 7
REMARK VINA RESULT:    -4.670      3.221      6.024
REMARK INTER + INTRA:          -5.455
REMARK INTER:                  -5.253
REMARK INTRA:                  -0.202
REMARK UNBOUND:                -0.240
REMARK SMILES COc1cc(C)ccc1C(C)C
REMARK SMILES IDX 6 1 5 2 4 3 3 4 9 5 8 6 7 7 2 8 1 9 10 10 11 11 12 12
REMARK H PARENT
REMARK Flexibility Score: inf
ROOT
ATOM      1  C   UNL     1       5.476  18.265  59.431  1.00  0.00     0.044 C 
ATOM      2  C   UNL     1       6.933  18.407  59.102  1.00  0.00    -0.047 A 
ATOM      3  C   UNL     1       7.367  18.327  57.773  1.00  0.00     0.050 A 
ATOM      4  C   UNL     1       8.737  18.423  57.452  1.00  0.00     0.122 A 
ATOM      5  C   UNL     1       9.685  18.590  58.492  1.00  0.00    -0.003 A 
ATOM      6  C   UNL     1       9.233  18.649  59.824  1.00  0.00     0.008 A 
ATOM      7  C   UNL     1       7.875  18.553  60.125  1.00  0.00     0.004 A 
ENDROOT
BRANCH   4   8
ATOM      8  O   UNL     1       9.179  18.353  56.121  1.00  0.00    -0.496 OA
ATOM      9  C   UNL     1       9.009  17.228  55.264  1.00  0.00     0.278 C 
ENDBRANCH   4   8
BRANCH   5  10
ATOM     10  C   UNL     1      11.181  18.702  58.224  1.00  0.00     0.017 C 
ATOM     11  C   UNL     1      11.572  20.102  57.738  1.00  0.00     0.012 C 
ATOM     12  C   UNL     1      12.013  18.271  59.439  1.00  0.00     0.012 C 
ENDBRANCH   5  10
TORSDOF 2
ENDMDL
MODEL 8
REMARK VINA RESULT:    -4.623      1.410      4.216
REMARK INTER + INTRA:          -5.403
REMARK INTER:                  -5.133
REMARK INTRA:                  -0.270
REMARK UNBOUND:                -0.240
REMARK SMILES COc1cc(C)ccc1C(C)C
REMARK SMILES IDX 6 1 5 2 4 3 3 4 9 5 8 6 7 7 2 8 1 9 10 10 11 11 12 12
REMARK H PARENT
REMARK Flexibility Score: inf
ROOT
ATOM      1  C   UNL     1       9.330  18.372  59.935  1.00  0.00     0.044 C 
ATOM      2  C   UNL     1      10.519  18.594  59.047  1.00  0.00    -0.047 A 
ATOM      3  C   UNL     1      10.340  18.990  57.714  1.00  0.00     0.050 A 
ATOM      4  C   UNL     1      11.446  19.166  56.858  1.00  0.00     0.122 A 
ATOM      5  C   UNL     1      12.753  18.929  57.352  1.00  0.00    -0.003 A 
ATOM      6  C   UNL     1      12.913  18.513  58.686  1.00  0.00     0.008 A 
ATOM      7  C   UNL     1      11.810  18.342  59.522  1.00  0.00     0.004 A 
ENDROOT
BRANCH   4   8
ATOM      8  O   UNL     1      11.276  19.572  55.525  1.00  0.00    -0.496 OA
ATOM      9  C   UNL     1      10.754  18.752  54.483  1.00  0.00     0.278 C 
ENDBRANCH   4   8
BRANCH   5  10
ATOM     10  C   UNL     1      13.997  19.099  56.487  1.00  0.00     0.017 C 
ATOM     11  C   UNL     1      15.215  19.525  57.315  1.00  0.00     0.012 C 
ATOM     12  C   UNL     1      14.289  17.845  55.653  1.00  0.00     0.012 C 
ENDBRANCH   5  10
TORSDOF 2
ENDMDL
MODEL 9
REMARK VINA RESULT:    -4.562      4.989      6.646
REMARK INTER + INTRA:          -5.335
REMARK INTER:                  -5.073
REMARK INTRA:                  -0.262
REMARK UNBOUND:                -0.240
REMARK SMILES COc1cc(C)ccc1C(C)C
REMARK SMILES IDX 6 1 5 2 4 3 3 4 9 5 8 6 7 7 2 8 1 9 10 10 11 11 12 12
REMARK H PARENT
REMARK Flexibility Score: inf
ROOT
ATOM      1  C   UNL     1       9.617  19.994  61.792  1.00  0.00     0.044 C 
ATOM      2  C   UNL     1       9.070  19.519  60.478  1.00  0.00    -0.047 A 
ATOM      3  C   UNL     1       7.852  18.828  60.430  1.00  0.00     0.050 A 
ATOM      4  C   UNL     1       7.344  18.344  59.207  1.00  0.00     0.122 A 
ATOM      5  C   UNL     1       8.082  18.551  58.015  1.00  0.00    -0.003 A 
ATOM      6  C   UNL     1       9.313  19.229  58.085  1.00  0.00     0.008 A 
ATOM      7  C   UNL     1       9.803  19.702  59.302  1.00  0.00     0.004 A 
ENDROOT
BRANCH   4   8
ATOM      8  O   UNL     1       6.119  17.659  59.148  1.00  0.00    -0.496 OA
ATOM      9  C   UNL     1       4.871  18.181  59.595  1.00  0.00     0.278 C 
ENDBRANCH   4   8
BRANCH   5  10
ATOM     10  C   UNL     1       7.597  18.058  56.657  1.00  0.00     0.017 C 
ATOM     11  C   UNL     1       6.683  19.080  55.970  1.00  0.00     0.012 C 
ATOM     12  C   UNL     1       8.763  17.642  55.751  1.00  0.00     0.012 C 
ENDBRANCH   5  10
TORSDOF 2
ENDMDL
