MODEL 1
REMARK VINA RESULT:    -5.339      0.000      0.000
REMARK INTER + INTRA:          -6.233
REMARK INTER:                  -6.119
REMARK INTRA:                  -0.114
REMARK UNBOUND:                -0.114
REMARK SMILES COc1cc(C(C)=O)ccc1O
REMARK SMILES IDX 5 1 4 2 3 3 11 4 10 5 9 6 6 7 7 8 8 9 2 10 1 11 12 12
REMARK H PARENT 12 13
REMARK Flexibility Score: inf
ROOT
ATOM      1  C   UNL     1      -7.612  21.201  68.364  1.00  0.00     0.021 A 
ATOM      2  C   UNL     1      -8.234  21.232  67.100  1.00  0.00     0.062 A 
ATOM      3  C   UNL     1      -8.504  20.039  66.398  1.00  0.00     0.161 A 
ATOM      4  C   UNL     1      -8.145  18.807  66.971  1.00  0.00     0.157 A 
ATOM      5  C   UNL     1      -7.527  18.773  68.223  1.00  0.00     0.051 A 
ATOM      6  C   UNL     1      -7.262  19.955  68.914  1.00  0.00     0.016 A 
ENDROOT
BRANCH   1   7
ATOM      7  C   UNL     1      -7.322  22.452  69.116  1.00  0.00     0.159 C 
ATOM      8  C   UNL     1      -7.141  23.771  68.426  1.00  0.00     0.093 C 
ATOM      9  O   UNL     1      -7.221  22.417  70.373  1.00  0.00    -0.295 OA
ENDBRANCH   1   7
BRANCH   3  10
ATOM     10  O   UNL     1      -9.125  20.043  65.137  1.00  0.00    -0.493 OA
ATOM     11  C   UNL     1      -8.450  20.258  63.902  1.00  0.00     0.278 C 
ENDBRANCH   3  10
BRANCH   4  12
ATOM     12  O   UNL     1      -8.394  17.604  66.309  1.00  0.00    -0.504 OA
ATOM     13  H   UNL     1      -7.666  16.923  66.133  1.00  0.00     0.293 HD
ENDBRANCH   4  12
TORSDOF 3
ENDMDL
MODEL 2
REMARK VINA RESULT:    -5.336      1.526      1.791
REMARK INTER + INTRA:          -6.229
REMARK INTER:                  -6.125
REMARK INTRA:                  -0.104
REMARK UNBOUND:                -0.114
REMARK SMILES COc1cc(C(C)=O)ccc1O
REMARK SMILES IDX 5 1 4 2 3 3 11 4 10 5 9 6 6 7 7 8 8 9 2 10 1 11 12 12
REMARK H PARENT 12 13
REMARK Flexibility Score: inf
ROOT
ATOM      1  C   UNL     1      -7.592  22.646  67.904  1.00  0.00     0.021 A 
ATOM      2  C   UNL     1      -7.910  22.087  66.651  1.00  0.00     0.062 A 
ATOM      3  C   UNL     1      -7.534  20.765  66.332  1.00  0.00     0.161 A 
ATOM      4  C   UNL     1      -6.831  20.003  67.281  1.00  0.00     0.157 A 
ATOM      5  C   UNL     1      -6.513  20.554  68.523  1.00  0.00     0.051 A 
ATOM      6  C   UNL     1      -6.888  21.862  68.835  1.00  0.00     0.016 A 
ENDROOT
BRANCH   1   7
ATOM      7  C   UNL     1      -7.983  24.039  68.255  1.00  0.00     0.159 C 
ATOM      8  C   UNL     1      -7.801  25.180  67.298  1.00  0.00     0.093 C 
ATOM      9  O   UNL     1      -8.483  24.282  69.386  1.00  0.00    -0.295 OA
ENDBRANCH   1   7
BRANCH   3  10
ATOM     10  O   UNL     1      -7.841  20.185  65.090  1.00  0.00    -0.493 OA
ATOM     11  C   UNL     1      -9.043  19.479  64.800  1.00  0.00     0.278 C 
ENDBRANCH   3  10
BRANCH   4  12
ATOM     12  O   UNL     1      -6.440  18.692  67.005  1.00  0.00    -0.504 OA
ATOM     13  H   UNL     1      -6.139  18.401  66.083  1.00  0.00     0.293 HD
ENDBRANCH   4  12
TORSDOF 3
ENDMDL
MODEL 3
REMARK VINA RESULT:    -5.273      1.211      4.373
REMARK INTER + INTRA:          -6.157
REMARK INTER:                  -6.066
REMARK INTRA:                  -0.091
REMARK UNBOUND:                -0.114
REMARK SMILES COc1cc(C(C)=O)ccc1O
REMARK SMILES IDX 5 1 4 2 3 3 11 4 10 5 9 6 6 7 7 8 8 9 2 10 1 11 12 12
REMARK H PARENT 12 13
REMARK Flexibility Score: inf
ROOT
ATOM      1  C   UNL     1      -7.501  19.868  67.642  1.00  0.00     0.021 A 
ATOM      2  C   UNL     1      -7.318  21.262  67.731  1.00  0.00     0.062 A 
ATOM      3  C   UNL     1      -7.215  21.900  68.984  1.00  0.00     0.161 A 
ATOM      4  C   UNL     1      -7.299  21.129  70.157  1.00  0.00     0.157 A 
ATOM      5  C   UNL     1      -7.481  19.748  70.073  1.00  0.00     0.051 A 
ATOM      6  C   UNL     1      -7.581  19.121  68.830  1.00  0.00     0.016 A 
ENDROOT
BRANCH   1   7
ATOM      7  C   UNL     1      -7.610  19.182  66.326  1.00  0.00     0.159 C 
ATOM      8  C   UNL     1      -6.887  19.678  65.109  1.00  0.00     0.093 C 
ATOM      9  O   UNL     1      -8.329  18.152  66.215  1.00  0.00    -0.295 OA
ENDBRANCH   1   7
BRANCH   3  10
ATOM     10  O   UNL     1      -7.032  23.288  69.099  1.00  0.00    -0.493 OA
ATOM     11  C   UNL     1      -7.355  24.236  68.086  1.00  0.00     0.278 C 
ENDBRANCH   3  10
BRANCH   4  12
ATOM     12  O   UNL     1      -7.202  21.722  71.417  1.00  0.00    -0.504 OA
ATOM     13  H   UNL     1      -7.141  21.176  72.267  1.00  0.00     0.293 HD
ENDBRANCH   4  12
TORSDOF 3
ENDMDL
MODEL 4
REMARK VINA RESULT:    -5.261      1.963      2.451
REMARK INTER + INTRA:          -6.143
REMARK INTER:                  -6.027
REMARK INTRA:                  -0.116
REMARK UNBOUND:                -0.114
REMARK SMILES COc1cc(C(C)=O)ccc1O
REMARK SMILES IDX 5 1 4 2 3 3 11 4 10 5 9 6 6 7 7 8 8 9 2 10 1 11 12 12
REMARK H PARENT 12 13
REMARK Flexibility Score: inf
ROOT
ATOM      1  C   UNL     1      -8.130  20.722  70.004  1.00  0.00     0.021 A 
ATOM      2  C   UNL     1      -8.120  21.372  68.755  1.00  0.00     0.062 A 
ATOM      3  C   UNL     1      -7.643  20.714  67.601  1.00  0.00     0.161 A 
ATOM      4  C   UNL     1      -7.173  19.394  67.708  1.00  0.00     0.157 A 
ATOM      5  C   UNL     1      -7.181  18.747  68.945  1.00  0.00     0.051 A 
ATOM      6  C   UNL     1      -7.654  19.401  70.083  1.00  0.00     0.016 A 
ENDROOT
BRANCH   1   7
ATOM      7  C   UNL     1      -8.631  21.403  71.229  1.00  0.00     0.159 C 
ATOM      8  C   UNL     1      -8.838  20.667  72.520  1.00  0.00     0.093 C 
ATOM      9  O   UNL     1      -8.895  22.636  71.196  1.00  0.00    -0.295 OA
ENDBRANCH   1   7
BRANCH   3  10
ATOM     10  O   UNL     1      -7.624  21.340  66.344  1.00  0.00    -0.493 OA
ATOM     11  C   UNL     1      -8.358  22.514  66.011  1.00  0.00     0.278 C 
ENDBRANCH   3  10
BRANCH   4  12
ATOM     12  O   UNL     1      -6.693  18.708  66.591  1.00  0.00    -0.504 OA
ATOM     13  H   UNL     1      -6.958  18.961  65.647  1.00  0.00     0.293 HD
ENDBRANCH   4  12
TORSDOF 3
ENDMDL
MODEL 5
REMARK VINA RESULT:    -5.260      2.294      3.738
REMARK INTER + INTRA:          -6.142
REMARK INTER:                  -6.028
REMARK INTRA:                  -0.114
REMARK UNBOUND:                -0.114
REMARK SMILES COc1cc(C(C)=O)ccc1O
REMARK SMILES IDX 5 1 4 2 3 3 11 4 10 5 9 6 6 7 7 8 8 9 2 10 1 11 12 12
REMARK H PARENT 12 13
REMARK Flexibility Score: inf
ROOT
ATOM      1  C   UNL     1      -7.877  22.451  68.698  1.00  0.00     0.021 A 
ATOM      2  C   UNL     1      -8.000  21.728  69.900  1.00  0.00     0.062 A 
ATOM      3  C   UNL     1      -7.730  20.344  69.944  1.00  0.00     0.161 A 
ATOM      4  C   UNL     1      -7.334  19.684  68.768  1.00  0.00     0.157 A 
ATOM      5  C   UNL     1      -7.211  20.397  67.574  1.00  0.00     0.051 A 
ATOM      6  C   UNL     1      -7.479  21.766  67.536  1.00  0.00     0.016 A 
ENDROOT
BRANCH   1   7
ATOM      7  C   UNL     1      -8.158  23.911  68.638  1.00  0.00     0.159 C 
ATOM      8  C   UNL     1      -7.651  24.773  67.520  1.00  0.00     0.093 C 
ATOM      9  O   UNL     1      -8.842  24.455  69.548  1.00  0.00    -0.295 OA
ENDBRANCH   1   7
BRANCH   3  10
ATOM     10  O   UNL     1      -7.845  19.601  71.131  1.00  0.00    -0.493 OA
ATOM     11  C   UNL     1      -8.051  20.164  72.422  1.00  0.00     0.278 C 
ENDBRANCH   3  10
BRANCH   4  12
ATOM     12  O   UNL     1      -7.057  18.317  68.767  1.00  0.00    -0.504 OA
ATOM     13  H   UNL     1      -6.191  17.941  68.402  1.00  0.00     0.293 HD
ENDBRANCH   4  12
TORSDOF 3
ENDMDL
MODEL 6
REMARK VINA RESULT:    -5.245      1.545      4.998
REMARK INTER + INTRA:          -6.125
REMARK INTER:                  -6.004
REMARK INTRA:                  -0.121
REMARK UNBOUND:                -0.114
REMARK SMILES COc1cc(C(C)=O)ccc1O
REMARK SMILES IDX 5 1 4 2 3 3 11 4 10 5 9 6 6 7 7 8 8 9 2 10 1 11 12 12
REMARK H PARENT 12 13
REMARK Flexibility Score: inf
ROOT
ATOM      1  C   UNL     1      -7.621  20.355  67.597  1.00  0.00     0.021 A 
ATOM      2  C   UNL     1      -7.547  19.926  68.937  1.00  0.00     0.062 A 
ATOM      3  C   UNL     1      -7.510  20.858  69.994  1.00  0.00     0.161 A 
ATOM      4  C   UNL     1      -7.545  22.233  69.700  1.00  0.00     0.157 A 
ATOM      5  C   UNL     1      -7.617  22.662  68.374  1.00  0.00     0.051 A 
ATOM      6  C   UNL     1      -7.655  21.735  67.331  1.00  0.00     0.016 A 
ENDROOT
BRANCH   1   7
ATOM      7  C   UNL     1      -7.662  19.382  66.471  1.00  0.00     0.159 C 
ATOM      8  C   UNL     1      -6.943  19.631  65.179  1.00  0.00     0.093 C 
ATOM      9  O   UNL     1      -8.318  18.312  66.593  1.00  0.00    -0.295 OA
ENDBRANCH   1   7
BRANCH   3  10
ATOM     10  O   UNL     1      -7.437  20.455  71.338  1.00  0.00    -0.493 OA
ATOM     11  C   UNL     1      -8.564  20.190  72.167  1.00  0.00     0.278 C 
ENDBRANCH   3  10
BRANCH   4  12
ATOM     12  O   UNL     1      -7.510  23.188  70.717  1.00  0.00    -0.504 OA
ATOM     13  H   UNL     1      -7.883  24.121  70.595  1.00  0.00     0.293 HD
ENDBRANCH   4  12
TORSDOF 3
ENDMDL
MODEL 7
REMARK VINA RESULT:    -5.120      2.202      3.266
REMARK INTER + INTRA:          -5.982
REMARK INTER:                  -5.868
REMARK INTRA:                  -0.114
REMARK UNBOUND:                -0.114
REMARK SMILES COc1cc(C(C)=O)ccc1O
REMARK SMILES IDX 5 1 4 2 3 3 11 4 10 5 9 6 6 7 7 8 8 9 2 10 1 11 12 12
REMARK H PARENT 12 13
REMARK Flexibility Score: inf
ROOT
ATOM      1  C   UNL     1      -7.882  20.244  70.150  1.00  0.00     0.021 A 
ATOM      2  C   UNL     1      -7.602  19.351  69.097  1.00  0.00     0.062 A 
ATOM      3  C   UNL     1      -7.529  19.805  67.763  1.00  0.00     0.161 A 
ATOM      4  C   UNL     1      -7.741  21.167  67.489  1.00  0.00     0.157 A 
ATOM      5  C   UNL     1      -8.019  22.055  68.530  1.00  0.00     0.051 A 
ATOM      6  C   UNL     1      -8.089  21.601  69.847  1.00  0.00     0.016 A 
ENDROOT
BRANCH   1   7
ATOM      7  C   UNL     1      -7.960  19.779  71.562  1.00  0.00     0.159 C 
ATOM      8  C   UNL     1      -8.091  20.737  72.708  1.00  0.00     0.093 C 
ATOM      9  O   UNL     1      -7.915  18.545  71.818  1.00  0.00    -0.295 OA
ENDBRANCH   1   7
BRANCH   3  10
ATOM     10  O   UNL     1      -7.251  18.934  66.697  1.00  0.00    -0.493 OA
ATOM     11  C   UNL     1      -8.237  18.275  65.909  1.00  0.00     0.278 C 
ENDBRANCH   3  10
BRANCH   4  12
ATOM     12  O   UNL     1      -7.678  21.656  66.184  1.00  0.00    -0.504 OA
ATOM     13  H   UNL     1      -8.093  22.541  65.918  1.00  0.00     0.293 HD
ENDBRANCH   4  12
TORSDOF 3
ENDMDL
MODEL 8
REMARK VINA RESULT:    -4.994      2.528      3.901
REMARK INTER + INTRA:          -5.837
REMARK INTER:                  -5.721
REMARK INTRA:                  -0.117
REMARK UNBOUND:                -0.114
REMARK SMILES COc1cc(C(C)=O)ccc1O
REMARK SMILES IDX 5 1 4 2 3 3 11 4 10 5 9 6 6 7 7 8 8 9 2 10 1 11 12 12
REMARK H PARENT 12 13
REMARK Flexibility Score: inf
ROOT
ATOM      1  C   UNL     1      -8.132  21.052  70.707  1.00  0.00     0.021 A 
ATOM      2  C   UNL     1      -7.986  20.447  69.444  1.00  0.00     0.062 A 
ATOM      3  C   UNL     1      -7.785  21.228  68.286  1.00  0.00     0.161 A 
ATOM      4  C   UNL     1      -7.731  22.628  68.403  1.00  0.00     0.157 A 
ATOM      5  C   UNL     1      -7.875  23.231  69.654  1.00  0.00     0.051 A 
ATOM      6  C   UNL     1      -8.073  22.454  70.796  1.00  0.00     0.016 A 
ENDROOT
BRANCH   1   7
ATOM      7  C   UNL     1      -8.344  20.240  71.937  1.00  0.00     0.159 C 
ATOM      8  C   UNL     1      -8.983  20.813  73.167  1.00  0.00     0.093 C 
ATOM      9  O   UNL     1      -7.979  19.033  71.960  1.00  0.00    -0.295 OA
ENDBRANCH   1   7
BRANCH   3  10
ATOM     10  O   UNL     1      -7.637  20.648  67.015  1.00  0.00    -0.493 OA
ATOM     11  C   UNL     1      -7.006  19.397  66.763  1.00  0.00     0.278 C 
ENDBRANCH   3  10
BRANCH   4  12
ATOM     12  O   UNL     1      -7.533  23.437  67.283  1.00  0.00    -0.504 OA
ATOM     13  H   UNL     1      -6.631  23.836  67.058  1.00  0.00     0.293 HD
ENDBRANCH   4  12
TORSDOF 3
ENDMDL
MODEL 9
REMARK VINA RESULT:    -4.917      2.043      3.712
REMARK INTER + INTRA:          -5.750
REMARK INTER:                  -5.614
REMARK INTRA:                  -0.135
REMARK UNBOUND:                -0.114
REMARK SMILES COc1cc(C(C)=O)ccc1O
REMARK SMILES IDX 5 1 4 2 3 3 11 4 10 5 9 6 6 7 7 8 8 9 2 10 1 11 12 12
REMARK H PARENT 12 13
REMARK Flexibility Score: inf
ROOT
ATOM      1  C   UNL     1      -8.005  21.608  66.847  1.00  0.00     0.021 A 
ATOM      2  C   UNL     1      -7.775  21.664  68.236  1.00  0.00     0.062 A 
ATOM      3  C   UNL     1      -7.523  20.490  68.975  1.00  0.00     0.161 A 
ATOM      4  C   UNL     1      -7.503  19.251  68.312  1.00  0.00     0.157 A 
ATOM      5  C   UNL     1      -7.730  19.191  66.936  1.00  0.00     0.051 A 
ATOM      6  C   UNL     1      -7.979  20.356  66.208  1.00  0.00     0.016 A 
ENDROOT
BRANCH   1   7
ATOM      7  C   UNL     1      -8.272  22.839  66.054  1.00  0.00     0.159 C 
ATOM      8  C   UNL     1      -8.473  22.799  64.568  1.00  0.00     0.093 C 
ATOM      9  O   UNL     1      -8.331  23.957  66.635  1.00  0.00    -0.295 OA
ENDBRANCH   1   7
BRANCH   3  10
ATOM     10  O   UNL     1      -7.290  20.520  70.360  1.00  0.00    -0.493 OA
ATOM     11  C   UNL     1      -8.264  20.867  71.339  1.00  0.00     0.278 C 
ENDBRANCH   3  10
BRANCH   4  12
ATOM     12  O   UNL     1      -7.257  18.066  69.007  1.00  0.00    -0.504 OA
ATOM     13  H   UNL     1      -6.968  18.058  69.977  1.00  0.00     0.293 HD
ENDBRANCH   4  12
TORSDOF 3
ENDMDL
