MODEL 1
REMARK VINA RESULT:    14.796      0.000      0.000
REMARK INTER + INTRA:          20.131
REMARK INTER:                  19.985
REMARK INTRA:                   0.146
REMARK UNBOUND:                 0.146
REMARK SMILES C=C(C)[C@H]1CC[C@H](C)C2=C(C1)[C@H](C)CC2
REMARK SMILES IDX 10 1 9 2 15 3 14 4 12 5 13 6 7 7 8 8 6 9 11 11 4 12 5 13
REMARK SMILES IDX 2 15 1 16 3 17
REMARK H PARENT
REMARK Flexibility Score: 80.00
ROOT
ATOM      1  C   UNL     1     151.531 135.881 162.465  1.00  0.00    -0.067 C 
ATOM      2  C   UNL     1     150.818 135.795 163.588  1.00  0.00    -0.068 C 
ATOM      3  C   UNL     1     151.370 136.691 164.652  1.00  0.00     0.032 C 
ATOM      4  C   UNL     1     152.447 137.514 163.947  1.00  0.00     0.012 C 
ATOM      5  C   UNL     1     152.685 136.824 162.595  1.00  0.00     0.012 C 
ATOM      6  C   UNL     1     154.018 136.065 162.573  1.00  0.00     0.012 C 
ENDROOT
BRANCH   2   7
ATOM      7  C   UNL     1     149.613 134.881 163.755  1.00  0.00     0.012 C 
ATOM      8  C   UNL     1     149.089 134.875 165.201  1.00  0.00     0.012 C 
BRANCH   7   9
ATOM      9  C   UNL     1     148.484 135.290 162.783  1.00  0.00     0.008 CG0
ATOM     10  G   UNL     1     148.761 134.870 161.329  1.00  0.00     0.000 G0
ENDBRANCH   7   9
ENDBRANCH   2   7
BRANCH   1  11
ATOM     11  C   UNL     1     151.220 135.131 161.193  1.00  0.00     0.039 C 
BRANCH  11  12
ATOM     12  C   UNL     1     149.856 135.551 160.601  1.00  0.00     0.018 C 
BRANCH  12  13
ATOM     13  C   UNL     1     148.667 134.886 161.333  1.00  0.00     0.009 CG0
ATOM     14  G   UNL     1     148.503 135.339 162.794  1.00  0.00     0.000 G0
ENDBRANCH  12  13
BRANCH  12  15
ATOM     15  C   UNL     1     149.801 135.222 159.114  1.00  0.00    -0.077 C 
ATOM     16  C   UNL     1     150.926 135.065 158.395  1.00  0.00     0.008 C 
ATOM     17  C   UNL     1     148.472 135.069 158.418  1.00  0.00     0.039 C 
ENDBRANCH  12  15
ENDBRANCH  11  12
ENDBRANCH   1  11
TORSDOF 1
ENDMDL
MODEL 2
REMARK VINA RESULT:    14.945     11.559     12.675
REMARK INTER + INTRA:          20.333
REMARK INTER:                  20.209
REMARK INTRA:                   0.124
REMARK UNBOUND:                 0.146
REMARK SMILES C=C(C)[C@H]1CC[C@H](C)C2=C(C1)[C@H](C)CC2
REMARK SMILES IDX 10 1 9 2 15 3 14 4 12 5 13 6 7 7 8 8 6 9 11 11 4 12 5 13
REMARK SMILES IDX 2 15 1 16 3 17
REMARK H PARENT
REMARK Flexibility Score: 80.00
ROOT
ATOM      1  C   UNL     1     145.151 145.850 162.796  1.00  0.00    -0.067 C 
ATOM      2  C   UNL     1     145.415 144.725 163.462  1.00  0.00    -0.068 C 
ATOM      3  C   UNL     1     146.098 143.722 162.586  1.00  0.00     0.032 C 
ATOM      4  C   UNL     1     146.402 144.479 161.293  1.00  0.00     0.012 C 
ATOM      5  C   UNL     1     145.589 145.781 161.368  1.00  0.00     0.012 C 
ATOM      6  C   UNL     1     144.380 145.748 160.425  1.00  0.00     0.012 C 
ENDROOT
BRANCH   2   7
ATOM      7  C   UNL     1     145.042 144.499 164.919  1.00  0.00     0.012 C 
ATOM      8  C   UNL     1     145.303 143.051 165.365  1.00  0.00     0.012 C 
BRANCH   7   9
ATOM      9  C   UNL     1     145.808 145.482 165.833  1.00  0.00     0.008 CG0
ATOM     10  G   UNL     1     145.184 146.888 165.862  1.00  0.00     0.000 G0
ENDBRANCH   7   9
ENDBRANCH   2   7
BRANCH   1  11
ATOM     11  C   UNL     1     144.497 147.068 163.399  1.00  0.00     0.039 C 
BRANCH  11  12
ATOM     12  C   UNL     1     145.350 147.670 164.539  1.00  0.00     0.018 C 
BRANCH  12  13
ATOM     13  C   UNL     1     145.195 146.890 165.864  1.00  0.00     0.009 CG0
ATOM     14  G   UNL     1     145.811 145.481 165.834  1.00  0.00     0.000 G0
ENDBRANCH  12  13
BRANCH  12  15
ATOM     15  C   UNL     1     144.989 149.136 164.752  1.00  0.00    -0.077 C 
ATOM     16  C   UNL     1     144.968 149.673 165.984  1.00  0.00     0.008 C 
ATOM     17  C   UNL     1     144.645 150.012 163.575  1.00  0.00     0.039 C 
ENDBRANCH  12  15
ENDBRANCH  11  12
ENDBRANCH   1  11
TORSDOF 1
ENDMDL
MODEL 3
REMARK VINA RESULT:    15.104      9.960     11.003
REMARK INTER + INTRA:          20.548
REMARK INTER:                  20.423
REMARK INTRA:                   0.125
REMARK UNBOUND:                 0.146
REMARK SMILES C=C(C)[C@H]1CC[C@H](C)C2=C(C1)[C@H](C)CC2
REMARK SMILES IDX 10 1 9 2 15 3 14 4 12 5 13 6 7 7 8 8 6 9 11 11 4 12 5 13
REMARK SMILES IDX 2 15 1 16 3 17
REMARK H PARENT
REMARK Flexibility Score: 80.00
ROOT
ATOM      1  C   UNL     1     145.655 144.867 162.848  1.00  0.00    -0.067 C 
ATOM      2  C   UNL     1     145.356 145.979 163.522  1.00  0.00    -0.068 C 
ATOM      3  C   UNL     1     144.688 146.986 162.639  1.00  0.00     0.032 C 
ATOM      4  C   UNL     1     144.436 146.244 161.326  1.00  0.00     0.012 C 
ATOM      5  C   UNL     1     145.262 144.952 161.408  1.00  0.00     0.012 C 
ATOM      6  C   UNL     1     146.501 145.014 160.505  1.00  0.00     0.012 C 
ENDROOT
BRANCH   2   7
ATOM      7  C   UNL     1     145.678 146.187 164.993  1.00  0.00     0.012 C 
ATOM      8  C   UNL     1     145.384 147.625 165.452  1.00  0.00     0.012 C 
BRANCH   7   9
ATOM      9  C   UNL     1     144.898 145.181 165.867  1.00  0.00     0.008 CG0
ATOM     10  G   UNL     1     145.532 143.779 165.885  1.00  0.00     0.000 G0
ENDBRANCH   7   9
ENDBRANCH   2   7
BRANCH   1  11
ATOM     11  C   UNL     1     146.306 143.648 163.454  1.00  0.00     0.039 C 
BRANCH  11  12
ATOM     12  C   UNL     1     145.421 143.014 164.552  1.00  0.00     0.018 C 
BRANCH  12  13
ATOM     13  C   UNL     1     145.519 143.771 165.896  1.00  0.00     0.009 CG0
ATOM     14  G   UNL     1     144.903 145.180 165.864  1.00  0.00     0.000 G0
ENDBRANCH  12  13
BRANCH  12  15
ATOM     15  C   UNL     1     145.793 141.550 164.751  1.00  0.00    -0.077 C 
ATOM     16  C   UNL     1     145.832 141.004 165.978  1.00  0.00     0.008 C 
ATOM     17  C   UNL     1     146.130 140.684 163.564  1.00  0.00     0.039 C 
ENDBRANCH  12  15
ENDBRANCH  11  12
ENDBRANCH   1  11
TORSDOF 1
ENDMDL
MODEL 4
REMARK VINA RESULT:    16.285     11.086     12.178
REMARK INTER + INTRA:          22.143
REMARK INTER:                  22.013
REMARK INTRA:                   0.130
REMARK UNBOUND:                 0.146
REMARK SMILES C=C(C)[C@H]1CC[C@H](C)C2=C(C1)[C@H](C)CC2
REMARK SMILES IDX 10 1 9 2 15 3 14 4 12 5 13 6 7 7 8 8 6 9 11 11 4 12 5 13
REMARK SMILES IDX 2 15 1 16 3 17
REMARK H PARENT
REMARK Flexibility Score: 80.00
ROOT
ATOM      1  C   UNL     1     145.582 146.635 161.021  1.00  0.00    -0.067 C 
ATOM      2  C   UNL     1     145.641 145.431 160.451  1.00  0.00    -0.068 C 
ATOM      3  C   UNL     1     146.353 145.487 159.135  1.00  0.00     0.032 C 
ATOM      4  C   UNL     1     146.911 146.908 159.057  1.00  0.00     0.012 C 
ATOM      5  C   UNL     1     146.217 147.695 160.179  1.00  0.00     0.012 C 
ATOM      6  C   UNL     1     145.162 148.660 159.625  1.00  0.00     0.012 C 
ENDROOT
BRANCH   2   7
ATOM      7  C   UNL     1     145.039 144.176 161.063  1.00  0.00     0.012 C 
ATOM      8  C   UNL     1     145.095 142.978 160.101  1.00  0.00     0.012 C 
BRANCH   7   9
ATOM      9  C   UNL     1     145.750 143.825 162.389  1.00  0.00     0.008 CG0
ATOM     10  G   UNL     1     145.262 144.671 163.577  1.00  0.00     0.000 G0
ENDBRANCH   7   9
ENDBRANCH   2   7
BRANCH   1  11
ATOM     11  C   UNL     1     144.958 146.915 162.366  1.00  0.00     0.039 C 
BRANCH  11  12
ATOM     12  C   UNL     1     145.683 146.157 163.501  1.00  0.00     0.018 C 
BRANCH  12  13
ATOM     13  C   UNL     1     145.266 144.671 163.576  1.00  0.00     0.009 CG0
ATOM     14  G   UNL     1     145.754 143.826 162.386  1.00  0.00     0.000 G0
ENDBRANCH  12  13
BRANCH  12  15
ATOM     15  C   UNL     1     145.425 146.838 164.840  1.00  0.00    -0.077 C 
ATOM     16  C   UNL     1     145.564 146.168 165.998  1.00  0.00     0.008 C 
ATOM     17  C   UNL     1     145.005 148.284 164.889  1.00  0.00     0.039 C 
ENDBRANCH  12  15
ENDBRANCH  11  12
ENDBRANCH   1  11
TORSDOF 1
ENDMDL
MODEL 5
REMARK VINA RESULT:    16.351     10.615     11.904
REMARK INTER + INTRA:          22.232
REMARK INTER:                  22.110
REMARK INTRA:                   0.122
REMARK UNBOUND:                 0.146
REMARK SMILES C=C(C)[C@H]1CC[C@H](C)C2=C(C1)[C@H](C)CC2
REMARK SMILES IDX 10 1 9 2 15 3 14 4 12 5 13 6 7 7 8 8 6 9 11 11 4 12 5 13
REMARK SMILES IDX 2 15 1 16 3 17
REMARK H PARENT
REMARK Flexibility Score: 80.00
ROOT
ATOM      1  C   UNL     1     145.217 144.275 161.135  1.00  0.00    -0.067 C 
ATOM      2  C   UNL     1     145.158 145.442 160.492  1.00  0.00    -0.068 C 
ATOM      3  C   UNL     1     144.477 145.298 159.167  1.00  0.00     0.032 C 
ATOM      4  C   UNL     1     143.935 143.869 159.162  1.00  0.00     0.012 C 
ATOM      5  C   UNL     1     144.612 143.159 160.345  1.00  0.00     0.012 C 
ATOM      6  C   UNL     1     145.689 142.175 159.873  1.00  0.00     0.012 C 
ENDROOT
BRANCH   2   7
ATOM      7  C   UNL     1     145.733 146.739 161.041  1.00  0.00     0.012 C 
ATOM      8  C   UNL     1     145.688 147.875 160.006  1.00  0.00     0.012 C 
BRANCH   7   9
ATOM      9  C   UNL     1     144.987 147.161 162.327  1.00  0.00     0.008 CG0
ATOM     10  G   UNL     1     145.447 146.385 163.572  1.00  0.00     0.000 G0
ENDBRANCH   7   9
ENDBRANCH   2   7
BRANCH   1  11
ATOM     11  C   UNL     1     145.813 144.083 162.508  1.00  0.00     0.039 C 
BRANCH  11  12
ATOM     12  C   UNL     1     145.051 144.894 163.580  1.00  0.00     0.018 C 
BRANCH  12  13
ATOM     13  C   UNL     1     145.446 146.389 163.578  1.00  0.00     0.009 CG0
ATOM     14  G   UNL     1     144.976 147.156 162.331  1.00  0.00     0.000 G0
ENDBRANCH  12  13
BRANCH  12  15
ATOM     15  C   UNL     1     145.285 144.296 164.962  1.00  0.00    -0.077 C 
ATOM     16  C   UNL     1     145.393 142.967 165.134  1.00  0.00     0.008 C 
ATOM     17  C   UNL     1     145.398 145.192 166.169  1.00  0.00     0.039 C 
ENDBRANCH  12  15
ENDBRANCH  11  12
ENDBRANCH   1  11
TORSDOF 1
ENDMDL
MODEL 6
REMARK VINA RESULT:    16.583     13.105     14.282
REMARK INTER + INTRA:          22.546
REMARK INTER:                  22.403
REMARK INTRA:                   0.142
REMARK UNBOUND:                 0.146
REMARK SMILES C=C(C)[C@H]1CC[C@H](C)C2=C(C1)[C@H](C)CC2
REMARK SMILES IDX 10 1 9 2 15 3 14 4 12 5 13 6 7 7 8 8 6 9 11 11 4 12 5 13
REMARK SMILES IDX 2 15 1 16 3 17
REMARK H PARENT
REMARK Flexibility Score: 80.00
ROOT
ATOM      1  C   UNL     1     145.197 146.735 161.813  1.00  0.00    -0.067 C 
ATOM      2  C   UNL     1     144.986 147.528 160.761  1.00  0.00    -0.068 C 
ATOM      3  C   UNL     1     144.473 146.752 159.589  1.00  0.00     0.032 C 
ATOM      4  C   UNL     1     144.206 145.351 160.139  1.00  0.00     0.012 C 
ATOM      5  C   UNL     1     144.885 145.303 161.517  1.00  0.00     0.012 C 
ATOM      6  C   UNL     1     146.164 144.458 161.488  1.00  0.00     0.012 C 
ENDROOT
BRANCH   2   7
ATOM      7  C   UNL     1     145.259 149.025 160.764  1.00  0.00     0.012 C 
ATOM      8  C   UNL     1     145.091 149.645 159.367  1.00  0.00     0.012 C 
BRANCH   7   9
ATOM      9  C   UNL     1     144.340 149.741 161.778  1.00  0.00     0.008 CG0
ATOM     10  G   UNL     1     144.825 149.607 163.231  1.00  0.00     0.000 G0
ENDBRANCH   7   9
ENDBRANCH   2   7
BRANCH   1  11
ATOM     11  C   UNL     1     145.684 147.211 163.159  1.00  0.00     0.039 C 
BRANCH  11  12
ATOM     12  C   UNL     1     144.698 148.211 163.803  1.00  0.00     0.018 C 
BRANCH  12  13
ATOM     13  C   UNL     1     144.831 149.633 163.211  1.00  0.00     0.009 CG0
ATOM     14  G   UNL     1     144.325 149.755 161.763  1.00  0.00     0.000 G0
ENDBRANCH  12  13
BRANCH  12  15
ATOM     15  C   UNL     1     144.900 148.256 165.313  1.00  0.00    -0.077 C 
ATOM     16  C   UNL     1     144.700 149.390 166.007  1.00  0.00     0.008 C 
ATOM     17  C   UNL     1     145.333 147.019 166.058  1.00  0.00     0.039 C 
ENDBRANCH  12  15
ENDBRANCH  11  12
ENDBRANCH   1  11
TORSDOF 1
ENDMDL
MODEL 7
REMARK VINA RESULT:    16.812      1.651      3.425
REMARK INTER + INTRA:          22.854
REMARK INTER:                  22.695
REMARK INTRA:                   0.159
REMARK UNBOUND:                 0.146
REMARK SMILES C=C(C)[C@H]1CC[C@H](C)C2=C(C1)[C@H](C)CC2
REMARK SMILES IDX 10 1 9 2 15 3 14 4 12 5 13 6 7 7 8 8 6 9 11 11 4 12 5 13
REMARK SMILES IDX 2 15 1 16 3 17
REMARK H PARENT
REMARK Flexibility Score: 80.00
ROOT
ATOM      1  C   UNL     1     150.968 136.782 163.917  1.00  0.00    -0.067 C 
ATOM      2  C   UNL     1     152.288 136.596 163.880  1.00  0.00    -0.068 C 
ATOM      3  C   UNL     1     152.896 136.746 165.240  1.00  0.00     0.032 C 
ATOM      4  C   UNL     1     151.703 136.866 166.187  1.00  0.00     0.012 C 
ATOM      5  C   UNL     1     150.478 137.106 165.292  1.00  0.00     0.012 C 
ATOM      6  C   UNL     1     149.995 138.560 165.372  1.00  0.00     0.012 C 
ENDROOT
BRANCH   2   7
ATOM      7  C   UNL     1     153.064 136.294 162.607  1.00  0.00     0.012 C 
ATOM      8  C   UNL     1     154.584 136.325 162.834  1.00  0.00     0.012 C 
BRANCH   7   9
ATOM      9  C   UNL     1     152.641 134.926 162.027  1.00  0.00     0.008 CG0
ATOM     10  G   UNL     1     151.345 134.996 161.202  1.00  0.00     0.000 G0
ENDBRANCH   7   9
ENDBRANCH   2   7
BRANCH   1  11
ATOM     11  C   UNL     1     150.054 136.669 162.722  1.00  0.00     0.039 C 
BRANCH  11  12
ATOM     12  C   UNL     1     150.101 135.256 162.098  1.00  0.00     0.018 C 
BRANCH  12  13
ATOM     13  C   UNL     1     151.358 135.039 161.226  1.00  0.00     0.009 CG0
ATOM     14  G   UNL     1     152.660 134.899 162.034  1.00  0.00     0.000 G0
ENDBRANCH  12  13
BRANCH  12  15
ATOM     15  C   UNL     1     148.845 135.001 161.272  1.00  0.00    -0.077 C 
ATOM     16  C   UNL     1     147.642 134.875 161.859  1.00  0.00     0.008 C 
ATOM     17  C   UNL     1     148.933 134.883 159.772  1.00  0.00     0.039 C 
ENDBRANCH  12  15
ENDBRANCH  11  12
ENDBRANCH   1  11
TORSDOF 1
ENDMDL
