MODEL 1
REMARK VINA RESULT:    -4.772      0.000      0.000
REMARK INTER + INTRA:         -10.883
REMARK INTER:                  -8.956
REMARK INTRA:                  -1.927
REMARK UNBOUND:                -1.927
REMARK SMILES O=C([O-])CCCCCCCCCCCCCCC(=O)[O-]
REMARK SMILES IDX 10 1 9 2 8 3 7 4 6 5 5 6 4 7 2 8 1 9 3 10 11 11 12 12 13 13
REMARK SMILES IDX 14 14 15 15 16 16 17 17 18 18 19 19 20 20
REMARK H PARENT
REMARK Flexibility Score: inf
ROOT
ATOM      1  C   UNL     1     -23.865 -63.148   2.551  1.00  0.00     0.000 C 
ENDROOT
BRANCH   1   2
ATOM      2  C   UNL     1     -22.716 -62.311   1.960  1.00  0.00     0.000 C 
BRANCH   2   3
ATOM      3  C   UNL     1     -23.145 -60.879   1.594  1.00  0.00     0.000 C 
BRANCH   3   4
ATOM      4  C   UNL     1     -24.672 -60.676   1.699  1.00  0.00     0.000 C 
BRANCH   4   5
ATOM      5  C   UNL     1     -25.179 -59.381   1.036  1.00  0.00     0.000 C 
BRANCH   5   6
ATOM      6  C   UNL     1     -25.780 -59.560  -0.372  1.00  0.00     0.006 C 
BRANCH   6   7
ATOM      7  C   UNL     1     -24.743 -59.584  -1.506  1.00  0.00     0.053 C 
BRANCH   7   8
ATOM      8  C   UNL     1     -23.983 -58.297  -1.594  1.00  0.00     0.041 C 
ATOM      9  O   UNL     1     -22.759 -58.260  -1.301  1.00  0.00    -0.550 OA
ATOM     10  O   UNL     1     -24.634 -57.129  -1.970  1.00  0.00    -0.550 OA
ENDBRANCH   7   8
ENDBRANCH   6   7
ENDBRANCH   5   6
ENDBRANCH   4   5
ENDBRANCH   3   4
ENDBRANCH   2   3
ENDBRANCH   1   2
BRANCH   1  11
ATOM     11  C   UNL     1     -23.774 -63.400   4.069  1.00  0.00     0.000 C 
BRANCH  11  12
ATOM     12  C   UNL     1     -22.558 -62.762   4.770  1.00  0.00     0.000 C 
BRANCH  12  13
ATOM     13  C   UNL     1     -22.906 -61.799   5.919  1.00  0.00     0.000 C 
BRANCH  13  14
ATOM     14  C   UNL     1     -22.645 -60.327   5.560  1.00  0.00     0.000 C 
BRANCH  14  15
ATOM     15  C   UNL     1     -23.925 -59.585   5.148  1.00  0.00     0.000 C 
BRANCH  15  16
ATOM     16  C   UNL     1     -23.634 -58.333   4.301  1.00  0.00     0.006 C 
BRANCH  16  17
ATOM     17  C   UNL     1     -22.454 -57.522   4.854  1.00  0.00     0.053 C 
BRANCH  17  18
ATOM     18  C   UNL     1     -22.904 -56.494   5.845  1.00  0.00     0.041 C 
ATOM     19  O   UNL     1     -22.066 -55.921   6.590  1.00  0.00    -0.550 OA
ATOM     20  O   UNL     1     -24.247 -56.144   5.923  1.00  0.00    -0.550 OA
ENDBRANCH  17  18
ENDBRANCH  16  17
ENDBRANCH  15  16
ENDBRANCH  14  15
ENDBRANCH  13  14
ENDBRANCH  12  13
ENDBRANCH  11  12
ENDBRANCH   1  11
TORSDOF 15
ENDMDL
MODEL 2
REMARK VINA RESULT:    -4.766      1.482      5.996
REMARK INTER + INTRA:         -10.873
REMARK INTER:                  -9.031
REMARK INTRA:                  -1.842
REMARK UNBOUND:                -1.927
REMARK SMILES O=C([O-])CCCCCCCCCCCCCCC(=O)[O-]
REMARK SMILES IDX 10 1 9 2 8 3 7 4 6 5 5 6 4 7 2 8 1 9 3 10 11 11 12 12 13 13
REMARK SMILES IDX 14 14 15 15 16 16 17 17 18 18 19 19 20 20
REMARK H PARENT
REMARK Flexibility Score: inf
ROOT
ATOM      1  C   UNL     1     -24.966 -63.912   4.571  1.00  0.00     0.000 C 
ENDROOT
BRANCH   1   2
ATOM      2  C   UNL     1     -24.828 -63.417   6.022  1.00  0.00     0.000 C 
BRANCH   2   3
ATOM      3  C   UNL     1     -23.364 -63.349   6.494  1.00  0.00     0.000 C 
BRANCH   3   4
ATOM      4  C   UNL     1     -22.448 -62.640   5.473  1.00  0.00     0.000 C 
BRANCH   4   5
ATOM      5  C   UNL     1     -22.209 -61.149   5.777  1.00  0.00     0.000 C 
BRANCH   5   6
ATOM      6  C   UNL     1     -23.250 -60.185   5.174  1.00  0.00     0.006 C 
BRANCH   6   7
ATOM      7  C   UNL     1     -23.844 -59.185   6.178  1.00  0.00     0.053 C 
BRANCH   7   8
ATOM      8  C   UNL     1     -23.456 -57.774   5.855  1.00  0.00     0.041 C 
ATOM      9  O   UNL     1     -24.281 -56.836   6.014  1.00  0.00    -0.550 OA
ATOM     10  O   UNL     1     -22.192 -57.500   5.349  1.00  0.00    -0.550 OA
ENDBRANCH   7   8
ENDBRANCH   6   7
ENDBRANCH   5   6
ENDBRANCH   4   5
ENDBRANCH   3   4
ENDBRANCH   2   3
ENDBRANCH   1   2
BRANCH   1  11
ATOM     11  C   UNL     1     -25.604 -62.903   3.596  1.00  0.00     0.000 C 
BRANCH  11  12
ATOM     12  C   UNL     1     -24.646 -62.309   2.544  1.00  0.00     0.000 C 
BRANCH  12  13
ATOM     13  C   UNL     1     -23.487 -63.233   2.130  1.00  0.00     0.000 C 
BRANCH  13  14
ATOM     14  C   UNL     1     -22.241 -62.454   1.674  1.00  0.00     0.000 C 
BRANCH  14  15
ATOM     15  C   UNL     1     -22.593 -61.100   1.039  1.00  0.00     0.000 C 
BRANCH  15  16
ATOM     16  C   UNL     1     -22.244 -61.044  -0.460  1.00  0.00     0.006 C 
BRANCH  16  17
ATOM     17  C   UNL     1     -22.109 -59.602  -0.968  1.00  0.00     0.053 C 
BRANCH  17  18
ATOM     18  C   UNL     1     -23.445 -58.974  -1.214  1.00  0.00     0.041 C 
ATOM     19  O   UNL     1     -23.683 -57.807  -0.805  1.00  0.00    -0.550 OA
ATOM     20  O   UNL     1     -24.418 -59.664  -1.927  1.00  0.00    -0.550 OA
ENDBRANCH  17  18
ENDBRANCH  16  17
ENDBRANCH  15  16
ENDBRANCH  14  15
ENDBRANCH  13  14
ENDBRANCH  12  13
ENDBRANCH  11  12
ENDBRANCH   1  11
TORSDOF 15
ENDMDL
MODEL 3
REMARK VINA RESULT:    -4.733      1.503      6.327
REMARK INTER + INTRA:         -10.810
REMARK INTER:                  -9.044
REMARK INTRA:                  -1.766
REMARK UNBOUND:                -1.927
REMARK SMILES O=C([O-])CCCCCCCCCCCCCCC(=O)[O-]
REMARK SMILES IDX 10 1 9 2 8 3 7 4 6 5 5 6 4 7 2 8 1 9 3 10 11 11 12 12 13 13
REMARK SMILES IDX 14 14 15 15 16 16 17 17 18 18 19 19 20 20
REMARK H PARENT
REMARK Flexibility Score: inf
ROOT
ATOM      1  C   UNL     1     -24.400 -62.393   2.520  1.00  0.00     0.000 C 
ENDROOT
BRANCH   1   2
ATOM      2  C   UNL     1     -24.830 -63.099   3.818  1.00  0.00     0.000 C 
BRANCH   2   3
ATOM      3  C   UNL     1     -23.792 -64.120   4.317  1.00  0.00     0.000 C 
BRANCH   3   4
ATOM      4  C   UNL     1     -22.891 -63.549   5.433  1.00  0.00     0.000 C 
BRANCH   4   5
ATOM      5  C   UNL     1     -23.354 -62.182   5.973  1.00  0.00     0.000 C 
BRANCH   5   6
ATOM      6  C   UNL     1     -22.415 -61.002   5.655  1.00  0.00     0.006 C 
BRANCH   6   7
ATOM      7  C   UNL     1     -23.095 -59.825   4.938  1.00  0.00     0.053 C 
BRANCH   7   8
ATOM      8  C   UNL     1     -23.069 -58.578   5.767  1.00  0.00     0.041 C 
ATOM      9  O   UNL     1     -22.231 -57.670   5.523  1.00  0.00    -0.550 OA
ATOM     10  O   UNL     1     -23.951 -58.431   6.830  1.00  0.00    -0.550 OA
ENDBRANCH   7   8
ENDBRANCH   6   7
ENDBRANCH   5   6
ENDBRANCH   4   5
ENDBRANCH   3   4
ENDBRANCH   2   3
ENDBRANCH   1   2
BRANCH   1  11
ATOM     11  C   UNL     1     -23.244 -63.074   1.760  1.00  0.00     0.000 C 
BRANCH  11  12
ATOM     12  C   UNL     1     -22.001 -62.193   1.527  1.00  0.00     0.000 C 
BRANCH  12  13
ATOM     13  C   UNL     1     -22.156 -61.135   0.421  1.00  0.00     0.000 C 
BRANCH  13  14
ATOM     14  C   UNL     1     -22.218 -59.702   0.975  1.00  0.00     0.000 C 
BRANCH  14  15
ATOM     15  C   UNL     1     -23.392 -58.896   0.396  1.00  0.00     0.000 C 
BRANCH  15  16
ATOM     16  C   UNL     1     -24.464 -59.796  -0.244  1.00  0.00     0.006 C 
BRANCH  16  17
ATOM     17  C   UNL     1     -25.618 -58.982  -0.846  1.00  0.00     0.053 C 
BRANCH  17  18
ATOM     18  C   UNL     1     -25.388 -58.681  -2.294  1.00  0.00     0.041 C 
ATOM     19  O   UNL     1     -25.734 -59.509  -3.177  1.00  0.00    -0.550 OA
ATOM     20  O   UNL     1     -24.822 -57.469  -2.672  1.00  0.00    -0.550 OA
ENDBRANCH  17  18
ENDBRANCH  16  17
ENDBRANCH  15  16
ENDBRANCH  14  15
ENDBRANCH  13  14
ENDBRANCH  12  13
ENDBRANCH  11  12
ENDBRANCH   1  11
TORSDOF 15
ENDMDL
MODEL 4
REMARK VINA RESULT:    -4.724      1.755      2.419
REMARK INTER + INTRA:         -10.794
REMARK INTER:                  -8.376
REMARK INTRA:                  -2.418
REMARK UNBOUND:                -1.927
REMARK SMILES O=C([O-])CCCCCCCCCCCCCCC(=O)[O-]
REMARK SMILES IDX 10 1 9 2 8 3 7 4 6 5 5 6 4 7 2 8 1 9 3 10 11 11 12 12 13 13
REMARK SMILES IDX 14 14 15 15 16 16 17 17 18 18 19 19 20 20
REMARK H PARENT
REMARK Flexibility Score: inf
ROOT
ATOM      1  C   UNL     1     -22.733 -62.423   2.187  1.00  0.00     0.000 C 
ENDROOT
BRANCH   1   2
ATOM      2  C   UNL     1     -22.209 -62.863   0.809  1.00  0.00     0.000 C 
BRANCH   2   3
ATOM      3  C   UNL     1     -21.885 -61.675  -0.115  1.00  0.00     0.000 C 
BRANCH   3   4
ATOM      4  C   UNL     1     -21.920 -60.323   0.629  1.00  0.00     0.000 C 
BRANCH   4   5
ATOM      5  C   UNL     1     -22.907 -59.303   0.029  1.00  0.00     0.000 C 
BRANCH   5   6
ATOM      6  C   UNL     1     -24.208 -59.908  -0.535  1.00  0.00     0.006 C 
BRANCH   6   7
ATOM      7  C   UNL     1     -25.297 -58.876  -0.864  1.00  0.00     0.053 C 
BRANCH   7   8
ATOM      8  C   UNL     1     -25.343 -58.560  -2.328  1.00  0.00     0.041 C 
ATOM      9  O   UNL     1     -25.688 -59.442  -3.158  1.00  0.00    -0.550 OA
ATOM     10  O   UNL     1     -24.972 -57.300  -2.778  1.00  0.00    -0.550 OA
ENDBRANCH   7   8
ENDBRANCH   6   7
ENDBRANCH   5   6
ENDBRANCH   4   5
ENDBRANCH   3   4
ENDBRANCH   2   3
ENDBRANCH   1   2
BRANCH   1  11
ATOM     11  C   UNL     1     -24.161 -62.898   2.524  1.00  0.00     0.000 C 
BRANCH  11  12
ATOM     12  C   UNL     1     -24.969 -61.956   3.439  1.00  0.00     0.000 C 
BRANCH  12  13
ATOM     13  C   UNL     1     -25.819 -60.908   2.700  1.00  0.00     0.000 C 
BRANCH  13  14
ATOM     14  C   UNL     1     -25.312 -59.472   2.918  1.00  0.00     0.000 C 
BRANCH  14  15
ATOM     15  C   UNL     1     -24.320 -59.368   4.087  1.00  0.00     0.000 C 
BRANCH  15  16
ATOM     16  C   UNL     1     -23.024 -58.636   3.695  1.00  0.00     0.006 C 
BRANCH  16  17
ATOM     17  C   UNL     1     -23.300 -57.249   3.101  1.00  0.00     0.053 C 
BRANCH  17  18
ATOM     18  C   UNL     1     -23.882 -56.316   4.117  1.00  0.00     0.041 C 
ATOM     19  O   UNL     1     -24.957 -55.707   3.878  1.00  0.00    -0.550 OA
ATOM     20  O   UNL     1     -23.254 -56.146   5.345  1.00  0.00    -0.550 OA
ENDBRANCH  17  18
ENDBRANCH  16  17
ENDBRANCH  15  16
ENDBRANCH  14  15
ENDBRANCH  13  14
ENDBRANCH  12  13
ENDBRANCH  11  12
ENDBRANCH   1  11
TORSDOF 15
ENDMDL
MODEL 5
REMARK VINA RESULT:    -4.713      1.894      5.868
REMARK INTER + INTRA:         -10.772
REMARK INTER:                  -8.728
REMARK INTRA:                  -2.044
REMARK UNBOUND:                -1.927
REMARK SMILES O=C([O-])CCCCCCCCCCCCCCC(=O)[O-]
REMARK SMILES IDX 10 1 9 2 8 3 7 4 6 5 5 6 4 7 2 8 1 9 3 10 11 11 12 12 13 13
REMARK SMILES IDX 14 14 15 15 16 16 17 17 18 18 19 19 20 20
REMARK H PARENT
REMARK Flexibility Score: inf
ROOT
ATOM      1  C   UNL     1     -23.984 -62.281   3.134  1.00  0.00     0.000 C 
ENDROOT
BRANCH   1   2
ATOM      2  C   UNL     1     -25.501 -62.473   3.309  1.00  0.00     0.000 C 
BRANCH   2   3
ATOM      3  C   UNL     1     -26.276 -61.143   3.308  1.00  0.00     0.000 C 
BRANCH   3   4
ATOM      4  C   UNL     1     -25.347 -59.919   3.452  1.00  0.00     0.000 C 
BRANCH   4   5
ATOM      5  C   UNL     1     -25.271 -59.039   2.190  1.00  0.00     0.000 C 
BRANCH   5   6
ATOM      6  C   UNL     1     -24.437 -57.751   2.341  1.00  0.00     0.006 C 
BRANCH   6   7
ATOM      7  C   UNL     1     -23.096 -57.945   3.065  1.00  0.00     0.053 C 
BRANCH   7   8
ATOM      8  C   UNL     1     -22.894 -56.927   4.146  1.00  0.00     0.041 C 
ATOM      9  O   UNL     1     -23.529 -55.841   4.123  1.00  0.00    -0.550 OA
ATOM     10  O   UNL     1     -21.978 -57.167   5.162  1.00  0.00    -0.550 OA
ENDBRANCH   7   8
ENDBRANCH   6   7
ENDBRANCH   5   6
ENDBRANCH   4   5
ENDBRANCH   3   4
ENDBRANCH   2   3
ENDBRANCH   1   2
BRANCH   1  11
ATOM     11  C   UNL     1     -23.287 -63.349   2.267  1.00  0.00     0.000 C 
BRANCH  11  12
ATOM     12  C   UNL     1     -22.358 -62.799   1.166  1.00  0.00     0.000 C 
BRANCH  12  13
ATOM     13  C   UNL     1     -22.315 -61.264   1.064  1.00  0.00     0.000 C 
BRANCH  13  14
ATOM     14  C   UNL     1     -22.957 -60.736  -0.229  1.00  0.00     0.000 C 
BRANCH  14  15
ATOM     15  C   UNL     1     -22.535 -59.295  -0.552  1.00  0.00     0.000 C 
BRANCH  15  16
ATOM     16  C   UNL     1     -23.659 -58.490  -1.232  1.00  0.00     0.006 C 
BRANCH  16  17
ATOM     17  C   UNL     1     -24.859 -59.372  -1.601  1.00  0.00     0.053 C 
BRANCH  17  18
ATOM     18  C   UNL     1     -25.651 -58.786  -2.729  1.00  0.00     0.041 C 
ATOM     19  O   UNL     1     -25.982 -57.572  -2.708  1.00  0.00    -0.550 OA
ATOM     20  O   UNL     1     -25.994 -59.574  -3.821  1.00  0.00    -0.550 OA
ENDBRANCH  17  18
ENDBRANCH  16  17
ENDBRANCH  15  16
ENDBRANCH  14  15
ENDBRANCH  13  14
ENDBRANCH  12  13
ENDBRANCH  11  12
ENDBRANCH   1  11
TORSDOF 15
ENDMDL
MODEL 6
REMARK VINA RESULT:    -4.710      1.726      2.619
REMARK INTER + INTRA:         -10.767
REMARK INTER:                  -8.749
REMARK INTRA:                  -2.018
REMARK UNBOUND:                -1.927
REMARK SMILES O=C([O-])CCCCCCCCCCCCCCC(=O)[O-]
REMARK SMILES IDX 10 1 9 2 8 3 7 4 6 5 5 6 4 7 2 8 1 9 3 10 11 11 12 12 13 13
REMARK SMILES IDX 14 14 15 15 16 16 17 17 18 18 19 19 20 20
REMARK H PARENT
REMARK Flexibility Score: inf
ROOT
ATOM      1  C   UNL     1     -25.502 -63.483   3.990  1.00  0.00     0.000 C 
ENDROOT
BRANCH   1   2
ATOM      2  C   UNL     1     -24.900 -62.649   2.845  1.00  0.00     0.000 C 
BRANCH   2   3
ATOM      3  C   UNL     1     -23.665 -63.312   2.208  1.00  0.00     0.000 C 
BRANCH   3   4
ATOM      4  C   UNL     1     -22.502 -62.317   2.004  1.00  0.00     0.000 C 
BRANCH   4   5
ATOM      5  C   UNL     1     -22.938 -60.953   1.434  1.00  0.00     0.000 C 
BRANCH   5   6
ATOM      6  C   UNL     1     -21.900 -60.263   0.528  1.00  0.00     0.006 C 
BRANCH   6   7
ATOM      7  C   UNL     1     -22.272 -60.244  -0.963  1.00  0.00     0.053 C 
BRANCH   7   8
ATOM      8  C   UNL     1     -23.370 -59.266  -1.252  1.00  0.00     0.041 C 
ATOM      9  O   UNL     1     -24.373 -59.618  -1.927  1.00  0.00    -0.550 OA
ATOM     10  O   UNL     1     -23.270 -57.956  -0.801  1.00  0.00    -0.550 OA
ENDBRANCH   7   8
ENDBRANCH   6   7
ENDBRANCH   5   6
ENDBRANCH   4   5
ENDBRANCH   3   4
ENDBRANCH   2   3
ENDBRANCH   1   2
BRANCH   1  11
ATOM     11  C   UNL     1     -24.694 -64.738   4.378  1.00  0.00     0.000 C 
BRANCH  11  12
ATOM     12  C   UNL     1     -23.954 -64.652   5.727  1.00  0.00     0.000 C 
BRANCH  12  13
ATOM     13  C   UNL     1     -23.685 -63.222   6.228  1.00  0.00     0.000 C 
BRANCH  13  14
ATOM     14  C   UNL     1     -22.403 -62.616   5.633  1.00  0.00     0.000 C 
BRANCH  14  15
ATOM     15  C   UNL     1     -22.348 -61.088   5.785  1.00  0.00     0.000 C 
BRANCH  15  16
ATOM     16  C   UNL     1     -23.537 -60.385   5.105  1.00  0.00     0.006 C 
BRANCH  16  17
ATOM     17  C   UNL     1     -23.185 -58.960   4.655  1.00  0.00     0.053 C 
BRANCH  17  18
ATOM     18  C   UNL     1     -24.359 -58.271   4.029  1.00  0.00     0.041 C 
ATOM     19  O   UNL     1     -25.287 -58.945   3.510  1.00  0.00    -0.550 OA
ATOM     20  O   UNL     1     -24.443 -56.885   4.051  1.00  0.00    -0.550 OA
ENDBRANCH  17  18
ENDBRANCH  16  17
ENDBRANCH  15  16
ENDBRANCH  14  15
ENDBRANCH  13  14
ENDBRANCH  12  13
ENDBRANCH  11  12
ENDBRANCH   1  11
TORSDOF 15
ENDMDL
MODEL 7
REMARK VINA RESULT:    -4.691      1.571      2.346
REMARK INTER + INTRA:         -10.732
REMARK INTER:                  -8.601
REMARK INTRA:                  -2.131
REMARK UNBOUND:                -1.927
REMARK SMILES O=C([O-])CCCCCCCCCCCCCCC(=O)[O-]
REMARK SMILES IDX 10 1 9 2 8 3 7 4 6 5 5 6 4 7 2 8 1 9 3 10 11 11 12 12 13 13
REMARK SMILES IDX 14 14 15 15 16 16 17 17 18 18 19 19 20 20
REMARK H PARENT
REMARK Flexibility Score: inf
ROOT
ATOM      1  C   UNL     1     -24.685 -61.796   2.515  1.00  0.00     0.000 C 
ENDROOT
BRANCH   1   2
ATOM      2  C   UNL     1     -23.521 -62.727   2.130  1.00  0.00     0.000 C 
BRANCH   2   3
ATOM      3  C   UNL     1     -22.344 -61.977   1.482  1.00  0.00     0.000 C 
BRANCH   3   4
ATOM      4  C   UNL     1     -22.600 -60.458   1.373  1.00  0.00     0.000 C 
BRANCH   4   5
ATOM      5  C   UNL     1     -21.875 -59.784   0.192  1.00  0.00     0.000 C 
BRANCH   5   6
ATOM      6  C   UNL     1     -22.611 -59.869  -1.159  1.00  0.00     0.006 C 
BRANCH   6   7
ATOM      7  C   UNL     1     -24.143 -59.914  -1.047  1.00  0.00     0.053 C 
BRANCH   7   8
ATOM      8  C   UNL     1     -24.799 -58.937  -1.974  1.00  0.00     0.041 C 
ATOM      9  O   UNL     1     -24.402 -57.743  -2.023  1.00  0.00    -0.550 OA
ATOM     10  O   UNL     1     -25.870 -59.338  -2.761  1.00  0.00    -0.550 OA
ENDBRANCH   7   8
ENDBRANCH   6   7
ENDBRANCH   5   6
ENDBRANCH   4   5
ENDBRANCH   3   4
ENDBRANCH   2   3
ENDBRANCH   1   2
BRANCH   1  11
ATOM     11  C   UNL     1     -25.689 -62.390   3.523  1.00  0.00     0.000 C 
BRANCH  11  12
ATOM     12  C   UNL     1     -25.107 -63.445   4.486  1.00  0.00     0.000 C 
BRANCH  12  13
ATOM     13  C   UNL     1     -24.542 -62.879   5.800  1.00  0.00     0.000 C 
BRANCH  13  14
ATOM     14  C   UNL     1     -23.004 -62.887   5.837  1.00  0.00     0.000 C 
BRANCH  14  15
ATOM     15  C   UNL     1     -22.403 -61.485   5.651  1.00  0.00     0.000 C 
BRANCH  15  16
ATOM     16  C   UNL     1     -23.456 -60.370   5.789  1.00  0.00     0.006 C 
BRANCH  16  17
ATOM     17  C   UNL     1     -23.166 -59.183   4.859  1.00  0.00     0.053 C 
BRANCH  17  18
ATOM     18  C   UNL     1     -24.358 -58.289   4.713  1.00  0.00     0.041 C 
ATOM     19  O   UNL     1     -24.279 -57.071   5.021  1.00  0.00    -0.550 OA
ATOM     20  O   UNL     1     -25.548 -58.794   4.204  1.00  0.00    -0.550 OA
ENDBRANCH  17  18
ENDBRANCH  16  17
ENDBRANCH  15  16
ENDBRANCH  14  15
ENDBRANCH  13  14
ENDBRANCH  12  13
ENDBRANCH  11  12
ENDBRANCH   1  11
TORSDOF 15
ENDMDL
MODEL 8
REMARK VINA RESULT:    -4.685      2.191      4.981
REMARK INTER + INTRA:         -10.720
REMARK INTER:                  -8.729
REMARK INTRA:                  -1.991
REMARK UNBOUND:                -1.927
REMARK SMILES O=C([O-])CCCCCCCCCCCCCCC(=O)[O-]
REMARK SMILES IDX 10 1 9 2 8 3 7 4 6 5 5 6 4 7 2 8 1 9 3 10 11 11 12 12 13 13
REMARK SMILES IDX 14 14 15 15 16 16 17 17 18 18 19 19 20 20
REMARK H PARENT
REMARK Flexibility Score: inf
ROOT
ATOM      1  C   UNL     1     -25.604 -62.432   5.821  1.00  0.00     0.000 C 
ENDROOT
BRANCH   1   2
ATOM      2  C   UNL     1     -24.131 -62.020   5.996  1.00  0.00     0.000 C 
BRANCH   2   3
ATOM      3  C   UNL     1     -23.950 -60.500   6.156  1.00  0.00     0.000 C 
BRANCH   3   4
ATOM      4  C   UNL     1     -22.970 -59.910   5.119  1.00  0.00     0.000 C 
BRANCH   4   5
ATOM      5  C   UNL     1     -22.752 -58.391   5.257  1.00  0.00     0.000 C 
BRANCH   5   6
ATOM      6  C   UNL     1     -23.040 -57.571   3.984  1.00  0.00     0.006 C 
BRANCH   6   7
ATOM      7  C   UNL     1     -24.324 -57.978   3.245  1.00  0.00     0.053 C 
BRANCH   7   8
ATOM      8  C   UNL     1     -24.338 -57.475   1.834  1.00  0.00     0.041 C 
ATOM      9  O   UNL     1     -23.405 -56.743   1.411  1.00  0.00    -0.550 OA
ATOM     10  O   UNL     1     -25.400 -57.789   0.996  1.00  0.00    -0.550 OA
ENDBRANCH   7   8
ENDBRANCH   6   7
ENDBRANCH   5   6
ENDBRANCH   4   5
ENDBRANCH   3   4
ENDBRANCH   2   3
ENDBRANCH   1   2
BRANCH   1  11
ATOM     11  C   UNL     1     -25.938 -63.099   4.472  1.00  0.00     0.000 C 
BRANCH  11  12
ATOM     12  C   UNL     1     -25.240 -62.483   3.243  1.00  0.00     0.000 C 
BRANCH  12  13
ATOM     13  C   UNL     1     -24.087 -63.322   2.665  1.00  0.00     0.000 C 
BRANCH  13  14
ATOM     14  C   UNL     1     -22.904 -62.459   2.194  1.00  0.00     0.000 C 
BRANCH  14  15
ATOM     15  C   UNL     1     -23.353 -61.107   1.618  1.00  0.00     0.000 C 
BRANCH  15  16
ATOM     16  C   UNL     1     -22.179 -60.291   1.047  1.00  0.00     0.006 C 
BRANCH  16  17
ATOM     17  C   UNL     1     -22.042 -60.461  -0.472  1.00  0.00     0.053 C 
BRANCH  17  18
ATOM     18  C   UNL     1     -22.858 -59.452  -1.219  1.00  0.00     0.041 C 
ATOM     19  O   UNL     1     -22.403 -58.296  -1.427  1.00  0.00    -0.550 OA
ATOM     20  O   UNL     1     -24.108 -59.798  -1.716  1.00  0.00    -0.550 OA
ENDBRANCH  17  18
ENDBRANCH  16  17
ENDBRANCH  15  16
ENDBRANCH  14  15
ENDBRANCH  13  14
ENDBRANCH  12  13
ENDBRANCH  11  12
ENDBRANCH   1  11
TORSDOF 15
ENDMDL
MODEL 9
REMARK VINA RESULT:    -4.657      2.326      3.242
REMARK INTER + INTRA:         -10.668
REMARK INTER:                  -8.244
REMARK INTRA:                  -2.425
REMARK UNBOUND:                -1.927
REMARK SMILES O=C([O-])CCCCCCCCCCCCCCC(=O)[O-]
REMARK SMILES IDX 10 1 9 2 8 3 7 4 6 5 5 6 4 7 2 8 1 9 3 10 11 11 12 12 13 13
REMARK SMILES IDX 14 14 15 15 16 16 17 17 18 18 19 19 20 20
REMARK H PARENT
REMARK Flexibility Score: inf
ROOT
ATOM      1  C   UNL     1     -21.876 -61.291  -0.132  1.00  0.00     0.000 C 
ENDROOT
BRANCH   1   2
ATOM      2  C   UNL     1     -21.879 -59.777   0.143  1.00  0.00     0.000 C 
BRANCH   2   3
ATOM      3  C   UNL     1     -22.802 -58.997  -0.810  1.00  0.00     0.000 C 
BRANCH   3   4
ATOM      4  C   UNL     1     -24.023 -59.828  -1.259  1.00  0.00     0.000 C 
BRANCH   4   5
ATOM      5  C   UNL     1     -25.377 -59.138  -1.005  1.00  0.00     0.000 C 
BRANCH   5   6
ATOM      6  C   UNL     1     -25.360 -57.602  -1.128  1.00  0.00     0.006 C 
BRANCH   6   7
ATOM      7  C   UNL     1     -26.484 -56.892  -0.357  1.00  0.00     0.053 C 
BRANCH   7   8
ATOM      8  C   UNL     1     -27.423 -56.172  -1.277  1.00  0.00     0.041 C 
ATOM      9  O   UNL     1     -27.829 -56.728  -2.331  1.00  0.00    -0.550 OA
ATOM     10  O   UNL     1     -27.823 -54.875  -0.985  1.00  0.00    -0.550 OA
ENDBRANCH   7   8
ENDBRANCH   6   7
ENDBRANCH   5   6
ENDBRANCH   4   5
ENDBRANCH   3   4
ENDBRANCH   2   3
ENDBRANCH   1   2
BRANCH   1  11
ATOM     11  C   UNL     1     -22.334 -62.170   1.049  1.00  0.00     0.000 C 
BRANCH  11  12
ATOM     12  C   UNL     1     -23.029 -61.414   2.199  1.00  0.00     0.000 C 
BRANCH  12  13
ATOM     13  C   UNL     1     -24.534 -61.701   2.345  1.00  0.00     0.000 C 
BRANCH  13  14
ATOM     14  C   UNL     1     -25.376 -60.418   2.449  1.00  0.00     0.000 C 
BRANCH  14  15
ATOM     15  C   UNL     1     -24.699 -59.337   3.306  1.00  0.00     0.000 C 
BRANCH  15  16
ATOM     16  C   UNL     1     -24.321 -58.088   2.489  1.00  0.00     0.006 C 
BRANCH  16  17
ATOM     17  C   UNL     1     -22.925 -57.562   2.850  1.00  0.00     0.053 C 
BRANCH  17  18
ATOM     18  C   UNL     1     -22.924 -56.853   4.169  1.00  0.00     0.041 C 
ATOM     19  O   UNL     1     -23.812 -56.000   4.431  1.00  0.00    -0.550 OA
ATOM     20  O   UNL     1     -21.961 -57.159   5.122  1.00  0.00    -0.550 OA
ENDBRANCH  17  18
ENDBRANCH  16  17
ENDBRANCH  15  16
ENDBRANCH  14  15
ENDBRANCH  13  14
ENDBRANCH  12  13
ENDBRANCH  11  12
ENDBRANCH   1  11
TORSDOF 15
ENDMDL
