MODEL 1
REMARK VINA RESULT:    -4.045      0.000      0.000
REMARK INTER + INTRA:          -5.059
REMARK INTER:                  -4.873
REMARK INTRA:                  -0.185
REMARK UNBOUND:                -0.185
REMARK SMILES OCC(O)CO
REMARK SMILES IDX 3 1 5 2 6 3 2 5 1 6 4 8
REMARK H PARENT 6 4 1 7 4 9
REMARK Flexibility Score: inf
ROOT
ATOM      1  C   UNL     1     116.912 101.773 131.325  1.00  0.00     0.165 C 
ENDROOT
BRANCH   1   2
ATOM      2  C   UNL     1     117.291 102.609 132.559  1.00  0.00     0.190 C 
BRANCH   2   3
ATOM      3  O   UNL     1     116.182 103.309 133.059  1.00  0.00    -0.394 OA
ATOM      4  H   UNL     1     116.207 104.214 132.650  1.00  0.00     0.210 HD
ENDBRANCH   2   3
ENDBRANCH   1   2
BRANCH   1   5
ATOM      5  C   UNL     1     116.647 102.649 130.089  1.00  0.00     0.190 C 
BRANCH   5   6
ATOM      6  O   UNL     1     115.789 103.713 130.408  1.00  0.00    -0.394 OA
ATOM      7  H   UNL     1     115.566 103.625 131.372  1.00  0.00     0.210 HD
ENDBRANCH   5   6
ENDBRANCH   1   5
BRANCH   1   8
ATOM      8  O   UNL     1     115.771 101.009 131.620  1.00  0.00    -0.388 OA
ATOM      9  H   UNL     1     115.133 101.611 132.085  1.00  0.00     0.211 HD
ENDBRANCH   1   8
TORSDOF 5
ENDMDL
MODEL 2
REMARK VINA RESULT:    -3.991     11.703     11.978
REMARK INTER + INTRA:          -4.993
REMARK INTER:                  -4.809
REMARK INTRA:                  -0.184
REMARK UNBOUND:                -0.185
REMARK SMILES OCC(O)CO
REMARK SMILES IDX 3 1 5 2 6 3 2 5 1 6 4 8
REMARK H PARENT 6 4 1 7 4 9
REMARK Flexibility Score: inf
ROOT
ATOM      1  C   UNL     1     127.027 104.964 128.822  1.00  0.00     0.165 C 
ENDROOT
BRANCH   1   2
ATOM      2  C   UNL     1     128.249 104.083 129.128  1.00  0.00     0.190 C 
BRANCH   2   3
ATOM      3  O   UNL     1     128.358 103.028 128.209  1.00  0.00    -0.394 OA
ATOM      4  H   UNL     1     129.326 102.921 128.011  1.00  0.00     0.210 HD
ENDBRANCH   2   3
ENDBRANCH   1   2
BRANCH   1   5
ATOM      5  C   UNL     1     126.625 104.905 127.339  1.00  0.00     0.190 C 
BRANCH   5   6
ATOM      6  O   UNL     1     127.559 105.586 126.543  1.00  0.00    -0.394 OA
ATOM      7  H   UNL     1     128.434 105.138 126.678  1.00  0.00     0.210 HD
ENDBRANCH   5   6
ENDBRANCH   1   5
BRANCH   1   8
ATOM      8  O   UNL     1     127.314 106.290 129.185  1.00  0.00    -0.388 OA
ATOM      9  H   UNL     1     126.990 106.868 128.445  1.00  0.00     0.211 HD
ENDBRANCH   1   8
TORSDOF 5
ENDMDL
MODEL 3
REMARK VINA RESULT:    -3.925     11.951     12.358
REMARK INTER + INTRA:          -4.913
REMARK INTER:                  -4.882
REMARK INTRA:                  -0.031
REMARK UNBOUND:                -0.185
REMARK SMILES OCC(O)CO
REMARK SMILES IDX 3 1 5 2 6 3 2 5 1 6 4 8
REMARK H PARENT 6 4 1 7 4 9
REMARK Flexibility Score: inf
ROOT
ATOM      1  C   UNL     1     127.975 105.095 128.482  1.00  0.00     0.165 C 
ENDROOT
BRANCH   1   2
ATOM      2  C   UNL     1     127.255 105.297 127.138  1.00  0.00     0.190 C 
BRANCH   2   3
ATOM      3  O   UNL     1     128.059 106.003 126.231  1.00  0.00    -0.394 OA
ATOM      4  H   UNL     1     127.623 106.884 126.087  1.00  0.00     0.210 HD
ENDBRANCH   2   3
ENDBRANCH   1   2
BRANCH   1   5
ATOM      5  C   UNL     1     127.997 103.618 128.912  1.00  0.00     0.190 C 
BRANCH   5   6
ATOM      6  O   UNL     1     127.754 102.777 127.816  1.00  0.00    -0.394 OA
ATOM      7  H   UNL     1     126.957 102.230 128.043  1.00  0.00     0.210 HD
ENDBRANCH   5   6
ENDBRANCH   1   5
BRANCH   1   8
ATOM      8  O   UNL     1     127.338 105.867 129.467  1.00  0.00    -0.388 OA
ATOM      9  H   UNL     1     126.590 106.344 129.020  1.00  0.00     0.211 HD
ENDBRANCH   1   8
TORSDOF 5
ENDMDL
MODEL 4
REMARK VINA RESULT:    -3.902     11.524     11.868
REMARK INTER + INTRA:          -4.886
REMARK INTER:                  -4.673
REMARK INTRA:                  -0.214
REMARK UNBOUND:                -0.185
REMARK SMILES OCC(O)CO
REMARK SMILES IDX 3 1 5 2 6 3 2 5 1 6 4 8
REMARK H PARENT 6 4 1 7 4 9
REMARK Flexibility Score: inf
ROOT
ATOM      1  C   UNL     1     126.975 104.097 128.261  1.00  0.00     0.165 C 
ENDROOT
BRANCH   1   2
ATOM      2  C   UNL     1     126.390 104.845 127.052  1.00  0.00     0.190 C 
BRANCH   2   3
ATOM      3  O   UNL     1     127.360 105.647 126.432  1.00  0.00    -0.394 OA
ATOM      4  H   UNL     1     127.040 105.818 125.507  1.00  0.00     0.210 HD
ENDBRANCH   2   3
ENDBRANCH   1   2
BRANCH   1   5
ATOM      5  C   UNL     1     127.908 104.987 129.099  1.00  0.00     0.190 C 
BRANCH   5   6
ATOM      6  O   UNL     1     127.410 106.297 129.174  1.00  0.00    -0.394 OA
ATOM      7  H   UNL     1     126.631 106.275 129.789  1.00  0.00     0.210 HD
ENDBRANCH   5   6
ENDBRANCH   1   5
BRANCH   1   8
ATOM      8  O   UNL     1     127.677 102.967 127.808  1.00  0.00    -0.388 OA
ATOM      9  H   UNL     1     127.205 102.640 126.998  1.00  0.00     0.211 HD
ENDBRANCH   1   8
TORSDOF 5
ENDMDL
MODEL 5
REMARK VINA RESULT:    -3.891      1.852      2.869
REMARK INTER + INTRA:          -4.872
REMARK INTER:                  -4.672
REMARK INTRA:                  -0.200
REMARK UNBOUND:                -0.185
REMARK SMILES OCC(O)CO
REMARK SMILES IDX 3 1 5 2 6 3 2 5 1 6 4 8
REMARK H PARENT 6 4 1 7 4 9
REMARK Flexibility Score: inf
ROOT
ATOM      1  C   UNL     1     115.996 102.994 129.662  1.00  0.00     0.165 C 
ENDROOT
BRANCH   1   2
ATOM      2  C   UNL     1     116.792 102.172 130.689  1.00  0.00     0.190 C 
BRANCH   2   3
ATOM      3  O   UNL     1     116.000 101.162 131.256  1.00  0.00    -0.394 OA
ATOM      4  H   UNL     1     116.383 100.296 130.956  1.00  0.00     0.210 HD
ENDBRANCH   2   3
ENDBRANCH   1   2
BRANCH   1   5
ATOM      5  C   UNL     1     115.426 102.118 128.534  1.00  0.00     0.190 C 
BRANCH   5   6
ATOM      6  O   UNL     1     116.338 101.115 128.173  1.00  0.00    -0.394 OA
ATOM      7  H   UNL     1     116.585 100.635 129.006  1.00  0.00     0.210 HD
ENDBRANCH   5   6
ENDBRANCH   1   5
BRANCH   1   8
ATOM      8  O   UNL     1     116.831 103.984 129.119  1.00  0.00    -0.388 OA
ATOM      9  H   UNL     1     116.469 104.206 128.221  1.00  0.00     0.211 HD
ENDBRANCH   1   8
TORSDOF 5
ENDMDL
MODEL 6
REMARK VINA RESULT:    -3.832     12.041     12.129
REMARK INTER + INTRA:          -4.801
REMARK INTER:                  -4.799
REMARK INTRA:                  -0.003
REMARK UNBOUND:                -0.185
REMARK SMILES OCC(O)CO
REMARK SMILES IDX 3 1 5 2 6 3 2 5 1 6 4 8
REMARK H PARENT 6 4 1 7 4 9
REMARK Flexibility Score: inf
ROOT
ATOM      1  C   UNL     1     128.163 103.763 128.603  1.00  0.00     0.165 C 
ENDROOT
BRANCH   1   2
ATOM      2  C   UNL     1     127.917 103.466 130.091  1.00  0.00     0.190 C 
BRANCH   2   3
ATOM      3  O   UNL     1     128.893 102.599 130.605  1.00  0.00    -0.394 OA
ATOM      4  H   UNL     1     128.816 102.636 131.595  1.00  0.00     0.210 HD
ENDBRANCH   2   3
ENDBRANCH   1   2
BRANCH   1   5
ATOM      5  C   UNL     1     127.521 105.089 128.162  1.00  0.00     0.190 C 
BRANCH   5   6
ATOM      6  O   UNL     1     128.288 105.704 127.161  1.00  0.00    -0.394 OA
ATOM      7  H   UNL     1     129.189 105.289 127.192  1.00  0.00     0.210 HD
ENDBRANCH   5   6
ENDBRANCH   1   5
BRANCH   1   8
ATOM      8  O   UNL     1     127.649 102.707 127.832  1.00  0.00    -0.388 OA
ATOM      9  H   UNL     1     127.333 102.013 128.469  1.00  0.00     0.211 HD
ENDBRANCH   1   8
TORSDOF 5
ENDMDL
MODEL 7
REMARK VINA RESULT:    -3.830     11.963     12.384
REMARK INTER + INTRA:          -4.800
REMARK INTER:                  -4.576
REMARK INTRA:                  -0.224
REMARK UNBOUND:                -0.185
REMARK SMILES OCC(O)CO
REMARK SMILES IDX 3 1 5 2 6 3 2 5 1 6 4 8
REMARK H PARENT 6 4 1 7 4 9
REMARK Flexibility Score: inf
ROOT
ATOM      1  C   UNL     1     128.384 104.099 132.352  1.00  0.00     0.165 C 
ENDROOT
BRANCH   1   2
ATOM      2  C   UNL     1     129.510 104.103 131.305  1.00  0.00     0.190 C 
BRANCH   2   3
ATOM      3  O   UNL     1     130.342 102.982 131.449  1.00  0.00    -0.394 OA
ATOM      4  H   UNL     1     131.276 103.304 131.344  1.00  0.00     0.210 HD
ENDBRANCH   2   3
ENDBRANCH   1   2
BRANCH   1   5
ATOM      5  C   UNL     1     127.159 103.294 131.884  1.00  0.00     0.190 C 
BRANCH   5   6
ATOM      6  O   UNL     1     127.557 102.146 131.183  1.00  0.00    -0.394 OA
ATOM      7  H   UNL     1     126.764 101.550 131.132  1.00  0.00     0.210 HD
ENDBRANCH   5   6
ENDBRANCH   1   5
BRANCH   1   8
ATOM      8  O   UNL     1     128.006 105.423 132.626  1.00  0.00    -0.388 OA
ATOM      9  H   UNL     1     127.235 105.631 132.035  1.00  0.00     0.211 HD
ENDBRANCH   1   8
TORSDOF 5
ENDMDL
MODEL 8
REMARK VINA RESULT:    -3.784     14.663     15.433
REMARK INTER + INTRA:          -4.743
REMARK INTER:                  -4.602
REMARK INTRA:                  -0.141
REMARK UNBOUND:                -0.185
REMARK SMILES OCC(O)CO
REMARK SMILES IDX 3 1 5 2 6 3 2 5 1 6 4 8
REMARK H PARENT 6 4 1 7 4 9
REMARK Flexibility Score: inf
ROOT
ATOM      1  C   UNL     1     126.121 101.215 119.862  1.00  0.00     0.165 C 
ENDROOT
BRANCH   1   2
ATOM      2  C   UNL     1     127.609 101.594 119.936  1.00  0.00     0.190 C 
BRANCH   2   3
ATOM      3  O   UNL     1     127.877 102.753 119.191  1.00  0.00    -0.394 OA
ATOM      4  H   UNL     1     127.034 103.279 119.168  1.00  0.00     0.210 HD
ENDBRANCH   2   3
ENDBRANCH   1   2
BRANCH   1   5
ATOM      5  C   UNL     1     125.392 101.943 118.720  1.00  0.00     0.190 C 
BRANCH   5   6
ATOM      6  O   UNL     1     124.638 103.017 119.216  1.00  0.00    -0.394 OA
ATOM      7  H   UNL     1     125.275 103.754 119.406  1.00  0.00     0.210 HD
ENDBRANCH   5   6
ENDBRANCH   1   5
BRANCH   1   8
ATOM      8  O   UNL     1     125.507 101.519 121.088  1.00  0.00    -0.388 OA
ATOM      9  H   UNL     1     124.822 102.214 120.902  1.00  0.00     0.211 HD
ENDBRANCH   1   8
TORSDOF 5
ENDMDL
MODEL 9
REMARK VINA RESULT:    -3.780     11.951     12.211
REMARK INTER + INTRA:          -4.738
REMARK INTER:                  -4.736
REMARK INTRA:                  -0.003
REMARK UNBOUND:                -0.185
REMARK SMILES OCC(O)CO
REMARK SMILES IDX 3 1 5 2 6 3 2 5 1 6 4 8
REMARK H PARENT 6 4 1 7 4 9
REMARK Flexibility Score: inf
ROOT
ATOM      1  C   UNL     1     127.747 103.862 129.133  1.00  0.00     0.165 C 
ENDROOT
BRANCH   1   2
ATOM      2  C   UNL     1     128.266 105.287 128.875  1.00  0.00     0.190 C 
BRANCH   2   3
ATOM      3  O   UNL     1     127.266 106.243 129.111  1.00  0.00    -0.394 OA
ATOM      4  H   UNL     1     127.726 107.065 129.428  1.00  0.00     0.210 HD
ENDBRANCH   2   3
ENDBRANCH   1   2
BRANCH   1   5
ATOM      5  C   UNL     1     127.939 103.431 130.596  1.00  0.00     0.190 C 
BRANCH   5   6
ATOM      6  O   UNL     1     129.022 102.546 130.716  1.00  0.00    -0.394 OA
ATOM      7  H   UNL     1     128.757 101.703 130.263  1.00  0.00     0.210 HD
ENDBRANCH   5   6
ENDBRANCH   1   5
BRANCH   1   8
ATOM      8  O   UNL     1     128.416 102.968 128.281  1.00  0.00    -0.388 OA
ATOM      9  H   UNL     1     127.786 102.224 128.092  1.00  0.00     0.211 HD
ENDBRANCH   1   8
TORSDOF 5
ENDMDL
