MODEL 1
REMARK VINA RESULT:    -5.665      0.000      0.000
REMARK INTER + INTRA:          -8.531
REMARK INTER:                  -7.983
REMARK INTRA:                  -0.548
REMARK UNBOUND:                -0.548
REMARK SMILES OCC1=C[C@@H](O)[C@@H]2C=CO[C@H](O[C@H]3O[C@H](CO)[C@H](O)[C@H](O)[C@@H]3O)[C@@H]12
REMARK SMILES IDX 12 1 11 2 8 3 9 4 7 5 10 6 24 7 5 8 3 9 4 10 6 11 2 13 1 14
REMARK SMILES IDX 13 16 22 17 14 18 20 19 15 20 18 21 23 22 21 24 16 26 17 27
REMARK SMILES IDX 19 29
REMARK H PARENT 6 12 1 15 23 23 21 25 17 28 19 30
REMARK Flexibility Score: inf
ROOT
ATOM      1  O   UNL     1       0.352 -23.883  -9.366  1.00  0.00    -0.310 OA
ENDROOT
BRANCH   1   2
ATOM      2  C   UNL     1      -0.730 -22.958  -9.393  1.00  0.00     0.316 C 
ATOM      3  C   UNL     1      -2.050 -20.628  -8.256  1.00  0.00     0.018 C 
ATOM      4  C   UNL     1      -2.123 -21.812  -7.624  1.00  0.00     0.186 C 
ATOM      5  C   UNL     1      -1.479 -20.634  -9.637  1.00  0.00     0.061 C 
ATOM      6  O   UNL     1      -1.528 -22.972  -8.182  1.00  0.00    -0.472 OA
ATOM      7  C   UNL     1      -0.243 -21.520  -9.656  1.00  0.00     0.096 C 
ATOM      8  C   UNL     1      -0.993 -19.337 -10.279  1.00  0.00     0.145 C 
ATOM      9  C   UNL     1       0.377 -21.128 -10.956  1.00  0.00    -0.036 C 
ATOM     10  C   UNL     1       0.010 -19.878 -11.262  1.00  0.00     0.007 C 
BRANCH   8  11
ATOM     11  O   UNL     1      -2.029 -18.678 -10.953  1.00  0.00    -0.388 OA
ATOM     12  H   UNL     1      -2.698 -19.375 -11.179  1.00  0.00     0.211 HD
ENDBRANCH   8  11
BRANCH   9  13
ATOM     13  C   UNL     1       1.483 -21.864 -11.658  1.00  0.00     0.187 C 
BRANCH  13  14
ATOM     14  O   UNL     1       2.451 -22.275 -10.733  1.00  0.00    -0.392 OA
ATOM     15  H   UNL     1       2.029 -22.210  -9.836  1.00  0.00     0.211 HD
ENDBRANCH  13  14
ENDBRANCH   9  13
ENDBRANCH   1   2
BRANCH   1  16
ATOM     16  C   UNL     1       0.010 -25.233  -9.072  1.00  0.00     0.286 C 
ATOM     17  C   UNL     1       0.646 -26.192 -10.111  1.00  0.00     0.202 C 
ATOM     18  O   UNL     1      -1.394 -25.420  -8.949  1.00  0.00    -0.341 OA
ATOM     19  C   UNL     1      -0.116 -27.537 -10.172  1.00  0.00     0.179 C 
ATOM     20  C   UNL     1      -1.751 -26.707  -8.451  1.00  0.00     0.178 C 
ATOM     21  C   UNL     1      -0.762 -27.857  -8.815  1.00  0.00     0.177 C 
BRANCH  17  22
ATOM     22  O   UNL     1       1.993 -26.401  -9.759  1.00  0.00    -0.385 OA
ATOM     23  H   UNL     1       2.491 -25.575  -9.996  1.00  0.00     0.211 HD
ENDBRANCH  17  22
BRANCH  19  24
ATOM     24  O   UNL     1       0.745 -28.576 -10.566  1.00  0.00    -0.387 OA
ATOM     25  H   UNL     1       1.662 -28.307 -10.299  1.00  0.00     0.211 HD
ENDBRANCH  19  24
BRANCH  20  26
ATOM     26  C   UNL     1      -2.125 -26.639  -6.959  1.00  0.00     0.191 C 
BRANCH  26  27
ATOM     27  O   UNL     1      -2.063 -25.327  -6.466  1.00  0.00    -0.394 OA
ATOM     28  H   UNL     1      -2.278 -25.375  -5.498  1.00  0.00     0.210 HD
ENDBRANCH  26  27
ENDBRANCH  20  26
BRANCH  21  29
ATOM     29  O   UNL     1       0.243 -28.010  -7.843  1.00  0.00    -0.387 OA
ATOM     30  H   UNL     1       1.043 -28.378  -8.302  1.00  0.00     0.211 HD
ENDBRANCH  21  29
ENDBRANCH   1  16
TORSDOF 10
ENDMDL
MODEL 2
REMARK VINA RESULT:    -5.660      1.787      6.761
REMARK INTER + INTRA:          -8.524
REMARK INTER:                  -7.626
REMARK INTRA:                  -0.898
REMARK UNBOUND:                -0.548
REMARK SMILES OCC1=C[C@@H](O)[C@@H]2C=CO[C@H](O[C@H]3O[C@H](CO)[C@H](O)[C@H](O)[C@@H]3O)[C@@H]12
REMARK SMILES IDX 12 1 11 2 8 3 9 4 7 5 10 6 24 7 5 8 3 9 4 10 6 11 2 13 1 14
REMARK SMILES IDX 13 16 22 17 14 18 20 19 15 20 18 21 23 22 21 24 16 26 17 27
REMARK SMILES IDX 19 29
REMARK H PARENT 6 12 1 15 23 23 21 25 17 28 19 30
REMARK Flexibility Score: inf
ROOT
ATOM      1  O   UNL     1      -1.598 -24.723  -9.285  1.00  0.00    -0.310 OA
ENDROOT
BRANCH   1   2
ATOM      2  C   UNL     1      -1.241 -25.610  -8.230  1.00  0.00     0.316 C 
ATOM      3  C   UNL     1      -2.062 -27.371  -6.066  1.00  0.00     0.018 C 
ATOM      4  C   UNL     1      -2.125 -26.038  -5.903  1.00  0.00     0.186 C 
ATOM      5  C   UNL     1      -1.353 -27.871  -7.282  1.00  0.00     0.061 C 
ATOM      6  O   UNL     1      -1.685 -25.160  -6.926  1.00  0.00    -0.472 OA
ATOM      7  C   UNL     1      -1.776 -27.033  -8.479  1.00  0.00     0.096 C 
ATOM      8  C   UNL     1      -1.558 -29.305  -7.764  1.00  0.00     0.145 C 
ATOM      9  C   UNL     1      -1.280 -27.871  -9.610  1.00  0.00    -0.036 C 
ATOM     10  C   UNL     1      -1.229 -29.152  -9.224  1.00  0.00     0.007 C 
BRANCH   8  11
ATOM     11  O   UNL     1      -0.658 -30.186  -7.151  1.00  0.00    -0.388 OA
ATOM     12  H   UNL     1      -1.166 -30.643  -6.431  1.00  0.00     0.211 HD
ENDBRANCH   8  11
BRANCH   9  13
ATOM     13  C   UNL     1      -1.161 -27.430 -11.043  1.00  0.00     0.187 C 
BRANCH  13  14
ATOM     14  O   UNL     1      -2.125 -26.454 -11.327  1.00  0.00    -0.392 OA
ATOM     15  H   UNL     1      -1.928 -26.121 -12.241  1.00  0.00     0.211 HD
ENDBRANCH  13  14
ENDBRANCH   9  13
ENDBRANCH   1   2
BRANCH   1  16
ATOM     16  C   UNL     1      -0.939 -23.461  -9.286  1.00  0.00     0.286 C 
ATOM     17  C   UNL     1      -1.892 -22.352  -8.770  1.00  0.00     0.202 C 
ATOM     18  O   UNL     1      -0.375 -23.146 -10.552  1.00  0.00    -0.341 OA
ATOM     19  C   UNL     1      -1.442 -20.955  -9.260  1.00  0.00     0.179 C 
ATOM     20  C   UNL     1       0.465 -21.995 -10.526  1.00  0.00     0.178 C 
ATOM     21  C   UNL     1       0.079 -20.916  -9.468  1.00  0.00     0.177 C 
BRANCH  17  22
ATOM     22  O   UNL     1      -1.913 -22.400  -7.364  1.00  0.00    -0.385 OA
ATOM     23  H   UNL     1      -1.583 -23.298  -7.095  1.00  0.00     0.211 HD
ENDBRANCH  17  22
BRANCH  19  24
ATOM     24  O   UNL     1      -1.842 -19.960  -8.352  1.00  0.00    -0.387 OA
ATOM     25  H   UNL     1      -1.506 -19.096  -8.705  1.00  0.00     0.211 HD
ENDBRANCH  19  24
BRANCH  20  26
ATOM     26  C   UNL     1       1.952 -22.395 -10.513  1.00  0.00     0.191 C 
BRANCH  26  27
ATOM     27  O   UNL     1       2.644 -21.859 -11.610  1.00  0.00    -0.394 OA
ATOM     28  H   UNL     1       2.001 -21.829 -12.366  1.00  0.00     0.210 HD
ENDBRANCH  26  27
ENDBRANCH  20  26
BRANCH  21  29
ATOM     29  O   UNL     1       0.725 -21.135  -8.238  1.00  0.00    -0.387 OA
ATOM     30  H   UNL     1       0.408 -22.009  -7.890  1.00  0.00     0.211 HD
ENDBRANCH  21  29
ENDBRANCH   1  16
TORSDOF 10
ENDMDL
MODEL 3
REMARK VINA RESULT:    -5.554      4.744      7.814
REMARK INTER + INTRA:          -8.375
REMARK INTER:                  -7.280
REMARK INTRA:                  -1.095
REMARK UNBOUND:                -0.548
REMARK SMILES OCC1=C[C@@H](O)[C@@H]2C=CO[C@H](O[C@H]3O[C@H](CO)[C@H](O)[C@H](O)[C@@H]3O)[C@@H]12
REMARK SMILES IDX 12 1 11 2 8 3 9 4 7 5 10 6 24 7 5 8 3 9 4 10 6 11 2 13 1 14
REMARK SMILES IDX 13 16 22 17 14 18 20 19 15 20 18 21 23 22 21 24 16 26 17 27
REMARK SMILES IDX 19 29
REMARK H PARENT 6 12 1 15 23 23 21 25 17 28 19 30
REMARK Flexibility Score: inf
ROOT
ATOM      1  O   UNL     1       0.102 -31.604 -10.470  1.00  0.00    -0.310 OA
ENDROOT
BRANCH   1   2
ATOM      2  C   UNL     1      -0.209 -30.465  -9.674  1.00  0.00     0.316 C 
ATOM      3  C   UNL     1       0.521 -27.819  -8.711  1.00  0.00     0.018 C 
ATOM      4  C   UNL     1       1.138 -28.904  -8.215  1.00  0.00     0.186 C 
ATOM      5  C   UNL     1      -0.675 -28.057  -9.575  1.00  0.00     0.061 C 
ATOM      6  O   UNL     1       0.767 -30.207  -8.633  1.00  0.00    -0.472 OA
ATOM      7  C   UNL     1      -0.371 -29.197 -10.535  1.00  0.00     0.096 C 
ATOM      8  C   UNL     1      -1.202 -26.955 -10.490  1.00  0.00     0.145 C 
ATOM      9  C   UNL     1      -1.484 -29.054 -11.518  1.00  0.00    -0.036 C 
ATOM     10  C   UNL     1      -1.895 -27.780 -11.540  1.00  0.00     0.007 C 
BRANCH   8  11
ATOM     11  O   UNL     1      -2.123 -26.134  -9.828  1.00  0.00    -0.388 OA
ATOM     12  H   UNL     1      -2.148 -25.282 -10.337  1.00  0.00     0.211 HD
ENDBRANCH   8  11
BRANCH   9  13
ATOM     13  C   UNL     1      -1.877 -30.071 -12.554  1.00  0.00     0.187 C 
BRANCH  13  14
ATOM     14  O   UNL     1      -0.733 -30.634 -13.133  1.00  0.00    -0.392 OA
ATOM     15  H   UNL     1      -1.028 -31.067 -13.976  1.00  0.00     0.211 HD
ENDBRANCH  13  14
ENDBRANCH   9  13
ENDBRANCH   1   2
BRANCH   1  16
ATOM     16  C   UNL     1       0.349 -32.812  -9.758  1.00  0.00     0.286 C 
ATOM     17  C   UNL     1       1.746 -33.378 -10.119  1.00  0.00     0.202 C 
ATOM     18  O   UNL     1      -0.688 -33.767  -9.940  1.00  0.00    -0.341 OA
ATOM     19  C   UNL     1       1.827 -34.896  -9.828  1.00  0.00     0.179 C 
ATOM     20  C   UNL     1      -0.573 -34.896  -9.078  1.00  0.00     0.178 C 
ATOM     21  C   UNL     1       0.885 -35.279  -8.677  1.00  0.00     0.177 C 
BRANCH  17  22
ATOM     22  O   UNL     1       2.715 -32.679  -9.375  1.00  0.00    -0.385 OA
ATOM     23  H   UNL     1       3.273 -32.172 -10.021  1.00  0.00     0.211 HD
ENDBRANCH  17  22
BRANCH  19  24
ATOM     24  O   UNL     1       3.148 -35.273  -9.532  1.00  0.00    -0.387 OA
ATOM     25  H   UNL     1       3.733 -34.524  -9.819  1.00  0.00     0.211 HD
ENDBRANCH  19  24
BRANCH  20  26
ATOM     26  C   UNL     1      -1.551 -34.790  -7.893  1.00  0.00     0.191 C 
BRANCH  26  27
ATOM     27  O   UNL     1      -1.267 -33.681  -7.082  1.00  0.00    -0.394 OA
ATOM     28  H   UNL     1      -1.209 -34.016  -6.149  1.00  0.00     0.210 HD
ENDBRANCH  26  27
ENDBRANCH  20  26
BRANCH  21  29
ATOM     29  O   UNL     1       1.293 -34.625  -7.500  1.00  0.00    -0.387 OA
ATOM     30  H   UNL     1       0.535 -34.669  -6.861  1.00  0.00     0.211 HD
ENDBRANCH  21  29
ENDBRANCH   1  16
TORSDOF 10
ENDMDL
MODEL 4
REMARK VINA RESULT:    -5.260      3.261      5.702
REMARK INTER + INTRA:          -7.961
REMARK INTER:                  -7.165
REMARK INTRA:                  -0.795
REMARK UNBOUND:                -0.548
REMARK SMILES OCC1=C[C@@H](O)[C@@H]2C=CO[C@H](O[C@H]3O[C@H](CO)[C@H](O)[C@H](O)[C@@H]3O)[C@@H]12
REMARK SMILES IDX 12 1 11 2 8 3 9 4 7 5 10 6 24 7 5 8 3 9 4 10 6 11 2 13 1 14
REMARK SMILES IDX 13 16 22 17 14 18 20 19 15 20 18 21 23 22 21 24 16 26 17 27
REMARK SMILES IDX 19 29
REMARK H PARENT 6 12 1 15 23 23 21 25 17 28 19 30
REMARK Flexibility Score: inf
ROOT
ATOM      1  O   UNL     1       0.101 -29.397  -8.187  1.00  0.00    -0.310 OA
ENDROOT
BRANCH   1   2
ATOM      2  C   UNL     1      -0.931 -28.440  -7.972  1.00  0.00     0.316 C 
ATOM      3  C   UNL     1      -2.040 -26.284  -6.366  1.00  0.00     0.018 C 
ATOM      4  C   UNL     1      -2.125 -27.552  -5.931  1.00  0.00     0.186 C 
ATOM      5  C   UNL     1      -1.575 -26.081  -7.772  1.00  0.00     0.061 C 
ATOM      6  O   UNL     1      -1.635 -28.625  -6.718  1.00  0.00    -0.472 OA
ATOM      7  C   UNL     1      -0.392 -26.998  -8.037  1.00  0.00     0.096 C 
ATOM      8  C   UNL     1      -1.074 -24.714  -8.232  1.00  0.00     0.145 C 
ATOM      9  C   UNL     1       0.147 -26.419  -9.303  1.00  0.00    -0.036 C 
ATOM     10  C   UNL     1      -0.177 -25.122  -9.370  1.00  0.00     0.007 C 
BRANCH   8  11
ATOM     11  O   UNL     1      -2.123 -23.913  -8.700  1.00  0.00    -0.388 OA
ATOM     12  H   UNL     1      -1.711 -23.252  -9.315  1.00  0.00     0.211 HD
ENDBRANCH   8  11
BRANCH   9  13
ATOM     13  C   UNL     1       1.158 -27.070 -10.205  1.00  0.00     0.187 C 
BRANCH  13  14
ATOM     14  O   UNL     1       2.010 -27.894  -9.459  1.00  0.00    -0.392 OA
ATOM     15  H   UNL     1       2.931 -27.710  -9.779  1.00  0.00     0.211 HD
ENDBRANCH  13  14
ENDBRANCH   9  13
ENDBRANCH   1   2
BRANCH   1  16
ATOM     16  C   UNL     1      -0.241 -30.509  -9.007  1.00  0.00     0.286 C 
ATOM     17  C   UNL     1      -0.819 -30.025 -10.362  1.00  0.00     0.202 C 
ATOM     18  O   UNL     1      -1.104 -31.424  -8.344  1.00  0.00    -0.341 OA
ATOM     19  C   UNL     1      -1.687 -31.122 -11.024  1.00  0.00     0.179 C 
ATOM     20  C   UNL     1      -1.292 -32.642  -9.060  1.00  0.00     0.178 C 
ATOM     21  C   UNL     1      -1.202 -32.520 -10.612  1.00  0.00     0.177 C 
BRANCH  17  22
ATOM     22  O   UNL     1       0.252 -29.668 -11.202  1.00  0.00    -0.385 OA
ATOM     23  H   UNL     1      -0.138 -29.354 -12.059  1.00  0.00     0.211 HD
ENDBRANCH  17  22
BRANCH  19  24
ATOM     24  O   UNL     1      -1.674 -30.986 -12.422  1.00  0.00    -0.387 OA
ATOM     25  H   UNL     1      -2.352 -30.299 -12.652  1.00  0.00     0.211 HD
ENDBRANCH  19  24
BRANCH  20  26
ATOM     26  C   UNL     1      -0.438 -33.775  -8.460  1.00  0.00     0.191 C 
BRANCH  26  27
ATOM     27  O   UNL     1      -0.715 -33.970  -7.099  1.00  0.00    -0.394 OA
ATOM     28  H   UNL     1      -0.122 -33.353  -6.595  1.00  0.00     0.210 HD
ENDBRANCH  26  27
ENDBRANCH  20  26
BRANCH  21  29
ATOM     29  O   UNL     1       0.111 -32.716 -11.077  1.00  0.00    -0.387 OA
ATOM     30  H   UNL     1       0.166 -32.311 -11.982  1.00  0.00     0.211 HD
ENDBRANCH  21  29
ENDBRANCH   1  16
TORSDOF 10
ENDMDL
MODEL 5
REMARK VINA RESULT:    -5.243      2.149      3.960
REMARK INTER + INTRA:          -7.937
REMARK INTER:                  -6.969
REMARK INTRA:                  -0.969
REMARK UNBOUND:                -0.548
REMARK SMILES OCC1=C[C@@H](O)[C@@H]2C=CO[C@H](O[C@H]3O[C@H](CO)[C@H](O)[C@H](O)[C@@H]3O)[C@@H]12
REMARK SMILES IDX 12 1 11 2 8 3 9 4 7 5 10 6 24 7 5 8 3 9 4 10 6 11 2 13 1 14
REMARK SMILES IDX 13 16 22 17 14 18 20 19 15 20 18 21 23 22 21 24 16 26 17 27
REMARK SMILES IDX 19 29
REMARK H PARENT 6 12 1 15 23 23 21 25 17 28 19 30
REMARK Flexibility Score: inf
ROOT
ATOM      1  O   UNL     1      -1.923 -26.166  -9.625  1.00  0.00    -0.310 OA
ENDROOT
BRANCH   1   2
ATOM      2  C   UNL     1      -1.230 -24.966  -9.954  1.00  0.00     0.316 C 
ATOM      3  C   UNL     1      -1.271 -22.301 -11.119  1.00  0.00     0.018 C 
ATOM      4  C   UNL     1      -1.273 -23.380 -11.920  1.00  0.00     0.186 C 
ATOM      5  C   UNL     1      -1.017 -22.538  -9.665  1.00  0.00     0.061 C 
ATOM      6  O   UNL     1      -1.205 -24.688 -11.377  1.00  0.00    -0.472 OA
ATOM      7  C   UNL     1      -1.820 -23.749  -9.216  1.00  0.00     0.096 C 
ATOM      8  C   UNL     1      -1.376 -21.473  -8.632  1.00  0.00     0.145 C 
ATOM      9  C   UNL     1      -1.739 -23.618  -7.732  1.00  0.00    -0.036 C 
ATOM     10  C   UNL     1      -1.562 -22.330  -7.410  1.00  0.00     0.007 C 
BRANCH   8  11
ATOM     11  O   UNL     1      -0.323 -20.570  -8.440  1.00  0.00    -0.388 OA
ATOM     12  H   UNL     1       0.267 -20.977  -7.753  1.00  0.00     0.211 HD
ENDBRANCH   8  11
BRANCH   9  13
ATOM     13  C   UNL     1      -2.112 -24.679  -6.734  1.00  0.00     0.187 C 
BRANCH  13  14
ATOM     14  O   UNL     1      -1.331 -25.823  -6.934  1.00  0.00    -0.392 OA
ATOM     15  H   UNL     1      -1.918 -26.602  -6.746  1.00  0.00     0.211 HD
ENDBRANCH  13  14
ENDBRANCH   9  13
ENDBRANCH   1   2
BRANCH   1  16
ATOM     16  C   UNL     1      -1.251 -27.379  -9.946  1.00  0.00     0.286 C 
ATOM     17  C   UNL     1      -2.115 -28.242 -10.901  1.00  0.00     0.202 C 
ATOM     18  O   UNL     1      -0.844 -28.094  -8.786  1.00  0.00    -0.341 OA
ATOM     19  C   UNL     1      -1.709 -29.733 -10.830  1.00  0.00     0.179 C 
ATOM     20  C   UNL     1       0.010 -29.198  -9.074  1.00  0.00     0.178 C 
ATOM     21  C   UNL     1      -0.225 -29.875 -10.460  1.00  0.00     0.177 C 
BRANCH  17  22
ATOM     22  O   UNL     1      -1.960 -27.748 -12.210  1.00  0.00    -0.385 OA
ATOM     23  H   UNL     1      -1.071 -27.308 -12.256  1.00  0.00     0.211 HD
ENDBRANCH  17  22
BRANCH  19  24
ATOM     24  O   UNL     1      -1.977 -30.377 -12.050  1.00  0.00    -0.387 OA
ATOM     25  H   UNL     1      -2.604 -29.794 -12.552  1.00  0.00     0.211 HD
ENDBRANCH  19  24
BRANCH  20  26
ATOM     26  C   UNL     1       1.481 -28.854  -8.776  1.00  0.00     0.191 C 
BRANCH  26  27
ATOM     27  O   UNL     1       1.763 -28.925  -7.404  1.00  0.00    -0.394 OA
ATOM     28  H   UNL     1       2.144 -28.045  -7.144  1.00  0.00     0.210 HD
ENDBRANCH  26  27
ENDBRANCH  20  26
BRANCH  21  29
ATOM     29  O   UNL     1       0.567 -29.293 -11.467  1.00  0.00    -0.387 OA
ATOM     30  H   UNL     1       0.659 -29.964 -12.193  1.00  0.00     0.211 HD
ENDBRANCH  21  29
ENDBRANCH   1  16
TORSDOF 10
ENDMDL
MODEL 6
REMARK VINA RESULT:    -5.021      1.976      6.558
REMARK INTER + INTRA:          -7.623
REMARK INTER:                  -7.481
REMARK INTRA:                  -0.142
REMARK UNBOUND:                -0.548
REMARK SMILES OCC1=C[C@@H](O)[C@@H]2C=CO[C@H](O[C@H]3O[C@H](CO)[C@H](O)[C@H](O)[C@@H]3O)[C@@H]12
REMARK SMILES IDX 12 1 11 2 8 3 9 4 7 5 10 6 24 7 5 8 3 9 4 10 6 11 2 13 1 14
REMARK SMILES IDX 13 16 22 17 14 18 20 19 15 20 18 21 23 22 21 24 16 26 17 27
REMARK SMILES IDX 19 29
REMARK H PARENT 6 12 1 15 23 23 21 25 17 28 19 30
REMARK Flexibility Score: inf
ROOT
ATOM      1  O   UNL     1      -1.222 -25.393 -10.289  1.00  0.00    -0.310 OA
ENDROOT
BRANCH   1   2
ATOM      2  C   UNL     1      -0.991 -25.974  -9.010  1.00  0.00     0.316 C 
ATOM      3  C   UNL     1      -2.060 -27.046  -6.526  1.00  0.00     0.018 C 
ATOM      4  C   UNL     1      -2.052 -25.718  -6.732  1.00  0.00     0.186 C 
ATOM      5  C   UNL     1      -1.304 -27.886  -7.503  1.00  0.00     0.061 C 
ATOM      6  O   UNL     1      -1.492 -25.169  -7.914  1.00  0.00    -0.472 OA
ATOM      7  C   UNL     1      -1.595 -27.388  -8.911  1.00  0.00     0.096 C 
ATOM      8  C   UNL     1      -1.565 -29.387  -7.598  1.00  0.00     0.145 C 
ATOM      9  C   UNL     1      -1.077 -28.521  -9.733  1.00  0.00    -0.036 C 
ATOM     10  C   UNL     1      -1.131 -29.650  -9.015  1.00  0.00     0.007 C 
BRANCH   8  11
ATOM     11  O   UNL     1      -0.763 -30.105  -6.702  1.00  0.00    -0.388 OA
ATOM     12  H   UNL     1      -1.364 -30.756  -6.255  1.00  0.00     0.211 HD
ENDBRANCH   8  11
BRANCH   9  13
ATOM     13  C   UNL     1      -0.837 -28.492 -11.217  1.00  0.00     0.187 C 
BRANCH  13  14
ATOM     14  O   UNL     1       0.109 -29.461 -11.570  1.00  0.00    -0.392 OA
ATOM     15  H   UNL     1      -0.248 -30.332 -11.253  1.00  0.00     0.211 HD
ENDBRANCH  13  14
ENDBRANCH   9  13
ENDBRANCH   1   2
BRANCH   1  16
ATOM     16  C   UNL     1      -0.704 -24.081 -10.479  1.00  0.00     0.286 C 
ATOM     17  C   UNL     1       0.475 -23.818  -9.507  1.00  0.00     0.202 C 
ATOM     18  O   UNL     1      -1.713 -23.083 -10.392  1.00  0.00    -0.341 OA
ATOM     19  C   UNL     1       0.691 -22.302  -9.287  1.00  0.00     0.179 C 
ATOM     20  C   UNL     1      -1.263 -21.789 -10.784  1.00  0.00     0.178 C 
ATOM     21  C   UNL     1       0.248 -21.505 -10.523  1.00  0.00     0.177 C 
BRANCH  17  22
ATOM     22  O   UNL     1       1.634 -24.411 -10.042  1.00  0.00    -0.385 OA
ATOM     23  H   UNL     1       2.269 -24.547  -9.290  1.00  0.00     0.211 HD
ENDBRANCH  17  22
BRANCH  19  24
ATOM     24  O   UNL     1       2.036 -22.033  -8.982  1.00  0.00    -0.387 OA
ATOM     25  H   UNL     1       2.068 -21.120  -8.596  1.00  0.00     0.211 HD
ENDBRANCH  19  24
BRANCH  20  26
ATOM     26  C   UNL     1      -1.738 -21.446 -12.208  1.00  0.00     0.191 C 
BRANCH  26  27
ATOM     27  O   UNL     1      -1.443 -22.474 -13.116  1.00  0.00    -0.394 OA
ATOM     28  H   UNL     1      -2.282 -22.666 -13.612  1.00  0.00     0.210 HD
ENDBRANCH  26  27
ENDBRANCH  20  26
BRANCH  21  29
ATOM     29  O   UNL     1       1.046 -21.866 -11.624  1.00  0.00    -0.387 OA
ATOM     30  H   UNL     1       0.435 -22.168 -12.344  1.00  0.00     0.211 HD
ENDBRANCH  21  29
ENDBRANCH   1  16
TORSDOF 10
ENDMDL
MODEL 7
REMARK VINA RESULT:    -5.017      5.677      9.159
REMARK INTER + INTRA:          -7.618
REMARK INTER:                  -6.164
REMARK INTRA:                  -1.453
REMARK UNBOUND:                -0.548
REMARK SMILES OCC1=C[C@@H](O)[C@@H]2C=CO[C@H](O[C@H]3O[C@H](CO)[C@H](O)[C@H](O)[C@@H]3O)[C@@H]12
REMARK SMILES IDX 12 1 11 2 8 3 9 4 7 5 10 6 24 7 5 8 3 9 4 10 6 11 2 13 1 14
REMARK SMILES IDX 13 16 22 17 14 18 20 19 15 20 18 21 23 22 21 24 16 26 17 27
REMARK SMILES IDX 19 29
REMARK H PARENT 6 12 1 15 23 23 21 25 17 28 19 30
REMARK Flexibility Score: inf
ROOT
ATOM      1  O   UNL     1      -1.259 -32.655  -9.824  1.00  0.00    -0.310 OA
ENDROOT
BRANCH   1   2
ATOM      2  C   UNL     1      -0.790 -31.314  -9.729  1.00  0.00     0.316 C 
ATOM      3  C   UNL     1      -1.224 -28.479 -10.216  1.00  0.00     0.018 C 
ATOM      4  C   UNL     1      -0.900 -29.290 -11.238  1.00  0.00     0.186 C 
ATOM      5  C   UNL     1      -1.119 -29.050  -8.839  1.00  0.00     0.061 C 
ATOM      6  O   UNL     1      -0.637 -30.666 -11.017  1.00  0.00    -0.472 OA
ATOM      7  C   UNL     1      -1.708 -30.452  -8.841  1.00  0.00     0.096 C 
ATOM      8  C   UNL     1      -1.819 -28.373  -7.664  1.00  0.00     0.145 C 
ATOM      9  C   UNL     1      -1.850 -30.710  -7.378  1.00  0.00    -0.036 C 
ATOM     10  C   UNL     1      -1.984 -29.544  -6.734  1.00  0.00     0.007 C 
BRANCH   8  11
ATOM     11  O   UNL     1      -1.008 -27.394  -7.078  1.00  0.00    -0.388 OA
ATOM     12  H   UNL     1      -0.284 -27.882  -6.607  1.00  0.00     0.211 HD
ENDBRANCH   8  11
BRANCH   9  13
ATOM     13  C   UNL     1      -2.125 -32.045  -6.744  1.00  0.00     0.187 C 
BRANCH  13  14
ATOM     14  O   UNL     1      -0.983 -32.853  -6.810  1.00  0.00    -0.392 OA
ATOM     15  H   UNL     1      -0.479 -32.698  -5.969  1.00  0.00     0.211 HD
ENDBRANCH  13  14
ENDBRANCH   9  13
ENDBRANCH   1   2
BRANCH   1  16
ATOM     16  C   UNL     1      -0.274 -33.639 -10.121  1.00  0.00     0.286 C 
ATOM     17  C   UNL     1      -0.423 -34.130 -11.584  1.00  0.00     0.202 C 
ATOM     18  O   UNL     1      -0.278 -34.709  -9.186  1.00  0.00    -0.341 OA
ATOM     19  C   UNL     1       0.217 -35.526 -11.773  1.00  0.00     0.179 C 
ATOM     20  C   UNL     1       0.828 -35.595  -9.335  1.00  0.00     0.178 C 
ATOM     21  C   UNL     1       1.378 -35.729 -10.788  1.00  0.00     0.177 C 
BRANCH  17  22
ATOM     22  O   UNL     1       0.184 -33.188 -12.435  1.00  0.00    -0.385 OA
ATOM     23  H   UNL     1       0.062 -33.510 -13.367  1.00  0.00     0.211 HD
ENDBRANCH  17  22
BRANCH  19  24
ATOM     24  O   UNL     1       0.658 -35.692 -13.097  1.00  0.00    -0.387 OA
ATOM     25  H   UNL     1       1.506 -35.185 -13.185  1.00  0.00     0.211 HD
ENDBRANCH  19  24
BRANCH  20  26
ATOM     26  C   UNL     1       1.906 -35.320  -8.271  1.00  0.00     0.191 C 
BRANCH  26  27
ATOM     27  O   UNL     1       1.379 -34.645  -7.160  1.00  0.00    -0.394 OA
ATOM     28  H   UNL     1       2.153 -34.295  -6.644  1.00  0.00     0.210 HD
ENDBRANCH  26  27
ENDBRANCH  20  26
BRANCH  21  29
ATOM     29  O   UNL     1       2.389 -34.788 -11.055  1.00  0.00    -0.387 OA
ATOM     30  H   UNL     1       1.987 -33.887 -10.948  1.00  0.00     0.211 HD
ENDBRANCH  21  29
ENDBRANCH   1  16
TORSDOF 10
ENDMDL
MODEL 8
REMARK VINA RESULT:    -5.010      4.440      7.869
REMARK INTER + INTRA:          -7.608
REMARK INTER:                  -6.455
REMARK INTRA:                  -1.153
REMARK UNBOUND:                -0.548
REMARK SMILES OCC1=C[C@@H](O)[C@@H]2C=CO[C@H](O[C@H]3O[C@H](CO)[C@H](O)[C@H](O)[C@@H]3O)[C@@H]12
REMARK SMILES IDX 12 1 11 2 8 3 9 4 7 5 10 6 24 7 5 8 3 9 4 10 6 11 2 13 1 14
REMARK SMILES IDX 13 16 22 17 14 18 20 19 15 20 18 21 23 22 21 24 16 26 17 27
REMARK SMILES IDX 19 29
REMARK H PARENT 6 12 1 15 23 23 21 25 17 28 19 30
REMARK Flexibility Score: inf
ROOT
ATOM      1  O   UNL     1       0.530 -31.091  -9.395  1.00  0.00    -0.310 OA
ENDROOT
BRANCH   1   2
ATOM      2  C   UNL     1       0.164 -30.013 -10.250  1.00  0.00     0.316 C 
ATOM      3  C   UNL     1      -1.922 -28.444 -11.535  1.00  0.00     0.018 C 
ATOM      4  C   UNL     1      -1.628 -29.671 -11.998  1.00  0.00     0.186 C 
ATOM      5  C   UNL     1      -0.993 -27.865 -10.517  1.00  0.00     0.061 C 
ATOM      6  O   UNL     1      -0.583 -30.435 -11.419  1.00  0.00    -0.472 OA
ATOM      7  C   UNL     1      -0.647 -28.940  -9.498  1.00  0.00     0.096 C 
ATOM      8  C   UNL     1      -1.430 -26.686  -9.652  1.00  0.00     0.145 C 
ATOM      9  C   UNL     1      -0.040 -28.122  -8.407  1.00  0.00    -0.036 C 
ATOM     10  C   UNL     1      -0.539 -26.880  -8.455  1.00  0.00     0.007 C 
BRANCH   8  11
ATOM     11  O   UNL     1      -1.152 -25.462 -10.273  1.00  0.00    -0.388 OA
ATOM     12  H   UNL     1      -2.031 -25.074 -10.524  1.00  0.00     0.211 HD
ENDBRANCH   8  11
BRANCH   9  13
ATOM     13  C   UNL     1       0.746 -28.656  -7.242  1.00  0.00     0.187 C 
BRANCH  13  14
ATOM     14  O   UNL     1       2.019 -29.058  -7.666  1.00  0.00    -0.392 OA
ATOM     15  H   UNL     1       2.566 -29.171  -6.845  1.00  0.00     0.211 HD
ENDBRANCH  13  14
ENDBRANCH   9  13
ENDBRANCH   1   2
BRANCH   1  16
ATOM     16  C   UNL     1       0.110 -32.386  -9.811  1.00  0.00     0.286 C 
ATOM     17  C   UNL     1      -0.574 -33.137  -8.640  1.00  0.00     0.202 C 
ATOM     18  O   UNL     1       1.168 -33.136 -10.394  1.00  0.00    -0.341 OA
ATOM     19  C   UNL     1      -0.539 -34.668  -8.861  1.00  0.00     0.179 C 
ATOM     20  C   UNL     1       0.731 -34.346 -11.007  1.00  0.00     0.178 C 
ATOM     21  C   UNL     1      -0.528 -35.000 -10.361  1.00  0.00     0.177 C 
BRANCH  17  22
ATOM     22  O   UNL     1      -1.902 -32.682  -8.533  1.00  0.00    -0.385 OA
ATOM     23  H   UNL     1      -2.363 -32.921  -9.380  1.00  0.00     0.211 HD
ENDBRANCH  17  22
BRANCH  19  24
ATOM     24  O   UNL     1      -1.631 -35.284  -8.226  1.00  0.00    -0.387 OA
ATOM     25  H   UNL     1      -2.307 -35.467  -8.929  1.00  0.00     0.211 HD
ENDBRANCH  19  24
BRANCH  20  26
ATOM     26  C   UNL     1       0.654 -34.195 -12.537  1.00  0.00     0.191 C 
BRANCH  26  27
ATOM     27  O   UNL     1       0.084 -32.969 -12.911  1.00  0.00    -0.394 OA
ATOM     28  H   UNL     1      -0.756 -32.873 -12.388  1.00  0.00     0.210 HD
ENDBRANCH  26  27
ENDBRANCH  20  26
BRANCH  21  29
ATOM     29  O   UNL     1      -1.719 -34.539 -10.951  1.00  0.00    -0.387 OA
ATOM     30  H   UNL     1      -1.622 -34.648 -11.932  1.00  0.00     0.211 HD
ENDBRANCH  21  29
ENDBRANCH   1  16
TORSDOF 10
ENDMDL
MODEL 9
REMARK VINA RESULT:    -4.876      2.194      4.101
REMARK INTER + INTRA:          -7.420
REMARK INTER:                  -7.008
REMARK INTRA:                  -0.412
REMARK UNBOUND:                -0.548
REMARK SMILES OCC1=C[C@@H](O)[C@@H]2C=CO[C@H](O[C@H]3O[C@H](CO)[C@H](O)[C@H](O)[C@@H]3O)[C@@H]12
REMARK SMILES IDX 12 1 11 2 8 3 9 4 7 5 10 6 24 7 5 8 3 9 4 10 6 11 2 13 1 14
REMARK SMILES IDX 13 16 22 17 14 18 20 19 15 20 18 21 23 22 21 24 16 26 17 27
REMARK SMILES IDX 19 29
REMARK H PARENT 6 12 1 15 23 23 21 25 17 28 19 30
REMARK Flexibility Score: inf
ROOT
ATOM      1  O   UNL     1      -1.995 -26.318  -9.416  1.00  0.00    -0.310 OA
ENDROOT
BRANCH   1   2
ATOM      2  C   UNL     1      -1.453 -25.233 -10.162  1.00  0.00     0.316 C 
ATOM      3  C   UNL     1      -1.848 -23.072 -12.069  1.00  0.00     0.018 C 
ATOM      4  C   UNL     1      -1.800 -24.344 -12.501  1.00  0.00     0.186 C 
ATOM      5  C   UNL     1      -1.464 -22.827 -10.645  1.00  0.00     0.061 C 
ATOM      6  O   UNL     1      -1.561 -25.410 -11.597  1.00  0.00    -0.472 OA
ATOM      7  C   UNL     1      -2.106 -23.893  -9.771  1.00  0.00     0.096 C 
ATOM      8  C   UNL     1      -1.851 -21.522  -9.953  1.00  0.00     0.145 C 
ATOM      9  C   UNL     1      -1.928 -23.301  -8.413  1.00  0.00    -0.036 C 
ATOM     10  C   UNL     1      -1.859 -21.968  -8.516  1.00  0.00     0.007 C 
BRANCH   8  11
ATOM     11  O   UNL     1      -0.882 -20.530 -10.151  1.00  0.00    -0.388 OA
ATOM     12  H   UNL     1      -0.371 -20.470  -9.302  1.00  0.00     0.211 HD
ENDBRANCH   8  11
BRANCH   9  13
ATOM     13  C   UNL     1      -2.119 -24.023  -7.108  1.00  0.00     0.187 C 
BRANCH  13  14
ATOM     14  O   UNL     1      -2.125 -23.108  -6.048  1.00  0.00    -0.392 OA
ATOM     15  H   UNL     1      -2.120 -22.204  -6.457  1.00  0.00     0.211 HD
ENDBRANCH  13  14
ENDBRANCH   9  13
ENDBRANCH   1   2
BRANCH   1  16
ATOM     16  C   UNL     1      -1.237 -27.523  -9.431  1.00  0.00     0.286 C 
ATOM     17  C   UNL     1      -0.116 -27.471  -8.362  1.00  0.00     0.202 C 
ATOM     18  O   UNL     1      -0.739 -27.832 -10.726  1.00  0.00    -0.341 OA
ATOM     19  C   UNL     1       1.027 -28.457  -8.701  1.00  0.00     0.179 C 
ATOM     20  C   UNL     1      -0.159 -29.131 -10.813  1.00  0.00     0.178 C 
ATOM     21  C   UNL     1       0.491 -29.657  -9.496  1.00  0.00     0.177 C 
BRANCH  17  22
ATOM     22  O   UNL     1      -0.680 -27.778  -7.109  1.00  0.00    -0.385 OA
ATOM     23  H   UNL     1      -1.192 -28.623  -7.216  1.00  0.00     0.211 HD
ENDBRANCH  17  22
BRANCH  19  24
ATOM     24  O   UNL     1       1.671 -28.889  -7.529  1.00  0.00    -0.387 OA
ATOM     25  H   UNL     1       2.151 -29.728  -7.756  1.00  0.00     0.211 HD
ENDBRANCH  19  24
BRANCH  20  26
ATOM     26  C   UNL     1      -1.125 -30.125 -11.485  1.00  0.00     0.191 C 
BRANCH  26  27
ATOM     27  O   UNL     1      -0.537 -31.387 -11.654  1.00  0.00    -0.394 OA
ATOM     28  H   UNL     1      -0.313 -31.722 -10.746  1.00  0.00     0.210 HD
ENDBRANCH  26  27
ENDBRANCH  20  26
BRANCH  21  29
ATOM     29  O   UNL     1      -0.429 -30.369  -8.706  1.00  0.00    -0.387 OA
ATOM     30  H   UNL     1      -0.870 -31.035  -9.295  1.00  0.00     0.211 HD
ENDBRANCH  21  29
ENDBRANCH   1  16
TORSDOF 10
ENDMDL
