MODEL 1
REMARK VINA RESULT:    -5.304      0.000      0.000
REMARK INTER + INTRA:          -7.896
REMARK INTER:                  -7.165
REMARK INTRA:                  -0.731
REMARK UNBOUND:                -0.731
REMARK SMILES CCCCCCC=CC(=O)[O-]
REMARK SMILES IDX 5 1 6 2 7 3 8 4 9 5 10 6 11 7 4 8 3 9 2 10 1 11
REMARK H PARENT
REMARK Flexibility Score: inf
ROOT
ATOM      1  C   UNL     1      22.349  -0.451  -0.122  1.00  0.00     0.004 C 
ENDROOT
BRANCH   1   2
ATOM      2  C   UNL     1      23.656  -0.775   0.613  1.00  0.00     0.027 C 
BRANCH   2   3
ATOM      3  C   UNL     1      24.281  -2.041   0.098  1.00  0.00    -0.025 C 
ATOM      4  C   UNL     1      25.237  -2.022  -0.837  1.00  0.00     0.020 C 
BRANCH   4   5
ATOM      5  C   UNL     1      25.828  -3.256  -1.372  1.00  0.00     0.064 C 
ATOM      6  O   UNL     1      26.997  -3.234  -1.838  1.00  0.00    -0.545 OA
ATOM      7  O   UNL     1      25.117  -4.451  -1.373  1.00  0.00    -0.545 OA
ENDBRANCH   4   5
ENDBRANCH   2   3
ENDBRANCH   1   2
BRANCH   1   8
ATOM      8  C   UNL     1      22.492   0.760  -1.055  1.00  0.00     0.000 C 
BRANCH   8   9
ATOM      9  C   UNL     1      22.428   0.332  -2.526  1.00  0.00    -0.000 C 
BRANCH   9  10
ATOM     10  C   UNL     1      21.939  -1.115  -2.657  1.00  0.00    -0.003 C 
ATOM     11  C   UNL     1      22.834  -1.916  -3.599  1.00  0.00     0.004 C 
ENDBRANCH   9  10
ENDBRANCH   8   9
ENDBRANCH   1   8
TORSDOF 6
ENDMDL
MODEL 2
REMARK VINA RESULT:    -5.196      2.862      5.079
REMARK INTER + INTRA:          -7.749
REMARK INTER:                  -7.021
REMARK INTRA:                  -0.729
REMARK UNBOUND:                -0.731
REMARK SMILES CCCCCCC=CC(=O)[O-]
REMARK SMILES IDX 5 1 6 2 7 3 8 4 9 5 10 6 11 7 4 8 3 9 2 10 1 11
REMARK H PARENT
REMARK Flexibility Score: inf
ROOT
ATOM      1  C   UNL     1      25.870  -3.894  -1.107  1.00  0.00     0.004 C 
ENDROOT
BRANCH   1   2
ATOM      2  C   UNL     1      25.496  -2.571  -1.786  1.00  0.00     0.027 C 
BRANCH   2   3
ATOM      3  C   UNL     1      24.207  -2.018  -1.244  1.00  0.00    -0.025 C 
ATOM      4  C   UNL     1      24.181  -0.927  -0.470  1.00  0.00     0.020 C 
BRANCH   4   5
ATOM      5  C   UNL     1      22.930  -0.401   0.093  1.00  0.00     0.064 C 
ATOM      6  O   UNL     1      22.916   0.747   0.608  1.00  0.00    -0.545 OA
ATOM      7  O   UNL     1      21.760  -1.150   0.065  1.00  0.00    -0.545 OA
ENDBRANCH   4   5
ENDBRANCH   2   3
ENDBRANCH   1   2
BRANCH   1   8
ATOM      8  C   UNL     1      26.965  -3.713  -0.045  1.00  0.00     0.000 C 
BRANCH   8   9
ATOM      9  C   UNL     1      26.354  -3.467   1.339  1.00  0.00    -0.000 C 
BRANCH   9  10
ATOM     10  C   UNL     1      25.046  -4.248   1.510  1.00  0.00    -0.003 C 
ATOM     11  C   UNL     1      24.003  -3.420   2.254  1.00  0.00     0.004 C 
ENDBRANCH   9  10
ENDBRANCH   8   9
ENDBRANCH   1   8
TORSDOF 6
ENDMDL
MODEL 3
REMARK VINA RESULT:    -5.095      1.401      2.006
REMARK INTER + INTRA:          -7.613
REMARK INTER:                  -7.012
REMARK INTRA:                  -0.601
REMARK UNBOUND:                -0.731
REMARK SMILES CCCCCCC=CC(=O)[O-]
REMARK SMILES IDX 5 1 6 2 7 3 8 4 9 5 10 6 11 7 4 8 3 9 2 10 1 11
REMARK H PARENT
REMARK Flexibility Score: inf
ROOT
ATOM      1  C   UNL     1      23.962  -1.082   0.494  1.00  0.00     0.004 C 
ENDROOT
BRANCH   1   2
ATOM      2  C   UNL     1      25.052  -1.298  -0.563  1.00  0.00     0.027 C 
BRANCH   2   3
ATOM      3  C   UNL     1      25.090  -2.726  -1.033  1.00  0.00    -0.025 C 
ATOM      4  C   UNL     1      24.049  -3.548  -0.866  1.00  0.00     0.020 C 
BRANCH   4   5
ATOM      5  C   UNL     1      24.090  -4.954  -1.290  1.00  0.00     0.064 C 
ATOM      6  O   UNL     1      24.720  -5.795  -0.597  1.00  0.00    -0.545 OA
ATOM      7  O   UNL     1      23.444  -5.373  -2.448  1.00  0.00    -0.545 OA
ENDBRANCH   4   5
ENDBRANCH   2   3
ENDBRANCH   1   2
BRANCH   1   8
ATOM      8  C   UNL     1      22.806  -0.219  -0.032  1.00  0.00     0.000 C 
BRANCH   8   9
ATOM      9  C   UNL     1      23.215   0.533  -1.303  1.00  0.00    -0.000 C 
BRANCH   9  10
ATOM     10  C   UNL     1      22.257   0.221  -2.459  1.00  0.00    -0.003 C 
ATOM     11  C   UNL     1      22.714  -1.010  -3.236  1.00  0.00     0.004 C 
ENDBRANCH   9  10
ENDBRANCH   8   9
ENDBRANCH   1   8
TORSDOF 6
ENDMDL
MODEL 4
REMARK VINA RESULT:    -4.946      2.886      4.640
REMARK INTER + INTRA:          -7.412
REMARK INTER:                  -6.790
REMARK INTRA:                  -0.622
REMARK UNBOUND:                -0.731
REMARK SMILES CCCCCCC=CC(=O)[O-]
REMARK SMILES IDX 5 1 6 2 7 3 8 4 9 5 10 6 11 7 4 8 3 9 2 10 1 11
REMARK H PARENT
REMARK Flexibility Score: inf
ROOT
ATOM      1  C   UNL     1      25.227  -4.208   1.196  1.00  0.00     0.004 C 
ENDROOT
BRANCH   1   2
ATOM      2  C   UNL     1      24.386  -3.252   2.050  1.00  0.00     0.027 C 
BRANCH   2   3
ATOM      3  C   UNL     1      23.398  -2.487   1.214  1.00  0.00    -0.025 C 
ATOM      4  C   UNL     1      23.634  -1.231   0.823  1.00  0.00     0.020 C 
BRANCH   4   5
ATOM      5  C   UNL     1      22.659  -0.464   0.035  1.00  0.00     0.064 C 
ATOM      6  O   UNL     1      22.943   0.704  -0.339  1.00  0.00    -0.545 OA
ATOM      7  O   UNL     1      21.426  -1.007  -0.306  1.00  0.00    -0.545 OA
ENDBRANCH   4   5
ENDBRANCH   2   3
ENDBRANCH   1   2
BRANCH   1   8
ATOM      8  C   UNL     1      26.697  -3.773   1.114  1.00  0.00     0.000 C 
BRANCH   8   9
ATOM      9  C   UNL     1      27.019  -3.175  -0.260  1.00  0.00    -0.000 C 
BRANCH   9  10
ATOM     10  C   UNL     1      26.002  -3.634  -1.311  1.00  0.00    -0.003 C 
ATOM     11  C   UNL     1      25.306  -2.442  -1.961  1.00  0.00     0.004 C 
ENDBRANCH   9  10
ENDBRANCH   8   9
ENDBRANCH   1   8
TORSDOF 6
ENDMDL
MODEL 5
REMARK VINA RESULT:    -4.932      3.148      5.118
REMARK INTER + INTRA:          -7.393
REMARK INTER:                  -6.682
REMARK INTRA:                  -0.710
REMARK UNBOUND:                -0.731
REMARK SMILES CCCCCCC=CC(=O)[O-]
REMARK SMILES IDX 5 1 6 2 7 3 8 4 9 5 10 6 11 7 4 8 3 9 2 10 1 11
REMARK H PARENT
REMARK Flexibility Score: inf
ROOT
ATOM      1  C   UNL     1      25.908  -2.769  -1.101  1.00  0.00     0.004 C 
ENDROOT
BRANCH   1   2
ATOM      2  C   UNL     1      25.081  -1.515  -0.795  1.00  0.00     0.027 C 
BRANCH   2   3
ATOM      3  C   UNL     1      23.605  -1.800  -0.846  1.00  0.00    -0.025 C 
ATOM      4  C   UNL     1      22.814  -1.594   0.212  1.00  0.00     0.020 C 
BRANCH   4   5
ATOM      5  C   UNL     1      21.378  -1.903   0.183  1.00  0.00     0.064 C 
ATOM      6  O   UNL     1      20.880  -2.632   1.081  1.00  0.00    -0.545 OA
ATOM      7  O   UNL     1      20.556  -1.403  -0.821  1.00  0.00    -0.545 OA
ENDBRANCH   4   5
ENDBRANCH   2   3
ENDBRANCH   1   2
BRANCH   1   8
ATOM      8  C   UNL     1      26.942  -3.064  -0.005  1.00  0.00     0.000 C 
BRANCH   8   9
ATOM      9  C   UNL     1      26.266  -3.611   1.258  1.00  0.00    -0.000 C 
BRANCH   9  10
ATOM     10  C   UNL     1      25.293  -4.745   0.914  1.00  0.00    -0.003 C 
ATOM     11  C   UNL     1      24.038  -4.675   1.779  1.00  0.00     0.004 C 
ENDBRANCH   9  10
ENDBRANCH   8   9
ENDBRANCH   1   8
TORSDOF 6
ENDMDL
MODEL 6
REMARK VINA RESULT:    -4.822      2.968      4.439
REMARK INTER + INTRA:          -7.244
REMARK INTER:                  -6.559
REMARK INTRA:                  -0.686
REMARK UNBOUND:                -0.731
REMARK SMILES CCCCCCC=CC(=O)[O-]
REMARK SMILES IDX 5 1 6 2 7 3 8 4 9 5 10 6 11 7 4 8 3 9 2 10 1 11
REMARK H PARENT
REMARK Flexibility Score: inf
ROOT
ATOM      1  C   UNL     1      26.716  -2.913   0.034  1.00  0.00     0.004 C 
ENDROOT
BRANCH   1   2
ATOM      2  C   UNL     1      26.428  -4.025   1.051  1.00  0.00     0.027 C 
BRANCH   2   3
ATOM      3  C   UNL     1      25.049  -3.895   1.635  1.00  0.00    -0.025 C 
ATOM      4  C   UNL     1      24.062  -4.731   1.296  1.00  0.00     0.020 C 
BRANCH   4   5
ATOM      5  C   UNL     1      22.702  -4.590   1.835  1.00  0.00     0.064 C 
ATOM      6  O   UNL     1      22.518  -3.938   2.895  1.00  0.00    -0.545 OA
ATOM      7  O   UNL     1      21.612  -5.166   1.191  1.00  0.00    -0.545 OA
ENDBRANCH   4   5
ENDBRANCH   2   3
ENDBRANCH   1   2
BRANCH   1   8
ATOM      8  C   UNL     1      26.219  -3.271  -1.374  1.00  0.00     0.000 C 
BRANCH   8   9
ATOM      9  C   UNL     1      25.001  -2.424  -1.759  1.00  0.00    -0.000 C 
BRANCH   9  10
ATOM     10  C   UNL     1      24.860  -1.210  -0.834  1.00  0.00    -0.003 C 
ATOM     11  C   UNL     1      23.467  -1.147  -0.214  1.00  0.00     0.004 C 
ENDBRANCH   9  10
ENDBRANCH   8   9
ENDBRANCH   1   8
TORSDOF 6
ENDMDL
MODEL 7
REMARK VINA RESULT:    -4.781      2.904      4.500
REMARK INTER + INTRA:          -7.189
REMARK INTER:                  -6.552
REMARK INTRA:                  -0.637
REMARK UNBOUND:                -0.731
REMARK SMILES CCCCCCC=CC(=O)[O-]
REMARK SMILES IDX 5 1 6 2 7 3 8 4 9 5 10 6 11 7 4 8 3 9 2 10 1 11
REMARK H PARENT
REMARK Flexibility Score: inf
ROOT
ATOM      1  C   UNL     1      24.963  -1.227  -0.555  1.00  0.00     0.004 C 
ENDROOT
BRANCH   1   2
ATOM      2  C   UNL     1      23.752  -1.168   0.384  1.00  0.00     0.027 C 
BRANCH   2   3
ATOM      3  C   UNL     1      23.010  -2.475   0.410  1.00  0.00    -0.025 C 
ATOM      4  C   UNL     1      23.053  -3.285   1.473  1.00  0.00     0.020 C 
BRANCH   4   5
ATOM      5  C   UNL     1      22.359  -4.581   1.494  1.00  0.00     0.064 C 
ATOM      6  O   UNL     1      21.980  -5.100   0.412  1.00  0.00    -0.545 OA
ATOM      7  O   UNL     1      22.115  -5.244   2.691  1.00  0.00    -0.545 OA
ENDBRANCH   4   5
ENDBRANCH   2   3
ENDBRANCH   1   2
BRANCH   1   8
ATOM      8  C   UNL     1      24.906  -2.434  -1.502  1.00  0.00     0.000 C 
BRANCH   8   9
ATOM      9  C   UNL     1      26.196  -3.258  -1.423  1.00  0.00    -0.000 C 
BRANCH   9  10
ATOM     10  C   UNL     1      26.963  -2.956  -0.130  1.00  0.00    -0.003 C 
ATOM     11  C   UNL     1      26.706  -4.026   0.927  1.00  0.00     0.004 C 
ENDBRANCH   9  10
ENDBRANCH   8   9
ENDBRANCH   1   8
TORSDOF 6
ENDMDL
MODEL 8
REMARK VINA RESULT:    -4.759      2.056      2.561
REMARK INTER + INTRA:          -7.159
REMARK INTER:                  -6.738
REMARK INTRA:                  -0.421
REMARK UNBOUND:                -0.731
REMARK SMILES CCCCCCC=CC(=O)[O-]
REMARK SMILES IDX 5 1 6 2 7 3 8 4 9 5 10 6 11 7 4 8 3 9 2 10 1 11
REMARK H PARENT
REMARK Flexibility Score: inf
ROOT
ATOM      1  C   UNL     1      22.492   0.050  -0.128  1.00  0.00     0.004 C 
ENDROOT
BRANCH   1   2
ATOM      2  C   UNL     1      23.732  -0.680   0.403  1.00  0.00     0.027 C 
BRANCH   2   3
ATOM      3  C   UNL     1      23.471  -2.149   0.588  1.00  0.00    -0.025 C 
ATOM      4  C   UNL     1      24.056  -2.848   1.566  1.00  0.00     0.020 C 
BRANCH   4   5
ATOM      5  C   UNL     1      23.834  -4.291   1.732  1.00  0.00     0.064 C 
ATOM      6  O   UNL     1      22.736  -4.703   2.190  1.00  0.00    -0.545 OA
ATOM      7  O   UNL     1      24.818  -5.212   1.391  1.00  0.00    -0.545 OA
ENDBRANCH   4   5
ENDBRANCH   2   3
ENDBRANCH   1   2
BRANCH   1   8
ATOM      8  C   UNL     1      22.667   0.511  -1.582  1.00  0.00     0.000 C 
BRANCH   8   9
ATOM      9  C   UNL     1      21.937  -0.429  -2.549  1.00  0.00    -0.000 C 
BRANCH   9  10
ATOM     10  C   UNL     1      22.925  -1.360  -3.261  1.00  0.00    -0.003 C 
ATOM     11  C   UNL     1      22.272  -2.696  -3.606  1.00  0.00     0.004 C 
ENDBRANCH   9  10
ENDBRANCH   8   9
ENDBRANCH   1   8
TORSDOF 6
ENDMDL
MODEL 9
REMARK VINA RESULT:    -4.714      1.334      2.142
REMARK INTER + INTRA:          -7.097
REMARK INTER:                  -6.538
REMARK INTRA:                  -0.560
REMARK UNBOUND:                -0.731
REMARK SMILES CCCCCCC=CC(=O)[O-]
REMARK SMILES IDX 5 1 6 2 7 3 8 4 9 5 10 6 11 7 4 8 3 9 2 10 1 11
REMARK H PARENT
REMARK Flexibility Score: inf
ROOT
ATOM      1  C   UNL     1      22.692  -0.069  -2.101  1.00  0.00     0.004 C 
ENDROOT
BRANCH   1   2
ATOM      2  C   UNL     1      23.637  -0.350  -0.926  1.00  0.00     0.027 C 
BRANCH   2   3
ATOM      3  C   UNL     1      24.593  -1.467  -1.242  1.00  0.00    -0.025 C 
ATOM      4  C   UNL     1      25.097  -2.251  -0.283  1.00  0.00     0.020 C 
BRANCH   4   5
ATOM      5  C   UNL     1      26.059  -3.322  -0.578  1.00  0.00     0.064 C 
ATOM      6  O   UNL     1      25.657  -4.387  -1.115  1.00  0.00    -0.545 OA
ATOM      7  O   UNL     1      27.408  -3.178  -0.274  1.00  0.00    -0.545 OA
ENDBRANCH   4   5
ENDBRANCH   2   3
ENDBRANCH   1   2
BRANCH   1   8
ATOM      8  C   UNL     1      22.846  -1.099  -3.230  1.00  0.00     0.000 C 
BRANCH   8   9
ATOM      9  C   UNL     1      21.649  -2.056  -3.268  1.00  0.00    -0.000 C 
BRANCH   9  10
ATOM     10  C   UNL     1      22.056  -3.423  -3.829  1.00  0.00    -0.003 C 
ATOM     11  C   UNL     1      22.521  -4.359  -2.716  1.00  0.00     0.004 C 
ENDBRANCH   9  10
ENDBRANCH   8   9
ENDBRANCH   1   8
TORSDOF 6
ENDMDL
