MODEL 1
REMARK VINA RESULT:    -3.150      0.000      0.000
REMARK INTER + INTRA:          -4.736
REMARK INTER:                  -4.807
REMARK INTRA:                   0.071
REMARK UNBOUND:                 0.071
REMARK SMILES CC1=CCC[C@H](C)C(=O)C[C@H](C(C)C)C(=O)C1
REMARK SMILES IDX 8 1 9 2 6 3 7 4 5 5 4 6 3 7 2 8 1 9 10 11 11 12 15 13 16 14
REMARK SMILES IDX 17 15 12 17 13 18 14 19
REMARK H PARENT
REMARK Flexibility Score: 70.00
ROOT
ATOM      1  C   UNL     1       6.075  -0.354  -7.258  1.00  0.00     0.136 C 
ATOM      2  O   UNL     1       5.225  -0.741  -8.045  1.00  0.00    -0.299 OA
ENDROOT
BRANCH   1   3
ATOM      3  C   UNL     1       7.342  -1.172  -7.060  1.00  0.00     0.053 C 
ATOM      4  C   UNL     1       8.052  -1.411  -8.400  1.00  0.00     0.016 C 
BRANCH   3   5
ATOM      5  C   UNL     1       8.290  -0.488  -6.053  1.00  0.00     0.015 C 
BRANCH   5   6
ATOM      6  C   UNL     1       9.560   0.050  -6.744  1.00  0.00     0.028 C 
BRANCH   6   7
ATOM      7  C   UNL     1       9.735   1.533  -6.568  1.00  0.00    -0.028 C 
ATOM      8  C   UNL     1       9.150   2.474  -7.344  1.00  0.00    -0.070 CG0
ATOM      9  C   UNL     1       9.363   3.920  -6.967  1.00  0.00     0.039 C 
ATOM     10  G   UNL     1       8.328   2.146  -8.585  1.00  0.00     0.000 G0
ENDBRANCH   6   7
ENDBRANCH   5   6
ENDBRANCH   3   5
ENDBRANCH   1   3
BRANCH   1  11
ATOM     11  C   UNL     1       5.807   0.872  -6.419  1.00  0.00     0.087 C 
BRANCH  11  12
ATOM     12  C   UNL     1       6.154   2.262  -7.044  1.00  0.00     0.066 C 
BRANCH  12  13
ATOM     13  C   UNL     1       6.835   2.195  -8.416  1.00  0.00     0.140 C 
ATOM     14  O   UNL     1       6.129   2.112  -9.410  1.00  0.00    -0.299 OA
BRANCH  13  15
ATOM     15  C   UNL     1       8.338   2.138  -8.601  1.00  0.00     0.106 CG0
ATOM     16  G   UNL     1       9.122   2.472  -7.337  1.00  0.00     0.000 G0
ENDBRANCH  13  15
ENDBRANCH  12  13
BRANCH  12  17
ATOM     17  C   UNL     1       5.104   3.422  -6.892  1.00  0.00    -0.006 C 
ATOM     18  C   UNL     1       5.754   4.816  -6.883  1.00  0.00     0.008 C 
ATOM     19  C   UNL     1       4.105   3.298  -5.730  1.00  0.00     0.008 C 
ENDBRANCH  12  17
ENDBRANCH  11  12
ENDBRANCH   1  11
TORSDOF 1
ENDMDL
MODEL 2
REMARK VINA RESULT:    -3.009      1.755      3.894
REMARK INTER + INTRA:          -4.521
REMARK INTER:                  -4.311
REMARK INTRA:                  -0.210
REMARK UNBOUND:                 0.071
REMARK SMILES CC1=CCC[C@H](C)C(=O)C[C@H](C(C)C)C(=O)C1
REMARK SMILES IDX 8 1 9 2 6 3 7 4 5 5 4 6 3 7 2 8 1 9 10 11 11 12 15 13 16 14
REMARK SMILES IDX 17 15 12 17 13 18 14 19
REMARK H PARENT
REMARK Flexibility Score: 70.00
ROOT
ATOM      1  C   UNL     1       5.070   2.674  -6.579  1.00  0.00     0.136 C 
ATOM      2  O   UNL     1       4.225   3.126  -5.821  1.00  0.00    -0.299 OA
ENDROOT
BRANCH   1   3
ATOM      3  C   UNL     1       5.500   3.484  -7.792  1.00  0.00     0.053 C 
ATOM      4  C   UNL     1       4.280   3.915  -8.620  1.00  0.00     0.016 C 
BRANCH   3   5
ATOM      5  C   UNL     1       6.334   4.712  -7.370  1.00  0.00     0.015 C 
BRANCH   5   6
ATOM      6  C   UNL     1       7.770   4.313  -6.970  1.00  0.00     0.028 C 
BRANCH   6   7
ATOM      7  C   UNL     1       8.544   3.709  -8.109  1.00  0.00    -0.028 C 
ATOM      8  C   UNL     1       9.055   2.457  -8.115  1.00  0.00    -0.070 CG0
ATOM      9  C   UNL     1       9.726   1.982  -9.381  1.00  0.00     0.039 C 
ATOM     10  G   UNL     1       9.015   1.529  -6.906  1.00  0.00     0.000 G0
ENDBRANCH   6   7
ENDBRANCH   5   6
ENDBRANCH   3   5
ENDBRANCH   1   3
BRANCH   1  11
ATOM     11  C   UNL     1       5.593   1.276  -6.358  1.00  0.00     0.087 C 
BRANCH  11  12
ATOM     12  C   UNL     1       6.533   0.678  -7.454  1.00  0.00     0.066 C 
BRANCH  12  13
ATOM     13  C   UNL     1       7.976   0.433  -6.997  1.00  0.00     0.140 C 
ATOM     14  O   UNL     1       8.282  -0.690  -6.623  1.00  0.00    -0.299 OA
BRANCH  13  15
ATOM     15  C   UNL     1       9.019   1.527  -6.898  1.00  0.00     0.106 CG0
ATOM     16  G   UNL     1       9.056   2.447  -8.113  1.00  0.00     0.000 G0
ENDBRANCH  13  15
ENDBRANCH  12  13
BRANCH  12  17
ATOM     17  C   UNL     1       5.951  -0.434  -8.400  1.00  0.00    -0.006 C 
ATOM     18  C   UNL     1       4.902   0.111  -9.385  1.00  0.00     0.008 C 
ATOM     19  C   UNL     1       5.426  -1.709  -7.720  1.00  0.00     0.008 C 
ENDBRANCH  12  17
ENDBRANCH  11  12
ENDBRANCH   1  11
TORSDOF 1
ENDMDL
MODEL 3
REMARK VINA RESULT:    -2.966      2.169      3.017
REMARK INTER + INTRA:          -4.456
REMARK INTER:                  -4.547
REMARK INTRA:                   0.090
REMARK UNBOUND:                 0.071
REMARK SMILES CC1=CCC[C@H](C)C(=O)C[C@H](C(C)C)C(=O)C1
REMARK SMILES IDX 8 1 9 2 6 3 7 4 5 5 4 6 3 7 2 8 1 9 10 11 11 12 15 13 16 14
REMARK SMILES IDX 17 15 12 17 13 18 14 19
REMARK H PARENT
REMARK Flexibility Score: 70.00
ROOT
ATOM      1  C   UNL     1       5.982   0.369  -6.410  1.00  0.00     0.136 C 
ATOM      2  O   UNL     1       5.924   0.761  -5.255  1.00  0.00    -0.299 OA
ENDROOT
BRANCH   1   3
ATOM      3  C   UNL     1       6.480  -1.038  -6.701  1.00  0.00     0.053 C 
ATOM      4  C   UNL     1       6.735  -1.806  -5.396  1.00  0.00     0.016 C 
BRANCH   3   5
ATOM      5  C   UNL     1       5.484  -1.803  -7.599  1.00  0.00     0.015 C 
BRANCH   5   6
ATOM      6  C   UNL     1       5.962  -1.851  -9.064  1.00  0.00     0.028 C 
BRANCH   6   7
ATOM      7  C   UNL     1       7.456  -1.728  -9.194  1.00  0.00    -0.028 C 
ATOM      8  C   UNL     1       8.107  -0.593  -9.537  1.00  0.00    -0.070 CG0
ATOM      9  C   UNL     1       9.616  -0.626  -9.529  1.00  0.00     0.039 C 
ATOM     10  G   UNL     1       7.397   0.688  -9.960  1.00  0.00     0.000 G0
ENDBRANCH   6   7
ENDBRANCH   5   6
ENDBRANCH   3   5
ENDBRANCH   1   3
BRANCH   1  11
ATOM     11  C   UNL     1       5.660   1.323  -7.535  1.00  0.00     0.087 C 
BRANCH  11  12
ATOM     12  C   UNL     1       6.764   2.352  -7.942  1.00  0.00     0.066 C 
BRANCH  12  13
ATOM     13  C   UNL     1       7.700   1.880  -9.060  1.00  0.00     0.140 C 
ATOM     14  O   UNL     1       8.711   2.530  -9.283  1.00  0.00    -0.299 OA
BRANCH  13  15
ATOM     15  C   UNL     1       7.397   0.700  -9.962  1.00  0.00     0.106 CG0
ATOM     16  G   UNL     1       8.097  -0.587  -9.541  1.00  0.00     0.000 G0
ENDBRANCH  13  15
ENDBRANCH  12  13
BRANCH  12  17
ATOM     17  C   UNL     1       6.362   3.870  -8.027  1.00  0.00    -0.006 C 
ATOM     18  C   UNL     1       6.407   4.576  -6.662  1.00  0.00     0.008 C 
ATOM     19  C   UNL     1       5.040   4.192  -8.745  1.00  0.00     0.008 C 
ENDBRANCH  12  17
ENDBRANCH  11  12
ENDBRANCH   1  11
TORSDOF 1
ENDMDL
MODEL 4
REMARK VINA RESULT:    -2.877      1.936      4.452
REMARK INTER + INTRA:          -4.321
REMARK INTER:                  -4.583
REMARK INTRA:                   0.262
REMARK UNBOUND:                 0.071
REMARK SMILES CC1=CCC[C@H](C)C(=O)C[C@H](C(C)C)C(=O)C1
REMARK SMILES IDX 8 1 9 2 6 3 7 4 5 5 4 6 3 7 2 8 1 9 10 11 11 12 15 13 16 14
REMARK SMILES IDX 17 15 12 17 13 18 14 19
REMARK H PARENT
REMARK Flexibility Score: 70.00
ROOT
ATOM      1  C   UNL     1       8.853   2.164  -7.558  1.00  0.00     0.136 C 
ATOM      2  O   UNL     1       9.931   1.693  -7.230  1.00  0.00    -0.299 OA
ENDROOT
BRANCH   1   3
ATOM      3  C   UNL     1       8.489   3.576  -7.124  1.00  0.00     0.053 C 
ATOM      4  C   UNL     1       9.695   4.277  -6.481  1.00  0.00     0.016 C 
BRANCH   3   5
ATOM      5  C   UNL     1       7.949   4.398  -8.313  1.00  0.00     0.015 C 
BRANCH   5   6
ATOM      6  C   UNL     1       6.826   5.360  -7.876  1.00  0.00     0.028 C 
BRANCH   6   7
ATOM      7  C   UNL     1       5.948   4.780  -6.801  1.00  0.00    -0.028 C 
ATOM      8  C   UNL     1       5.069   3.769  -6.987  1.00  0.00    -0.070 CG0
ATOM      9  C   UNL     1       4.336   3.251  -5.774  1.00  0.00     0.039 C 
ATOM     10  G   UNL     1       4.764   3.162  -8.352  1.00  0.00     0.000 G0
ENDBRANCH   6   7
ENDBRANCH   5   6
ENDBRANCH   3   5
ENDBRANCH   1   3
BRANCH   1  11
ATOM     11  C   UNL     1       7.859   1.301  -8.295  1.00  0.00     0.087 C 
BRANCH  11  12
ATOM     12  C   UNL     1       6.430   1.161  -7.677  1.00  0.00     0.066 C 
BRANCH  12  13
ATOM     13  C   UNL     1       5.301   1.746  -8.533  1.00  0.00     0.140 C 
ATOM     14  O   UNL     1       4.857   1.069  -9.449  1.00  0.00    -0.299 OA
BRANCH  13  15
ATOM     15  C   UNL     1       4.766   3.154  -8.363  1.00  0.00     0.106 CG0
ATOM     16  G   UNL     1       5.079   3.765  -7.002  1.00  0.00     0.000 G0
ENDBRANCH  13  15
ENDBRANCH  12  13
BRANCH  12  17
ATOM     17  C   UNL     1       6.068  -0.186  -6.953  1.00  0.00    -0.006 C 
ATOM     18  C   UNL     1       6.475  -0.193  -5.470  1.00  0.00     0.008 C 
ATOM     19  C   UNL     1       6.537  -1.482  -7.635  1.00  0.00     0.008 C 
ENDBRANCH  12  17
ENDBRANCH  11  12
ENDBRANCH   1  11
TORSDOF 1
ENDMDL
MODEL 5
REMARK VINA RESULT:    -2.758     20.599     22.321
REMARK INTER + INTRA:          -4.139
REMARK INTER:                  -3.874
REMARK INTRA:                  -0.265
REMARK UNBOUND:                 0.071
REMARK SMILES CC1=CCC[C@H](C)C(=O)C[C@H](C(C)C)C(=O)C1
REMARK SMILES IDX 8 1 9 2 6 3 7 4 5 5 4 6 3 7 2 8 1 9 10 11 11 12 15 13 16 14
REMARK SMILES IDX 17 15 12 17 13 18 14 19
REMARK H PARENT
REMARK Flexibility Score: 70.00
ROOT
ATOM      1  C   UNL     1      -5.294  -4.936   7.656  1.00  0.00     0.136 C 
ATOM      2  O   UNL     1      -5.662  -4.227   6.733  1.00  0.00    -0.299 OA
ENDROOT
BRANCH   1   3
ATOM      3  C   UNL     1      -5.812  -4.668   9.061  1.00  0.00     0.053 C 
ATOM      4  C   UNL     1      -5.283  -3.326   9.589  1.00  0.00     0.016 C 
BRANCH   3   5
ATOM      5  C   UNL     1      -7.354  -4.701   9.097  1.00  0.00     0.015 C 
BRANCH   5   6
ATOM      6  C   UNL     1      -7.894  -6.144   9.026  1.00  0.00     0.028 C 
BRANCH   6   7
ATOM      7  C   UNL     1      -8.322  -6.538   7.639  1.00  0.00    -0.028 C 
ATOM      8  C   UNL     1      -7.927  -7.664   7.003  1.00  0.00    -0.070 CG0
ATOM      9  C   UNL     1      -8.529  -7.947   5.648  1.00  0.00     0.039 C 
ATOM     10  G   UNL     1      -6.891  -8.629   7.568  1.00  0.00     0.000 G0
ENDBRANCH   6   7
ENDBRANCH   5   6
ENDBRANCH   3   5
ENDBRANCH   1   3
BRANCH   1  11
ATOM     11  C   UNL     1      -4.249  -5.998   7.407  1.00  0.00     0.087 C 
BRANCH  11  12
ATOM     12  C   UNL     1      -4.518  -7.422   7.992  1.00  0.00     0.066 C 
BRANCH  12  13
ATOM     13  C   UNL     1      -5.457  -8.294   7.150  1.00  0.00     0.140 C 
ATOM     14  O   UNL     1      -5.067  -8.681   6.058  1.00  0.00    -0.299 OA
BRANCH  13  15
ATOM     15  C   UNL     1      -6.878  -8.628   7.559  1.00  0.00     0.106 CG0
ATOM     16  G   UNL     1      -7.917  -7.664   7.000  1.00  0.00     0.000 G0
ENDBRANCH  13  15
ENDBRANCH  12  13
BRANCH  12  17
ATOM     17  C   UNL     1      -3.309  -8.197   8.633  1.00  0.00    -0.006 C 
ATOM     18  C   UNL     1      -3.023  -7.762  10.079  1.00  0.00     0.008 C 
ATOM     19  C   UNL     1      -2.003  -8.227   7.821  1.00  0.00     0.008 C 
ENDBRANCH  12  17
ENDBRANCH  11  12
ENDBRANCH   1  11
TORSDOF 1
ENDMDL
MODEL 6
REMARK VINA RESULT:    -2.701     19.868     21.773
REMARK INTER + INTRA:          -4.052
REMARK INTER:                  -3.921
REMARK INTRA:                  -0.130
REMARK UNBOUND:                 0.071
REMARK SMILES CC1=CCC[C@H](C)C(=O)C[C@H](C(C)C)C(=O)C1
REMARK SMILES IDX 8 1 9 2 6 3 7 4 5 5 4 6 3 7 2 8 1 9 10 11 11 12 15 13 16 14
REMARK SMILES IDX 17 15 12 17 13 18 14 19
REMARK H PARENT
REMARK Flexibility Score: 70.00
ROOT
ATOM      1  C   UNL     1      -6.618  -8.490   7.088  1.00  0.00     0.136 C 
ATOM      2  O   UNL     1      -6.177  -9.542   6.653  1.00  0.00    -0.299 OA
ENDROOT
BRANCH   1   3
ATOM      3  C   UNL     1      -7.936  -7.951   6.554  1.00  0.00     0.053 C 
ATOM      4  C   UNL     1      -8.974  -9.077   6.433  1.00  0.00     0.016 C 
BRANCH   3   5
ATOM      5  C   UNL     1      -8.469  -6.810   7.445  1.00  0.00     0.015 C 
BRANCH   5   6
ATOM      6  C   UNL     1      -8.400  -5.448   6.726  1.00  0.00     0.028 C 
BRANCH   6   7
ATOM      7  C   UNL     1      -8.123  -4.306   7.665  1.00  0.00    -0.028 C 
ATOM      8  C   UNL     1      -6.916  -3.716   7.824  1.00  0.00    -0.070 CG0
ATOM      9  C   UNL     1      -6.840  -2.521   8.744  1.00  0.00     0.039 C 
ATOM     10  G   UNL     1      -5.642  -4.216   7.154  1.00  0.00     0.000 G0
ENDBRANCH   6   7
ENDBRANCH   5   6
ENDBRANCH   3   5
ENDBRANCH   1   3
BRANCH   1  11
ATOM     11  C   UNL     1      -5.796  -7.688   8.068  1.00  0.00     0.087 C 
BRANCH  11  12
ATOM     12  C   UNL     1      -4.726  -6.712   7.480  1.00  0.00     0.066 C 
BRANCH  12  13
ATOM     13  C   UNL     1      -4.874  -5.254   7.929  1.00  0.00     0.140 C 
ATOM     14  O   UNL     1      -4.419  -4.933   9.017  1.00  0.00    -0.299 OA
BRANCH  13  15
ATOM     15  C   UNL     1      -5.632  -4.208   7.136  1.00  0.00     0.106 CG0
ATOM     16  G   UNL     1      -6.905  -3.726   7.821  1.00  0.00     0.000 G0
ENDBRANCH  13  15
ENDBRANCH  12  13
BRANCH  12  17
ATOM     17  C   UNL     1      -3.240  -7.217   7.382  1.00  0.00    -0.006 C 
ATOM     18  C   UNL     1      -2.902  -7.809   6.004  1.00  0.00     0.008 C 
ATOM     19  C   UNL     1      -2.760  -8.162   8.496  1.00  0.00     0.008 C 
ENDBRANCH  12  17
ENDBRANCH  11  12
ENDBRANCH   1  11
TORSDOF 1
ENDMDL
MODEL 7
REMARK VINA RESULT:    -2.701      2.066      3.848
REMARK INTER + INTRA:          -4.051
REMARK INTER:                  -3.576
REMARK INTRA:                  -0.476
REMARK UNBOUND:                 0.071
REMARK SMILES CC1=CCC[C@H](C)C(=O)C[C@H](C(C)C)C(=O)C1
REMARK SMILES IDX 8 1 9 2 6 3 7 4 5 5 4 6 3 7 2 8 1 9 10 11 11 12 15 13 16 14
REMARK SMILES IDX 17 15 12 17 13 18 14 19
REMARK H PARENT
REMARK Flexibility Score: 70.00
ROOT
ATOM      1  C   UNL     1       5.097   4.109  -7.798  1.00  0.00     0.136 C 
ATOM      2  O   UNL     1       4.088   3.997  -8.475  1.00  0.00    -0.299 OA
ENDROOT
BRANCH   1   3
ATOM      3  C   UNL     1       5.322   3.166  -6.625  1.00  0.00     0.053 C 
ATOM      4  C   UNL     1       4.234   3.356  -5.558  1.00  0.00     0.016 C 
BRANCH   3   5
ATOM      5  C   UNL     1       5.374   1.698  -7.098  1.00  0.00     0.015 C 
BRANCH   5   6
ATOM      6  C   UNL     1       6.564   1.448  -8.047  1.00  0.00     0.028 C 
BRANCH   6   7
ATOM      7  C   UNL     1       7.882   1.396  -7.325  1.00  0.00    -0.028 C 
ATOM      8  C   UNL     1       8.821   2.369  -7.366  1.00  0.00    -0.070 CG0
ATOM      9  C   UNL     1      10.048   2.191  -6.506  1.00  0.00     0.039 C 
ATOM     10  G   UNL     1       8.713   3.603  -8.256  1.00  0.00     0.000 G0
ENDBRANCH   6   7
ENDBRANCH   5   6
ENDBRANCH   3   5
ENDBRANCH   1   3
BRANCH   1  11
ATOM     11  C   UNL     1       6.052   5.246  -8.069  1.00  0.00     0.087 C 
BRANCH  11  12
ATOM     12  C   UNL     1       7.213   5.470  -7.047  1.00  0.00     0.066 C 
BRANCH  12  13
ATOM     13  C   UNL     1       8.570   4.908  -7.486  1.00  0.00     0.140 C 
ATOM     14  O   UNL     1       9.572   5.575  -7.271  1.00  0.00    -0.299 OA
BRANCH  13  15
ATOM     15  C   UNL     1       8.729   3.610  -8.253  1.00  0.00     0.106 CG0
ATOM     16  G   UNL     1       8.815   2.379  -7.358  1.00  0.00     0.000 G0
ENDBRANCH  13  15
ENDBRANCH  12  13
BRANCH  12  17
ATOM     17  C   UNL     1       7.290   6.855  -6.308  1.00  0.00    -0.006 C 
ATOM     18  C   UNL     1       7.142   6.725  -4.782  1.00  0.00     0.008 C 
ATOM     19  C   UNL     1       6.369   7.968  -6.835  1.00  0.00     0.008 C 
ENDBRANCH  12  17
ENDBRANCH  11  12
ENDBRANCH   1  11
TORSDOF 1
ENDMDL
MODEL 8
REMARK VINA RESULT:    -2.649     20.879     22.311
REMARK INTER + INTRA:          -3.972
REMARK INTER:                  -3.891
REMARK INTRA:                  -0.081
REMARK UNBOUND:                 0.071
REMARK SMILES CC1=CCC[C@H](C)C(=O)C[C@H](C(C)C)C(=O)C1
REMARK SMILES IDX 8 1 9 2 6 3 7 4 5 5 4 6 3 7 2 8 1 9 10 11 11 12 15 13 16 14
REMARK SMILES IDX 17 15 12 17 13 18 14 19
REMARK H PARENT
REMARK Flexibility Score: 70.00
ROOT
ATOM      1  C   UNL     1      -6.453  -4.173   6.992  1.00  0.00     0.136 C 
ATOM      2  O   UNL     1      -5.926  -4.050   5.897  1.00  0.00    -0.299 OA
ENDROOT
BRANCH   1   3
ATOM      3  C   UNL     1      -5.616  -4.006   8.250  1.00  0.00     0.053 C 
ATOM      4  C   UNL     1      -6.511  -3.960   9.497  1.00  0.00     0.016 C 
BRANCH   3   5
ATOM      5  C   UNL     1      -4.569  -5.132   8.371  1.00  0.00     0.015 C 
BRANCH   5   6
ATOM      6  C   UNL     1      -5.178  -6.413   8.978  1.00  0.00     0.028 C 
BRANCH   6   7
ATOM      7  C   UNL     1      -5.295  -7.532   7.979  1.00  0.00    -0.028 C 
ATOM      8  C   UNL     1      -6.455  -8.135   7.632  1.00  0.00    -0.070 CG0
ATOM      9  C   UNL     1      -6.399  -9.179   6.543  1.00  0.00     0.039 C 
ATOM     10  G   UNL     1      -7.790  -7.839   8.305  1.00  0.00     0.000 G0
ENDBRANCH   6   7
ENDBRANCH   5   6
ENDBRANCH   3   5
ENDBRANCH   1   3
BRANCH   1  11
ATOM     11  C   UNL     1      -7.901  -4.592   7.076  1.00  0.00     0.087 C 
BRANCH  11  12
ATOM     12  C   UNL     1      -8.288  -5.972   6.451  1.00  0.00     0.066 C 
BRANCH  12  13
ATOM     13  C   UNL     1      -8.753  -7.026   7.463  1.00  0.00     0.140 C 
ATOM     14  O   UNL     1      -9.953  -7.158   7.652  1.00  0.00    -0.299 OA
BRANCH  13  15
ATOM     15  C   UNL     1      -7.802  -7.852   8.306  1.00  0.00     0.106 CG0
ATOM     16  G   UNL     1      -6.464  -8.124   7.629  1.00  0.00     0.000 G0
ENDBRANCH  13  15
ENDBRANCH  12  13
BRANCH  12  17
ATOM     17  C   UNL     1      -9.086  -5.971   5.097  1.00  0.00    -0.006 C 
ATOM     18  C   UNL     1      -9.087  -7.345   4.405  1.00  0.00     0.008 C 
ATOM     19  C   UNL     1      -8.724  -4.870   4.086  1.00  0.00     0.008 C 
ENDBRANCH  12  17
ENDBRANCH  11  12
ENDBRANCH   1  11
TORSDOF 1
ENDMDL
MODEL 9
REMARK VINA RESULT:    -2.531      2.428      4.076
REMARK INTER + INTRA:          -3.792
REMARK INTER:                  -3.896
REMARK INTRA:                   0.104
REMARK UNBOUND:                 0.071
REMARK SMILES CC1=CCC[C@H](C)C(=O)C[C@H](C(C)C)C(=O)C1
REMARK SMILES IDX 8 1 9 2 6 3 7 4 5 5 4 6 3 7 2 8 1 9 10 11 11 12 15 13 16 14
REMARK SMILES IDX 17 15 12 17 13 18 14 19
REMARK H PARENT
REMARK Flexibility Score: 70.00
ROOT
ATOM      1  C   UNL     1       6.682   0.520  -7.376  1.00  0.00     0.136 C 
ATOM      2  O   UNL     1       5.906  -0.142  -6.704  1.00  0.00    -0.299 OA
ENDROOT
BRANCH   1   3
ATOM      3  C   UNL     1       7.055   0.049  -8.773  1.00  0.00     0.053 C 
ATOM      4  C   UNL     1       6.657  -1.420  -8.977  1.00  0.00     0.016 C 
BRANCH   3   5
ATOM      5  C   UNL     1       6.409   0.946  -9.850  1.00  0.00     0.015 C 
BRANCH   5   6
ATOM      6  C   UNL     1       4.906   1.164  -9.579  1.00  0.00     0.028 C 
BRANCH   6   7
ATOM      7  C   UNL     1       4.439   2.541  -9.966  1.00  0.00    -0.028 C 
ATOM      8  C   UNL     1       4.284   3.571  -9.104  1.00  0.00    -0.070 CG0
ATOM      9  C   UNL     1       3.895   4.911  -9.681  1.00  0.00     0.039 C 
ATOM     10  G   UNL     1       4.447   3.435  -7.595  1.00  0.00     0.000 G0
ENDBRANCH   6   7
ENDBRANCH   5   6
ENDBRANCH   3   5
ENDBRANCH   1   3
BRANCH   1  11
ATOM     11  C   UNL     1       7.339   1.736  -6.768  1.00  0.00     0.087 C 
BRANCH  11  12
ATOM     12  C   UNL     1       7.121   3.106  -7.488  1.00  0.00     0.066 C 
BRANCH  12  13
ATOM     13  C   UNL     1       5.832   3.837  -7.098  1.00  0.00     0.140 C 
ATOM     14  O   UNL     1       5.906   4.753  -6.292  1.00  0.00    -0.299 OA
BRANCH  13  15
ATOM     15  C   UNL     1       4.458   3.429  -7.590  1.00  0.00     0.106 CG0
ATOM     16  G   UNL     1       4.281   3.576  -9.097  1.00  0.00     0.000 G0
ENDBRANCH  13  15
ENDBRANCH  12  13
BRANCH  12  17
ATOM     17  C   UNL     1       8.368   4.043  -7.684  1.00  0.00    -0.006 C 
ATOM     18  C   UNL     1       8.064   5.261  -8.572  1.00  0.00     0.008 C 
ATOM     19  C   UNL     1       9.671   3.367  -8.143  1.00  0.00     0.008 C 
ENDBRANCH  12  17
ENDBRANCH  11  12
ENDBRANCH   1  11
TORSDOF 1
ENDMDL
