MODEL 1
REMARK VINA RESULT:     3.808      0.000      0.000
REMARK INTER + INTRA:           5.229
REMARK INTER:                   5.812
REMARK INTRA:                  -0.583
REMARK UNBOUND:                -0.583
REMARK SMILES CCCCCCCCCCC(=O)[O-]
REMARK SMILES IDX 7 1 8 2 9 3 10 4 11 5 12 6 13 7 6 8 5 9 4 10 3 11 2 12 1 13
REMARK H PARENT
REMARK Flexibility Score: inf
ROOT
ATOM      1  C   UNL     1      26.495  43.635   3.494  1.00  0.00     0.000 C 
ENDROOT
BRANCH   1   2
ATOM      2  C   UNL     1      25.491  43.283   4.607  1.00  0.00     0.000 C 
BRANCH   2   3
ATOM      3  C   UNL     1      24.449  42.216   4.224  1.00  0.00     0.006 C 
BRANCH   3   4
ATOM      4  C   UNL     1      24.166  42.171   2.717  1.00  0.00     0.053 C 
BRANCH   4   5
ATOM      5  C   UNL     1      22.705  42.355   2.454  1.00  0.00     0.041 C 
ATOM      6  O   UNL     1      22.102  43.362   2.910  1.00  0.00    -0.550 OA
ATOM      7  O   UNL     1      22.020  41.440   1.665  1.00  0.00    -0.550 OA
ENDBRANCH   4   5
ENDBRANCH   3   4
ENDBRANCH   2   3
ENDBRANCH   1   2
BRANCH   1   8
ATOM      8  C   UNL     1      27.483  44.738   3.909  1.00  0.00     0.000 C 
BRANCH   8   9
ATOM      9  C   UNL     1      27.248  45.237   5.343  1.00  0.00    -0.000 C 
BRANCH   9  10
ATOM     10  C   UNL     1      27.461  46.755   5.482  1.00  0.00    -0.000 C 
BRANCH  10  11
ATOM     11  C   UNL     1      27.019  47.291   6.853  1.00  0.00    -0.000 C 
BRANCH  11  12
ATOM     12  C   UNL     1      26.133  46.297   7.619  1.00  0.00    -0.003 C 
ATOM     13  C   UNL     1      24.700  46.811   7.728  1.00  0.00     0.004 C 
ENDBRANCH  11  12
ENDBRANCH  10  11
ENDBRANCH   9  10
ENDBRANCH   8   9
ENDBRANCH   1   8
TORSDOF 9
ENDMDL
MODEL 2
REMARK VINA RESULT:     4.291     15.273     16.387
REMARK INTER + INTRA:           5.965
REMARK INTER:                   6.153
REMARK INTRA:                  -0.188
REMARK UNBOUND:                -0.583
REMARK SMILES CCCCCCCCCCC(=O)[O-]
REMARK SMILES IDX 7 1 8 2 9 3 10 4 11 5 12 6 13 7 6 8 5 9 4 10 3 11 2 12 1 13
REMARK H PARENT
REMARK Flexibility Score: inf
ROOT
ATOM      1  C   UNL     1      26.072  31.405  -4.737  1.00  0.00     0.000 C 
ENDROOT
BRANCH   1   2
ATOM      2  C   UNL     1      25.873  30.605  -6.038  1.00  0.00     0.000 C 
BRANCH   2   3
ATOM      3  C   UNL     1      25.515  31.454  -7.271  1.00  0.00     0.006 C 
BRANCH   3   4
ATOM      4  C   UNL     1      24.116  31.150  -7.821  1.00  0.00     0.053 C 
BRANCH   4   5
ATOM      5  C   UNL     1      23.351  32.419  -8.032  1.00  0.00     0.041 C 
ATOM      6  O   UNL     1      22.093  32.399  -8.083  1.00  0.00    -0.550 OA
ATOM      7  O   UNL     1      24.025  33.629  -8.123  1.00  0.00    -0.550 OA
ENDBRANCH   4   5
ENDBRANCH   3   4
ENDBRANCH   2   3
ENDBRANCH   1   2
BRANCH   1   8
ATOM      8  C   UNL     1      26.889  30.638  -3.684  1.00  0.00     0.000 C 
BRANCH   8   9
ATOM      9  C   UNL     1      26.758  31.240  -2.276  1.00  0.00    -0.000 C 
BRANCH   9  10
ATOM     10  C   UNL     1      27.445  30.380  -1.200  1.00  0.00    -0.000 C 
BRANCH  10  11
ATOM     11  C   UNL     1      26.445  29.773  -0.203  1.00  0.00    -0.000 C 
BRANCH  11  12
ATOM     12  C   UNL     1      27.073  29.498   1.172  1.00  0.00    -0.003 C 
ATOM     13  C   UNL     1      27.665  28.094   1.234  1.00  0.00     0.004 C 
ENDBRANCH  11  12
ENDBRANCH  10  11
ENDBRANCH   9  10
ENDBRANCH   8   9
ENDBRANCH   1   8
TORSDOF 9
ENDMDL
MODEL 3
REMARK VINA RESULT:     4.613      3.074      6.068
REMARK INTER + INTRA:           6.456
REMARK INTER:                   6.452
REMARK INTRA:                   0.004
REMARK UNBOUND:                -0.583
REMARK SMILES CCCCCCCCCCC(=O)[O-]
REMARK SMILES IDX 7 1 8 2 9 3 10 4 11 5 12 6 13 7 6 8 5 9 4 10 3 11 2 12 1 13
REMARK H PARENT
REMARK Flexibility Score: inf
ROOT
ATOM      1  C   UNL     1      27.805  45.003   4.209  1.00  0.00     0.000 C 
ENDROOT
BRANCH   1   2
ATOM      2  C   UNL     1      27.134  45.626   5.448  1.00  0.00     0.000 C 
BRANCH   2   3
ATOM      3  C   UNL     1      27.512  47.094   5.718  1.00  0.00     0.006 C 
BRANCH   3   4
ATOM      4  C   UNL     1      27.099  47.569   7.117  1.00  0.00     0.053 C 
BRANCH   4   5
ATOM      5  C   UNL     1      26.113  46.620   7.721  1.00  0.00     0.041 C 
ATOM      6  O   UNL     1      26.511  45.566   8.282  1.00  0.00    -0.550 OA
ATOM      7  O   UNL     1      24.758  46.923   7.705  1.00  0.00    -0.550 OA
ENDBRANCH   4   5
ENDBRANCH   3   4
ENDBRANCH   2   3
ENDBRANCH   1   2
BRANCH   1   8
ATOM      8  C   UNL     1      26.929  43.938   3.529  1.00  0.00     0.000 C 
BRANCH   8   9
ATOM      9  C   UNL     1      25.895  43.320   4.484  1.00  0.00    -0.000 C 
BRANCH   9  10
ATOM     10  C   UNL     1      24.949  42.337   3.772  1.00  0.00    -0.000 C 
BRANCH  10  11
ATOM     11  C   UNL     1      23.485  42.507   4.208  1.00  0.00    -0.000 C 
BRANCH  11  12
ATOM     12  C   UNL     1      22.538  42.746   3.023  1.00  0.00    -0.003 C 
ATOM     13  C   UNL     1      22.778  41.726   1.913  1.00  0.00     0.004 C 
ENDBRANCH  11  12
ENDBRANCH  10  11
ENDBRANCH   9  10
ENDBRANCH   8   9
ENDBRANCH   1   8
TORSDOF 9
ENDMDL
MODEL 4
REMARK VINA RESULT:     5.455      4.538      6.088
REMARK INTER + INTRA:           7.742
REMARK INTER:                   8.101
REMARK INTRA:                  -0.360
REMARK UNBOUND:                -0.583
REMARK SMILES CCCCCCCCCCC(=O)[O-]
REMARK SMILES IDX 7 1 8 2 9 3 10 4 11 5 12 6 13 7 6 8 5 9 4 10 3 11 2 12 1 13
REMARK H PARENT
REMARK Flexibility Score: inf
ROOT
ATOM      1  C   UNL     1      29.121  44.548   2.210  1.00  0.00     0.000 C 
ENDROOT
BRANCH   1   2
ATOM      2  C   UNL     1      29.613  43.323   1.417  1.00  0.00     0.000 C 
BRANCH   2   3
ATOM      3  C   UNL     1      30.157  43.638   0.012  1.00  0.00     0.006 C 
BRANCH   3   4
ATOM      4  C   UNL     1      30.205  42.405  -0.900  1.00  0.00     0.053 C 
BRANCH   4   5
ATOM      5  C   UNL     1      29.444  42.661  -2.163  1.00  0.00     0.041 C 
ATOM      6  O   UNL     1      29.574  43.756  -2.770  1.00  0.00    -0.550 OA
ATOM      7  O   UNL     1      28.627  41.671  -2.694  1.00  0.00    -0.550 OA
ENDBRANCH   4   5
ENDBRANCH   3   4
ENDBRANCH   2   3
ENDBRANCH   1   2
BRANCH   1   8
ATOM      8  C   UNL     1      28.794  44.219   3.676  1.00  0.00     0.000 C 
BRANCH   8   9
ATOM      9  C   UNL     1      27.511  44.907   4.168  1.00  0.00    -0.000 C 
BRANCH   9  10
ATOM     10  C   UNL     1      26.419  43.900   4.571  1.00  0.00    -0.000 C 
BRANCH  10  11
ATOM     11  C   UNL     1      25.720  43.270   3.355  1.00  0.00    -0.000 C 
BRANCH  11  12
ATOM     12  C   UNL     1      24.447  42.500   3.738  1.00  0.00    -0.003 C 
ATOM     13  C   UNL     1      23.585  42.220   2.510  1.00  0.00     0.004 C 
ENDBRANCH  11  12
ENDBRANCH  10  11
ENDBRANCH   9  10
ENDBRANCH   8   9
ENDBRANCH   1   8
TORSDOF 9
ENDMDL
MODEL 5
REMARK VINA RESULT:     5.964      4.204      6.183
REMARK INTER + INTRA:           8.519
REMARK INTER:                   8.925
REMARK INTRA:                  -0.406
REMARK UNBOUND:                -0.583
REMARK SMILES CCCCCCCCCCC(=O)[O-]
REMARK SMILES IDX 7 1 8 2 9 3 10 4 11 5 12 6 13 7 6 8 5 9 4 10 3 11 2 12 1 13
REMARK H PARENT
REMARK Flexibility Score: inf
ROOT
ATOM      1  C   UNL     1      28.611  44.436   3.741  1.00  0.00     0.000 C 
ENDROOT
BRANCH   1   2
ATOM      2  C   UNL     1      29.348  44.732   2.422  1.00  0.00     0.000 C 
BRANCH   2   3
ATOM      3  C   UNL     1      29.622  43.497   1.544  1.00  0.00     0.006 C 
BRANCH   3   4
ATOM      4  C   UNL     1      30.097  43.862   0.132  1.00  0.00     0.053 C 
BRANCH   4   5
ATOM      5  C   UNL     1      30.205  42.634  -0.716  1.00  0.00     0.041 C 
ATOM      6  O   UNL     1      30.874  41.646  -0.316  1.00  0.00    -0.550 OA
ATOM      7  O   UNL     1      29.528  42.564  -1.926  1.00  0.00    -0.550 OA
ENDBRANCH   4   5
ENDBRANCH   3   4
ENDBRANCH   2   3
ENDBRANCH   1   2
BRANCH   1   8
ATOM      8  C   UNL     1      27.080  44.479   3.592  1.00  0.00     0.000 C 
BRANCH   8   9
ATOM      9  C   UNL     1      26.351  43.761   4.738  1.00  0.00    -0.000 C 
BRANCH   9  10
ATOM     10  C   UNL     1      25.321  42.736   4.231  1.00  0.00    -0.000 C 
BRANCH  10  11
ATOM     11  C   UNL     1      24.866  43.019   2.790  1.00  0.00    -0.000 C 
BRANCH  11  12
ATOM     12  C   UNL     1      23.707  42.115   2.347  1.00  0.00    -0.003 C 
ATOM     13  C   UNL     1      22.388  42.570   2.964  1.00  0.00     0.004 C 
ENDBRANCH  11  12
ENDBRANCH  10  11
ENDBRANCH   9  10
ENDBRANCH   8   9
ENDBRANCH   1   8
TORSDOF 9
ENDMDL
MODEL 6
REMARK VINA RESULT:     5.991      3.231      5.430
REMARK INTER + INTRA:           8.560
REMARK INTER:                   8.890
REMARK INTRA:                  -0.330
REMARK UNBOUND:                -0.583
REMARK SMILES CCCCCCCCCCC(=O)[O-]
REMARK SMILES IDX 7 1 8 2 9 3 10 4 11 5 12 6 13 7 6 8 5 9 4 10 3 11 2 12 1 13
REMARK H PARENT
REMARK Flexibility Score: inf
ROOT
ATOM      1  C   UNL     1      27.284  44.442   3.476  1.00  0.00     0.000 C 
ENDROOT
BRANCH   1   2
ATOM      2  C   UNL     1      26.671  44.102   4.847  1.00  0.00     0.000 C 
BRANCH   2   3
ATOM      3  C   UNL     1      25.487  43.118   4.800  1.00  0.00     0.006 C 
BRANCH   3   4
ATOM      4  C   UNL     1      25.050  42.776   3.370  1.00  0.00     0.053 C 
BRANCH   4   5
ATOM      5  C   UNL     1      23.628  42.313   3.356  1.00  0.00     0.041 C 
ATOM      6  O   UNL     1      22.980  42.224   4.431  1.00  0.00    -0.550 OA
ATOM      7  O   UNL     1      23.003  42.026   2.149  1.00  0.00    -0.550 OA
ENDBRANCH   4   5
ENDBRANCH   3   4
ENDBRANCH   2   3
ENDBRANCH   1   2
BRANCH   1   8
ATOM      8  C   UNL     1      28.820  44.504   3.509  1.00  0.00     0.000 C 
BRANCH   8   9
ATOM      9  C   UNL     1      29.437  44.701   2.115  1.00  0.00    -0.000 C 
BRANCH   9  10
ATOM     10  C   UNL     1      29.547  43.382   1.328  1.00  0.00    -0.000 C 
BRANCH  10  11
ATOM     11  C   UNL     1      30.323  43.545   0.011  1.00  0.00    -0.000 C 
BRANCH  11  12
ATOM     12  C   UNL     1      30.141  42.348  -0.934  1.00  0.00    -0.003 C 
ATOM     13  C   UNL     1      29.658  42.801  -2.309  1.00  0.00     0.004 C 
ENDBRANCH  11  12
ENDBRANCH  10  11
ENDBRANCH   9  10
ENDBRANCH   8   9
ENDBRANCH   1   8
TORSDOF 9
ENDMDL
MODEL 7
REMARK VINA RESULT:     6.787      3.361      6.018
REMARK INTER + INTRA:           9.775
REMARK INTER:                   9.941
REMARK INTRA:                  -0.166
REMARK UNBOUND:                -0.583
REMARK SMILES CCCCCCCCCCC(=O)[O-]
REMARK SMILES IDX 7 1 8 2 9 3 10 4 11 5 12 6 13 7 6 8 5 9 4 10 3 11 2 12 1 13
REMARK H PARENT
REMARK Flexibility Score: inf
ROOT
ATOM      1  C   UNL     1      26.420  43.325   5.303  1.00  0.00     0.000 C 
ENDROOT
BRANCH   1   2
ATOM      2  C   UNL     1      26.412  44.822   5.664  1.00  0.00     0.000 C 
BRANCH   2   3
ATOM      3  C   UNL     1      27.535  45.651   5.014  1.00  0.00     0.006 C 
BRANCH   3   4
ATOM      4  C   UNL     1      27.640  45.432   3.499  1.00  0.00     0.053 C 
BRANCH   4   5
ATOM      5  C   UNL     1      28.851  44.617   3.172  1.00  0.00     0.041 C 
ATOM      6  O   UNL     1      29.466  44.002   4.083  1.00  0.00    -0.550 OA
ATOM      7  O   UNL     1      29.273  44.497   1.855  1.00  0.00    -0.550 OA
ENDBRANCH   4   5
ENDBRANCH   3   4
ENDBRANCH   2   3
ENDBRANCH   1   2
BRANCH   1   8
ATOM      8  C   UNL     1      25.416  42.974   4.192  1.00  0.00     0.000 C 
BRANCH   8   9
ATOM      9  C   UNL     1      24.466  41.833   4.590  1.00  0.00    -0.000 C 
BRANCH   9  10
ATOM     10  C   UNL     1      22.985  42.241   4.502  1.00  0.00    -0.000 C 
BRANCH  10  11
ATOM     11  C   UNL     1      22.651  42.972   3.191  1.00  0.00    -0.000 C 
BRANCH  11  12
ATOM     12  C   UNL     1      23.007  42.147   1.946  1.00  0.00    -0.003 C 
ATOM     13  C   UNL     1      21.876  41.190   1.579  1.00  0.00     0.004 C 
ENDBRANCH  11  12
ENDBRANCH  10  11
ENDBRANCH   9  10
ENDBRANCH   8   9
ENDBRANCH   1   8
TORSDOF 9
ENDMDL
