MODEL 1
REMARK VINA RESULT:    -2.749      0.000      0.000
REMARK INTER + INTRA:          -3.090
REMARK INTER:                  -3.071
REMARK INTRA:                  -0.019
REMARK UNBOUND:                -0.019
REMARK SMILES CCCC(=O)[O-]
REMARK SMILES IDX 3 1 4 2 5 3 6 4 2 5 1 6
REMARK H PARENT
REMARK Flexibility Score: inf
ROOT
ATOM      1  C   UNL     1      31.294  52.215  25.174  1.00  0.00     0.052 C 
ENDROOT
BRANCH   1   2
ATOM      2  C   UNL     1      30.603  51.070  24.499  1.00  0.00     0.041 C 
ATOM      3  O   UNL     1      31.263  50.249  23.810  1.00  0.00    -0.550 OA
ATOM      4  O   UNL     1      29.225  50.930  24.602  1.00  0.00    -0.550 OA
ENDBRANCH   1   2
BRANCH   1   5
ATOM      5  C   UNL     1      31.011  53.547  24.468  1.00  0.00     0.003 C 
ATOM      6  C   UNL     1      30.612  54.650  25.448  1.00  0.00     0.004 C 
ENDBRANCH   1   5
TORSDOF 2
ENDMDL
MODEL 2
REMARK VINA RESULT:    -2.682      2.400      3.349
REMARK INTER + INTRA:          -3.014
REMARK INTER:                  -2.973
REMARK INTRA:                  -0.041
REMARK UNBOUND:                -0.019
REMARK SMILES CCCC(=O)[O-]
REMARK SMILES IDX 3 1 4 2 5 3 6 4 2 5 1 6
REMARK H PARENT
REMARK Flexibility Score: inf
ROOT
ATOM      1  C   UNL     1      29.366  50.988  24.814  1.00  0.00     0.052 C 
ENDROOT
BRANCH   1   2
ATOM      2  C   UNL     1      29.484  52.267  25.584  1.00  0.00     0.041 C 
ATOM      3  O   UNL     1      28.810  52.437  26.634  1.00  0.00    -0.550 OA
ATOM      4  O   UNL     1      30.312  53.282  25.125  1.00  0.00    -0.550 OA
ENDBRANCH   1   2
BRANCH   1   5
ATOM      5  C   UNL     1      30.538  50.797  23.843  1.00  0.00     0.003 C 
ATOM      6  C   UNL     1      31.662  49.956  24.446  1.00  0.00     0.004 C 
ENDBRANCH   1   5
TORSDOF 2
ENDMDL
MODEL 3
REMARK VINA RESULT:    -2.663      2.311      3.366
REMARK INTER + INTRA:          -2.993
REMARK INTER:                  -2.949
REMARK INTRA:                  -0.044
REMARK UNBOUND:                -0.019
REMARK SMILES CCCC(=O)[O-]
REMARK SMILES IDX 3 1 4 2 5 3 6 4 2 5 1 6
REMARK H PARENT
REMARK Flexibility Score: inf
ROOT
ATOM      1  C   UNL     1      30.250  51.932  24.857  1.00  0.00     0.052 C 
ENDROOT
BRANCH   1   2
ATOM      2  C   UNL     1      31.246  53.031  25.066  1.00  0.00     0.041 C 
ATOM      3  O   UNL     1      31.244  54.038  24.310  1.00  0.00    -0.550 OA
ATOM      4  O   UNL     1      32.197  52.928  26.072  1.00  0.00    -0.550 OA
ENDBRANCH   1   2
BRANCH   1   5
ATOM      5  C   UNL     1      30.716  50.936  23.788  1.00  0.00     0.003 C 
ATOM      6  C   UNL     1      31.643  49.863  24.357  1.00  0.00     0.004 C 
ENDBRANCH   1   5
TORSDOF 2
ENDMDL
MODEL 4
REMARK VINA RESULT:    -2.603      0.708      1.449
REMARK INTER + INTRA:          -2.926
REMARK INTER:                  -2.860
REMARK INTRA:                  -0.065
REMARK UNBOUND:                -0.019
REMARK SMILES CCCC(=O)[O-]
REMARK SMILES IDX 3 1 4 2 5 3 6 4 2 5 1 6
REMARK H PARENT
REMARK Flexibility Score: inf
ROOT
ATOM      1  C   UNL     1      30.899  51.897  25.726  1.00  0.00     0.052 C 
ENDROOT
BRANCH   1   2
ATOM      2  C   UNL     1      30.187  51.203  24.606  1.00  0.00     0.041 C 
ATOM      3  O   UNL     1      28.989  50.842  24.746  1.00  0.00    -0.550 OA
ATOM      4  O   UNL     1      30.855  50.926  23.421  1.00  0.00    -0.550 OA
ENDBRANCH   1   2
BRANCH   1   5
ATOM      5  C   UNL     1      31.546  53.209  25.264  1.00  0.00     0.003 C 
ATOM      6  C   UNL     1      30.513  54.300  24.987  1.00  0.00     0.004 C 
ENDBRANCH   1   5
TORSDOF 2
ENDMDL
MODEL 5
REMARK VINA RESULT:    -2.588      1.330      1.998
REMARK INTER + INTRA:          -2.909
REMARK INTER:                  -2.896
REMARK INTRA:                  -0.013
REMARK UNBOUND:                -0.019
REMARK SMILES CCCC(=O)[O-]
REMARK SMILES IDX 3 1 4 2 5 3 6 4 2 5 1 6
REMARK H PARENT
REMARK Flexibility Score: inf
ROOT
ATOM      1  C   UNL     1      30.742  51.322  24.085  1.00  0.00     0.052 C 
ENDROOT
BRANCH   1   2
ATOM      2  C   UNL     1      31.225  50.147  24.880  1.00  0.00     0.041 C 
ATOM      3  O   UNL     1      30.794  49.953  26.047  1.00  0.00    -0.550 OA
ATOM      4  O   UNL     1      32.175  49.288  24.345  1.00  0.00    -0.550 OA
ENDBRANCH   1   2
BRANCH   1   5
ATOM      5  C   UNL     1      30.430  52.526  24.982  1.00  0.00     0.003 C 
ATOM      6  C   UNL     1      31.101  53.808  24.489  1.00  0.00     0.004 C 
ENDBRANCH   1   5
TORSDOF 2
ENDMDL
MODEL 6
REMARK VINA RESULT:    -2.581      2.309      3.118
REMARK INTER + INTRA:          -2.901
REMARK INTER:                  -2.839
REMARK INTRA:                  -0.062
REMARK UNBOUND:                -0.019
REMARK SMILES CCCC(=O)[O-]
REMARK SMILES IDX 3 1 4 2 5 3 6 4 2 5 1 6
REMARK H PARENT
REMARK Flexibility Score: inf
ROOT
ATOM      1  C   UNL     1      31.599  51.877  25.294  1.00  0.00     0.052 C 
ENDROOT
BRANCH   1   2
ATOM      2  C   UNL     1      31.241  53.331  25.265  1.00  0.00     0.041 C 
ATOM      3  O   UNL     1      31.212  53.954  24.170  1.00  0.00    -0.550 OA
ATOM      4  O   UNL     1      30.973  54.006  26.448  1.00  0.00    -0.550 OA
ENDBRANCH   1   2
BRANCH   1   5
ATOM      5  C   UNL     1      30.763  51.065  24.296  1.00  0.00     0.003 C 
ATOM      6  C   UNL     1      29.301  50.943  24.727  1.00  0.00     0.004 C 
ENDBRANCH   1   5
TORSDOF 2
ENDMDL
MODEL 7
REMARK VINA RESULT:    -2.581      2.420      2.829
REMARK INTER + INTRA:          -2.901
REMARK INTER:                  -2.868
REMARK INTRA:                  -0.033
REMARK UNBOUND:                -0.019
REMARK SMILES CCCC(=O)[O-]
REMARK SMILES IDX 3 1 4 2 5 3 6 4 2 5 1 6
REMARK H PARENT
REMARK Flexibility Score: inf
ROOT
ATOM      1  C   UNL     1      31.271  50.301  23.968  1.00  0.00     0.052 C 
ENDROOT
BRANCH   1   2
ATOM      2  C   UNL     1      32.095  49.588  24.997  1.00  0.00     0.041 C 
ATOM      3  O   UNL     1      32.832  48.624  24.660  1.00  0.00    -0.550 OA
ATOM      4  O   UNL     1      32.022  49.965  26.331  1.00  0.00    -0.550 OA
ENDBRANCH   1   2
BRANCH   1   5
ATOM      5  C   UNL     1      30.457  51.445  24.585  1.00  0.00     0.003 C 
ATOM      6  C   UNL     1      29.008  51.045  24.862  1.00  0.00     0.004 C 
ENDBRANCH   1   5
TORSDOF 2
ENDMDL
MODEL 8
REMARK VINA RESULT:    -2.490      3.160      3.636
REMARK INTER + INTRA:          -2.800
REMARK INTER:                  -2.789
REMARK INTRA:                  -0.010
REMARK UNBOUND:                -0.019
REMARK SMILES CCCC(=O)[O-]
REMARK SMILES IDX 3 1 4 2 5 3 6 4 2 5 1 6
REMARK H PARENT
REMARK Flexibility Score: inf
ROOT
ATOM      1  C   UNL     1      32.072  50.204  25.305  1.00  0.00     0.052 C 
ENDROOT
BRANCH   1   2
ATOM      2  C   UNL     1      32.626  48.822  25.465  1.00  0.00     0.041 C 
ATOM      3  O   UNL     1      32.275  48.109  26.442  1.00  0.00    -0.550 OA
ATOM      4  O   UNL     1      33.555  48.335  24.556  1.00  0.00    -0.550 OA
ENDBRANCH   1   2
BRANCH   1   5
ATOM      5  C   UNL     1      31.208  50.329  24.043  1.00  0.00     0.003 C 
ATOM      6  C   UNL     1      29.818  50.889  24.342  1.00  0.00     0.004 C 
ENDBRANCH   1   5
TORSDOF 2
ENDMDL
MODEL 9
REMARK VINA RESULT:    -2.442      2.003      2.253
REMARK INTER + INTRA:          -2.746
REMARK INTER:                  -2.682
REMARK INTRA:                  -0.064
REMARK UNBOUND:                -0.019
REMARK SMILES CCCC(=O)[O-]
REMARK SMILES IDX 3 1 4 2 5 3 6 4 2 5 1 6
REMARK H PARENT
REMARK Flexibility Score: inf
ROOT
ATOM      1  C   UNL     1      29.270  50.947  24.853  1.00  0.00     0.052 C 
ENDROOT
BRANCH   1   2
ATOM      2  C   UNL     1      30.569  50.961  24.107  1.00  0.00     0.041 C 
ATOM      3  O   UNL     1      30.880  51.952  23.396  1.00  0.00    -0.550 OA
ATOM      4  O   UNL     1      31.419  49.865  24.170  1.00  0.00    -0.550 OA
ENDBRANCH   1   2
BRANCH   1   5
ATOM      5  C   UNL     1      29.092  52.209  25.708  1.00  0.00     0.003 C 
ATOM      6  C   UNL     1      30.064  52.254  26.887  1.00  0.00     0.004 C 
ENDBRANCH   1   5
TORSDOF 2
ENDMDL
