MODEL 1
REMARK VINA RESULT:    -4.618      0.000      0.000
REMARK INTER + INTRA:          -5.728
REMARK INTER:                  -5.428
REMARK INTRA:                  -0.300
REMARK UNBOUND:                -0.300
REMARK SMILES O=c1c(O)c(-c2ccc(O)cc2)oc2cc(O)cc(O)c12
REMARK SMILES IDX 5 1 3 2 2 3 1 4 21 5 19 6 18 7 16 8 15 9 14 10 13 11 6 12
REMARK SMILES IDX 7 13 8 14 9 15 12 16 11 17 10 18 4 20 20 22 17 24
REMARK H PARENT 10 19 4 21 20 23 17 25
REMARK Flexibility Score: inf
ROOT
ATOM      1  C   UNL     1     176.552 172.980 149.700  1.00  0.00     0.180 A 
ATOM      2  C   UNL     1     176.584 171.806 150.473  1.00  0.00     0.208 A 
ATOM      3  C   UNL     1     177.815 171.168 150.690  1.00  0.00     0.238 A 
ATOM      4  O   UNL     1     177.844 170.148 151.428  1.00  0.00    -0.285 OA
ATOM      5  C   UNL     1     178.996 171.701 150.121  1.00  0.00     0.111 A 
ATOM      6  C   UNL     1     180.291 171.115 150.244  1.00  0.00     0.134 A 
ATOM      7  C   UNL     1     181.409 171.799 149.749  1.00  0.00     0.093 A 
ATOM      8  C   UNL     1     181.271 173.013 149.080  1.00  0.00     0.123 A 
ATOM      9  C   UNL     1     180.002 173.568 148.902  1.00  0.00     0.094 A 
ATOM     10  C   UNL     1     178.872 172.927 149.416  1.00  0.00     0.146 A 
ATOM     11  O   UNL     1     177.685 173.492 149.234  1.00  0.00    -0.452 OA
ENDROOT
BRANCH   1  12
ATOM     12  C   UNL     1     175.290 173.696 149.404  1.00  0.00     0.021 A 
ATOM     13  C   UNL     1     174.507 173.370 148.282  1.00  0.00     0.016 A 
ATOM     14  C   UNL     1     173.331 174.074 148.010  1.00  0.00     0.047 A 
ATOM     15  C   UNL     1     172.929 175.123 148.848  1.00  0.00     0.115 A 
ATOM     16  C   UNL     1     174.890 174.762 150.228  1.00  0.00     0.016 A 
ATOM     17  C   UNL     1     173.712 175.465 149.954  1.00  0.00     0.047 A 
BRANCH  15  18
ATOM     18  O   UNL     1     171.758 175.832 148.588  1.00  0.00    -0.508 OA
ATOM     19  H   UNL     1     171.306 176.387 149.305  1.00  0.00     0.293 HD
ENDBRANCH  15  18
ENDBRANCH   1  12
BRANCH   2  20
ATOM     20  O   UNL     1     175.409 171.309 151.044  1.00  0.00    -0.502 OA
ATOM     21  H   UNL     1     175.306 171.173 152.043  1.00  0.00     0.293 HD
ENDBRANCH   2  20
BRANCH   6  22
ATOM     22  O   UNL     1     180.529 169.861 150.813  1.00  0.00    -0.507 OA
ATOM     23  H   UNL     1     180.221 169.579 151.732  1.00  0.00     0.293 HD
ENDBRANCH   6  22
BRANCH   8  24
ATOM     24  O   UNL     1     182.404 173.659 148.587  1.00  0.00    -0.508 OA
ATOM     25  H   UNL     1     182.617 174.618 148.837  1.00  0.00     0.293 HD
ENDBRANCH   8  24
TORSDOF 5
ENDMDL
MODEL 2
REMARK VINA RESULT:    -4.615      3.762      9.688
REMARK INTER + INTRA:          -5.725
REMARK INTER:                  -5.424
REMARK INTRA:                  -0.300
REMARK UNBOUND:                -0.300
REMARK SMILES O=c1c(O)c(-c2ccc(O)cc2)oc2cc(O)cc(O)c12
REMARK SMILES IDX 5 1 3 2 2 3 1 4 21 5 19 6 18 7 16 8 15 9 14 10 13 11 6 12
REMARK SMILES IDX 7 13 8 14 9 15 12 16 11 17 10 18 4 20 20 22 17 24
REMARK H PARENT 10 19 4 21 20 23 17 25
REMARK Flexibility Score: inf
ROOT
ATOM      1  C   UNL     1     171.546 175.219 149.746  1.00  0.00     0.180 A 
ATOM      2  C   UNL     1     171.497 176.383 150.532  1.00  0.00     0.208 A 
ATOM      3  C   UNL     1     170.257 177.007 150.746  1.00  0.00     0.238 A 
ATOM      4  O   UNL     1     170.211 178.018 151.496  1.00  0.00    -0.285 OA
ATOM      5  C   UNL     1     169.087 176.470 150.159  1.00  0.00     0.111 A 
ATOM      6  C   UNL     1     167.785 177.043 150.277  1.00  0.00     0.134 A 
ATOM      7  C   UNL     1     166.679 176.354 149.763  1.00  0.00     0.093 A 
ATOM      8  C   UNL     1     166.834 175.149 149.081  1.00  0.00     0.123 A 
ATOM      9  C   UNL     1     168.109 174.609 148.908  1.00  0.00     0.094 A 
ATOM     10  C   UNL     1     169.229 175.254 149.440  1.00  0.00     0.146 A 
ATOM     11  O   UNL     1     170.423 174.702 149.264  1.00  0.00    -0.452 OA
ENDROOT
BRANCH   1  12
ATOM     12  C   UNL     1     172.818 174.519 149.454  1.00  0.00     0.021 A 
ATOM     13  C   UNL     1     173.606 174.861 148.340  1.00  0.00     0.016 A 
ATOM     14  C   UNL     1     174.791 174.170 148.071  1.00  0.00     0.047 A 
ATOM     15  C   UNL     1     175.197 173.120 148.904  1.00  0.00     0.115 A 
ATOM     16  C   UNL     1     173.223 173.451 150.273  1.00  0.00     0.016 A 
ATOM     17  C   UNL     1     174.410 172.761 150.002  1.00  0.00     0.047 A 
BRANCH  15  18
ATOM     18  O   UNL     1     176.377 172.425 148.647  1.00  0.00    -0.508 OA
ATOM     19  H   UNL     1     177.120 172.372 149.334  1.00  0.00     0.293 HD
ENDBRANCH  15  18
ENDBRANCH   1  12
BRANCH   2  20
ATOM     20  O   UNL     1     172.661 176.884 151.121  1.00  0.00    -0.502 OA
ATOM     21  H   UNL     1     173.366 177.383 150.591  1.00  0.00     0.293 HD
ENDBRANCH   2  20
BRANCH   6  22
ATOM     22  O   UNL     1     167.530 178.288 150.859  1.00  0.00    -0.507 OA
ATOM     23  H   UNL     1     168.024 178.662 151.654  1.00  0.00     0.293 HD
ENDBRANCH   6  22
BRANCH   8  24
ATOM     24  O   UNL     1     165.712 174.499 148.570  1.00  0.00    -0.508 OA
ATOM     25  H   UNL     1     165.502 174.506 147.579  1.00  0.00     0.293 HD
ENDBRANCH   8  24
TORSDOF 5
ENDMDL
MODEL 3
REMARK VINA RESULT:    -4.612      4.440      6.893
REMARK INTER + INTRA:          -5.721
REMARK INTER:                  -5.421
REMARK INTRA:                  -0.300
REMARK UNBOUND:                -0.300
REMARK SMILES O=c1c(O)c(-c2ccc(O)cc2)oc2cc(O)cc(O)c12
REMARK SMILES IDX 5 1 3 2 2 3 1 4 21 5 19 6 18 7 16 8 15 9 14 10 13 11 6 12
REMARK SMILES IDX 7 13 8 14 9 15 12 16 11 17 10 18 4 20 20 22 17 24
REMARK H PARENT 10 19 4 21 20 23 17 25
REMARK Flexibility Score: inf
ROOT
ATOM      1  C   UNL     1     175.212 176.636 149.763  1.00  0.00     0.180 A 
ATOM      2  C   UNL     1     176.376 176.690 150.548  1.00  0.00     0.208 A 
ATOM      3  C   UNL     1     176.992 177.933 150.767  1.00  0.00     0.238 A 
ATOM      4  O   UNL     1     178.004 177.982 151.516  1.00  0.00    -0.285 OA
ATOM      5  C   UNL     1     176.447 179.102 150.186  1.00  0.00     0.111 A 
ATOM      6  C   UNL     1     177.012 180.407 150.309  1.00  0.00     0.134 A 
ATOM      7  C   UNL     1     176.316 181.511 149.800  1.00  0.00     0.093 A 
ATOM      8  C   UNL     1     175.112 181.351 149.118  1.00  0.00     0.123 A 
ATOM      9  C   UNL     1     174.579 180.073 148.941  1.00  0.00     0.094 A 
ATOM     10  C   UNL     1     175.232 178.956 149.467  1.00  0.00     0.146 A 
ATOM     11  O   UNL     1     174.687 177.759 149.285  1.00  0.00    -0.452 OA
ENDROOT
BRANCH   1  12
ATOM     12  C   UNL     1     174.520 175.361 149.466  1.00  0.00     0.021 A 
ATOM     13  C   UNL     1     174.865 174.582 148.346  1.00  0.00     0.016 A 
ATOM     14  C   UNL     1     174.182 173.394 148.073  1.00  0.00     0.047 A 
ATOM     15  C   UNL     1     173.136 172.976 148.906  1.00  0.00     0.115 A 
ATOM     16  C   UNL     1     173.456 174.945 150.284  1.00  0.00     0.016 A 
ATOM     17  C   UNL     1     172.774 173.755 150.008  1.00  0.00     0.047 A 
BRANCH  15  18
ATOM     18  O   UNL     1     172.449 171.793 148.644  1.00  0.00    -0.508 OA
ATOM     19  H   UNL     1     171.979 171.638 147.760  1.00  0.00     0.293 HD
ENDBRANCH  15  18
ENDBRANCH   1  12
BRANCH   2  20
ATOM     20  O   UNL     1     176.885 175.526 151.131  1.00  0.00    -0.502 OA
ATOM     21  H   UNL     1     177.754 175.514 151.652  1.00  0.00     0.293 HD
ENDBRANCH   2  20
BRANCH   6  22
ATOM     22  O   UNL     1     178.255 180.667 150.891  1.00  0.00    -0.507 OA
ATOM     23  H   UNL     1     178.389 181.119 151.783  1.00  0.00     0.293 HD
ENDBRANCH   6  22
BRANCH   8  24
ATOM     24  O   UNL     1     174.454 182.471 148.613  1.00  0.00    -0.508 OA
ATOM     25  H   UNL     1     173.609 182.384 148.060  1.00  0.00     0.293 HD
ENDBRANCH   8  24
TORSDOF 5
ENDMDL
MODEL 4
REMARK VINA RESULT:    -4.610      4.468      6.830
REMARK INTER + INTRA:          -5.719
REMARK INTER:                  -5.424
REMARK INTRA:                  -0.295
REMARK UNBOUND:                -0.300
REMARK SMILES O=c1c(O)c(-c2ccc(O)cc2)oc2cc(O)cc(O)c12
REMARK SMILES IDX 5 1 3 2 2 3 1 4 21 5 19 6 18 7 16 8 15 9 14 10 13 11 6 12
REMARK SMILES IDX 7 13 8 14 9 15 12 16 11 17 10 18 4 20 20 22 17 24
REMARK H PARENT 10 19 4 21 20 23 17 25
REMARK Flexibility Score: inf
ROOT
ATOM      1  C   UNL     1     172.947 171.547 149.766  1.00  0.00     0.180 A 
ATOM      2  C   UNL     1     171.768 171.497 150.529  1.00  0.00     0.208 A 
ATOM      3  C   UNL     1     171.143 170.257 150.735  1.00  0.00     0.238 A 
ATOM      4  O   UNL     1     170.118 170.211 151.465  1.00  0.00    -0.285 OA
ATOM      5  C   UNL     1     171.695 169.086 150.164  1.00  0.00     0.111 A 
ATOM      6  C   UNL     1     171.123 167.783 150.275  1.00  0.00     0.134 A 
ATOM      7  C   UNL     1     171.825 166.677 149.779  1.00  0.00     0.093 A 
ATOM      8  C   UNL     1     173.042 166.832 149.120  1.00  0.00     0.123 A 
ATOM      9  C   UNL     1     173.583 168.109 148.953  1.00  0.00     0.094 A 
ATOM     10  C   UNL     1     172.924 169.228 149.468  1.00  0.00     0.146 A 
ATOM     11  O   UNL     1     173.477 170.423 149.297  1.00  0.00    -0.452 OA
ENDROOT
BRANCH   1  12
ATOM     12  C   UNL     1     173.650 172.820 149.482  1.00  0.00     0.021 A 
ATOM     13  C   UNL     1     173.367 173.573 148.328  1.00  0.00     0.016 A 
ATOM     14  C   UNL     1     174.060 174.759 148.070  1.00  0.00     0.047 A 
ATOM     15  C   UNL     1     175.053 175.201 148.954  1.00  0.00     0.115 A 
ATOM     16  C   UNL     1     174.662 173.260 150.353  1.00  0.00     0.016 A 
ATOM     17  C   UNL     1     175.353 174.448 150.092  1.00  0.00     0.047 A 
BRANCH  15  18
ATOM     18  O   UNL     1     175.749 176.383 148.708  1.00  0.00    -0.508 OA
ATOM     19  H   UNL     1     176.376 176.780 149.397  1.00  0.00     0.293 HD
ENDBRANCH  15  18
ENDBRANCH   1  12
BRANCH   2  20
ATOM     20  O   UNL     1     171.253 172.663 151.103  1.00  0.00    -0.502 OA
ATOM     21  H   UNL     1     170.680 173.317 150.583  1.00  0.00     0.293 HD
ENDBRANCH   2  20
BRANCH   6  22
ATOM     22  O   UNL     1     169.868 167.527 150.833  1.00  0.00    -0.507 OA
ATOM     23  H   UNL     1     169.711 167.250 151.790  1.00  0.00     0.293 HD
ENDBRANCH   6  22
BRANCH   8  24
ATOM     24  O   UNL     1     173.706 165.710 148.626  1.00  0.00    -0.508 OA
ATOM     25  H   UNL     1     174.513 165.797 148.020  1.00  0.00     0.293 HD
ENDBRANCH   8  24
TORSDOF 5
ENDMDL
MODEL 5
REMARK VINA RESULT:    -4.264      3.931      6.142
REMARK INTER + INTRA:          -5.312
REMARK INTER:                  -5.025
REMARK INTRA:                  -0.287
REMARK UNBOUND:                -0.300
REMARK SMILES O=c1c(O)c(-c2ccc(O)cc2)oc2cc(O)cc(O)c12
REMARK SMILES IDX 5 1 3 2 2 3 1 4 21 5 19 6 18 7 16 8 15 9 14 10 13 11 6 12
REMARK SMILES IDX 7 13 8 14 9 15 12 16 11 17 10 18 4 20 20 22 17 24
REMARK H PARENT 10 19 4 21 20 23 17 25
REMARK Flexibility Score: inf
ROOT
ATOM      1  C   UNL     1     173.074 170.973 149.857  1.00  0.00     0.180 A 
ATOM      2  C   UNL     1     174.358 170.822 150.408  1.00  0.00     0.208 A 
ATOM      3  C   UNL     1     175.267 171.888 150.318  1.00  0.00     0.238 A 
ATOM      4  O   UNL     1     176.396 171.766 150.863  1.00  0.00    -0.285 OA
ATOM      5  C   UNL     1     174.887 173.084 149.665  1.00  0.00     0.111 A 
ATOM      6  C   UNL     1     175.741 174.213 149.481  1.00  0.00     0.134 A 
ATOM      7  C   UNL     1     175.219 175.392 148.935  1.00  0.00     0.093 A 
ATOM      8  C   UNL     1     173.895 175.463 148.507  1.00  0.00     0.123 A 
ATOM      9  C   UNL     1     173.066 174.346 148.628  1.00  0.00     0.094 A 
ATOM     10  C   UNL     1     173.548 173.167 149.202  1.00  0.00     0.146 A 
ATOM     11  O   UNL     1     172.726 172.130 149.308  1.00  0.00    -0.452 OA
ENDROOT
BRANCH   1  12
ATOM     12  C   UNL     1     172.069 169.885 149.889  1.00  0.00     0.021 A 
ATOM     13  C   UNL     1     171.145 169.771 150.943  1.00  0.00     0.016 A 
ATOM     14  C   UNL     1     170.221 168.723 150.964  1.00  0.00     0.047 A 
ATOM     15  C   UNL     1     170.217 167.767 149.940  1.00  0.00     0.115 A 
ATOM     16  C   UNL     1     172.072 168.911 148.876  1.00  0.00     0.016 A 
ATOM     17  C   UNL     1     171.146 167.862 148.899  1.00  0.00     0.047 A 
BRANCH  15  18
ATOM     18  O   UNL     1     169.300 166.719 149.949  1.00  0.00    -0.508 OA
ATOM     19  H   UNL     1     169.154 166.151 150.775  1.00  0.00     0.293 HD
ENDBRANCH  15  18
ENDBRANCH   1  12
BRANCH   2  20
ATOM     20  O   UNL     1     174.704 169.640 151.069  1.00  0.00    -0.502 OA
ATOM     21  H   UNL     1     175.615 169.207 150.969  1.00  0.00     0.293 HD
ENDBRANCH   2  20
BRANCH   6  22
ATOM     22  O   UNL     1     177.105 174.218 149.789  1.00  0.00    -0.507 OA
ATOM     23  H   UNL     1     177.807 173.689 149.296  1.00  0.00     0.293 HD
ENDBRANCH   6  22
BRANCH   8  24
ATOM     24  O   UNL     1     173.413 176.648 147.955  1.00  0.00    -0.508 OA
ATOM     25  H   UNL     1     172.532 177.051 148.254  1.00  0.00     0.293 HD
ENDBRANCH   8  24
TORSDOF 5
ENDMDL
MODEL 6
REMARK VINA RESULT:    -4.255      3.646      6.033
REMARK INTER + INTRA:          -5.301
REMARK INTER:                  -5.005
REMARK INTRA:                  -0.297
REMARK UNBOUND:                -0.300
REMARK SMILES O=c1c(O)c(-c2ccc(O)cc2)oc2cc(O)cc(O)c12
REMARK SMILES IDX 5 1 3 2 2 3 1 4 21 5 19 6 18 7 16 8 15 9 14 10 13 11 6 12
REMARK SMILES IDX 7 13 8 14 9 15 12 16 11 17 10 18 4 20 20 22 17 24
REMARK H PARENT 10 19 4 21 20 23 17 25
REMARK Flexibility Score: inf
ROOT
ATOM      1  C   UNL     1     170.952 174.992 149.867  1.00  0.00     0.180 A 
ATOM      2  C   UNL     1     170.828 173.708 150.426  1.00  0.00     0.208 A 
ATOM      3  C   UNL     1     171.911 172.820 150.337  1.00  0.00     0.238 A 
ATOM      4  O   UNL     1     171.814 171.692 150.888  1.00  0.00    -0.285 OA
ATOM      5  C   UNL     1     173.098 173.219 149.678  1.00  0.00     0.111 A 
ATOM      6  C   UNL     1     174.242 172.387 149.494  1.00  0.00     0.134 A 
ATOM      7  C   UNL     1     175.409 172.929 148.940  1.00  0.00     0.093 A 
ATOM      8  C   UNL     1     175.452 174.252 148.505  1.00  0.00     0.123 A 
ATOM      9  C   UNL     1     174.319 175.059 148.625  1.00  0.00     0.094 A 
ATOM     10  C   UNL     1     173.152 174.557 149.206  1.00  0.00     0.146 A 
ATOM     11  O   UNL     1     172.100 175.360 149.311  1.00  0.00    -0.452 OA
ENDROOT
BRANCH   1  12
ATOM     12  C   UNL     1     169.845 175.975 149.897  1.00  0.00     0.021 A 
ATOM     13  C   UNL     1     168.892 176.041 148.864  1.00  0.00     0.016 A 
ATOM     14  C   UNL     1     167.870 176.993 148.903  1.00  0.00     0.047 A 
ATOM     15  C   UNL     1     167.794 177.901 149.967  1.00  0.00     0.115 A 
ATOM     16  C   UNL     1     169.773 176.903 150.950  1.00  0.00     0.016 A 
ATOM     17  C   UNL     1     168.748 177.855 150.987  1.00  0.00     0.047 A 
BRANCH  15  18
ATOM     18  O   UNL     1     166.779 178.853 150.017  1.00  0.00    -0.508 OA
ATOM     19  H   UNL     1     166.845 179.725 149.504  1.00  0.00     0.293 HD
ENDBRANCH  15  18
ENDBRANCH   1  12
BRANCH   2  20
ATOM     20  O   UNL     1     169.655 173.343 151.093  1.00  0.00    -0.502 OA
ATOM     21  H   UNL     1     168.742 173.403 150.659  1.00  0.00     0.293 HD
ENDBRANCH   2  20
BRANCH   6  22
ATOM     22  O   UNL     1     174.276 171.025 149.810  1.00  0.00    -0.507 OA
ATOM     23  H   UNL     1     173.461 170.452 149.968  1.00  0.00     0.293 HD
ENDBRANCH   6  22
BRANCH   8  24
ATOM     24  O   UNL     1     176.626 174.754 147.945  1.00  0.00    -0.508 OA
ATOM     25  H   UNL     1     177.378 175.108 148.524  1.00  0.00     0.293 HD
ENDBRANCH   8  24
TORSDOF 5
ENDMDL
MODEL 7
REMARK VINA RESULT:    -4.231      1.842      6.939
REMARK INTER + INTRA:          -5.273
REMARK INTER:                  -4.973
REMARK INTRA:                  -0.299
REMARK UNBOUND:                -0.300
REMARK SMILES O=c1c(O)c(-c2ccc(O)cc2)oc2cc(O)cc(O)c12
REMARK SMILES IDX 5 1 3 2 2 3 1 4 21 5 19 6 18 7 16 8 15 9 14 10 13 11 6 12
REMARK SMILES IDX 7 13 8 14 9 15 12 16 11 17 10 18 4 20 20 22 17 24
REMARK H PARENT 10 19 4 21 20 23 17 25
REMARK Flexibility Score: inf
ROOT
ATOM      1  C   UNL     1     177.260 173.087 149.848  1.00  0.00     0.180 A 
ATOM      2  C   UNL     1     177.386 174.377 150.391  1.00  0.00     0.208 A 
ATOM      3  C   UNL     1     176.306 175.268 150.287  1.00  0.00     0.238 A 
ATOM      4  O   UNL     1     176.405 176.403 150.823  1.00  0.00    -0.285 OA
ATOM      5  C   UNL     1     175.121 174.864 149.628  1.00  0.00     0.111 A 
ATOM      6  C   UNL     1     173.980 175.698 149.429  1.00  0.00     0.134 A 
ATOM      7  C   UNL     1     172.813 175.153 148.878  1.00  0.00     0.093 A 
ATOM      8  C   UNL     1     172.767 173.824 148.459  1.00  0.00     0.123 A 
ATOM      9  C   UNL     1     173.897 173.015 148.595  1.00  0.00     0.094 A 
ATOM     10  C   UNL     1     175.064 173.521 149.173  1.00  0.00     0.146 A 
ATOM     11  O   UNL     1     176.113 172.715 149.293  1.00  0.00    -0.452 OA
ENDROOT
BRANCH   1  12
ATOM     12  C   UNL     1     178.363 172.100 149.896  1.00  0.00     0.021 A 
ATOM     13  C   UNL     1     179.346 172.048 148.890  1.00  0.00     0.016 A 
ATOM     14  C   UNL     1     180.364 171.093 148.944  1.00  0.00     0.047 A 
ATOM     15  C   UNL     1     180.407 170.168 149.995  1.00  0.00     0.115 A 
ATOM     16  C   UNL     1     178.402 171.156 150.936  1.00  0.00     0.016 A 
ATOM     17  C   UNL     1     179.423 170.201 150.988  1.00  0.00     0.047 A 
BRANCH  15  18
ATOM     18  O   UNL     1     181.418 169.212 150.060  1.00  0.00    -0.508 OA
ATOM     19  H   UNL     1     181.217 168.244 150.280  1.00  0.00     0.293 HD
ENDBRANCH  15  18
ENDBRANCH   1  12
BRANCH   2  20
ATOM     20  O   UNL     1     178.557 174.747 151.058  1.00  0.00    -0.502 OA
ATOM     21  H   UNL     1     178.546 175.241 151.943  1.00  0.00     0.293 HD
ENDBRANCH   2  20
BRANCH   6  22
ATOM     22  O   UNL     1     173.950 177.063 149.727  1.00  0.00    -0.507 OA
ATOM     23  H   UNL     1     173.400 177.479 150.463  1.00  0.00     0.293 HD
ENDBRANCH   6  22
BRANCH   8  24
ATOM     24  O   UNL     1     171.594 173.319 147.902  1.00  0.00    -0.508 OA
ATOM     25  H   UNL     1     171.458 173.283 146.899  1.00  0.00     0.293 HD
ENDBRANCH   8  24
TORSDOF 5
ENDMDL
MODEL 8
REMARK VINA RESULT:    -4.163      4.635      7.727
REMARK INTER + INTRA:          -5.194
REMARK INTER:                  -4.960
REMARK INTRA:                  -0.234
REMARK UNBOUND:                -0.300
REMARK SMILES O=c1c(O)c(-c2ccc(O)cc2)oc2cc(O)cc(O)c12
REMARK SMILES IDX 5 1 3 2 2 3 1 4 21 5 19 6 18 7 16 8 15 9 14 10 13 11 6 12
REMARK SMILES IDX 7 13 8 14 9 15 12 16 11 17 10 18 4 20 20 22 17 24
REMARK H PARENT 10 19 4 21 20 23 17 25
REMARK Flexibility Score: inf
ROOT
ATOM      1  C   UNL     1     172.805 171.529 149.409  1.00  0.00     0.180 A 
ATOM      2  C   UNL     1     173.824 172.231 148.742  1.00  0.00     0.208 A 
ATOM      3  C   UNL     1     173.831 173.634 148.798  1.00  0.00     0.238 A 
ATOM      4  O   UNL     1     174.777 174.255 148.244  1.00  0.00    -0.285 OA
ATOM      5  C   UNL     1     172.812 174.317 149.504  1.00  0.00     0.111 A 
ATOM      6  C   UNL     1     172.699 175.737 149.592  1.00  0.00     0.134 A 
ATOM      7  C   UNL     1     171.726 176.302 150.426  1.00  0.00     0.093 A 
ATOM      8  C   UNL     1     170.822 175.502 151.122  1.00  0.00     0.123 A 
ATOM      9  C   UNL     1     170.886 174.113 150.998  1.00  0.00     0.094 A 
ATOM     10  C   UNL     1     171.868 173.519 150.201  1.00  0.00     0.146 A 
ATOM     11  O   UNL     1     171.901 172.194 150.118  1.00  0.00    -0.452 OA
ENDROOT
BRANCH   1  12
ATOM     12  C   UNL     1     172.715 170.050 149.376  1.00  0.00     0.021 A 
ATOM     13  C   UNL     1     173.576 169.245 150.144  1.00  0.00     0.016 A 
ATOM     14  C   UNL     1     173.488 167.852 150.078  1.00  0.00     0.047 A 
ATOM     15  C   UNL     1     172.548 167.245 149.235  1.00  0.00     0.115 A 
ATOM     16  C   UNL     1     171.789 169.433 148.518  1.00  0.00     0.016 A 
ATOM     17  C   UNL     1     171.702 168.038 148.454  1.00  0.00     0.047 A 
BRANCH  15  18
ATOM     18  O   UNL     1     172.450 165.857 149.163  1.00  0.00    -0.508 OA
ATOM     19  H   UNL     1     171.695 165.356 149.615  1.00  0.00     0.293 HD
ENDBRANCH  15  18
ENDBRANCH   1  12
BRANCH   2  20
ATOM     20  O   UNL     1     174.832 171.536 148.070  1.00  0.00    -0.502 OA
ATOM     21  H   UNL     1     175.734 171.950 147.865  1.00  0.00     0.293 HD
ENDBRANCH   2  20
BRANCH   6  22
ATOM     22  O   UNL     1     173.493 176.629 148.865  1.00  0.00    -0.507 OA
ATOM     23  H   UNL     1     174.248 176.359 148.254  1.00  0.00     0.293 HD
ENDBRANCH   6  22
BRANCH   8  24
ATOM     24  O   UNL     1     169.858 176.099 151.932  1.00  0.00    -0.508 OA
ATOM     25  H   UNL     1     169.175 175.546 152.437  1.00  0.00     0.293 HD
ENDBRANCH   8  24
TORSDOF 5
ENDMDL
MODEL 9
REMARK VINA RESULT:    -4.141      3.296      5.378
REMARK INTER + INTRA:          -5.168
REMARK INTER:                  -4.913
REMARK INTRA:                  -0.255
REMARK UNBOUND:                -0.300
REMARK SMILES O=c1c(O)c(-c2ccc(O)cc2)oc2cc(O)cc(O)c12
REMARK SMILES IDX 5 1 3 2 2 3 1 4 21 5 19 6 18 7 16 8 15 9 14 10 13 11 6 12
REMARK SMILES IDX 7 13 8 14 9 15 12 16 11 17 10 18 4 20 20 22 17 24
REMARK H PARENT 10 19 4 21 20 23 17 25
REMARK Flexibility Score: inf
ROOT
ATOM      1  C   UNL     1     175.263 176.540 149.424  1.00  0.00     0.180 A 
ATOM      2  C   UNL     1     174.257 175.858 148.719  1.00  0.00     0.208 A 
ATOM      3  C   UNL     1     174.205 174.457 148.793  1.00  0.00     0.238 A 
ATOM      4  O   UNL     1     173.269 173.855 148.203  1.00  0.00    -0.285 OA
ATOM      5  C   UNL     1     175.168 173.755 149.557  1.00  0.00     0.111 A 
ATOM      6  C   UNL     1     175.234 172.334 149.670  1.00  0.00     0.134 A 
ATOM      7  C   UNL     1     176.148 171.754 150.557  1.00  0.00     0.093 A 
ATOM      8  C   UNL     1     177.041 172.537 151.286  1.00  0.00     0.123 A 
ATOM      9  C   UNL     1     177.025 173.925 151.139  1.00  0.00     0.094 A 
ATOM     10  C   UNL     1     176.101 174.536 150.288  1.00  0.00     0.146 A 
ATOM     11  O   UNL     1     176.112 175.859 150.185  1.00  0.00    -0.452 OA
ENDROOT
BRANCH   1  12
ATOM     12  C   UNL     1     175.399 178.014 149.375  1.00  0.00     0.021 A 
ATOM     13  C   UNL     1     174.573 178.854 150.145  1.00  0.00     0.016 A 
ATOM     14  C   UNL     1     174.704 180.243 150.065  1.00  0.00     0.047 A 
ATOM     15  C   UNL     1     175.651 180.812 149.204  1.00  0.00     0.115 A 
ATOM     16  C   UNL     1     176.332 178.594 148.499  1.00  0.00     0.016 A 
ATOM     17  C   UNL     1     176.462 179.985 148.421  1.00  0.00     0.047 A 
BRANCH  15  18
ATOM     18  O   UNL     1     175.792 182.195 149.116  1.00  0.00    -0.508 OA
ATOM     19  H   UNL     1     176.647 182.619 148.777  1.00  0.00     0.293 HD
ENDBRANCH  15  18
ENDBRANCH   1  12
BRANCH   2  20
ATOM     20  O   UNL     1     173.303 176.572 147.989  1.00  0.00    -0.502 OA
ATOM     21  H   UNL     1     173.202 177.577 148.063  1.00  0.00     0.293 HD
ENDBRANCH   2  20
BRANCH   6  22
ATOM     22  O   UNL     1     174.449 171.454 148.918  1.00  0.00    -0.507 OA
ATOM     23  H   UNL     1     173.927 171.711 148.095  1.00  0.00     0.293 HD
ENDBRANCH   6  22
BRANCH   8  24
ATOM     24  O   UNL     1     177.948 171.924 152.149  1.00  0.00    -0.508 OA
ATOM     25  H   UNL     1     178.734 172.432 152.538  1.00  0.00     0.293 HD
ENDBRANCH   8  24
TORSDOF 5
ENDMDL
