MODEL 1
REMARK VINA RESULT:    -3.338      0.000      0.000
REMARK INTER + INTRA:         -13.502
REMARK INTER:                  -8.802
REMARK INTRA:                  -4.700
REMARK UNBOUND:                -4.700
REMARK SMILES CCCCCCCCCCCCCCCCCCCCCCCCCCCCCC(=O)[O-]
REMARK SMILES IDX 16 1 17 2 18 3 19 4 20 5 21 6 22 7 23 8 24 9 25 10 26 11
REMARK SMILES IDX 27 12 28 13 29 14 30 15 31 16 32 17 15 18 14 19 13 20 12 21
REMARK SMILES IDX 11 22 10 23 9 24 8 25 7 26 6 27 5 28 4 29 3 30 2 31 1 32
REMARK H PARENT
REMARK Flexibility Score: inf
ROOT
ATOM      1  C   UNL     1      53.377  29.860  51.680  1.00  0.00     0.000 C 
ENDROOT
BRANCH   1   2
ATOM      2  C   UNL     1      53.983  29.337  50.368  1.00  0.00     0.000 C 
BRANCH   2   3
ATOM      3  C   UNL     1      53.166  28.197  49.728  1.00  0.00     0.000 C 
BRANCH   3   4
ATOM      4  C   UNL     1      53.878  26.830  49.669  1.00  0.00     0.000 C 
BRANCH   4   5
ATOM      5  C   UNL     1      55.363  26.865  50.091  1.00  0.00     0.000 C 
BRANCH   5   6
ATOM      6  C   UNL     1      55.674  26.063  51.369  1.00  0.00     0.000 C 
BRANCH   6   7
ATOM      7  C   UNL     1      57.177  25.799  51.592  1.00  0.00     0.000 C 
BRANCH   7   8
ATOM      8  C   UNL     1      57.999  25.971  50.306  1.00  0.00     0.000 C 
BRANCH   8   9
ATOM      9  C   UNL     1      59.236  25.062  50.321  1.00  0.00     0.000 C 
BRANCH   9  10
ATOM     10  C   UNL     1      59.658  24.639  51.740  1.00  0.00     0.000 C 
BRANCH  10  11
ATOM     11  C   UNL     1      60.977  23.850  51.823  1.00  0.00     0.000 C 
BRANCH  11  12
ATOM     12  C   UNL     1      61.689  23.726  50.465  1.00  0.00     0.000 C 
BRANCH  12  13
ATOM     13  C   UNL     1      61.785  22.267  49.988  1.00  0.00     0.006 C 
BRANCH  13  14
ATOM     14  C   UNL     1      60.768  21.945  48.886  1.00  0.00     0.053 C 
BRANCH  14  15
ATOM     15  C   UNL     1      60.094  20.639  49.166  1.00  0.00     0.041 C 
ATOM     16  O   UNL     1      59.678  20.376  50.326  1.00  0.00    -0.550 OA
ATOM     17  O   UNL     1      59.980  19.684  48.162  1.00  0.00    -0.550 OA
ENDBRANCH  14  15
ENDBRANCH  13  14
ENDBRANCH  12  13
ENDBRANCH  11  12
ENDBRANCH  10  11
ENDBRANCH   9  10
ENDBRANCH   8   9
ENDBRANCH   7   8
ENDBRANCH   6   7
ENDBRANCH   5   6
ENDBRANCH   4   5
ENDBRANCH   3   4
ENDBRANCH   2   3
ENDBRANCH   1   2
BRANCH   1  18
ATOM     18  C   UNL     1      53.957  31.237  52.035  1.00  0.00     0.000 C 
BRANCH  18  19
ATOM     19  C   UNL     1      54.454  31.324  53.487  1.00  0.00     0.000 C 
BRANCH  19  20
ATOM     20  C   UNL     1      54.677  32.774  53.952  1.00  0.00     0.000 C 
BRANCH  20  21
ATOM     21  C   UNL     1      55.700  33.529  53.085  1.00  0.00     0.000 C 
BRANCH  21  22
ATOM     22  C   UNL     1      57.054  33.825  53.765  1.00  0.00     0.000 C 
BRANCH  22  23
ATOM     23  C   UNL     1      57.880  32.586  54.156  1.00  0.00     0.000 C 
BRANCH  23  24
ATOM     24  C   UNL     1      58.211  31.686  52.953  1.00  0.00    -0.000 C 
BRANCH  24  25
ATOM     25  C   UNL     1      57.953  30.192  53.227  1.00  0.00    -0.000 C 
BRANCH  25  26
ATOM     26  C   UNL     1      58.219  29.246  52.041  1.00  0.00    -0.000 C 
BRANCH  26  27
ATOM     27  C   UNL     1      57.600  29.743  50.723  1.00  0.00    -0.000 C 
BRANCH  27  28
ATOM     28  C   UNL     1      58.554  29.587  49.527  1.00  0.00    -0.000 C 
BRANCH  28  29
ATOM     29  C   UNL     1      60.028  29.490  49.951  1.00  0.00    -0.000 C 
BRANCH  29  30
ATOM     30  C   UNL     1      60.686  28.231  49.364  1.00  0.00    -0.000 C 
BRANCH  30  31
ATOM     31  C   UNL     1      61.915  27.778  50.169  1.00  0.00    -0.003 C 
ATOM     32  C   UNL     1      61.644  27.701  51.670  1.00  0.00     0.004 C 
ENDBRANCH  30  31
ENDBRANCH  29  30
ENDBRANCH  28  29
ENDBRANCH  27  28
ENDBRANCH  26  27
ENDBRANCH  25  26
ENDBRANCH  24  25
ENDBRANCH  23  24
ENDBRANCH  22  23
ENDBRANCH  21  22
ENDBRANCH  20  21
ENDBRANCH  19  20
ENDBRANCH  18  19
ENDBRANCH   1  18
TORSDOF 28
ENDMDL
MODEL 2
REMARK VINA RESULT:    -3.328      3.434      6.449
REMARK INTER + INTRA:         -13.476
REMARK INTER:                  -7.938
REMARK INTRA:                  -5.538
REMARK UNBOUND:                -4.700
REMARK SMILES CCCCCCCCCCCCCCCCCCCCCCCCCCCCCC(=O)[O-]
REMARK SMILES IDX 16 1 17 2 18 3 19 4 20 5 21 6 22 7 23 8 24 9 25 10 26 11
REMARK SMILES IDX 27 12 28 13 29 14 30 15 31 16 32 17 15 18 14 19 13 20 12 21
REMARK SMILES IDX 11 22 10 23 9 24 8 25 7 26 6 27 5 28 4 29 3 30 2 31 1 32
REMARK H PARENT
REMARK Flexibility Score: inf
ROOT
ATOM      1  C   UNL     1      60.064  29.589  52.544  1.00  0.00     0.000 C 
ENDROOT
BRANCH   1   2
ATOM      2  C   UNL     1      60.685  29.255  51.179  1.00  0.00     0.000 C 
BRANCH   2   3
ATOM      3  C   UNL     1      59.984  29.959  50.000  1.00  0.00     0.000 C 
BRANCH   3   4
ATOM      4  C   UNL     1      58.953  29.099  49.239  1.00  0.00     0.000 C 
BRANCH   4   5
ATOM      5  C   UNL     1      59.245  27.583  49.263  1.00  0.00     0.000 C 
BRANCH   5   6
ATOM      6  C   UNL     1      58.130  26.736  49.904  1.00  0.00     0.000 C 
BRANCH   6   7
ATOM      7  C   UNL     1      58.648  25.545  50.736  1.00  0.00     0.000 C 
BRANCH   7   8
ATOM      8  C   UNL     1      60.006  25.030  50.237  1.00  0.00     0.000 C 
BRANCH   8   9
ATOM      9  C   UNL     1      61.149  25.565  51.111  1.00  0.00     0.000 C 
BRANCH   9  10
ATOM     10  C   UNL     1      62.508  25.581  50.387  1.00  0.00     0.000 C 
BRANCH  10  11
ATOM     11  C   UNL     1      63.263  26.922  50.442  1.00  0.00     0.000 C 
BRANCH  11  12
ATOM     12  C   UNL     1      64.792  26.751  50.445  1.00  0.00     0.000 C 
BRANCH  12  13
ATOM     13  C   UNL     1      65.442  27.305  49.166  1.00  0.00     0.006 C 
BRANCH  13  14
ATOM     14  C   UNL     1      64.499  28.231  48.386  1.00  0.00     0.053 C 
BRANCH  14  15
ATOM     15  C   UNL     1      65.244  28.926  47.289  1.00  0.00     0.041 C 
ATOM     16  O   UNL     1      65.713  28.266  46.325  1.00  0.00    -0.550 OA
ATOM     17  O   UNL     1      65.474  30.294  47.363  1.00  0.00    -0.550 OA
ENDBRANCH  14  15
ENDBRANCH  13  14
ENDBRANCH  12  13
ENDBRANCH  11  12
ENDBRANCH  10  11
ENDBRANCH   9  10
ENDBRANCH   8   9
ENDBRANCH   7   8
ENDBRANCH   6   7
ENDBRANCH   5   6
ENDBRANCH   4   5
ENDBRANCH   3   4
ENDBRANCH   2   3
ENDBRANCH   1   2
BRANCH   1  18
ATOM     18  C   UNL     1      59.257  28.396  53.080  1.00  0.00     0.000 C 
BRANCH  18  19
ATOM     19  C   UNL     1      57.739  28.581  52.931  1.00  0.00     0.000 C 
BRANCH  19  20
ATOM     20  C   UNL     1      57.354  30.013  52.519  1.00  0.00     0.000 C 
BRANCH  20  21
ATOM     21  C   UNL     1      55.881  30.136  52.090  1.00  0.00     0.000 C 
BRANCH  21  22
ATOM     22  C   UNL     1      55.509  29.403  50.783  1.00  0.00     0.000 C 
BRANCH  22  23
ATOM     23  C   UNL     1      54.014  29.431  50.415  1.00  0.00     0.000 C 
BRANCH  23  24
ATOM     24  C   UNL     1      53.489  28.063  49.948  1.00  0.00    -0.000 C 
BRANCH  24  25
ATOM     25  C   UNL     1      54.610  27.028  49.734  1.00  0.00    -0.000 C 
BRANCH  25  26
ATOM     26  C   UNL     1      54.512  25.757  50.599  1.00  0.00    -0.000 C 
BRANCH  26  27
ATOM     27  C   UNL     1      55.153  25.923  51.988  1.00  0.00    -0.000 C 
BRANCH  27  28
ATOM     28  C   UNL     1      54.108  26.067  53.107  1.00  0.00    -0.000 C 
BRANCH  28  29
ATOM     29  C   UNL     1      54.308  27.338  53.947  1.00  0.00    -0.000 C 
BRANCH  29  30
ATOM     30  C   UNL     1      53.073  28.249  53.865  1.00  0.00    -0.000 C 
BRANCH  30  31
ATOM     31  C   UNL     1      53.283  29.594  54.579  1.00  0.00    -0.003 C 
ATOM     32  C   UNL     1      54.522  29.602  55.473  1.00  0.00     0.004 C 
ENDBRANCH  30  31
ENDBRANCH  29  30
ENDBRANCH  28  29
ENDBRANCH  27  28
ENDBRANCH  26  27
ENDBRANCH  25  26
ENDBRANCH  24  25
ENDBRANCH  23  24
ENDBRANCH  22  23
ENDBRANCH  21  22
ENDBRANCH  20  21
ENDBRANCH  19  20
ENDBRANCH  18  19
ENDBRANCH   1  18
TORSDOF 28
ENDMDL
MODEL 3
REMARK VINA RESULT:    -3.309      3.299      9.058
REMARK INTER + INTRA:         -13.427
REMARK INTER:                  -9.727
REMARK INTRA:                  -3.700
REMARK UNBOUND:                -4.700
REMARK SMILES CCCCCCCCCCCCCCCCCCCCCCCCCCCCCC(=O)[O-]
REMARK SMILES IDX 16 1 17 2 18 3 19 4 20 5 21 6 22 7 23 8 24 9 25 10 26 11
REMARK SMILES IDX 27 12 28 13 29 14 30 15 31 16 32 17 15 18 14 19 13 20 12 21
REMARK SMILES IDX 11 22 10 23 9 24 8 25 7 26 6 27 5 28 4 29 3 30 2 31 1 32
REMARK H PARENT
REMARK Flexibility Score: inf
ROOT
ATOM      1  C   UNL     1      60.046  28.041  49.513  1.00  0.00     0.000 C 
ENDROOT
BRANCH   1   2
ATOM      2  C   UNL     1      58.862  29.019  49.470  1.00  0.00     0.000 C 
BRANCH   2   3
ATOM      3  C   UNL     1      57.571  28.446  50.088  1.00  0.00     0.000 C 
BRANCH   3   4
ATOM      4  C   UNL     1      57.279  28.895  51.535  1.00  0.00     0.000 C 
BRANCH   4   5
ATOM      5  C   UNL     1      55.810  29.298  51.793  1.00  0.00     0.000 C 
BRANCH   5   6
ATOM      6  C   UNL     1      54.929  29.315  50.531  1.00  0.00     0.000 C 
BRANCH   6   7
ATOM      7  C   UNL     1      53.886  28.180  50.480  1.00  0.00     0.000 C 
BRANCH   7   8
ATOM      8  C   UNL     1      54.316  27.030  49.558  1.00  0.00     0.000 C 
BRANCH   8   9
ATOM      9  C   UNL     1      54.895  25.863  50.371  1.00  0.00     0.000 C 
BRANCH   9  10
ATOM     10  C   UNL     1      54.305  25.764  51.790  1.00  0.00     0.000 C 
BRANCH  10  11
ATOM     11  C   UNL     1      55.325  25.459  52.902  1.00  0.00     0.000 C 
BRANCH  11  12
ATOM     12  C   UNL     1      56.784  25.589  52.432  1.00  0.00     0.000 C 
BRANCH  12  13
ATOM     13  C   UNL     1      57.788  25.250  53.546  1.00  0.00     0.006 C 
BRANCH  13  14
ATOM     14  C   UNL     1      59.012  26.173  53.530  1.00  0.00     0.053 C 
BRANCH  14  15
ATOM     15  C   UNL     1      58.886  27.221  54.591  1.00  0.00     0.041 C 
ATOM     16  O   UNL     1      57.749  27.635  54.941  1.00  0.00    -0.550 OA
ATOM     17  O   UNL     1      60.026  27.787  55.150  1.00  0.00    -0.550 OA
ENDBRANCH  14  15
ENDBRANCH  13  14
ENDBRANCH  12  13
ENDBRANCH  11  12
ENDBRANCH  10  11
ENDBRANCH   9  10
ENDBRANCH   8   9
ENDBRANCH   7   8
ENDBRANCH   6   7
ENDBRANCH   5   6
ENDBRANCH   4   5
ENDBRANCH   3   4
ENDBRANCH   2   3
ENDBRANCH   1   2
BRANCH   1  18
ATOM     18  C   UNL     1      59.550  26.590  49.604  1.00  0.00     0.000 C 
BRANCH  18  19
ATOM     19  C   UNL     1      60.546  25.657  50.312  1.00  0.00     0.000 C 
BRANCH  19  20
ATOM     20  C   UNL     1      60.076  24.192  50.329  1.00  0.00     0.000 C 
BRANCH  20  21
ATOM     21  C   UNL     1      61.176  23.206  49.897  1.00  0.00     0.000 C 
BRANCH  21  22
ATOM     22  C   UNL     1      60.758  22.176  48.826  1.00  0.00     0.000 C 
BRANCH  22  23
ATOM     23  C   UNL     1      61.564  20.864  48.825  1.00  0.00     0.000 C 
BRANCH  23  24
ATOM     24  C   UNL     1      60.804  19.696  49.476  1.00  0.00    -0.000 C 
BRANCH  24  25
ATOM     25  C   UNL     1      59.696  19.119  48.575  1.00  0.00    -0.000 C 
BRANCH  25  26
ATOM     26  C   UNL     1      59.609  17.582  48.534  1.00  0.00    -0.000 C 
BRANCH  26  27
ATOM     27  C   UNL     1      58.170  17.055  48.676  1.00  0.00    -0.000 C 
BRANCH  27  28
ATOM     28  C   UNL     1      57.436  17.662  49.882  1.00  0.00    -0.000 C 
BRANCH  28  29
ATOM     29  C   UNL     1      58.085  17.289  51.224  1.00  0.00    -0.000 C 
BRANCH  29  30
ATOM     30  C   UNL     1      57.653  18.261  52.332  1.00  0.00    -0.000 C 
BRANCH  30  31
ATOM     31  C   UNL     1      56.931  19.501  51.781  1.00  0.00    -0.003 C 
ATOM     32  C   UNL     1      55.540  19.692  52.384  1.00  0.00     0.004 C 
ENDBRANCH  30  31
ENDBRANCH  29  30
ENDBRANCH  28  29
ENDBRANCH  27  28
ENDBRANCH  26  27
ENDBRANCH  25  26
ENDBRANCH  24  25
ENDBRANCH  23  24
ENDBRANCH  22  23
ENDBRANCH  21  22
ENDBRANCH  20  21
ENDBRANCH  19  20
ENDBRANCH  18  19
ENDBRANCH   1  18
TORSDOF 28
ENDMDL
MODEL 4
REMARK VINA RESULT:    -3.260      4.197      7.677
REMARK INTER + INTRA:         -13.297
REMARK INTER:                  -7.390
REMARK INTRA:                  -5.907
REMARK UNBOUND:                -4.700
REMARK SMILES CCCCCCCCCCCCCCCCCCCCCCCCCCCCCC(=O)[O-]
REMARK SMILES IDX 16 1 17 2 18 3 19 4 20 5 21 6 22 7 23 8 24 9 25 10 26 11
REMARK SMILES IDX 27 12 28 13 29 14 30 15 31 16 32 17 15 18 14 19 13 20 12 21
REMARK SMILES IDX 11 22 10 23 9 24 8 25 7 26 6 27 5 28 4 29 3 30 2 31 1 32
REMARK H PARENT
REMARK Flexibility Score: inf
ROOT
ATOM      1  C   UNL     1      59.226  28.727  49.189  1.00  0.00     0.000 C 
ENDROOT
BRANCH   1   2
ATOM      2  C   UNL     1      58.136  29.475  49.971  1.00  0.00     0.000 C 
BRANCH   2   3
ATOM      3  C   UNL     1      57.081  28.542  50.598  1.00  0.00     0.000 C 
BRANCH   3   4
ATOM      4  C   UNL     1      55.652  29.119  50.670  1.00  0.00     0.000 C 
BRANCH   4   5
ATOM      5  C   UNL     1      54.554  28.173  50.136  1.00  0.00     0.000 C 
BRANCH   5   6
ATOM      6  C   UNL     1      54.983  26.697  50.045  1.00  0.00     0.000 C 
BRANCH   6   7
ATOM      7  C   UNL     1      54.497  25.829  51.224  1.00  0.00     0.000 C 
BRANCH   7   8
ATOM      8  C   UNL     1      55.585  25.625  52.288  1.00  0.00     0.000 C 
BRANCH   8   9
ATOM      9  C   UNL     1      55.055  25.975  53.686  1.00  0.00     0.000 C 
BRANCH   9  10
ATOM     10  C   UNL     1      54.895  27.490  53.910  1.00  0.00     0.000 C 
BRANCH  10  11
ATOM     11  C   UNL     1      56.181  28.231  54.319  1.00  0.00     0.000 C 
BRANCH  11  12
ATOM     12  C   UNL     1      56.034  29.762  54.271  1.00  0.00     0.000 C 
BRANCH  12  13
ATOM     13  C   UNL     1      57.393  30.475  54.169  1.00  0.00     0.006 C 
BRANCH  13  14
ATOM     14  C   UNL     1      57.437  31.485  53.015  1.00  0.00     0.053 C 
BRANCH  14  15
ATOM     15  C   UNL     1      58.012  32.784  53.484  1.00  0.00     0.041 C 
ATOM     16  O   UNL     1      59.068  33.233  52.965  1.00  0.00    -0.550 OA
ATOM     17  O   UNL     1      57.418  33.469  54.537  1.00  0.00    -0.550 OA
ENDBRANCH  14  15
ENDBRANCH  13  14
ENDBRANCH  12  13
ENDBRANCH  11  12
ENDBRANCH  10  11
ENDBRANCH   9  10
ENDBRANCH   8   9
ENDBRANCH   7   8
ENDBRANCH   6   7
ENDBRANCH   5   6
ENDBRANCH   4   5
ENDBRANCH   3   4
ENDBRANCH   2   3
ENDBRANCH   1   2
BRANCH   1  18
ATOM     18  C   UNL     1      59.190  27.224  49.508  1.00  0.00     0.000 C 
BRANCH  18  19
ATOM     19  C   UNL     1      60.566  26.656  49.887  1.00  0.00     0.000 C 
BRANCH  19  20
ATOM     20  C   UNL     1      61.702  27.676  49.695  1.00  0.00     0.000 C 
BRANCH  20  21
ATOM     21  C   UNL     1      63.099  27.061  49.898  1.00  0.00     0.000 C 
BRANCH  21  22
ATOM     22  C   UNL     1      64.205  27.615  48.975  1.00  0.00     0.000 C 
BRANCH  22  23
ATOM     23  C   UNL     1      63.789  28.799  48.084  1.00  0.00     0.000 C 
BRANCH  23  24
ATOM     24  C   UNL     1      64.368  30.141  48.566  1.00  0.00    -0.000 C 
BRANCH  24  25
ATOM     25  C   UNL     1      63.313  31.052  49.223  1.00  0.00    -0.000 C 
BRANCH  25  26
ATOM     26  C   UNL     1      63.590  31.433  50.690  1.00  0.00    -0.000 C 
BRANCH  26  27
ATOM     27  C   UNL     1      64.038  30.238  51.550  1.00  0.00    -0.000 C 
BRANCH  27  28
ATOM     28  C   UNL     1      63.167  30.054  52.803  1.00  0.00    -0.000 C 
BRANCH  28  29
ATOM     29  C   UNL     1      61.822  30.793  52.708  1.00  0.00    -0.000 C 
BRANCH  29  30
ATOM     30  C   UNL     1      60.667  29.804  52.493  1.00  0.00    -0.000 C 
BRANCH  30  31
ATOM     31  C   UNL     1      60.856  28.495  53.276  1.00  0.00    -0.003 C 
ATOM     32  C   UNL     1      59.612  27.608  53.255  1.00  0.00     0.004 C 
ENDBRANCH  30  31
ENDBRANCH  29  30
ENDBRANCH  28  29
ENDBRANCH  27  28
ENDBRANCH  26  27
ENDBRANCH  25  26
ENDBRANCH  24  25
ENDBRANCH  23  24
ENDBRANCH  22  23
ENDBRANCH  21  22
ENDBRANCH  20  21
ENDBRANCH  19  20
ENDBRANCH  18  19
ENDBRANCH   1  18
TORSDOF 28
ENDMDL
MODEL 5
REMARK VINA RESULT:    -3.252      4.782      8.626
REMARK INTER + INTRA:         -13.276
REMARK INTER:                  -7.159
REMARK INTRA:                  -6.117
REMARK UNBOUND:                -4.700
REMARK SMILES CCCCCCCCCCCCCCCCCCCCCCCCCCCCCC(=O)[O-]
REMARK SMILES IDX 16 1 17 2 18 3 19 4 20 5 21 6 22 7 23 8 24 9 25 10 26 11
REMARK SMILES IDX 27 12 28 13 29 14 30 15 31 16 32 17 15 18 14 19 13 20 12 21
REMARK SMILES IDX 11 22 10 23 9 24 8 25 7 26 6 27 5 28 4 29 3 30 2 31 1 32
REMARK H PARENT
REMARK Flexibility Score: inf
ROOT
ATOM      1  C   UNL     1      61.869  28.110  49.625  1.00  0.00     0.000 C 
ENDROOT
BRANCH   1   2
ATOM      2  C   UNL     1      62.272  26.661  49.940  1.00  0.00     0.000 C 
BRANCH   2   3
ATOM      3  C   UNL     1      63.505  26.554  50.860  1.00  0.00     0.000 C 
BRANCH   3   4
ATOM      4  C   UNL     1      64.191  27.894  51.199  1.00  0.00     0.000 C 
BRANCH   4   5
ATOM      5  C   UNL     1      65.673  27.977  50.774  1.00  0.00     0.000 C 
BRANCH   5   6
ATOM      6  C   UNL     1      66.051  27.036  49.616  1.00  0.00     0.000 C 
BRANCH   6   7
ATOM      7  C   UNL     1      66.485  27.769  48.330  1.00  0.00     0.000 C 
BRANCH   7   8
ATOM      8  C   UNL     1      65.328  27.934  47.333  1.00  0.00     0.000 C 
BRANCH   8   9
ATOM      9  C   UNL     1      64.668  29.312  47.484  1.00  0.00     0.000 C 
BRANCH   9  10
ATOM     10  C   UNL     1      65.685  30.452  47.672  1.00  0.00     0.000 C 
BRANCH  10  11
ATOM     11  C   UNL     1      65.217  31.602  48.584  1.00  0.00     0.000 C 
BRANCH  11  12
ATOM     12  C   UNL     1      64.125  31.173  49.580  1.00  0.00     0.000 C 
BRANCH  12  13
ATOM     13  C   UNL     1      63.319  32.370  50.110  1.00  0.00     0.006 C 
BRANCH  13  14
ATOM     14  C   UNL     1      62.303  32.890  49.085  1.00  0.00     0.053 C 
BRANCH  14  15
ATOM     15  C   UNL     1      62.509  34.352  48.844  1.00  0.00     0.041 C 
ATOM     16  O   UNL     1      63.449  34.746  48.104  1.00  0.00    -0.550 OA
ATOM     17  O   UNL     1      61.703  35.284  49.487  1.00  0.00    -0.550 OA
ENDBRANCH  14  15
ENDBRANCH  13  14
ENDBRANCH  12  13
ENDBRANCH  11  12
ENDBRANCH  10  11
ENDBRANCH   9  10
ENDBRANCH   8   9
ENDBRANCH   7   8
ENDBRANCH   6   7
ENDBRANCH   5   6
ENDBRANCH   4   5
ENDBRANCH   3   4
ENDBRANCH   2   3
ENDBRANCH   1   2
BRANCH   1  18
ATOM     18  C   UNL     1      60.369  28.199  49.305  1.00  0.00     0.000 C 
BRANCH  18  19
ATOM     19  C   UNL     1      59.602  26.914  49.653  1.00  0.00     0.000 C 
BRANCH  19  20
ATOM     20  C   UNL     1      58.231  27.196  50.293  1.00  0.00     0.000 C 
BRANCH  20  21
ATOM     21  C   UNL     1      57.724  28.623  50.016  1.00  0.00     0.000 C 
BRANCH  21  22
ATOM     22  C   UNL     1      57.355  29.447  51.267  1.00  0.00     0.000 C 
BRANCH  22  23
ATOM     23  C   UNL     1      58.485  30.326  51.835  1.00  0.00     0.000 C 
BRANCH  23  24
ATOM     24  C   UNL     1      59.193  29.682  53.039  1.00  0.00    -0.000 C 
BRANCH  24  25
ATOM     25  C   UNL     1      60.675  29.360  52.766  1.00  0.00    -0.000 C 
BRANCH  25  26
ATOM     26  C   UNL     1      61.226  28.115  53.486  1.00  0.00    -0.000 C 
BRANCH  26  27
ATOM     27  C   UNL     1      60.159  27.029  53.714  1.00  0.00    -0.000 C 
BRANCH  27  28
ATOM     28  C   UNL     1      60.470  25.728  52.956  1.00  0.00    -0.000 C 
BRANCH  28  29
ATOM     29  C   UNL     1      59.281  24.754  52.935  1.00  0.00    -0.000 C 
BRANCH  29  30
ATOM     30  C   UNL     1      59.326  23.861  51.686  1.00  0.00    -0.000 C 
BRANCH  30  31
ATOM     31  C   UNL     1      60.761  23.590  51.205  1.00  0.00    -0.003 C 
ATOM     32  C   UNL     1      60.838  23.306  49.705  1.00  0.00     0.004 C 
ENDBRANCH  30  31
ENDBRANCH  29  30
ENDBRANCH  28  29
ENDBRANCH  27  28
ENDBRANCH  26  27
ENDBRANCH  25  26
ENDBRANCH  24  25
ENDBRANCH  23  24
ENDBRANCH  22  23
ENDBRANCH  21  22
ENDBRANCH  20  21
ENDBRANCH  19  20
ENDBRANCH  18  19
ENDBRANCH   1  18
TORSDOF 28
ENDMDL
MODEL 6
REMARK VINA RESULT:    -3.245      2.145      3.728
REMARK INTER + INTRA:         -13.258
REMARK INTER:                  -7.068
REMARK INTRA:                  -6.190
REMARK UNBOUND:                -4.700
REMARK SMILES CCCCCCCCCCCCCCCCCCCCCCCCCCCCCC(=O)[O-]
REMARK SMILES IDX 16 1 17 2 18 3 19 4 20 5 21 6 22 7 23 8 24 9 25 10 26 11
REMARK SMILES IDX 27 12 28 13 29 14 30 15 31 16 32 17 15 18 14 19 13 20 12 21
REMARK SMILES IDX 11 22 10 23 9 24 8 25 7 26 6 27 5 28 4 29 3 30 2 31 1 32
REMARK H PARENT
REMARK Flexibility Score: inf
ROOT
ATOM      1  C   UNL     1      53.344  28.043  49.793  1.00  0.00     0.000 C 
ENDROOT
BRANCH   1   2
ATOM      2  C   UNL     1      54.822  27.671  49.995  1.00  0.00     0.000 C 
BRANCH   2   3
ATOM      3  C   UNL     1      55.023  26.395  50.835  1.00  0.00     0.000 C 
BRANCH   3   4
ATOM      4  C   UNL     1      55.215  26.627  52.349  1.00  0.00     0.000 C 
BRANCH   4   5
ATOM      5  C   UNL     1      56.679  26.871  52.776  1.00  0.00     0.000 C 
BRANCH   5   6
ATOM      6  C   UNL     1      56.989  28.328  53.163  1.00  0.00     0.000 C 
BRANCH   6   7
ATOM      7  C   UNL     1      58.279  28.885  52.528  1.00  0.00     0.000 C 
BRANCH   7   8
ATOM      8  C   UNL     1      57.993  29.944  51.454  1.00  0.00     0.000 C 
BRANCH   8   9
ATOM      9  C   UNL     1      57.887  29.301  50.064  1.00  0.00     0.000 C 
BRANCH   9  10
ATOM     10  C   UNL     1      59.255  29.096  49.387  1.00  0.00     0.000 C 
BRANCH  10  11
ATOM     11  C   UNL     1      59.745  27.637  49.331  1.00  0.00     0.000 C 
BRANCH  11  12
ATOM     12  C   UNL     1      58.628  26.617  49.610  1.00  0.00     0.000 C 
BRANCH  12  13
ATOM     13  C   UNL     1      59.152  25.362  50.329  1.00  0.00     0.006 C 
BRANCH  13  14
ATOM     14  C   UNL     1      60.053  25.707  51.522  1.00  0.00     0.053 C 
BRANCH  14  15
ATOM     15  C   UNL     1      61.370  25.008  51.396  1.00  0.00     0.041 C 
ATOM     16  O   UNL     1      62.169  25.322  50.474  1.00  0.00    -0.550 OA
ATOM     17  O   UNL     1      61.690  23.966  52.259  1.00  0.00    -0.550 OA
ENDBRANCH  14  15
ENDBRANCH  13  14
ENDBRANCH  12  13
ENDBRANCH  11  12
ENDBRANCH  10  11
ENDBRANCH   9  10
ENDBRANCH   8   9
ENDBRANCH   7   8
ENDBRANCH   6   7
ENDBRANCH   5   6
ENDBRANCH   4   5
ENDBRANCH   3   4
ENDBRANCH   2   3
ENDBRANCH   1   2
BRANCH   1  18
ATOM     18  C   UNL     1      53.062  29.457  50.323  1.00  0.00     0.000 C 
BRANCH  18  19
ATOM     19  C   UNL     1      54.308  30.139  50.912  1.00  0.00     0.000 C 
BRANCH  19  20
ATOM     20  C   UNL     1      54.207  30.347  52.433  1.00  0.00     0.000 C 
BRANCH  20  21
ATOM     21  C   UNL     1      54.570  31.779  52.866  1.00  0.00     0.000 C 
BRANCH  21  22
ATOM     22  C   UNL     1      55.964  31.944  53.505  1.00  0.00     0.000 C 
BRANCH  22  23
ATOM     23  C   UNL     1      56.588  33.345  53.373  1.00  0.00     0.000 C 
BRANCH  23  24
ATOM     24  C   UNL     1      58.105  33.350  53.629  1.00  0.00    -0.000 C 
BRANCH  24  25
ATOM     25  C   UNL     1      58.535  32.359  54.728  1.00  0.00    -0.000 C 
BRANCH  25  26
ATOM     26  C   UNL     1      59.720  31.443  54.367  1.00  0.00    -0.000 C 
BRANCH  26  27
ATOM     27  C   UNL     1      61.079  32.161  54.434  1.00  0.00    -0.000 C 
BRANCH  27  28
ATOM     28  C   UNL     1      61.660  32.457  53.041  1.00  0.00    -0.000 C 
BRANCH  28  29
ATOM     29  C   UNL     1      60.954  31.673  51.923  1.00  0.00    -0.000 C 
BRANCH  29  30
ATOM     30  C   UNL     1      61.974  31.092  50.932  1.00  0.00    -0.000 C 
BRANCH  30  31
ATOM     31  C   UNL     1      62.783  29.931  51.530  1.00  0.00    -0.003 C 
ATOM     32  C   UNL     1      61.899  28.858  52.164  1.00  0.00     0.004 C 
ENDBRANCH  30  31
ENDBRANCH  29  30
ENDBRANCH  28  29
ENDBRANCH  27  28
ENDBRANCH  26  27
ENDBRANCH  25  26
ENDBRANCH  24  25
ENDBRANCH  23  24
ENDBRANCH  22  23
ENDBRANCH  21  22
ENDBRANCH  20  21
ENDBRANCH  19  20
ENDBRANCH  18  19
ENDBRANCH   1  18
TORSDOF 28
ENDMDL
MODEL 7
REMARK VINA RESULT:    -3.237      3.794      7.074
REMARK INTER + INTRA:         -13.235
REMARK INTER:                  -7.667
REMARK INTRA:                  -5.568
REMARK UNBOUND:                -4.700
REMARK SMILES CCCCCCCCCCCCCCCCCCCCCCCCCCCCCC(=O)[O-]
REMARK SMILES IDX 16 1 17 2 18 3 19 4 20 5 21 6 22 7 23 8 24 9 25 10 26 11
REMARK SMILES IDX 27 12 28 13 29 14 30 15 31 16 32 17 15 18 14 19 13 20 12 21
REMARK SMILES IDX 11 22 10 23 9 24 8 25 7 26 6 27 5 28 4 29 3 30 2 31 1 32
REMARK H PARENT
REMARK Flexibility Score: inf
ROOT
ATOM      1  C   UNL     1      57.027  29.160  50.409  1.00  0.00     0.000 C 
ENDROOT
BRANCH   1   2
ATOM      2  C   UNL     1      58.457  29.652  50.140  1.00  0.00     0.000 C 
BRANCH   2   3
ATOM      3  C   UNL     1      59.117  28.981  48.919  1.00  0.00     0.000 C 
BRANCH   3   4
ATOM      4  C   UNL     1      60.242  27.978  49.247  1.00  0.00     0.000 C 
BRANCH   4   5
ATOM      5  C   UNL     1      59.747  26.561  49.612  1.00  0.00     0.000 C 
BRANCH   5   6
ATOM      6  C   UNL     1      60.467  25.932  50.819  1.00  0.00     0.000 C 
BRANCH   6   7
ATOM      7  C   UNL     1      59.577  25.778  52.069  1.00  0.00     0.000 C 
BRANCH   7   8
ATOM      8  C   UNL     1      60.106  26.579  53.267  1.00  0.00     0.000 C 
BRANCH   8   9
ATOM      9  C   UNL     1      60.413  28.028  52.864  1.00  0.00     0.000 C 
BRANCH   9  10
ATOM     10  C   UNL     1      61.822  28.487  53.285  1.00  0.00     0.000 C 
BRANCH  10  11
ATOM     11  C   UNL     1      62.921  28.280  52.227  1.00  0.00     0.000 C 
BRANCH  11  12
ATOM     12  C   UNL     1      62.936  29.380  51.152  1.00  0.00     0.000 C 
BRANCH  12  13
ATOM     13  C   UNL     1      62.462  30.736  51.700  1.00  0.00     0.006 C 
BRANCH  13  14
ATOM     14  C   UNL     1      61.638  31.525  50.674  1.00  0.00     0.053 C 
BRANCH  14  15
ATOM     15  C   UNL     1      62.420  32.697  50.170  1.00  0.00     0.041 C 
ATOM     16  O   UNL     1      62.515  32.910  48.932  1.00  0.00    -0.550 OA
ATOM     17  O   UNL     1      63.097  33.518  51.063  1.00  0.00    -0.550 OA
ENDBRANCH  14  15
ENDBRANCH  13  14
ENDBRANCH  12  13
ENDBRANCH  11  12
ENDBRANCH  10  11
ENDBRANCH   9  10
ENDBRANCH   8   9
ENDBRANCH   7   8
ENDBRANCH   6   7
ENDBRANCH   5   6
ENDBRANCH   4   5
ENDBRANCH   3   4
ENDBRANCH   2   3
ENDBRANCH   1   2
BRANCH   1  18
ATOM     18  C   UNL     1      56.974  28.318  51.693  1.00  0.00     0.000 C 
BRANCH  18  19
ATOM     19  C   UNL     1      56.174  27.016  51.526  1.00  0.00     0.000 C 
BRANCH  19  20
ATOM     20  C   UNL     1      56.082  26.560  50.060  1.00  0.00     0.000 C 
BRANCH  20  21
ATOM     21  C   UNL     1      54.640  26.258  49.616  1.00  0.00     0.000 C 
BRANCH  21  22
ATOM     22  C   UNL     1      53.539  27.036  50.368  1.00  0.00     0.000 C 
BRANCH  22  23
ATOM     23  C   UNL     1      53.061  28.329  49.681  1.00  0.00     0.000 C 
BRANCH  23  24
ATOM     24  C   UNL     1      53.374  29.592  50.502  1.00  0.00    -0.000 C 
BRANCH  24  25
ATOM     25  C   UNL     1      53.067  29.427  52.003  1.00  0.00    -0.000 C 
BRANCH  25  26
ATOM     26  C   UNL     1      54.153  29.950  52.962  1.00  0.00    -0.000 C 
BRANCH  26  27
ATOM     27  C   UNL     1      53.797  31.308  53.593  1.00  0.00    -0.000 C 
BRANCH  27  28
ATOM     28  C   UNL     1      54.395  32.494  52.817  1.00  0.00    -0.000 C 
BRANCH  28  29
ATOM     29  C   UNL     1      55.194  33.450  53.716  1.00  0.00    -0.000 C 
BRANCH  29  30
ATOM     30  C   UNL     1      56.697  33.365  53.408  1.00  0.00    -0.000 C 
BRANCH  30  31
ATOM     31  C   UNL     1      57.366  32.147  54.066  1.00  0.00    -0.003 C 
ATOM     32  C   UNL     1      58.456  31.528  53.192  1.00  0.00     0.004 C 
ENDBRANCH  30  31
ENDBRANCH  29  30
ENDBRANCH  28  29
ENDBRANCH  27  28
ENDBRANCH  26  27
ENDBRANCH  25  26
ENDBRANCH  24  25
ENDBRANCH  23  24
ENDBRANCH  22  23
ENDBRANCH  21  22
ENDBRANCH  20  21
ENDBRANCH  19  20
ENDBRANCH  18  19
ENDBRANCH   1  18
TORSDOF 28
ENDMDL
MODEL 8
REMARK VINA RESULT:    -3.198      3.818      8.368
REMARK INTER + INTRA:         -13.133
REMARK INTER:                  -7.179
REMARK INTRA:                  -5.954
REMARK UNBOUND:                -4.700
REMARK SMILES CCCCCCCCCCCCCCCCCCCCCCCCCCCCCC(=O)[O-]
REMARK SMILES IDX 16 1 17 2 18 3 19 4 20 5 21 6 22 7 23 8 24 9 25 10 26 11
REMARK SMILES IDX 27 12 28 13 29 14 30 15 31 16 32 17 15 18 14 19 13 20 12 21
REMARK SMILES IDX 11 22 10 23 9 24 8 25 7 26 6 27 5 28 4 29 3 30 2 31 1 32
REMARK H PARENT
REMARK Flexibility Score: inf
ROOT
ATOM      1  C   UNL     1      58.888  29.240  49.043  1.00  0.00     0.000 C 
ENDROOT
BRANCH   1   2
ATOM      2  C   UNL     1      59.965  28.190  49.360  1.00  0.00     0.000 C 
BRANCH   2   3
ATOM      3  C   UNL     1      59.441  26.742  49.313  1.00  0.00     0.000 C 
BRANCH   3   4
ATOM      4  C   UNL     1      59.698  25.908  50.586  1.00  0.00     0.000 C 
BRANCH   4   5
ATOM      5  C   UNL     1      61.064  26.170  51.256  1.00  0.00     0.000 C 
BRANCH   5   6
ATOM      6  C   UNL     1      60.973  26.563  52.742  1.00  0.00     0.000 C 
BRANCH   6   7
ATOM      7  C   UNL     1      59.816  27.530  53.065  1.00  0.00     0.000 C 
BRANCH   7   8
ATOM      8  C   UNL     1      60.300  28.972  53.274  1.00  0.00     0.000 C 
BRANCH   8   9
ATOM      9  C   UNL     1      59.166  29.857  53.813  1.00  0.00     0.000 C 
BRANCH   9  10
ATOM     10  C   UNL     1      59.324  31.340  53.432  1.00  0.00     0.000 C 
BRANCH  10  11
ATOM     11  C   UNL     1      58.026  32.045  52.996  1.00  0.00     0.000 C 
BRANCH  11  12
ATOM     12  C   UNL     1      57.492  33.027  54.054  1.00  0.00     0.000 C 
BRANCH  12  13
ATOM     13  C   UNL     1      58.311  32.984  55.355  1.00  0.00     0.006 C 
BRANCH  13  14
ATOM     14  C   UNL     1      57.423  33.031  56.605  1.00  0.00     0.053 C 
BRANCH  14  15
ATOM     15  C   UNL     1      56.993  31.650  56.988  1.00  0.00     0.041 C 
ATOM     16  O   UNL     1      55.847  31.455  57.473  1.00  0.00    -0.550 OA
ATOM     17  O   UNL     1      57.880  30.587  56.870  1.00  0.00    -0.550 OA
ENDBRANCH  14  15
ENDBRANCH  13  14
ENDBRANCH  12  13
ENDBRANCH  11  12
ENDBRANCH  10  11
ENDBRANCH   9  10
ENDBRANCH   8   9
ENDBRANCH   7   8
ENDBRANCH   6   7
ENDBRANCH   5   6
ENDBRANCH   4   5
ENDBRANCH   3   4
ENDBRANCH   2   3
ENDBRANCH   1   2
BRANCH   1  18
ATOM     18  C   UNL     1      58.117  29.629  50.314  1.00  0.00     0.000 C 
BRANCH  18  19
ATOM     19  C   UNL     1      56.749  28.936  50.424  1.00  0.00     0.000 C 
BRANCH  19  20
ATOM     20  C   UNL     1      56.629  28.059  51.682  1.00  0.00     0.000 C 
BRANCH  20  21
ATOM     21  C   UNL     1      56.114  26.641  51.375  1.00  0.00     0.000 C 
BRANCH  21  22
ATOM     22  C   UNL     1      55.836  26.345  49.886  1.00  0.00     0.000 C 
BRANCH  22  23
ATOM     23  C   UNL     1      54.409  25.865  49.565  1.00  0.00     0.000 C 
BRANCH  23  24
ATOM     24  C   UNL     1      53.324  26.727  50.234  1.00  0.00    -0.000 C 
BRANCH  24  25
ATOM     25  C   UNL     1      53.230  28.146  49.641  1.00  0.00    -0.000 C 
BRANCH  25  26
ATOM     26  C   UNL     1      53.012  29.278  50.662  1.00  0.00    -0.000 C 
BRANCH  26  27
ATOM     27  C   UNL     1      53.047  28.789  52.121  1.00  0.00    -0.000 C 
BRANCH  27  28
ATOM     28  C   UNL     1      53.690  29.812  53.071  1.00  0.00    -0.000 C 
BRANCH  28  29
ATOM     29  C   UNL     1      54.363  30.975  52.326  1.00  0.00    -0.000 C 
BRANCH  29  30
ATOM     30  C   UNL     1      54.055  32.316  53.009  1.00  0.00    -0.000 C 
BRANCH  30  31
ATOM     31  C   UNL     1      54.057  32.212  54.543  1.00  0.00    -0.003 C 
ATOM     32  C   UNL     1      53.882  33.566  55.228  1.00  0.00     0.004 C 
ENDBRANCH  30  31
ENDBRANCH  29  30
ENDBRANCH  28  29
ENDBRANCH  27  28
ENDBRANCH  26  27
ENDBRANCH  25  26
ENDBRANCH  24  25
ENDBRANCH  23  24
ENDBRANCH  22  23
ENDBRANCH  21  22
ENDBRANCH  20  21
ENDBRANCH  19  20
ENDBRANCH  18  19
ENDBRANCH   1  18
TORSDOF 28
ENDMDL
MODEL 9
REMARK VINA RESULT:    -3.184      4.015      6.393
REMARK INTER + INTRA:         -13.097
REMARK INTER:                  -6.948
REMARK INTRA:                  -6.150
REMARK UNBOUND:                -4.700
REMARK SMILES CCCCCCCCCCCCCCCCCCCCCCCCCCCCCC(=O)[O-]
REMARK SMILES IDX 16 1 17 2 18 3 19 4 20 5 21 6 22 7 23 8 24 9 25 10 26 11
REMARK SMILES IDX 27 12 28 13 29 14 30 15 31 16 32 17 15 18 14 19 13 20 12 21
REMARK SMILES IDX 11 22 10 23 9 24 8 25 7 26 6 27 5 28 4 29 3 30 2 31 1 32
REMARK H PARENT
REMARK Flexibility Score: inf
ROOT
ATOM      1  C   UNL     1      59.889  29.162  54.509  1.00  0.00     0.000 C 
ENDROOT
BRANCH   1   2
ATOM      2  C   UNL     1      59.820  28.973  52.986  1.00  0.00     0.000 C 
BRANCH   2   3
ATOM      3  C   UNL     1      59.212  30.180  52.245  1.00  0.00     0.000 C 
BRANCH   3   4
ATOM      4  C   UNL     1      57.772  29.979  51.729  1.00  0.00     0.000 C 
BRANCH   4   5
ATOM      5  C   UNL     1      57.680  29.348  50.323  1.00  0.00     0.000 C 
BRANCH   5   6
ATOM      6  C   UNL     1      58.836  29.734  49.382  1.00  0.00     0.000 C 
BRANCH   6   7
ATOM      7  C   UNL     1      59.645  28.531  48.856  1.00  0.00     0.000 C 
BRANCH   7   8
ATOM      8  C   UNL     1      59.400  27.257  49.679  1.00  0.00     0.000 C 
BRANCH   8   9
ATOM      9  C   UNL     1      60.719  26.710  50.244  1.00  0.00     0.000 C 
BRANCH   9  10
ATOM     10  C   UNL     1      61.945  27.548  49.839  1.00  0.00     0.000 C 
BRANCH  10  11
ATOM     11  C   UNL     1      62.914  27.887  50.986  1.00  0.00     0.000 C 
BRANCH  11  12
ATOM     12  C   UNL     1      63.030  29.399  51.249  1.00  0.00     0.000 C 
BRANCH  12  13
ATOM     13  C   UNL     1      62.800  30.230  49.975  1.00  0.00     0.006 C 
BRANCH  13  14
ATOM     14  C   UNL     1      61.915  31.457  50.231  1.00  0.00     0.053 C 
BRANCH  14  15
ATOM     15  C   UNL     1      62.684  32.715  49.971  1.00  0.00     0.041 C 
ATOM     16  O   UNL     1      63.262  33.311  50.918  1.00  0.00    -0.550 OA
ATOM     17  O   UNL     1      62.710  33.263  48.695  1.00  0.00    -0.550 OA
ENDBRANCH  14  15
ENDBRANCH  13  14
ENDBRANCH  12  13
ENDBRANCH  11  12
ENDBRANCH  10  11
ENDBRANCH   9  10
ENDBRANCH   8   9
ENDBRANCH   7   8
ENDBRANCH   6   7
ENDBRANCH   5   6
ENDBRANCH   4   5
ENDBRANCH   3   4
ENDBRANCH   2   3
ENDBRANCH   1   2
BRANCH   1  18
ATOM     18  C   UNL     1      58.670  28.523  55.193  1.00  0.00     0.000 C 
BRANCH  18  19
ATOM     19  C   UNL     1      57.883  29.511  56.067  1.00  0.00     0.000 C 
BRANCH  19  20
ATOM     20  C   UNL     1      58.348  30.966  55.883  1.00  0.00     0.000 C 
BRANCH  20  21
ATOM     21  C   UNL     1      57.184  31.939  55.628  1.00  0.00     0.000 C 
BRANCH  21  22
ATOM     22  C   UNL     1      57.121  32.539  54.207  1.00  0.00     0.000 C 
BRANCH  22  23
ATOM     23  C   UNL     1      55.723  32.560  53.562  1.00  0.00     0.000 C 
BRANCH  23  24
ATOM     24  C   UNL     1      55.024  31.191  53.608  1.00  0.00    -0.000 C 
BRANCH  24  25
ATOM     25  C   UNL     1      54.207  30.888  52.337  1.00  0.00    -0.000 C 
BRANCH  25  26
ATOM     26  C   UNL     1      54.141  29.403  51.932  1.00  0.00    -0.000 C 
BRANCH  26  27
ATOM     27  C   UNL     1      53.969  29.200  50.416  1.00  0.00    -0.000 C 
BRANCH  27  28
ATOM     28  C   UNL     1      54.268  27.757  49.976  1.00  0.00    -0.000 C 
BRANCH  28  29
ATOM     29  C   UNL     1      54.593  26.830  51.159  1.00  0.00    -0.000 C 
BRANCH  29  30
ATOM     30  C   UNL     1      56.012  26.255  51.031  1.00  0.00    -0.000 C 
BRANCH  30  31
ATOM     31  C   UNL     1      56.826  26.400  52.326  1.00  0.00    -0.003 C 
ATOM     32  C   UNL     1      55.946  26.596  53.560  1.00  0.00     0.004 C 
ENDBRANCH  30  31
ENDBRANCH  29  30
ENDBRANCH  28  29
ENDBRANCH  27  28
ENDBRANCH  26  27
ENDBRANCH  25  26
ENDBRANCH  24  25
ENDBRANCH  23  24
ENDBRANCH  22  23
ENDBRANCH  21  22
ENDBRANCH  20  21
ENDBRANCH  19  20
ENDBRANCH  18  19
ENDBRANCH   1  18
TORSDOF 28
ENDMDL
