MODEL 1
REMARK VINA RESULT:    -3.399      0.000      0.000
REMARK INTER + INTRA:          -6.783
REMARK INTER:                  -5.386
REMARK INTRA:                  -1.397
REMARK UNBOUND:                -1.397
REMARK SMILES CCCCCCCCCCCC(=O)[O-]
REMARK SMILES IDX 7 1 8 2 9 3 10 4 11 5 12 6 13 7 14 8 6 9 5 10 4 11 3 12 2 13
REMARK SMILES IDX 1 14
REMARK H PARENT
REMARK Flexibility Score: inf
ROOT
ATOM      1  C   UNL     1      -6.730  32.341  45.840  1.00  0.00     0.000 C 
ENDROOT
BRANCH   1   2
ATOM      2  C   UNL     1      -5.331  32.908  46.132  1.00  0.00     0.000 C 
BRANCH   2   3
ATOM      3  C   UNL     1      -4.772  32.431  47.484  1.00  0.00     0.000 C 
BRANCH   3   4
ATOM      4  C   UNL     1      -4.381  33.596  48.411  1.00  0.00     0.006 C 
BRANCH   4   5
ATOM      5  C   UNL     1      -5.519  34.590  48.696  1.00  0.00     0.053 C 
BRANCH   5   6
ATOM      6  C   UNL     1      -6.210  34.296  49.993  1.00  0.00     0.041 C 
ATOM      7  O   UNL     1      -7.332  34.809  50.244  1.00  0.00    -0.550 OA
ATOM      8  O   UNL     1      -5.628  33.430  50.910  1.00  0.00    -0.550 OA
ENDBRANCH   5   6
ENDBRANCH   4   5
ENDBRANCH   3   4
ENDBRANCH   2   3
ENDBRANCH   1   2
BRANCH   1   9
ATOM      9  C   UNL     1      -7.328  31.595  47.045  1.00  0.00     0.000 C 
BRANCH   9  10
ATOM     10  C   UNL     1      -8.030  30.288  46.641  1.00  0.00    -0.000 C 
BRANCH  10  11
ATOM     11  C   UNL     1      -7.088  29.307  45.920  1.00  0.00    -0.000 C 
BRANCH  11  12
ATOM     12  C   UNL     1      -5.939  28.824  46.818  1.00  0.00    -0.000 C 
BRANCH  12  13
ATOM     13  C   UNL     1      -4.565  28.972  46.148  1.00  0.00    -0.003 C 
ATOM     14  C   UNL     1      -4.706  29.420  44.696  1.00  0.00     0.004 C 
ENDBRANCH  12  13
ENDBRANCH  11  12
ENDBRANCH  10  11
ENDBRANCH   9  10
ENDBRANCH   1   9
TORSDOF 10
ENDMDL
MODEL 2
REMARK VINA RESULT:    -3.347      1.440      2.069
REMARK INTER + INTRA:          -6.702
REMARK INTER:                  -5.691
REMARK INTRA:                  -1.010
REMARK UNBOUND:                -1.397
REMARK SMILES CCCCCCCCCCCC(=O)[O-]
REMARK SMILES IDX 7 1 8 2 9 3 10 4 11 5 12 6 13 7 14 8 6 9 5 10 4 11 3 12 2 13
REMARK SMILES IDX 1 14
REMARK H PARENT
REMARK Flexibility Score: inf
ROOT
ATOM      1  C   UNL     1      -5.906  30.008  47.039  1.00  0.00     0.000 C 
ENDROOT
BRANCH   1   2
ATOM      2  C   UNL     1      -4.746  31.017  46.998  1.00  0.00     0.000 C 
BRANCH   2   3
ATOM      3  C   UNL     1      -5.080  32.266  46.162  1.00  0.00     0.000 C 
BRANCH   3   4
ATOM      4  C   UNL     1      -4.967  33.570  46.972  1.00  0.00     0.006 C 
BRANCH   4   5
ATOM      5  C   UNL     1      -4.650  33.368  48.462  1.00  0.00     0.053 C 
BRANCH   5   6
ATOM      6  C   UNL     1      -5.795  33.770  49.341  1.00  0.00     0.041 C 
ATOM      7  O   UNL     1      -6.860  34.208  48.833  1.00  0.00    -0.550 OA
ATOM      8  O   UNL     1      -5.696  33.630  50.719  1.00  0.00    -0.550 OA
ENDBRANCH   5   6
ENDBRANCH   4   5
ENDBRANCH   3   4
ENDBRANCH   2   3
ENDBRANCH   1   2
BRANCH   1   9
ATOM      9  C   UNL     1      -7.279  30.692  47.159  1.00  0.00     0.000 C 
BRANCH   9  10
ATOM     10  C   UNL     1      -8.334  30.064  46.234  1.00  0.00    -0.000 C 
BRANCH  10  11
ATOM     11  C   UNL     1      -7.709  29.286  45.062  1.00  0.00    -0.000 C 
BRANCH  11  12
ATOM     12  C   UNL     1      -8.096  27.799  45.068  1.00  0.00    -0.000 C 
BRANCH  12  13
ATOM     13  C   UNL     1      -6.875  26.872  44.969  1.00  0.00    -0.003 C 
ATOM     14  C   UNL     1      -6.486  26.326  46.339  1.00  0.00     0.004 C 
ENDBRANCH  12  13
ENDBRANCH  11  12
ENDBRANCH  10  11
ENDBRANCH   9  10
ENDBRANCH   1   9
TORSDOF 10
ENDMDL
MODEL 3
REMARK VINA RESULT:    -3.335      1.646      2.974
REMARK INTER + INTRA:          -6.682
REMARK INTER:                  -5.564
REMARK INTRA:                  -1.118
REMARK UNBOUND:                -1.397
REMARK SMILES CCCCCCCCCCCC(=O)[O-]
REMARK SMILES IDX 7 1 8 2 9 3 10 4 11 5 12 6 13 7 14 8 6 9 5 10 4 11 3 12 2 13
REMARK SMILES IDX 1 14
REMARK H PARENT
REMARK Flexibility Score: inf
ROOT
ATOM      1  C   UNL     1      -5.005  30.503  46.878  1.00  0.00     0.000 C 
ENDROOT
BRANCH   1   2
ATOM      2  C   UNL     1      -6.445  30.342  47.394  1.00  0.00     0.000 C 
BRANCH   2   3
ATOM      3  C   UNL     1      -7.308  31.589  47.131  1.00  0.00     0.000 C 
BRANCH   3   4
ATOM      4  C   UNL     1      -6.469  32.825  46.759  1.00  0.00     0.006 C 
BRANCH   4   5
ATOM      5  C   UNL     1      -6.484  33.944  47.814  1.00  0.00     0.053 C 
BRANCH   5   6
ATOM      6  C   UNL     1      -5.489  33.699  48.907  1.00  0.00     0.041 C 
ATOM      7  O   UNL     1      -4.261  33.621  48.641  1.00  0.00    -0.550 OA
ATOM      8  O   UNL     1      -5.916  33.590  50.224  1.00  0.00    -0.550 OA
ENDBRANCH   5   6
ENDBRANCH   4   5
ENDBRANCH   3   4
ENDBRANCH   2   3
ENDBRANCH   1   2
BRANCH   1   9
ATOM      9  C   UNL     1      -4.555  29.322  46.002  1.00  0.00     0.000 C 
BRANCH   9  10
ATOM     10  C   UNL     1      -5.101  27.975  46.502  1.00  0.00    -0.000 C 
BRANCH  10  11
ATOM     11  C   UNL     1      -5.887  27.214  45.420  1.00  0.00    -0.000 C 
BRANCH  11  12
ATOM     12  C   UNL     1      -7.399  27.199  45.690  1.00  0.00    -0.000 C 
BRANCH  12  13
ATOM     13  C   UNL     1      -8.217  27.709  44.494  1.00  0.00    -0.003 C 
ATOM     14  C   UNL     1      -8.712  29.133  44.733  1.00  0.00     0.004 C 
ENDBRANCH  12  13
ENDBRANCH  11  12
ENDBRANCH  10  11
ENDBRANCH   9  10
ENDBRANCH   1   9
TORSDOF 10
ENDMDL
MODEL 4
REMARK VINA RESULT:    -3.330      3.387      6.292
REMARK INTER + INTRA:          -6.674
REMARK INTER:                  -5.905
REMARK INTRA:                  -0.769
REMARK UNBOUND:                -1.397
REMARK SMILES CCCCCCCCCCCC(=O)[O-]
REMARK SMILES IDX 7 1 8 2 9 3 10 4 11 5 12 6 13 7 14 8 6 9 5 10 4 11 3 12 2 13
REMARK SMILES IDX 1 14
REMARK H PARENT
REMARK Flexibility Score: inf
ROOT
ATOM      1  C   UNL     1      -7.093  30.306  47.336  1.00  0.00     0.000 C 
ENDROOT
BRANCH   1   2
ATOM      2  C   UNL     1      -8.017  30.809  46.215  1.00  0.00     0.000 C 
BRANCH   2   3
ATOM      3  C   UNL     1      -8.566  29.663  45.346  1.00  0.00     0.000 C 
BRANCH   3   4
ATOM      4  C   UNL     1      -7.466  28.692  44.878  1.00  0.00     0.006 C 
BRANCH   4   5
ATOM      5  C   UNL     1      -7.638  27.249  45.378  1.00  0.00     0.053 C 
BRANCH   5   6
ATOM      6  C   UNL     1      -6.440  26.773  46.143  1.00  0.00     0.041 C 
ATOM      7  O   UNL     1      -5.386  27.460  46.162  1.00  0.00    -0.550 OA
ATOM      8  O   UNL     1      -6.502  25.585  46.861  1.00  0.00    -0.550 OA
ENDBRANCH   5   6
ENDBRANCH   4   5
ENDBRANCH   3   4
ENDBRANCH   2   3
ENDBRANCH   1   2
BRANCH   1   9
ATOM      9  C   UNL     1      -5.677  30.901  47.246  1.00  0.00     0.000 C 
BRANCH   9  10
ATOM     10  C   UNL     1      -5.689  32.417  46.993  1.00  0.00    -0.000 C 
BRANCH  10  11
ATOM     11  C   UNL     1      -4.511  33.140  47.670  1.00  0.00    -0.000 C 
BRANCH  11  12
ATOM     12  C   UNL     1      -4.973  34.190  48.693  1.00  0.00    -0.000 C 
BRANCH  12  13
ATOM     13  C   UNL     1      -5.775  33.573  49.848  1.00  0.00    -0.003 C 
ATOM     14  C   UNL     1      -6.899  34.503  50.296  1.00  0.00     0.004 C 
ENDBRANCH  12  13
ENDBRANCH  11  12
ENDBRANCH  10  11
ENDBRANCH   9  10
ENDBRANCH   1   9
TORSDOF 10
ENDMDL
MODEL 5
REMARK VINA RESULT:    -3.284      3.420      5.913
REMARK INTER + INTRA:          -6.601
REMARK INTER:                  -5.480
REMARK INTRA:                  -1.121
REMARK UNBOUND:                -1.397
REMARK SMILES CCCCCCCCCCCC(=O)[O-]
REMARK SMILES IDX 7 1 8 2 9 3 10 4 11 5 12 6 13 7 14 8 6 9 5 10 4 11 3 12 2 13
REMARK SMILES IDX 1 14
REMARK H PARENT
REMARK Flexibility Score: inf
ROOT
ATOM      1  C   UNL     1      -6.469  32.161  45.686  1.00  0.00     0.000 C 
ENDROOT
BRANCH   1   2
ATOM      2  C   UNL     1      -7.327  31.708  46.879  1.00  0.00     0.000 C 
BRANCH   2   3
ATOM      3  C   UNL     1      -6.990  30.278  47.338  1.00  0.00     0.000 C 
BRANCH   3   4
ATOM      4  C   UNL     1      -5.629  29.789  46.809  1.00  0.00     0.006 C 
BRANCH   4   5
ATOM      5  C   UNL     1      -5.509  28.261  46.682  1.00  0.00     0.053 C 
BRANCH   5   6
ATOM      6  C   UNL     1      -6.274  27.733  45.507  1.00  0.00     0.041 C 
ATOM      7  O   UNL     1      -5.751  27.725  44.362  1.00  0.00    -0.550 OA
ATOM      8  O   UNL     1      -7.552  27.218  45.684  1.00  0.00    -0.550 OA
ENDBRANCH   5   6
ENDBRANCH   4   5
ENDBRANCH   3   4
ENDBRANCH   2   3
ENDBRANCH   1   2
BRANCH   1   9
ATOM      9  C   UNL     1      -5.638  33.417  45.999  1.00  0.00     0.000 C 
BRANCH   9  10
ATOM     10  C   UNL     1      -4.215  33.081  46.471  1.00  0.00    -0.000 C 
BRANCH  10  11
ATOM     11  C   UNL     1      -4.008  33.353  47.972  1.00  0.00    -0.000 C 
BRANCH  11  12
ATOM     12  C   UNL     1      -5.109  34.244  48.567  1.00  0.00    -0.000 C 
BRANCH  12  13
ATOM     13  C   UNL     1      -5.799  33.599  49.778  1.00  0.00    -0.003 C 
ATOM     14  C   UNL     1      -6.918  34.489  50.311  1.00  0.00     0.004 C 
ENDBRANCH  12  13
ENDBRANCH  11  12
ENDBRANCH  10  11
ENDBRANCH   9  10
ENDBRANCH   1   9
TORSDOF 10
ENDMDL
MODEL 6
REMARK VINA RESULT:    -3.268      1.049      2.344
REMARK INTER + INTRA:          -6.575
REMARK INTER:                  -5.153
REMARK INTRA:                  -1.422
REMARK UNBOUND:                -1.397
REMARK SMILES CCCCCCCCCCCC(=O)[O-]
REMARK SMILES IDX 7 1 8 2 9 3 10 4 11 5 12 6 13 7 14 8 6 9 5 10 4 11 3 12 2 13
REMARK SMILES IDX 1 14
REMARK H PARENT
REMARK Flexibility Score: inf
ROOT
ATOM      1  C   UNL     1      -7.971  30.118  46.442  1.00  0.00     0.000 C 
ENDROOT
BRANCH   1   2
ATOM      2  C   UNL     1      -8.236  31.498  45.818  1.00  0.00     0.000 C 
BRANCH   2   3
ATOM      3  C   UNL     1      -7.363  32.603  46.441  1.00  0.00     0.000 C 
BRANCH   3   4
ATOM      4  C   UNL     1      -6.666  32.151  47.738  1.00  0.00     0.006 C 
BRANCH   4   5
ATOM      5  C   UNL     1      -5.685  33.180  48.323  1.00  0.00     0.053 C 
BRANCH   5   6
ATOM      6  C   UNL     1      -6.226  33.834  49.558  1.00  0.00     0.041 C 
ATOM      7  O   UNL     1      -5.820  33.477  50.694  1.00  0.00    -0.550 OA
ATOM      8  O   UNL     1      -7.155  34.861  49.450  1.00  0.00    -0.550 OA
ENDBRANCH   5   6
ENDBRANCH   4   5
ENDBRANCH   3   4
ENDBRANCH   2   3
ENDBRANCH   1   2
BRANCH   1   9
ATOM      9  C   UNL     1      -7.656  29.043  45.388  1.00  0.00     0.000 C 
BRANCH   9  10
ATOM     10  C   UNL     1      -6.322  28.329  45.653  1.00  0.00    -0.000 C 
BRANCH  10  11
ATOM     11  C   UNL     1      -5.563  28.916  46.857  1.00  0.00    -0.000 C 
BRANCH  11  12
ATOM     12  C   UNL     1      -4.171  29.444  46.476  1.00  0.00    -0.000 C 
BRANCH  12  13
ATOM     13  C   UNL     1      -4.091  29.890  45.009  1.00  0.00    -0.003 C 
ATOM     14  C   UNL     1      -4.253  31.402  44.884  1.00  0.00     0.004 C 
ENDBRANCH  12  13
ENDBRANCH  11  12
ENDBRANCH  10  11
ENDBRANCH   9  10
ENDBRANCH   1   9
TORSDOF 10
ENDMDL
MODEL 7
REMARK VINA RESULT:    -3.243     17.410     18.687
REMARK INTER + INTRA:          -6.536
REMARK INTER:                  -5.972
REMARK INTRA:                  -0.564
REMARK UNBOUND:                -1.397
REMARK SMILES CCCCCCCCCCCC(=O)[O-]
REMARK SMILES IDX 7 1 8 2 9 3 10 4 11 5 12 6 13 7 14 8 6 9 5 10 4 11 3 12 2 13
REMARK SMILES IDX 1 14
REMARK H PARENT
REMARK Flexibility Score: inf
ROOT
ATOM      1  C   UNL     1     -17.345  18.928  42.760  1.00  0.00     0.000 C 
ENDROOT
BRANCH   1   2
ATOM      2  C   UNL     1     -18.154  20.230  42.637  1.00  0.00     0.000 C 
BRANCH   2   3
ATOM      3  C   UNL     1     -19.312  20.111  41.630  1.00  0.00     0.000 C 
BRANCH   3   4
ATOM      4  C   UNL     1     -20.668  20.521  42.232  1.00  0.00     0.006 C 
BRANCH   4   5
ATOM      5  C   UNL     1     -21.446  21.555  41.401  1.00  0.00     0.053 C 
BRANCH   5   6
ATOM      6  C   UNL     1     -20.564  22.664  40.915  1.00  0.00     0.041 C 
ATOM      7  O   UNL     1     -20.297  22.772  39.690  1.00  0.00    -0.550 OA
ATOM      8  O   UNL     1     -20.065  23.598  41.814  1.00  0.00    -0.550 OA
ENDBRANCH   5   6
ENDBRANCH   4   5
ENDBRANCH   3   4
ENDBRANCH   2   3
ENDBRANCH   1   2
BRANCH   1   9
ATOM      9  C   UNL     1     -17.059  18.278  41.396  1.00  0.00     0.000 C 
BRANCH   9  10
ATOM     10  C   UNL     1     -16.956  16.747  41.481  1.00  0.00    -0.000 C 
BRANCH  10  11
ATOM     11  C   UNL     1     -16.000  16.157  40.429  1.00  0.00    -0.000 C 
BRANCH  11  12
ATOM     12  C   UNL     1     -15.500  17.212  39.429  1.00  0.00    -0.000 C 
BRANCH  12  13
ATOM     13  C   UNL     1     -14.026  17.009  39.046  1.00  0.00    -0.003 C 
ATOM     14  C   UNL     1     -13.163  18.160  39.554  1.00  0.00     0.004 C 
ENDBRANCH  12  13
ENDBRANCH  11  12
ENDBRANCH  10  11
ENDBRANCH   9  10
ENDBRANCH   1   9
TORSDOF 10
ENDMDL
MODEL 8
REMARK VINA RESULT:    -3.234      1.239      2.564
REMARK INTER + INTRA:          -6.523
REMARK INTER:                  -4.853
REMARK INTRA:                  -1.670
REMARK UNBOUND:                -1.397
REMARK SMILES CCCCCCCCCCCC(=O)[O-]
REMARK SMILES IDX 7 1 8 2 9 3 10 4 11 5 12 6 13 7 14 8 6 9 5 10 4 11 3 12 2 13
REMARK SMILES IDX 1 14
REMARK H PARENT
REMARK Flexibility Score: inf
ROOT
ATOM      1  C   UNL     1      -4.460  31.782  44.637  1.00  0.00     0.000 C 
ENDROOT
BRANCH   1   2
ATOM      2  C   UNL     1      -4.774  32.647  45.869  1.00  0.00     0.000 C 
BRANCH   2   3
ATOM      3  C   UNL     1      -6.160  33.312  45.783  1.00  0.00     0.000 C 
BRANCH   3   4
ATOM      4  C   UNL     1      -6.907  33.306  47.130  1.00  0.00     0.006 C 
BRANCH   4   5
ATOM      5  C   UNL     1      -6.060  32.834  48.323  1.00  0.00     0.053 C 
BRANCH   5   6
ATOM      6  C   UNL     1      -5.834  33.928  49.321  1.00  0.00     0.041 C 
ATOM      7  O   UNL     1      -5.747  35.125  48.940  1.00  0.00    -0.550 OA
ATOM      8  O   UNL     1      -5.753  33.628  50.674  1.00  0.00    -0.550 OA
ENDBRANCH   5   6
ENDBRANCH   4   5
ENDBRANCH   3   4
ENDBRANCH   2   3
ENDBRANCH   1   2
BRANCH   1   9
ATOM      9  C   UNL     1      -4.652  30.279  44.906  1.00  0.00     0.000 C 
BRANCH   9  10
ATOM     10  C   UNL     1      -4.599  29.936  46.404  1.00  0.00    -0.000 C 
BRANCH  10  11
ATOM     11  C   UNL     1      -5.840  29.161  46.879  1.00  0.00    -0.000 C 
BRANCH  11  12
ATOM     12  C   UNL     1      -6.971  29.163  45.839  1.00  0.00    -0.000 C 
BRANCH  12  13
ATOM     13  C   UNL     1      -8.143  30.069  46.243  1.00  0.00    -0.003 C 
ATOM     14  C   UNL     1      -8.743  30.768  45.027  1.00  0.00     0.004 C 
ENDBRANCH  12  13
ENDBRANCH  11  12
ENDBRANCH  10  11
ENDBRANCH   9  10
ENDBRANCH   1   9
TORSDOF 10
ENDMDL
MODEL 9
REMARK VINA RESULT:    -3.222      1.779      3.243
REMARK INTER + INTRA:          -6.503
REMARK INTER:                  -5.060
REMARK INTRA:                  -1.443
REMARK UNBOUND:                -1.397
REMARK SMILES CCCCCCCCCCCC(=O)[O-]
REMARK SMILES IDX 7 1 8 2 9 3 10 4 11 5 12 6 13 7 14 8 6 9 5 10 4 11 3 12 2 13
REMARK SMILES IDX 1 14
REMARK H PARENT
REMARK Flexibility Score: inf
ROOT
ATOM      1  C   UNL     1      -4.443  28.988  45.937  1.00  0.00     0.000 C 
ENDROOT
BRANCH   1   2
ATOM      2  C   UNL     1      -4.901  30.355  46.469  1.00  0.00     0.000 C 
BRANCH   2   3
ATOM      3  C   UNL     1      -6.182  30.258  47.317  1.00  0.00     0.000 C 
BRANCH   3   4
ATOM      4  C   UNL     1      -6.986  31.571  47.333  1.00  0.00     0.006 C 
BRANCH   4   5
ATOM      5  C   UNL     1      -6.139  32.837  47.125  1.00  0.00     0.053 C 
BRANCH   5   6
ATOM      6  C   UNL     1      -5.623  33.387  48.419  1.00  0.00     0.041 C 
ATOM      7  O   UNL     1      -4.397  33.633  48.560  1.00  0.00    -0.550 OA
ATOM      8  O   UNL     1      -6.504  33.660  49.458  1.00  0.00    -0.550 OA
ENDBRANCH   5   6
ENDBRANCH   4   5
ENDBRANCH   3   4
ENDBRANCH   2   3
ENDBRANCH   1   2
BRANCH   1   9
ATOM      9  C   UNL     1      -5.244  27.820  46.539  1.00  0.00     0.000 C 
BRANCH   9  10
ATOM     10  C   UNL     1      -5.569  26.731  45.504  1.00  0.00    -0.000 C 
BRANCH  10  11
ATOM     11  C   UNL     1      -6.713  27.134  44.557  1.00  0.00    -0.000 C 
BRANCH  11  12
ATOM     12  C   UNL     1      -7.972  27.586  45.313  1.00  0.00    -0.000 C 
BRANCH  12  13
ATOM     13  C   UNL     1      -8.533  28.914  44.784  1.00  0.00    -0.003 C 
ATOM     14  C   UNL     1      -7.532  29.606  43.864  1.00  0.00     0.004 C 
ENDBRANCH  12  13
ENDBRANCH  11  12
ENDBRANCH  10  11
ENDBRANCH   9  10
ENDBRANCH   1   9
TORSDOF 10
ENDMDL
