MODEL 1
REMARK VINA RESULT:    -4.482      0.000      0.000
REMARK INTER + INTRA:          -7.701
REMARK INTER:                  -7.103
REMARK INTRA:                  -0.598
REMARK UNBOUND:                -0.598
REMARK SMILES CCCCCCCCCCCC(=O)[O-]
REMARK SMILES IDX 7 1 8 2 9 3 10 4 11 5 12 6 13 7 14 8 6 9 5 10 4 11 3 12 2 13
REMARK SMILES IDX 1 14
REMARK H PARENT
REMARK Flexibility Score: inf
ROOT
ATOM      1  C   UNL     1      97.831  85.414  80.904  1.00  0.00     0.000 C 
ENDROOT
BRANCH   1   2
ATOM      2  C   UNL     1      96.690  86.109  80.139  1.00  0.00     0.000 C 
BRANCH   2   3
ATOM      3  C   UNL     1      95.307  85.511  80.453  1.00  0.00     0.000 C 
BRANCH   3   4
ATOM      4  C   UNL     1      94.818  84.550  79.359  1.00  0.00     0.006 C 
BRANCH   4   5
ATOM      5  C   UNL     1      93.707  83.615  79.853  1.00  0.00     0.053 C 
BRANCH   5   6
ATOM      6  C   UNL     1      92.389  84.322  79.835  1.00  0.00     0.041 C 
ATOM      7  O   UNL     1      91.635  84.279  80.842  1.00  0.00    -0.550 OA
ATOM      8  O   UNL     1      91.971  84.985  78.688  1.00  0.00    -0.550 OA
ENDBRANCH   5   6
ENDBRANCH   4   5
ENDBRANCH   3   4
ENDBRANCH   2   3
ENDBRANCH   1   2
BRANCH   1   9
ATOM      9  C   UNL     1      97.390  84.256  81.818  1.00  0.00     0.000 C 
BRANCH   9  10
ATOM     10  C   UNL     1      98.503  83.217  82.043  1.00  0.00    -0.000 C 
BRANCH  10  11
ATOM     11  C   UNL     1      99.911  83.817  81.896  1.00  0.00    -0.000 C 
BRANCH  11  12
ATOM     12  C   UNL     1     100.644  83.957  83.240  1.00  0.00    -0.000 C 
BRANCH  12  13
ATOM     13  C   UNL     1     101.099  85.403  83.465  1.00  0.00    -0.003 C 
ATOM     14  C   UNL     1     102.620  85.507  83.483  1.00  0.00     0.004 C 
ENDBRANCH  12  13
ENDBRANCH  11  12
ENDBRANCH  10  11
ENDBRANCH   9  10
ENDBRANCH   1   9
TORSDOF 10
ENDMDL
MODEL 2
REMARK VINA RESULT:    -4.478     14.173     15.083
REMARK INTER + INTRA:          -7.693
REMARK INTER:                  -6.582
REMARK INTRA:                  -1.111
REMARK UNBOUND:                -0.598
REMARK SMILES CCCCCCCCCCCC(=O)[O-]
REMARK SMILES IDX 7 1 8 2 9 3 10 4 11 5 12 6 13 7 14 8 6 9 5 10 4 11 3 12 2 13
REMARK SMILES IDX 1 14
REMARK H PARENT
REMARK Flexibility Score: inf
ROOT
ATOM      1  C   UNL     1      87.647  78.161  72.072  1.00  0.00     0.000 C 
ENDROOT
BRANCH   1   2
ATOM      2  C   UNL     1      86.112  78.060  72.081  1.00  0.00     0.000 C 
BRANCH   2   3
ATOM      3  C   UNL     1      85.592  76.900  72.948  1.00  0.00     0.000 C 
BRANCH   3   4
ATOM      4  C   UNL     1      86.633  75.783  73.122  1.00  0.00     0.006 C 
BRANCH   4   5
ATOM      5  C   UNL     1      86.774  75.334  74.582  1.00  0.00     0.053 C 
BRANCH   5   6
ATOM      6  C   UNL     1      87.166  76.492  75.444  1.00  0.00     0.041 C 
ATOM      7  O   UNL     1      86.360  76.946  76.297  1.00  0.00    -0.550 OA
ATOM      8  O   UNL     1      88.402  77.101  75.270  1.00  0.00    -0.550 OA
ENDBRANCH   5   6
ENDBRANCH   4   5
ENDBRANCH   3   4
ENDBRANCH   2   3
ENDBRANCH   1   2
BRANCH   1   9
ATOM      9  C   UNL     1      88.231  79.105  71.005  1.00  0.00     0.000 C 
BRANCH   9  10
ATOM     10  C   UNL     1      89.082  78.367  69.956  1.00  0.00    -0.000 C 
BRANCH  10  11
ATOM     11  C   UNL     1      89.125  76.848  70.193  1.00  0.00    -0.000 C 
BRANCH  11  12
ATOM     12  C   UNL     1      90.496  76.232  69.875  1.00  0.00    -0.000 C 
BRANCH  12  13
ATOM     13  C   UNL     1      90.967  75.327  71.019  1.00  0.00    -0.003 C 
ATOM     14  C   UNL     1      90.298  75.709  72.335  1.00  0.00     0.004 C 
ENDBRANCH  12  13
ENDBRANCH  11  12
ENDBRANCH  10  11
ENDBRANCH   9  10
ENDBRANCH   1   9
TORSDOF 10
ENDMDL
MODEL 3
REMARK VINA RESULT:    -4.452      3.985      7.393
REMARK INTER + INTRA:          -7.652
REMARK INTER:                  -6.943
REMARK INTRA:                  -0.709
REMARK UNBOUND:                -0.598
REMARK SMILES CCCCCCCCCCCC(=O)[O-]
REMARK SMILES IDX 7 1 8 2 9 3 10 4 11 5 12 6 13 7 14 8 6 9 5 10 4 11 3 12 2 13
REMARK SMILES IDX 1 14
REMARK H PARENT
REMARK Flexibility Score: inf
ROOT
ATOM      1  C   UNL     1      98.010  85.596  80.897  1.00  0.00     0.000 C 
ENDROOT
BRANCH   1   2
ATOM      2  C   UNL     1      97.480  84.463  81.794  1.00  0.00     0.000 C 
BRANCH   2   3
ATOM      3  C   UNL     1      98.461  83.283  81.911  1.00  0.00     0.000 C 
BRANCH   3   4
ATOM      4  C   UNL     1      99.930  83.730  81.857  1.00  0.00     0.006 C 
BRANCH   4   5
ATOM      5  C   UNL     1     100.548  83.885  83.253  1.00  0.00     0.053 C 
BRANCH   5   6
ATOM      6  C   UNL     1     101.342  85.150  83.331  1.00  0.00     0.041 C 
ATOM      7  O   UNL     1     102.504  85.139  83.812  1.00  0.00    -0.550 OA
ATOM      8  O   UNL     1     100.777  86.351  82.918  1.00  0.00    -0.550 OA
ENDBRANCH   5   6
ENDBRANCH   4   5
ENDBRANCH   3   4
ENDBRANCH   2   3
ENDBRANCH   1   2
BRANCH   1   9
ATOM      9  C   UNL     1      96.951  86.271  80.007  1.00  0.00     0.000 C 
BRANCH   9  10
ATOM     10  C   UNL     1      95.514  85.859  80.373  1.00  0.00    -0.000 C 
BRANCH  10  11
ATOM     11  C   UNL     1      94.792  85.143  79.220  1.00  0.00    -0.000 C 
BRANCH  11  12
ATOM     12  C   UNL     1      94.183  83.796  79.641  1.00  0.00    -0.000 C 
BRANCH  12  13
ATOM     13  C   UNL     1      92.766  83.987  80.194  1.00  0.00    -0.003 C 
ATOM     14  C   UNL     1      91.882  84.736  79.202  1.00  0.00     0.004 C 
ENDBRANCH  12  13
ENDBRANCH  11  12
ENDBRANCH  10  11
ENDBRANCH   9  10
ENDBRANCH   1   9
TORSDOF 10
ENDMDL
MODEL 4
REMARK VINA RESULT:    -4.438      3.393      7.690
REMARK INTER + INTRA:          -7.630
REMARK INTER:                  -7.109
REMARK INTRA:                  -0.521
REMARK UNBOUND:                -0.598
REMARK SMILES CCCCCCCCCCCC(=O)[O-]
REMARK SMILES IDX 7 1 8 2 9 3 10 4 11 5 12 6 13 7 14 8 6 9 5 10 4 11 3 12 2 13
REMARK SMILES IDX 1 14
REMARK H PARENT
REMARK Flexibility Score: inf
ROOT
ATOM      1  C   UNL     1      94.982  84.312  79.993  1.00  0.00     0.000 C 
ENDROOT
BRANCH   1   2
ATOM      2  C   UNL     1      95.433  85.617  79.312  1.00  0.00     0.000 C 
BRANCH   2   3
ATOM      3  C   UNL     1      96.712  86.206  79.932  1.00  0.00     0.000 C 
BRANCH   3   4
ATOM      4  C   UNL     1      97.207  85.397  81.142  1.00  0.00     0.006 C 
BRANCH   4   5
ATOM      5  C   UNL     1      98.738  85.319  81.210  1.00  0.00     0.053 C 
BRANCH   5   6
ATOM      6  C   UNL     1      99.167  83.970  81.689  1.00  0.00     0.041 C 
ATOM      7  O   UNL     1      98.307  83.094  81.966  1.00  0.00    -0.550 OA
ATOM      8  O   UNL     1     100.516  83.696  81.880  1.00  0.00    -0.550 OA
ENDBRANCH   5   6
ENDBRANCH   4   5
ENDBRANCH   3   4
ENDBRANCH   2   3
ENDBRANCH   1   2
BRANCH   1   9
ATOM      9  C   UNL     1      93.738  83.651  79.373  1.00  0.00     0.000 C 
BRANCH   9  10
ATOM     10  C   UNL     1      92.480  84.531  79.479  1.00  0.00    -0.000 C 
BRANCH  10  11
ATOM     11  C   UNL     1      91.929  84.605  80.913  1.00  0.00    -0.000 C 
BRANCH  11  12
ATOM     12  C   UNL     1      90.600  83.853  81.083  1.00  0.00    -0.000 C 
BRANCH  12  13
ATOM     13  C   UNL     1      89.422  84.710  80.606  1.00  0.00    -0.003 C 
ATOM     14  C   UNL     1      88.755  84.096  79.380  1.00  0.00     0.004 C 
ENDBRANCH  12  13
ENDBRANCH  11  12
ENDBRANCH  10  11
ENDBRANCH   9  10
ENDBRANCH   1   9
TORSDOF 10
ENDMDL
MODEL 5
REMARK VINA RESULT:    -4.367      1.047      1.918
REMARK INTER + INTRA:          -7.519
REMARK INTER:                  -6.774
REMARK INTRA:                  -0.744
REMARK UNBOUND:                -0.598
REMARK SMILES CCCCCCCCCCCC(=O)[O-]
REMARK SMILES IDX 7 1 8 2 9 3 10 4 11 5 12 6 13 7 14 8 6 9 5 10 4 11 3 12 2 13
REMARK SMILES IDX 1 14
REMARK H PARENT
REMARK Flexibility Score: inf
ROOT
ATOM      1  C   UNL     1      96.753  86.898  80.066  1.00  0.00     0.000 C 
ENDROOT
BRANCH   1   2
ATOM      2  C   UNL     1      95.636  86.081  79.392  1.00  0.00     0.000 C 
BRANCH   2   3
ATOM      3  C   UNL     1      95.218  84.847  80.212  1.00  0.00     0.000 C 
BRANCH   3   4
ATOM      4  C   UNL     1      94.371  83.858  79.396  1.00  0.00     0.006 C 
BRANCH   4   5
ATOM      5  C   UNL     1      93.021  83.556  80.060  1.00  0.00     0.053 C 
BRANCH   5   6
ATOM      6  C   UNL     1      92.059  84.673  79.812  1.00  0.00     0.041 C 
ATOM      7  O   UNL     1      91.688  84.939  78.639  1.00  0.00    -0.550 OA
ATOM      8  O   UNL     1      91.612  85.455  80.870  1.00  0.00    -0.550 OA
ENDBRANCH   5   6
ENDBRANCH   4   5
ENDBRANCH   3   4
ENDBRANCH   2   3
ENDBRANCH   1   2
BRANCH   1   9
ATOM      9  C   UNL     1      97.996  86.087  80.475  1.00  0.00     0.000 C 
BRANCH   9  10
ATOM     10  C   UNL     1      98.242  86.099  81.994  1.00  0.00    -0.000 C 
BRANCH  10  11
ATOM     11  C   UNL     1      98.152  84.697  82.619  1.00  0.00    -0.000 C 
BRANCH  11  12
ATOM     12  C   UNL     1      99.000  83.655  81.873  1.00  0.00    -0.000 C 
BRANCH  12  13
ATOM     13  C   UNL     1     100.483  83.799  82.232  1.00  0.00    -0.003 C 
ATOM     14  C   UNL     1     100.667  84.051  83.725  1.00  0.00     0.004 C 
ENDBRANCH  12  13
ENDBRANCH  11  12
ENDBRANCH  10  11
ENDBRANCH   9  10
ENDBRANCH   1   9
TORSDOF 10
ENDMDL
MODEL 6
REMARK VINA RESULT:    -4.358     13.644     15.059
REMARK INTER + INTRA:          -7.504
REMARK INTER:                  -6.336
REMARK INTRA:                  -1.168
REMARK UNBOUND:                -0.598
REMARK SMILES CCCCCCCCCCCC(=O)[O-]
REMARK SMILES IDX 7 1 8 2 9 3 10 4 11 5 12 6 13 7 14 8 6 9 5 10 4 11 3 12 2 13
REMARK SMILES IDX 1 14
REMARK H PARENT
REMARK Flexibility Score: inf
ROOT
ATOM      1  C   UNL     1      90.073  76.406  72.201  1.00  0.00     0.000 C 
ENDROOT
BRANCH   1   2
ATOM      2  C   UNL     1      88.811  75.820  72.858  1.00  0.00     0.000 C 
BRANCH   2   3
ATOM      3  C   UNL     1      88.839  75.907  74.394  1.00  0.00     0.000 C 
BRANCH   3   4
ATOM      4  C   UNL     1      88.127  77.161  74.926  1.00  0.00     0.006 C 
BRANCH   4   5
ATOM      5  C   UNL     1      87.115  76.836  76.033  1.00  0.00     0.053 C 
BRANCH   5   6
ATOM      6  C   UNL     1      85.728  76.801  75.473  1.00  0.00     0.041 C 
ATOM      7  O   UNL     1      84.876  77.649  75.843  1.00  0.00    -0.550 OA
ATOM      8  O   UNL     1      85.363  75.801  74.581  1.00  0.00    -0.550 OA
ENDBRANCH   5   6
ENDBRANCH   4   5
ENDBRANCH   3   4
ENDBRANCH   2   3
ENDBRANCH   1   2
BRANCH   1   9
ATOM      9  C   UNL     1      90.023  77.920  71.931  1.00  0.00     0.000 C 
BRANCH   9  10
ATOM     10  C   UNL     1      89.615  78.255  70.485  1.00  0.00    -0.000 C 
BRANCH  10  11
ATOM     11  C   UNL     1      88.090  78.343  70.307  1.00  0.00    -0.000 C 
BRANCH  11  12
ATOM     12  C   UNL     1      87.366  78.818  71.576  1.00  0.00    -0.000 C 
BRANCH  12  13
ATOM     13  C   UNL     1      86.135  77.949  71.860  1.00  0.00    -0.003 C 
ATOM     14  C   UNL     1      85.001  78.778  72.454  1.00  0.00     0.004 C 
ENDBRANCH  12  13
ENDBRANCH  11  12
ENDBRANCH  10  11
ENDBRANCH   9  10
ENDBRANCH   1   9
TORSDOF 10
ENDMDL
MODEL 7
REMARK VINA RESULT:    -4.354      3.794      7.543
REMARK INTER + INTRA:          -7.498
REMARK INTER:                  -6.936
REMARK INTRA:                  -0.562
REMARK UNBOUND:                -0.598
REMARK SMILES CCCCCCCCCCCC(=O)[O-]
REMARK SMILES IDX 7 1 8 2 9 3 10 4 11 5 12 6 13 7 14 8 6 9 5 10 4 11 3 12 2 13
REMARK SMILES IDX 1 14
REMARK H PARENT
REMARK Flexibility Score: inf
ROOT
ATOM      1  C   UNL     1      95.969  85.516  79.997  1.00  0.00     0.000 C 
ENDROOT
BRANCH   1   2
ATOM      2  C   UNL     1      97.334  85.497  80.708  1.00  0.00     0.000 C 
BRANCH   2   3
ATOM      3  C   UNL     1      97.281  84.823  82.090  1.00  0.00     0.000 C 
BRANCH   3   4
ATOM      4  C   UNL     1      98.111  83.531  82.148  1.00  0.00     0.006 C 
BRANCH   4   5
ATOM      5  C   UNL     1      99.526  83.717  81.587  1.00  0.00     0.053 C 
BRANCH   5   6
ATOM      6  C   UNL     1     100.506  83.902  82.701  1.00  0.00     0.041 C 
ATOM      7  O   UNL     1     101.742  83.854  82.471  1.00  0.00    -0.550 OA
ATOM      8  O   UNL     1     100.053  84.076  84.003  1.00  0.00    -0.550 OA
ENDBRANCH   5   6
ENDBRANCH   4   5
ENDBRANCH   3   4
ENDBRANCH   2   3
ENDBRANCH   1   2
BRANCH   1   9
ATOM      9  C   UNL     1      95.023  84.363  80.375  1.00  0.00     0.000 C 
BRANCH   9  10
ATOM     10  C   UNL     1      94.034  84.009  79.249  1.00  0.00    -0.000 C 
BRANCH  10  11
ATOM     11  C   UNL     1      93.037  85.143  78.960  1.00  0.00    -0.000 C 
BRANCH  11  12
ATOM     12  C   UNL     1      91.576  84.730  79.200  1.00  0.00    -0.000 C 
BRANCH  12  13
ATOM     13  C   UNL     1      91.143  85.059  80.633  1.00  0.00    -0.003 C 
ATOM     14  C   UNL     1      90.523  83.844  81.315  1.00  0.00     0.004 C 
ENDBRANCH  12  13
ENDBRANCH  11  12
ENDBRANCH  10  11
ENDBRANCH   9  10
ENDBRANCH   1   9
TORSDOF 10
ENDMDL
MODEL 8
REMARK VINA RESULT:    -4.145      3.421      6.866
REMARK INTER + INTRA:          -7.166
REMARK INTER:                  -6.058
REMARK INTRA:                  -1.108
REMARK UNBOUND:                -0.598
REMARK SMILES CCCCCCCCCCCC(=O)[O-]
REMARK SMILES IDX 7 1 8 2 9 3 10 4 11 5 12 6 13 7 14 8 6 9 5 10 4 11 3 12 2 13
REMARK SMILES IDX 1 14
REMARK H PARENT
REMARK Flexibility Score: inf
ROOT
ATOM      1  C   UNL     1      93.158  83.874  79.556  1.00  0.00     0.000 C 
ENDROOT
BRANCH   1   2
ATOM      2  C   UNL     1      94.575  84.418  79.302  1.00  0.00     0.000 C 
BRANCH   2   3
ATOM      3  C   UNL     1      94.708  85.917  79.622  1.00  0.00     0.000 C 
BRANCH   3   4
ATOM      4  C   UNL     1      96.080  86.484  79.227  1.00  0.00     0.006 C 
BRANCH   4   5
ATOM      5  C   UNL     1      96.858  87.031  80.432  1.00  0.00     0.053 C 
BRANCH   5   6
ATOM      6  C   UNL     1      97.604  85.928  81.111  1.00  0.00     0.041 C 
ATOM      7  O   UNL     1      98.716  85.546  80.662  1.00  0.00    -0.550 OA
ATOM      8  O   UNL     1      97.048  85.285  82.210  1.00  0.00    -0.550 OA
ENDBRANCH   5   6
ENDBRANCH   4   5
ENDBRANCH   3   4
ENDBRANCH   2   3
ENDBRANCH   1   2
BRANCH   1   9
ATOM      9  C   UNL     1      92.024  84.679  78.895  1.00  0.00     0.000 C 
BRANCH   9  10
ATOM     10  C   UNL     1      90.748  84.728  79.754  1.00  0.00    -0.000 C 
BRANCH  10  11
ATOM     11  C   UNL     1      90.901  83.973  81.084  1.00  0.00    -0.000 C 
BRANCH  11  12
ATOM     12  C   UNL     1      90.660  84.867  82.311  1.00  0.00    -0.000 C 
BRANCH  12  13
ATOM     13  C   UNL     1      91.558  86.108  82.268  1.00  0.00    -0.003 C 
ATOM     14  C   UNL     1      92.918  85.826  82.899  1.00  0.00     0.004 C 
ENDBRANCH  12  13
ENDBRANCH  11  12
ENDBRANCH  10  11
ENDBRANCH   9  10
ENDBRANCH   1   9
TORSDOF 10
ENDMDL
MODEL 9
REMARK VINA RESULT:    -4.121      1.532      2.804
REMARK INTER + INTRA:          -7.128
REMARK INTER:                  -6.045
REMARK INTRA:                  -1.083
REMARK UNBOUND:                -0.598
REMARK SMILES CCCCCCCCCCCC(=O)[O-]
REMARK SMILES IDX 7 1 8 2 9 3 10 4 11 5 12 6 13 7 14 8 6 9 5 10 4 11 3 12 2 13
REMARK SMILES IDX 1 14
REMARK H PARENT
REMARK Flexibility Score: inf
ROOT
ATOM      1  C   UNL     1      98.652  83.492  81.957  1.00  0.00     0.000 C 
ENDROOT
BRANCH   1   2
ATOM      2  C   UNL     1      97.807  84.778  81.962  1.00  0.00     0.000 C 
BRANCH   2   3
ATOM      3  C   UNL     1      98.059  85.667  80.731  1.00  0.00     0.000 C 
BRANCH   3   4
ATOM      4  C   UNL     1      96.893  86.626  80.447  1.00  0.00     0.006 C 
BRANCH   4   5
ATOM      5  C   UNL     1      95.997  86.137  79.301  1.00  0.00     0.053 C 
BRANCH   5   6
ATOM      6  C   UNL     1      94.906  85.263  79.832  1.00  0.00     0.041 C 
ATOM      7  O   UNL     1      94.287  85.589  80.878  1.00  0.00    -0.550 OA
ATOM      8  O   UNL     1      94.607  84.063  79.200  1.00  0.00    -0.550 OA
ENDBRANCH   5   6
ENDBRANCH   4   5
ENDBRANCH   3   4
ENDBRANCH   2   3
ENDBRANCH   1   2
BRANCH   1   9
ATOM      9  C   UNL     1     100.175  83.715  81.979  1.00  0.00     0.000 C 
BRANCH   9  10
ATOM     10  C   UNL     1     100.709  84.047  83.384  1.00  0.00    -0.000 C 
BRANCH  10  11
ATOM     11  C   UNL     1     101.779  85.151  83.365  1.00  0.00    -0.000 C 
BRANCH  11  12
ATOM     12  C   UNL     1     101.448  86.320  84.306  1.00  0.00    -0.000 C 
BRANCH  12  13
ATOM     13  C   UNL     1     100.192  87.061  83.835  1.00  0.00    -0.003 C 
ATOM     14  C   UNL     1     100.450  87.814  82.534  1.00  0.00     0.004 C 
ENDBRANCH  12  13
ENDBRANCH  11  12
ENDBRANCH  10  11
ENDBRANCH   9  10
ENDBRANCH   1   9
TORSDOF 10
ENDMDL
