MODEL 1
REMARK VINA RESULT:    -4.078      0.000      0.000
REMARK INTER + INTRA:          -6.888
REMARK INTER:                  -6.224
REMARK INTRA:                  -0.664
REMARK UNBOUND:                -0.664
REMARK SMILES O=C([O-])CCCCCCCCC(=O)[O-]
REMARK SMILES IDX 7 1 6 2 5 3 4 4 2 5 1 6 3 7 8 8 9 9 10 10 11 11 12 12 13 13
REMARK SMILES IDX 14 14
REMARK H PARENT
REMARK Flexibility Score: inf
ROOT
ATOM      1  C   UNL     1       3.149   6.196   3.238  1.00  0.00     0.000 C 
ENDROOT
BRANCH   1   2
ATOM      2  C   UNL     1       1.637   6.447   3.376  1.00  0.00     0.000 C 
BRANCH   2   3
ATOM      3  C   UNL     1       1.317   7.798   4.044  1.00  0.00     0.006 C 
BRANCH   3   4
ATOM      4  C   UNL     1       0.998   7.705   5.545  1.00  0.00     0.053 C 
BRANCH   4   5
ATOM      5  C   UNL     1      -0.059   8.683   5.958  1.00  0.00     0.041 C 
ATOM      6  O   UNL     1      -0.860   9.147   5.104  1.00  0.00    -0.550 OA
ATOM      7  O   UNL     1      -0.181   9.055   7.291  1.00  0.00    -0.550 OA
ENDBRANCH   4   5
ENDBRANCH   3   4
ENDBRANCH   2   3
ENDBRANCH   1   2
BRANCH   1   8
ATOM      8  C   UNL     1       3.587   4.869   3.880  1.00  0.00     0.000 C 
BRANCH   8   9
ATOM      9  C   UNL     1       2.631   4.402   4.988  1.00  0.00     0.000 C 
BRANCH   9  10
ATOM     10  C   UNL     1       3.409   3.817   6.173  1.00  0.00     0.006 C 
BRANCH  10  11
ATOM     11  C   UNL     1       3.696   4.889   7.228  1.00  0.00     0.053 C 
BRANCH  11  12
ATOM     12  C   UNL     1       5.090   4.748   7.753  1.00  0.00     0.041 C 
ATOM     13  O   UNL     1       5.408   5.268   8.854  1.00  0.00    -0.550 OA
ATOM     14  O   UNL     1       6.051   4.081   7.003  1.00  0.00    -0.550 OA
ENDBRANCH  11  12
ENDBRANCH  10  11
ENDBRANCH   9  10
ENDBRANCH   8   9
ENDBRANCH   1   8
TORSDOF 9
ENDMDL
MODEL 2
REMARK VINA RESULT:    -4.052     13.941     15.026
REMARK INTER + INTRA:          -6.848
REMARK INTER:                  -6.570
REMARK INTRA:                  -0.278
REMARK UNBOUND:                -0.664
REMARK SMILES O=C([O-])CCCCCCCCC(=O)[O-]
REMARK SMILES IDX 7 1 6 2 5 3 4 4 2 5 1 6 3 7 8 8 9 9 10 10 11 11 12 12 13 13
REMARK SMILES IDX 14 14
REMARK H PARENT
REMARK Flexibility Score: inf
ROOT
ATOM      1  C   UNL     1      -2.950  -5.103   0.259  1.00  0.00     0.000 C 
ENDROOT
BRANCH   1   2
ATOM      2  C   UNL     1      -2.192  -5.305  -1.066  1.00  0.00     0.000 C 
BRANCH   2   3
ATOM      3  C   UNL     1      -3.078  -5.912  -2.171  1.00  0.00     0.006 C 
BRANCH   3   4
ATOM      4  C   UNL     1      -4.516  -6.231  -1.730  1.00  0.00     0.053 C 
BRANCH   4   5
ATOM      5  C   UNL     1      -5.452  -6.335  -2.894  1.00  0.00     0.041 C 
ATOM      6  O   UNL     1      -6.516  -7.002  -2.793  1.00  0.00    -0.550 OA
ATOM      7  O   UNL     1      -5.168  -5.667  -4.078  1.00  0.00    -0.550 OA
ENDBRANCH   4   5
ENDBRANCH   3   4
ENDBRANCH   2   3
ENDBRANCH   1   2
BRANCH   1   8
ATOM      8  C   UNL     1      -2.024  -5.182   1.484  1.00  0.00     0.000 C 
BRANCH   8   9
ATOM      9  C   UNL     1      -2.722  -5.773   2.718  1.00  0.00     0.000 C 
BRANCH   9  10
ATOM     10  C   UNL     1      -1.700  -6.153   3.796  1.00  0.00     0.006 C 
BRANCH  10  11
ATOM     11  C   UNL     1      -1.503  -7.671   3.858  1.00  0.00     0.053 C 
BRANCH  11  12
ATOM     12  C   UNL     1      -0.647  -8.040   5.028  1.00  0.00     0.041 C 
ATOM     13  O   UNL     1       0.361  -8.779   4.868  1.00  0.00    -0.550 OA
ATOM     14  O   UNL     1      -0.988  -7.609   6.304  1.00  0.00    -0.550 OA
ENDBRANCH  11  12
ENDBRANCH  10  11
ENDBRANCH   9  10
ENDBRANCH   8   9
ENDBRANCH   1   8
TORSDOF 9
ENDMDL
MODEL 3
REMARK VINA RESULT:    -3.988     12.401     14.314
REMARK INTER + INTRA:          -6.749
REMARK INTER:                  -6.290
REMARK INTRA:                  -0.459
REMARK UNBOUND:                -0.664
REMARK SMILES O=C([O-])CCCCCCCCC(=O)[O-]
REMARK SMILES IDX 7 1 6 2 5 3 4 4 2 5 1 6 3 7 8 8 9 9 10 10 11 11 12 12 13 13
REMARK SMILES IDX 14 14
REMARK H PARENT
REMARK Flexibility Score: inf
ROOT
ATOM      1  C   UNL     1      -1.792  -5.025   3.361  1.00  0.00     0.000 C 
ENDROOT
BRANCH   1   2
ATOM      2  C   UNL     1      -0.922  -6.047   2.608  1.00  0.00     0.000 C 
BRANCH   2   3
ATOM      3  C   UNL     1       0.039  -6.811   3.539  1.00  0.00     0.006 C 
BRANCH   3   4
ATOM      4  C   UNL     1      -0.644  -7.847   4.446  1.00  0.00     0.053 C 
BRANCH   4   5
ATOM      5  C   UNL     1       0.333  -8.540   5.344  1.00  0.00     0.041 C 
ATOM      6  O   UNL     1       1.523  -8.716   4.970  1.00  0.00    -0.550 OA
ATOM      7  O   UNL     1      -0.060  -8.962   6.608  1.00  0.00    -0.550 OA
ENDBRANCH   4   5
ENDBRANCH   3   4
ENDBRANCH   2   3
ENDBRANCH   1   2
BRANCH   1   8
ATOM      8  C   UNL     1      -3.284  -5.394   3.341  1.00  0.00     0.000 C 
BRANCH   8   9
ATOM      9  C   UNL     1      -4.137  -4.467   4.220  1.00  0.00     0.000 C 
BRANCH   9  10
ATOM     10  C   UNL     1      -3.654  -4.495   5.676  1.00  0.00     0.006 C 
BRANCH  10  11
ATOM     11  C   UNL     1      -4.213  -3.308   6.465  1.00  0.00     0.053 C 
BRANCH  11  12
ATOM     12  C   UNL     1      -5.637  -3.560   6.851  1.00  0.00     0.041 C 
ATOM     13  O   UNL     1      -5.924  -4.506   7.631  1.00  0.00    -0.550 OA
ATOM     14  O   UNL     1      -6.652  -2.781   6.310  1.00  0.00    -0.550 OA
ENDBRANCH  11  12
ENDBRANCH  10  11
ENDBRANCH   9  10
ENDBRANCH   8   9
ENDBRANCH   1   8
TORSDOF 9
ENDMDL
MODEL 4
REMARK VINA RESULT:    -3.933     14.003     15.030
REMARK INTER + INTRA:          -6.666
REMARK INTER:                  -6.206
REMARK INTRA:                  -0.459
REMARK UNBOUND:                -0.664
REMARK SMILES O=C([O-])CCCCCCCCC(=O)[O-]
REMARK SMILES IDX 7 1 6 2 5 3 4 4 2 5 1 6 3 7 8 8 9 9 10 10 11 11 12 12 13 13
REMARK SMILES IDX 14 14
REMARK H PARENT
REMARK Flexibility Score: inf
ROOT
ATOM      1  C   UNL     1      -2.518  -5.166  -1.959  1.00  0.00     0.000 C 
ENDROOT
BRANCH   1   2
ATOM      2  C   UNL     1      -3.189  -6.476  -2.410  1.00  0.00     0.000 C 
BRANCH   2   3
ATOM      3  C   UNL     1      -4.678  -6.547  -2.021  1.00  0.00     0.006 C 
BRANCH   3   4
ATOM      4  C   UNL     1      -5.426  -5.207  -2.122  1.00  0.00     0.053 C 
BRANCH   4   5
ATOM      5  C   UNL     1      -6.832  -5.383  -2.606  1.00  0.00     0.041 C 
ATOM      6  O   UNL     1      -7.790  -4.868  -1.971  1.00  0.00    -0.550 OA
ATOM      7  O   UNL     1      -7.082  -6.085  -3.778  1.00  0.00    -0.550 OA
ENDBRANCH   4   5
ENDBRANCH   3   4
ENDBRANCH   2   3
ENDBRANCH   1   2
BRANCH   1   8
ATOM      8  C   UNL     1      -1.867  -5.286  -0.571  1.00  0.00     0.000 C 
BRANCH   8   9
ATOM      9  C   UNL     1      -2.811  -4.866   0.566  1.00  0.00     0.000 C 
BRANCH   9  10
ATOM     10  C   UNL     1      -2.063  -4.800   1.903  1.00  0.00     0.006 C 
BRANCH  10  11
ATOM     11  C   UNL     1      -2.486  -5.945   2.828  1.00  0.00     0.053 C 
BRANCH  11  12
ATOM     12  C   UNL     1      -1.301  -6.776   3.208  1.00  0.00     0.041 C 
ATOM     13  O   UNL     1      -0.156  -6.484   2.771  1.00  0.00    -0.550 OA
ATOM     14  O   UNL     1      -1.467  -7.902   4.005  1.00  0.00    -0.550 OA
ENDBRANCH  11  12
ENDBRANCH  10  11
ENDBRANCH   9  10
ENDBRANCH   8   9
ENDBRANCH   1   8
TORSDOF 9
ENDMDL
MODEL 5
REMARK VINA RESULT:    -3.931      5.679      7.340
REMARK INTER + INTRA:          -6.664
REMARK INTER:                  -6.159
REMARK INTRA:                  -0.504
REMARK UNBOUND:                -0.664
REMARK SMILES O=C([O-])CCCCCCCCC(=O)[O-]
REMARK SMILES IDX 7 1 6 2 5 3 4 4 2 5 1 6 3 7 8 8 9 9 10 10 11 11 12 12 13 13
REMARK SMILES IDX 14 14
REMARK H PARENT
REMARK Flexibility Score: inf
ROOT
ATOM      1  C   UNL     1       3.025   5.104  -0.205  1.00  0.00     0.000 C 
ENDROOT
BRANCH   1   2
ATOM      2  C   UNL     1       2.099   5.117   1.025  1.00  0.00     0.000 C 
BRANCH   2   3
ATOM      3  C   UNL     1       2.800   5.644   2.292  1.00  0.00     0.006 C 
BRANCH   3   4
ATOM      4  C   UNL     1       1.890   5.746   3.526  1.00  0.00     0.053 C 
BRANCH   4   5
ATOM      5  C   UNL     1       0.959   6.917   3.444  1.00  0.00     0.041 C 
ATOM      6  O   UNL     1       1.342   8.057   3.819  1.00  0.00    -0.550 OA
ATOM      7  O   UNL     1      -0.318   6.757   2.922  1.00  0.00    -0.550 OA
ENDBRANCH   4   5
ENDBRANCH   3   4
ENDBRANCH   2   3
ENDBRANCH   1   2
BRANCH   1   8
ATOM      8  C   UNL     1       2.337   5.649  -1.466  1.00  0.00     0.000 C 
BRANCH   8   9
ATOM      9  C   UNL     1       3.275   6.502  -2.333  1.00  0.00     0.000 C 
BRANCH   9  10
ATOM     10  C   UNL     1       4.643   6.667  -1.661  1.00  0.00     0.006 C 
BRANCH  10  11
ATOM     11  C   UNL     1       5.774   6.614  -2.693  1.00  0.00     0.053 C 
BRANCH  11  12
ATOM     12  C   UNL     1       5.721   5.331  -3.461  1.00  0.00     0.041 C 
ATOM     13  O   UNL     1       5.614   5.348  -4.716  1.00  0.00    -0.550 OA
ATOM     14  O   UNL     1       5.741   4.116  -2.789  1.00  0.00    -0.550 OA
ENDBRANCH  11  12
ENDBRANCH  10  11
ENDBRANCH   9  10
ENDBRANCH   8   9
ENDBRANCH   1   8
TORSDOF 9
ENDMDL
MODEL 6
REMARK VINA RESULT:    -3.926      5.440      7.480
REMARK INTER + INTRA:          -6.655
REMARK INTER:                  -6.165
REMARK INTRA:                  -0.490
REMARK UNBOUND:                -0.664
REMARK SMILES O=C([O-])CCCCCCCCC(=O)[O-]
REMARK SMILES IDX 7 1 6 2 5 3 4 4 2 5 1 6 3 7 8 8 9 9 10 10 11 11 12 12 13 13
REMARK SMILES IDX 14 14
REMARK H PARENT
REMARK Flexibility Score: inf
ROOT
ATOM      1  C   UNL     1       2.610   4.717  -0.900  1.00  0.00     0.000 C 
ENDROOT
BRANCH   1   2
ATOM      2  C   UNL     1       2.086   5.620  -2.031  1.00  0.00     0.000 C 
BRANCH   2   3
ATOM      3  C   UNL     1       3.094   6.713  -2.434  1.00  0.00     0.006 C 
BRANCH   3   4
ATOM      4  C   UNL     1       4.507   6.518  -1.860  1.00  0.00     0.053 C 
BRANCH   4   5
ATOM      5  C   UNL     1       5.547   6.444  -2.936  1.00  0.00     0.041 C 
ATOM      6  O   UNL     1       6.617   7.100  -2.828  1.00  0.00    -0.550 OA
ATOM      7  O   UNL     1       5.350   5.625  -4.040  1.00  0.00    -0.550 OA
ENDBRANCH   4   5
ENDBRANCH   3   4
ENDBRANCH   2   3
ENDBRANCH   1   2
BRANCH   1   8
ATOM      8  C   UNL     1       2.004   5.075   0.467  1.00  0.00     0.000 C 
BRANCH   8   9
ATOM      9  C   UNL     1       3.010   4.927   1.619  1.00  0.00     0.000 C 
BRANCH   9  10
ATOM     10  C   UNL     1       2.613   5.809   2.809  1.00  0.00     0.006 C 
BRANCH  10  11
ATOM     11  C   UNL     1       1.206   6.385   2.623  1.00  0.00     0.053 C 
BRANCH  11  12
ATOM     12  C   UNL     1       0.791   7.156   3.837  1.00  0.00     0.041 C 
ATOM     13  O   UNL     1       1.201   8.334   4.010  1.00  0.00    -0.550 OA
ATOM     14  O   UNL     1      -0.009   6.556   4.801  1.00  0.00    -0.550 OA
ENDBRANCH  11  12
ENDBRANCH  10  11
ENDBRANCH   9  10
ENDBRANCH   8   9
ENDBRANCH   1   8
TORSDOF 9
ENDMDL
MODEL 7
REMARK VINA RESULT:    -3.885      4.999      6.491
REMARK INTER + INTRA:          -6.593
REMARK INTER:                  -6.259
REMARK INTRA:                  -0.334
REMARK UNBOUND:                -0.664
REMARK SMILES O=C([O-])CCCCCCCCC(=O)[O-]
REMARK SMILES IDX 7 1 6 2 5 3 4 4 2 5 1 6 3 7 8 8 9 9 10 10 11 11 12 12 13 13
REMARK SMILES IDX 14 14
REMARK H PARENT
REMARK Flexibility Score: inf
ROOT
ATOM      1  C   UNL     1       1.385   5.841   1.662  1.00  0.00     0.000 C 
ENDROOT
BRANCH   1   2
ATOM      2  C   UNL     1       2.467   5.712   2.749  1.00  0.00     0.000 C 
BRANCH   2   3
ATOM      3  C   UNL     1       2.085   6.431   4.057  1.00  0.00     0.006 C 
BRANCH   3   4
ATOM      4  C   UNL     1       1.373   7.779   3.857  1.00  0.00     0.053 C 
BRANCH   4   5
ATOM      5  C   UNL     1       0.628   8.209   5.083  1.00  0.00     0.041 C 
ATOM      6  O   UNL     1       0.997   7.814   6.220  1.00  0.00    -0.550 OA
ATOM      7  O   UNL     1      -0.452   9.076   4.972  1.00  0.00    -0.550 OA
ENDBRANCH   4   5
ENDBRANCH   3   4
ENDBRANCH   2   3
ENDBRANCH   1   2
BRANCH   1   8
ATOM      8  C   UNL     1       1.776   5.134   0.354  1.00  0.00     0.000 C 
BRANCH   8   9
ATOM      9  C   UNL     1       3.273   5.266   0.033  1.00  0.00     0.000 C 
BRANCH   9  10
ATOM     10  C   UNL     1       3.491   5.526  -1.463  1.00  0.00     0.006 C 
BRANCH  10  11
ATOM     11  C   UNL     1       4.510   6.649  -1.684  1.00  0.00     0.053 C 
BRANCH  11  12
ATOM     12  C   UNL     1       5.406   6.323  -2.836  1.00  0.00     0.041 C 
ATOM     13  O   UNL     1       6.483   6.955  -3.000  1.00  0.00    -0.550 OA
ATOM     14  O   UNL     1       5.030   5.354  -3.758  1.00  0.00    -0.550 OA
ENDBRANCH  11  12
ENDBRANCH  10  11
ENDBRANCH   9  10
ENDBRANCH   8   9
ENDBRANCH   1   8
TORSDOF 9
ENDMDL
MODEL 8
REMARK VINA RESULT:    -3.865     14.418     16.335
REMARK INTER + INTRA:          -6.562
REMARK INTER:                  -6.130
REMARK INTRA:                  -0.432
REMARK UNBOUND:                -0.664
REMARK SMILES O=C([O-])CCCCCCCCC(=O)[O-]
REMARK SMILES IDX 7 1 6 2 5 3 4 4 2 5 1 6 3 7 8 8 9 9 10 10 11 11 12 12 13 13
REMARK SMILES IDX 14 14
REMARK H PARENT
REMARK Flexibility Score: inf
ROOT
ATOM      1  C   UNL     1      -2.402  -5.208  -1.213  1.00  0.00     0.000 C 
ENDROOT
BRANCH   1   2
ATOM      2  C   UNL     1      -3.264  -4.987   0.043  1.00  0.00     0.000 C 
BRANCH   2   3
ATOM      3  C   UNL     1      -2.421  -4.822   1.322  1.00  0.00     0.006 C 
BRANCH   3   4
ATOM      4  C   UNL     1      -2.829  -5.751   2.477  1.00  0.00     0.053 C 
BRANCH   4   5
ATOM      5  C   UNL     1      -1.642  -6.369   3.149  1.00  0.00     0.041 C 
ATOM      6  O   UNL     1      -1.779  -7.406   3.851  1.00  0.00    -0.550 OA
ATOM      7  O   UNL     1      -0.378  -5.820   2.973  1.00  0.00    -0.550 OA
ENDBRANCH   4   5
ENDBRANCH   3   4
ENDBRANCH   2   3
ENDBRANCH   1   2
BRANCH   1   8
ATOM      8  C   UNL     1      -3.064  -6.163  -2.220  1.00  0.00     0.000 C 
BRANCH   8   9
ATOM      9  C   UNL     1      -4.487  -6.569  -1.807  1.00  0.00     0.000 C 
BRANCH   9  10
ATOM     10  C   UNL     1      -5.479  -6.332  -2.951  1.00  0.00     0.006 C 
BRANCH  10  11
ATOM     11  C   UNL     1      -6.431  -5.178  -2.625  1.00  0.00     0.053 C 
BRANCH  11  12
ATOM     12  C   UNL     1      -7.691  -5.297  -3.423  1.00  0.00     0.041 C 
ATOM     13  O   UNL     1      -7.690  -5.916  -4.520  1.00  0.00    -0.550 OA
ATOM     14  O   UNL     1      -8.856  -4.682  -2.981  1.00  0.00    -0.550 OA
ENDBRANCH  11  12
ENDBRANCH  10  11
ENDBRANCH   9  10
ENDBRANCH   8   9
ENDBRANCH   1   8
TORSDOF 9
ENDMDL
MODEL 9
REMARK VINA RESULT:    -3.806     13.742     15.631
REMARK INTER + INTRA:          -6.472
REMARK INTER:                  -6.045
REMARK INTRA:                  -0.427
REMARK UNBOUND:                -0.664
REMARK SMILES O=C([O-])CCCCCCCCC(=O)[O-]
REMARK SMILES IDX 7 1 6 2 5 3 4 4 2 5 1 6 3 7 8 8 9 9 10 10 11 11 12 12 13 13
REMARK SMILES IDX 14 14
REMARK H PARENT
REMARK Flexibility Score: inf
ROOT
ATOM      1  C   UNL     1      -2.934  -4.106   0.318  1.00  0.00     0.000 C 
ENDROOT
BRANCH   1   2
ATOM      2  C   UNL     1      -2.792  -4.180   1.849  1.00  0.00     0.000 C 
BRANCH   2   3
ATOM      3  C   UNL     1      -2.884  -5.622   2.385  1.00  0.00     0.006 C 
BRANCH   3   4
ATOM      4  C   UNL     1      -2.123  -5.862   3.699  1.00  0.00     0.053 C 
BRANCH   4   5
ATOM      5  C   UNL     1      -1.144  -6.990   3.585  1.00  0.00     0.041 C 
ATOM      6  O   UNL     1      -1.495  -8.164   3.875  1.00  0.00    -0.550 OA
ATOM      7  O   UNL     1       0.145  -6.750   3.125  1.00  0.00    -0.550 OA
ENDBRANCH   4   5
ENDBRANCH   3   4
ENDBRANCH   2   3
ENDBRANCH   1   2
BRANCH   1   8
ATOM      8  C   UNL     1      -2.197  -5.250  -0.398  1.00  0.00     0.000 C 
BRANCH   8   9
ATOM      9  C   UNL     1      -2.340  -5.183  -1.926  1.00  0.00     0.000 C 
BRANCH   9  10
ATOM     10  C   UNL     1      -3.098  -6.405  -2.459  1.00  0.00     0.006 C 
BRANCH  10  11
ATOM     11  C   UNL     1      -4.500  -6.492  -1.849  1.00  0.00     0.053 C 
BRANCH  11  12
ATOM     12  C   UNL     1      -5.530  -6.041  -2.837  1.00  0.00     0.041 C 
ATOM     13  O   UNL     1      -5.254  -5.998  -4.065  1.00  0.00    -0.550 OA
ATOM     14  O   UNL     1      -6.779  -5.623  -2.397  1.00  0.00    -0.550 OA
ENDBRANCH  11  12
ENDBRANCH  10  11
ENDBRANCH   9  10
ENDBRANCH   8   9
ENDBRANCH   1   8
TORSDOF 9
ENDMDL
