MODEL 1
REMARK VINA RESULT:    -5.287      0.000      0.000
REMARK INTER + INTRA:          -5.287
REMARK INTER:                  -5.287
REMARK INTRA:                   0.000
REMARK UNBOUND:                 0.000
REMARK SMILES C=C1CCC[C@@]2(C)CC(=O)C(=C(C)C)C[C@@H]12
REMARK SMILES IDX 13 1 12 2 11 3 15 4 16 5 2 6 1 7 3 8 4 9 5 10 6 11 8 12 9 13
REMARK SMILES IDX 10 14 7 15 14 16
REMARK H PARENT
REMARK Flexibility Score: inf
ROOT
ATOM      1  C   UNL     1      -4.488   8.497 -11.176  1.00  0.00     0.039 C 
ATOM      2  C   UNL     1      -3.274   9.378 -10.989  1.00  0.00    -0.070 C 
ATOM      3  C   UNL     1      -2.021   8.848 -10.885  1.00  0.00    -0.006 C 
ATOM      4  C   UNL     1      -0.789   9.719 -10.732  1.00  0.00     0.047 C 
ATOM      5  C   UNL     1       0.466   9.138 -11.433  1.00  0.00     0.025 C 
ATOM      6  C   UNL     1       1.678   9.953 -11.015  1.00  0.00    -0.073 C 
ATOM      7  C   UNL     1       2.150  10.930 -11.806  1.00  0.00     0.008 C 
ATOM      8  C   UNL     1       2.245   9.754  -9.625  1.00  0.00     0.031 C 
ATOM      9  C   UNL     1       2.402   8.265  -9.286  1.00  0.00     0.005 C 
ATOM     10  C   UNL     1       1.156   7.438  -9.649  1.00  0.00     0.008 C 
ATOM     11  C   UNL     1       0.715   7.625 -11.132  1.00  0.00    -0.018 C 
ATOM     12  C   UNL     1      -0.568   6.800 -11.415  1.00  0.00     0.088 C 
ATOM     13  C   UNL     1      -1.784   7.392 -10.776  1.00  0.00     0.159 C 
ATOM     14  O   UNL     1      -2.585   6.641 -10.156  1.00  0.00    -0.295 OA
ATOM     15  C   UNL     1       1.817   7.079 -12.079  1.00  0.00     0.012 C 
ATOM     16  C   UNL     1      -3.502  10.871 -10.961  1.00  0.00     0.039 C 
ENDROOT
TORSDOF 0
ENDMDL
MODEL 2
REMARK VINA RESULT:    -5.149      1.550      2.507
REMARK INTER + INTRA:          -5.149
REMARK INTER:                  -5.149
REMARK INTRA:                   0.000
REMARK UNBOUND:                 0.000
REMARK SMILES C=C1CCC[C@@]2(C)CC(=O)C(=C(C)C)C[C@@H]12
REMARK SMILES IDX 13 1 12 2 11 3 15 4 16 5 2 6 1 7 3 8 4 9 5 10 6 11 8 12 9 13
REMARK SMILES IDX 10 14 7 15 14 16
REMARK H PARENT
REMARK Flexibility Score: inf
ROOT
ATOM      1  C   UNL     1      -4.761  11.402 -11.953  1.00  0.00     0.039 C 
ATOM      2  C   UNL     1      -3.318  11.192 -11.554  1.00  0.00    -0.070 C 
ATOM      3  C   UNL     1      -2.837   9.951 -11.254  1.00  0.00    -0.006 C 
ATOM      4  C   UNL     1      -1.384   9.717 -10.886  1.00  0.00     0.047 C 
ATOM      5  C   UNL     1      -0.837   8.354 -11.382  1.00  0.00     0.025 C 
ATOM      6  C   UNL     1       0.529   8.122 -10.757  1.00  0.00    -0.073 C 
ATOM      7  C   UNL     1       1.650   8.398 -11.444  1.00  0.00     0.008 C 
ATOM      8  C   UNL     1       0.605   7.730  -9.296  1.00  0.00     0.031 C 
ATOM      9  C   UNL     1      -0.385   6.605  -8.961  1.00  0.00     0.005 C 
ATOM     10  C   UNL     1      -1.790   6.858  -9.538  1.00  0.00     0.008 C 
ATOM     11  C   UNL     1      -1.774   7.143 -11.070  1.00  0.00    -0.018 C 
ATOM     12  C   UNL     1      -3.213   7.432 -11.573  1.00  0.00     0.088 C 
ATOM     13  C   UNL     1      -3.719   8.769 -11.133  1.00  0.00     0.159 C 
ATOM     14  O   UNL     1      -4.885   8.865 -10.665  1.00  0.00    -0.295 OA
ATOM     15  C   UNL     1      -1.276   5.887 -11.832  1.00  0.00     0.012 C 
ATOM     16  C   UNL     1      -2.421  12.407 -11.538  1.00  0.00     0.039 C 
ENDROOT
TORSDOF 0
ENDMDL
MODEL 3
REMARK VINA RESULT:    -4.704      1.986      4.526
REMARK INTER + INTRA:          -4.704
REMARK INTER:                  -4.704
REMARK INTRA:                   0.000
REMARK UNBOUND:                 0.000
REMARK SMILES C=C1CCC[C@@]2(C)CC(=O)C(=C(C)C)C[C@@H]12
REMARK SMILES IDX 13 1 12 2 11 3 15 4 16 5 2 6 1 7 3 8 4 9 5 10 6 11 8 12 9 13
REMARK SMILES IDX 10 14 7 15 14 16
REMARK H PARENT
REMARK Flexibility Score: inf
ROOT
ATOM      1  C   UNL     1       3.013  11.384 -11.925  1.00  0.00     0.039 C 
ATOM      2  C   UNL     1       1.515  11.204 -11.820  1.00  0.00    -0.070 C 
ATOM      3  C   UNL     1       0.966  10.003 -11.479  1.00  0.00    -0.006 C 
ATOM      4  C   UNL     1      -0.531   9.814 -11.335  1.00  0.00     0.047 C 
ATOM      5  C   UNL     1      -0.919   8.802 -10.226  1.00  0.00     0.025 C 
ATOM      6  C   UNL     1      -2.407   8.510 -10.333  1.00  0.00    -0.073 C 
ATOM      7  C   UNL     1      -3.286   9.144  -9.541  1.00  0.00     0.008 C 
ATOM      8  C   UNL     1      -2.894   7.614 -11.453  1.00  0.00     0.031 C 
ATOM      9  C   UNL     1      -2.043   6.343 -11.571  1.00  0.00     0.005 C 
ATOM     10  C   UNL     1      -0.532   6.632 -11.525  1.00  0.00     0.008 C 
ATOM     11  C   UNL     1      -0.112   7.465 -10.277  1.00  0.00    -0.018 C 
ATOM     12  C   UNL     1       1.411   7.757 -10.318  1.00  0.00     0.088 C 
ATOM     13  C   UNL     1       1.775   8.770 -11.357  1.00  0.00     0.159 C 
ATOM     14  O   UNL     1       2.761   8.554 -12.112  1.00  0.00    -0.295 OA
ATOM     15  C   UNL     1      -0.377   6.646  -8.985  1.00  0.00     0.012 C 
ATOM     16  C   UNL     1       0.654  12.419 -12.072  1.00  0.00     0.039 C 
ENDROOT
TORSDOF 0
ENDMDL
MODEL 4
REMARK VINA RESULT:    -4.632      2.441      4.996
REMARK INTER + INTRA:          -4.632
REMARK INTER:                  -4.632
REMARK INTRA:                   0.000
REMARK UNBOUND:                 0.000
REMARK SMILES C=C1CCC[C@@]2(C)CC(=O)C(=C(C)C)C[C@@H]12
REMARK SMILES IDX 13 1 12 2 11 3 15 4 16 5 2 6 1 7 3 8 4 9 5 10 6 11 8 12 9 13
REMARK SMILES IDX 10 14 7 15 14 16
REMARK H PARENT
REMARK Flexibility Score: inf
ROOT
ATOM      1  C   UNL     1       3.493  13.384 -10.832  1.00  0.00     0.039 C 
ATOM      2  C   UNL     1       3.064  12.356  -9.810  1.00  0.00    -0.070 C 
ATOM      3  C   UNL     1       2.273  11.299 -10.154  1.00  0.00    -0.006 C 
ATOM      4  C   UNL     1       1.862  10.240  -9.150  1.00  0.00     0.047 C 
ATOM      5  C   UNL     1       1.740   8.822  -9.766  1.00  0.00     0.025 C 
ATOM      6  C   UNL     1       1.096   7.901  -8.743  1.00  0.00    -0.073 C 
ATOM      7  C   UNL     1       1.851   7.096  -7.979  1.00  0.00     0.008 C 
ATOM      8  C   UNL     1      -0.392   8.022  -8.489  1.00  0.00     0.031 C 
ATOM      9  C   UNL     1      -1.186   8.079  -9.801  1.00  0.00     0.005 C 
ATOM     10  C   UNL     1      -0.578   9.056 -10.824  1.00  0.00     0.008 C 
ATOM     11  C   UNL     1       0.930   8.780 -11.102  1.00  0.00    -0.018 C 
ATOM     12  C   UNL     1       1.488   9.825 -12.104  1.00  0.00     0.088 C 
ATOM     13  C   UNL     1       1.649  11.180 -11.491  1.00  0.00     0.159 C 
ATOM     14  O   UNL     1       1.250  12.196 -12.121  1.00  0.00    -0.295 OA
ATOM     15  C   UNL     1       1.096   7.388 -11.768  1.00  0.00     0.012 C 
ATOM     16  C   UNL     1       3.578  12.527  -8.400  1.00  0.00     0.039 C 
ENDROOT
TORSDOF 0
ENDMDL
MODEL 5
REMARK VINA RESULT:    -4.581      9.312     11.562
REMARK INTER + INTRA:          -4.581
REMARK INTER:                  -4.581
REMARK INTRA:                   0.000
REMARK UNBOUND:                 0.000
REMARK SMILES C=C1CCC[C@@]2(C)CC(=O)C(=C(C)C)C[C@@H]12
REMARK SMILES IDX 13 1 12 2 11 3 15 4 16 5 2 6 1 7 3 8 4 9 5 10 6 11 8 12 9 13
REMARK SMILES IDX 10 14 7 15 14 16
REMARK H PARENT
REMARK Flexibility Score: inf
ROOT
ATOM      1  C   UNL     1       6.383  13.372  -7.511  1.00  0.00     0.039 C 
ATOM      2  C   UNL     1       7.224  12.722  -6.436  1.00  0.00    -0.070 C 
ATOM      3  C   UNL     1       8.359  12.030  -6.744  1.00  0.00    -0.006 C 
ATOM      4  C   UNL     1       9.234  11.402  -5.676  1.00  0.00     0.047 C 
ATOM      5  C   UNL     1      10.744  11.423  -6.028  1.00  0.00     0.025 C 
ATOM      6  C   UNL     1      11.489  10.564  -5.020  1.00  0.00    -0.073 C 
ATOM      7  C   UNL     1      12.109  11.125  -3.970  1.00  0.00     0.008 C 
ATOM      8  C   UNL     1      11.388   9.057  -5.132  1.00  0.00     0.031 C 
ATOM      9  C   UNL     1      11.605   8.581  -6.575  1.00  0.00     0.005 C 
ATOM     10  C   UNL     1      10.806   9.406  -7.600  1.00  0.00     0.008 C 
ATOM     11  C   UNL     1      11.064  10.938  -7.478  1.00  0.00    -0.018 C 
ATOM     12  C   UNL     1      10.196  11.708  -8.508  1.00  0.00     0.088 C 
ATOM     13  C   UNL     1       8.747  11.726  -8.139  1.00  0.00     0.159 C 
ATOM     14  O   UNL     1       7.881  11.480  -9.022  1.00  0.00    -0.295 OA
ATOM     15  C   UNL     1      12.546  11.250  -7.818  1.00  0.00     0.012 C 
ATOM     16  C   UNL     1       6.778  12.903  -5.005  1.00  0.00     0.039 C 
ENDROOT
TORSDOF 0
ENDMDL
MODEL 6
REMARK VINA RESULT:    -4.486     10.614     12.316
REMARK INTER + INTRA:          -4.486
REMARK INTER:                  -4.486
REMARK INTRA:                   0.000
REMARK UNBOUND:                 0.000
REMARK SMILES C=C1CCC[C@@]2(C)CC(=O)C(=C(C)C)C[C@@H]12
REMARK SMILES IDX 13 1 12 2 11 3 15 4 16 5 2 6 1 7 3 8 4 9 5 10 6 11 8 12 9 13
REMARK SMILES IDX 10 14 7 15 14 16
REMARK H PARENT
REMARK Flexibility Score: inf
ROOT
ATOM      1  C   UNL     1      10.504   9.905 -11.554  1.00  0.00     0.039 C 
ATOM      2  C   UNL     1      11.108   9.447 -10.246  1.00  0.00    -0.070 C 
ATOM      3  C   UNL     1      10.761  10.028  -9.062  1.00  0.00    -0.006 C 
ATOM      4  C   UNL     1      11.330   9.557  -7.737  1.00  0.00     0.047 C 
ATOM      5  C   UNL     1      10.325   9.670  -6.561  1.00  0.00     0.025 C 
ATOM      6  C   UNL     1      11.066   9.409  -5.261  1.00  0.00    -0.073 C 
ATOM      7  C   UNL     1      11.028   8.196  -4.685  1.00  0.00     0.008 C 
ATOM      8  C   UNL     1      11.976  10.487  -4.712  1.00  0.00     0.031 C 
ATOM      9  C   UNL     1      11.295  11.863  -4.725  1.00  0.00     0.005 C 
ATOM     10  C   UNL     1      10.591  12.165  -6.060  1.00  0.00     0.008 C 
ATOM     11  C   UNL     1       9.592  11.048  -6.485  1.00  0.00    -0.018 C 
ATOM     12  C   UNL     1       8.954  11.396  -7.856  1.00  0.00     0.088 C 
ATOM     13  C   UNL     1       9.914  11.239  -8.993  1.00  0.00     0.159 C 
ATOM     14  O   UNL     1       9.987  12.141  -9.870  1.00  0.00    -0.295 OA
ATOM     15  C   UNL     1       8.430  10.965  -5.459  1.00  0.00     0.012 C 
ATOM     16  C   UNL     1      12.082   8.294 -10.301  1.00  0.00     0.039 C 
ENDROOT
TORSDOF 0
ENDMDL
MODEL 7
REMARK VINA RESULT:    -4.468     10.808     12.434
REMARK INTER + INTRA:          -4.468
REMARK INTER:                  -4.468
REMARK INTRA:                   0.000
REMARK UNBOUND:                 0.000
REMARK SMILES C=C1CCC[C@@]2(C)CC(=O)C(=C(C)C)C[C@@H]12
REMARK SMILES IDX 13 1 12 2 11 3 15 4 16 5 2 6 1 7 3 8 4 9 5 10 6 11 8 12 9 13
REMARK SMILES IDX 10 14 7 15 14 16
REMARK H PARENT
REMARK Flexibility Score: inf
ROOT
ATOM      1  C   UNL     1      12.720   7.685 -10.697  1.00  0.00     0.039 C 
ATOM      2  C   UNL     1      11.779   8.832 -10.409  1.00  0.00    -0.070 C 
ATOM      3  C   UNL     1      11.463   9.187  -9.130  1.00  0.00    -0.006 C 
ATOM      4  C   UNL     1      10.549  10.357  -8.822  1.00  0.00     0.047 C 
ATOM      5  C   UNL     1      10.934  11.113  -7.524  1.00  0.00     0.025 C 
ATOM      6  C   UNL     1       9.825  12.096  -7.186  1.00  0.00    -0.073 C 
ATOM      7  C   UNL     1       9.934  13.390  -7.526  1.00  0.00     0.008 C 
ATOM      8  C   UNL     1       8.531  11.563  -6.607  1.00  0.00     0.031 C 
ATOM      9  C   UNL     1       8.789  10.567  -5.468  1.00  0.00     0.005 C 
ATOM     10  C   UNL     1       9.868   9.527  -5.821  1.00  0.00     0.008 C 
ATOM     11  C   UNL     1      11.201  10.176  -6.302  1.00  0.00    -0.018 C 
ATOM     12  C   UNL     1      12.224   9.074  -6.681  1.00  0.00     0.088 C 
ATOM     13  C   UNL     1      11.875   8.381  -7.960  1.00  0.00     0.159 C 
ATOM     14  O   UNL     1      11.935   7.123  -8.019  1.00  0.00    -0.295 OA
ATOM     15  C   UNL     1      11.833  10.995  -5.145  1.00  0.00     0.012 C 
ATOM     16  C   UNL     1      11.234   9.593 -11.594  1.00  0.00     0.039 C 
ENDROOT
TORSDOF 0
ENDMDL
MODEL 8
REMARK VINA RESULT:    -4.065      9.550     11.693
REMARK INTER + INTRA:          -4.065
REMARK INTER:                  -4.065
REMARK INTRA:                   0.000
REMARK UNBOUND:                 0.000
REMARK SMILES C=C1CCC[C@@]2(C)CC(=O)C(=C(C)C)C[C@@H]12
REMARK SMILES IDX 13 1 12 2 11 3 15 4 16 5 2 6 1 7 3 8 4 9 5 10 6 11 8 12 9 13
REMARK SMILES IDX 10 14 7 15 14 16
REMARK H PARENT
REMARK Flexibility Score: inf
ROOT
ATOM      1  C   UNL     1       6.962  13.046  -8.000  1.00  0.00     0.039 C 
ATOM      2  C   UNL     1       8.098  12.214  -8.549  1.00  0.00    -0.070 C 
ATOM      3  C   UNL     1       8.976  11.577  -7.723  1.00  0.00    -0.006 C 
ATOM      4  C   UNL     1      10.100  10.709  -8.256  1.00  0.00     0.047 C 
ATOM      5  C   UNL     1      10.421   9.493  -7.349  1.00  0.00     0.025 C 
ATOM      6  C   UNL     1      11.703   8.843  -7.843  1.00  0.00    -0.073 C 
ATOM      7  C   UNL     1      11.658   7.762  -8.638  1.00  0.00     0.008 C 
ATOM      8  C   UNL     1      13.024   9.527  -7.557  1.00  0.00     0.031 C 
ATOM      9  C   UNL     1      13.125   9.969  -6.090  1.00  0.00     0.005 C 
ATOM     10  C   UNL     1      11.855  10.684  -5.595  1.00  0.00     0.008 C 
ATOM     11  C   UNL     1      10.559   9.852  -5.834  1.00  0.00    -0.018 C 
ATOM     12  C   UNL     1       9.318  10.648  -5.354  1.00  0.00     0.088 C 
ATOM     13  C   UNL     1       8.983  11.791  -6.259  1.00  0.00     0.159 C 
ATOM     14  O   UNL     1       8.714  12.917  -5.759  1.00  0.00    -0.295 OA
ATOM     15  C   UNL     1      10.609   8.549  -4.992  1.00  0.00     0.012 C 
ATOM     16  C   UNL     1       8.198  12.085 -10.051  1.00  0.00     0.039 C 
ENDROOT
TORSDOF 0
ENDMDL
