MODEL 1
REMARK VINA RESULT:    -5.334      0.000      0.000
REMARK INTER + INTRA:          -6.761
REMARK INTER:                  -6.581
REMARK INTRA:                  -0.180
REMARK UNBOUND:                -0.180
REMARK SMILES CCCCC=CC(C)=O
REMARK SMILES IDX 4 1 3 2 2 3 1 4 5 5 6 6 7 7 9 8 8 9
REMARK H PARENT
REMARK Flexibility Score: inf
ROOT
ATOM      1  C   UNL     1       9.967  19.896  23.073  1.00  0.00     0.027 C 
ENDROOT
BRANCH   1   2
ATOM      2  C   UNL     1       8.877  20.717  23.776  1.00  0.00     0.004 C 
BRANCH   2   3
ATOM      3  C   UNL     1       7.592  19.908  24.016  1.00  0.00    -0.003 C 
ATOM      4  C   UNL     1       7.871  18.470  24.449  1.00  0.00     0.004 C 
ENDBRANCH   2   3
ENDBRANCH   1   2
BRANCH   1   5
ATOM      5  C   UNL     1      11.262  20.654  23.013  1.00  0.00    -0.023 C 
ATOM      6  C   UNL     1      11.720  21.338  24.069  1.00  0.00     0.042 C 
BRANCH   6   7
ATOM      7  C   UNL     1      12.994  22.087  24.060  1.00  0.00     0.152 C 
ATOM      8  O   UNL     1      13.881  21.757  23.229  1.00  0.00    -0.295 OA
ATOM      9  C   UNL     1      13.267  23.221  25.001  1.00  0.00     0.093 C 
ENDBRANCH   6   7
ENDBRANCH   1   5
TORSDOF 4
ENDMDL
MODEL 2
REMARK VINA RESULT:    -5.303      2.414      5.238
REMARK INTER + INTRA:          -6.723
REMARK INTER:                  -6.559
REMARK INTRA:                  -0.164
REMARK UNBOUND:                -0.180
REMARK SMILES CCCCC=CC(C)=O
REMARK SMILES IDX 4 1 3 2 2 3 1 4 5 5 6 6 7 7 9 8 8 9
REMARK H PARENT
REMARK Flexibility Score: inf
ROOT
ATOM      1  C   UNL     1      11.143  21.945  23.332  1.00  0.00     0.027 C 
ENDROOT
BRANCH   1   2
ATOM      2  C   UNL     1      12.371  21.091  23.681  1.00  0.00     0.004 C 
BRANCH   2   3
ATOM      3  C   UNL     1      13.584  21.942  24.089  1.00  0.00    -0.003 C 
ATOM      4  C   UNL     1      13.193  23.186  24.886  1.00  0.00     0.004 C 
ENDBRANCH   2   3
ENDBRANCH   1   2
BRANCH   1   5
ATOM      5  C   UNL     1       9.930  21.086  23.116  1.00  0.00    -0.023 C 
ATOM      6  C   UNL     1       9.322  20.468  24.135  1.00  0.00     0.042 C 
BRANCH   6   7
ATOM      7  C   UNL     1       8.119  19.624  23.971  1.00  0.00     0.152 C 
ATOM      8  O   UNL     1       7.228  19.997  23.163  1.00  0.00    -0.295 OA
ATOM      9  C   UNL     1       7.924  18.346  24.728  1.00  0.00     0.093 C 
ENDBRANCH   6   7
ENDBRANCH   1   5
TORSDOF 4
ENDMDL
MODEL 3
REMARK VINA RESULT:    -4.185      9.119     11.545
REMARK INTER + INTRA:          -5.344
REMARK INTER:                  -5.202
REMARK INTRA:                  -0.142
REMARK UNBOUND:                -0.180
REMARK SMILES CCCCC=CC(C)=O
REMARK SMILES IDX 4 1 3 2 2 3 1 4 5 5 6 6 7 7 9 8 8 9
REMARK H PARENT
REMARK Flexibility Score: inf
ROOT
ATOM      1  C   UNL     1      18.213  20.861  31.739  1.00  0.00     0.027 C 
ENDROOT
BRANCH   1   2
ATOM      2  C   UNL     1      18.788  21.208  33.120  1.00  0.00     0.004 C 
BRANCH   2   3
ATOM      3  C   UNL     1      20.324  21.253  33.125  1.00  0.00    -0.003 C 
ATOM      4  C   UNL     1      20.956  19.909  32.767  1.00  0.00     0.004 C 
ENDBRANCH   2   3
ENDBRANCH   1   2
BRANCH   1   5
ATOM      5  C   UNL     1      16.911  20.123  31.864  1.00  0.00    -0.023 C 
ATOM      6  C   UNL     1      16.358  19.500  30.816  1.00  0.00     0.042 C 
BRANCH   6   7
ATOM      7  C   UNL     1      15.086  18.752  30.896  1.00  0.00     0.152 C 
ATOM      8  O   UNL     1      14.452  18.756  31.984  1.00  0.00    -0.295 OA
ATOM      9  C   UNL     1      14.525  17.993  29.732  1.00  0.00     0.093 C 
ENDBRANCH   6   7
ENDBRANCH   1   5
TORSDOF 4
ENDMDL
MODEL 4
REMARK VINA RESULT:    -4.043      8.286     10.626
REMARK INTER + INTRA:          -5.168
REMARK INTER:                  -5.018
REMARK INTRA:                  -0.150
REMARK UNBOUND:                -0.180
REMARK SMILES CCCCC=CC(C)=O
REMARK SMILES IDX 4 1 3 2 2 3 1 4 5 5 6 6 7 7 9 8 8 9
REMARK H PARENT
REMARK Flexibility Score: inf
ROOT
ATOM      1  C   UNL     1      18.079  20.968  31.679  1.00  0.00     0.027 C 
ENDROOT
BRANCH   1   2
ATOM      2  C   UNL     1      18.057  22.083  32.735  1.00  0.00     0.004 C 
BRANCH   2   3
ATOM      3  C   UNL     1      17.132  23.247  32.344  1.00  0.00    -0.003 C 
ATOM      4  C   UNL     1      15.797  23.217  33.087  1.00  0.00     0.004 C 
ENDBRANCH   2   3
ENDBRANCH   1   2
BRANCH   1   5
ATOM      5  C   UNL     1      16.861  20.096  31.787  1.00  0.00    -0.023 C 
ATOM      6  C   UNL     1      16.354  19.470  30.719  1.00  0.00     0.042 C 
BRANCH   6   7
ATOM      7  C   UNL     1      15.167  18.592  30.780  1.00  0.00     0.152 C 
ATOM      8  O   UNL     1      14.637  18.373  31.901  1.00  0.00    -0.295 OA
ATOM      9  C   UNL     1      14.572  17.957  29.560  1.00  0.00     0.093 C 
ENDBRANCH   6   7
ENDBRANCH   1   5
TORSDOF 4
ENDMDL
MODEL 5
REMARK VINA RESULT:    -3.831      9.082     10.106
REMARK INTER + INTRA:          -4.907
REMARK INTER:                  -4.710
REMARK INTRA:                  -0.197
REMARK UNBOUND:                -0.180
REMARK SMILES CCCCC=CC(C)=O
REMARK SMILES IDX 4 1 3 2 2 3 1 4 5 5 6 6 7 7 9 8 8 9
REMARK H PARENT
REMARK Flexibility Score: inf
ROOT
ATOM      1  C   UNL     1      15.992  19.121  30.545  1.00  0.00     0.027 C 
ENDROOT
BRANCH   1   2
ATOM      2  C   UNL     1      14.710  18.448  31.057  1.00  0.00     0.004 C 
BRANCH   2   3
ATOM      3  C   UNL     1      14.437  18.750  32.539  1.00  0.00    -0.003 C 
ATOM      4  C   UNL     1      13.125  19.502  32.757  1.00  0.00     0.004 C 
ENDBRANCH   2   3
ENDBRANCH   1   2
BRANCH   1   5
ATOM      5  C   UNL     1      16.636  19.948  31.620  1.00  0.00    -0.023 C 
ATOM      6  C   UNL     1      17.799  20.578  31.414  1.00  0.00     0.042 C 
BRANCH   6   7
ATOM      7  C   UNL     1      18.463  21.412  32.438  1.00  0.00     0.152 C 
ATOM      8  O   UNL     1      17.936  22.512  32.752  1.00  0.00    -0.295 OA
ATOM      9  C   UNL     1      19.735  20.997  33.113  1.00  0.00     0.093 C 
ENDBRANCH   6   7
ENDBRANCH   1   5
TORSDOF 4
ENDMDL
MODEL 6
REMARK VINA RESULT:    -3.524     11.547     12.881
REMARK INTER + INTRA:          -4.528
REMARK INTER:                  -4.367
REMARK INTRA:                  -0.161
REMARK UNBOUND:                -0.180
REMARK SMILES CCCCC=CC(C)=O
REMARK SMILES IDX 4 1 3 2 2 3 1 4 5 5 6 6 7 7 9 8 8 9
REMARK H PARENT
REMARK Flexibility Score: inf
ROOT
ATOM      1  C   UNL     1      17.126  25.153  16.103  1.00  0.00     0.027 C 
ENDROOT
BRANCH   1   2
ATOM      2  C   UNL     1      18.432  25.124  15.296  1.00  0.00     0.004 C 
BRANCH   2   3
ATOM      3  C   UNL     1      19.550  24.347  16.010  1.00  0.00    -0.003 C 
ATOM      4  C   UNL     1      20.947  24.824  15.617  1.00  0.00     0.004 C 
ENDBRANCH   2   3
ENDBRANCH   1   2
BRANCH   1   5
ATOM      5  C   UNL     1      16.214  26.243  15.618  1.00  0.00    -0.023 C 
ATOM      6  C   UNL     1      16.690  27.434  15.238  1.00  0.00     0.042 C 
BRANCH   6   7
ATOM      7  C   UNL     1      15.832  28.531  14.742  1.00  0.00     0.152 C 
ATOM      8  O   UNL     1      16.383  29.551  14.250  1.00  0.00    -0.295 OA
ATOM      9  C   UNL     1      14.335  28.472  14.802  1.00  0.00     0.093 C 
ENDBRANCH   6   7
ENDBRANCH   1   5
TORSDOF 4
ENDMDL
MODEL 7
REMARK VINA RESULT:    -3.414      9.593     11.510
REMARK INTER + INTRA:          -4.392
REMARK INTER:                  -4.254
REMARK INTRA:                  -0.139
REMARK UNBOUND:                -0.180
REMARK SMILES CCCCC=CC(C)=O
REMARK SMILES IDX 4 1 3 2 2 3 1 4 5 5 6 6 7 7 9 8 8 9
REMARK H PARENT
REMARK Flexibility Score: inf
ROOT
ATOM      1  C   UNL     1      16.680  26.484  15.611  1.00  0.00     0.027 C 
ENDROOT
BRANCH   1   2
ATOM      2  C   UNL     1      17.119  25.105  16.126  1.00  0.00     0.004 C 
BRANCH   2   3
ATOM      3  C   UNL     1      18.269  24.506  15.301  1.00  0.00    -0.003 C 
ATOM      4  C   UNL     1      19.531  24.269  16.129  1.00  0.00     0.004 C 
ENDBRANCH   2   3
ENDBRANCH   1   2
BRANCH   1   5
ATOM      5  C   UNL     1      15.205  26.513  15.333  1.00  0.00    -0.023 C 
ATOM      6  C   UNL     1      14.332  25.879  16.125  1.00  0.00     0.042 C 
BRANCH   6   7
ATOM      7  C   UNL     1      12.872  25.892  15.897  1.00  0.00     0.152 C 
ATOM      8  O   UNL     1      12.331  26.965  15.520  1.00  0.00    -0.295 OA
ATOM      9  C   UNL     1      12.016  24.678  16.097  1.00  0.00     0.093 C 
ENDBRANCH   6   7
ENDBRANCH   1   5
TORSDOF 4
ENDMDL
MODEL 8
REMARK VINA RESULT:    -3.332     10.249     12.277
REMARK INTER + INTRA:          -4.291
REMARK INTER:                  -4.154
REMARK INTRA:                  -0.137
REMARK UNBOUND:                -0.180
REMARK SMILES CCCCC=CC(C)=O
REMARK SMILES IDX 4 1 3 2 2 3 1 4 5 5 6 6 7 7 9 8 8 9
REMARK H PARENT
REMARK Flexibility Score: inf
ROOT
ATOM      1  C   UNL     1      18.040  24.774  15.850  1.00  0.00     0.027 C 
ENDROOT
BRANCH   1   2
ATOM      2  C   UNL     1      19.214  25.205  14.958  1.00  0.00     0.004 C 
BRANCH   2   3
ATOM      3  C   UNL     1      20.578  24.825  15.556  1.00  0.00    -0.003 C 
ATOM      4  C   UNL     1      20.468  23.777  16.662  1.00  0.00     0.004 C 
ENDBRANCH   2   3
ENDBRANCH   1   2
BRANCH   1   5
ATOM      5  C   UNL     1      16.979  25.836  15.900  1.00  0.00    -0.023 C 
ATOM      6  C   UNL     1      15.708  25.569  15.578  1.00  0.00     0.042 C 
BRANCH   6   7
ATOM      7  C   UNL     1      14.630  26.578  15.624  1.00  0.00     0.152 C 
ATOM      8  O   UNL     1      14.868  27.735  15.187  1.00  0.00    -0.295 OA
ATOM      9  C   UNL     1      13.268  26.276  16.171  1.00  0.00     0.093 C 
ENDBRANCH   6   7
ENDBRANCH   1   5
TORSDOF 4
ENDMDL
MODEL 9
REMARK VINA RESULT:    -3.296     11.278     12.404
REMARK INTER + INTRA:          -4.246
REMARK INTER:                  -4.076
REMARK INTRA:                  -0.171
REMARK UNBOUND:                -0.180
REMARK SMILES CCCCC=CC(C)=O
REMARK SMILES IDX 4 1 3 2 2 3 1 4 5 5 6 6 7 7 9 8 8 9
REMARK H PARENT
REMARK Flexibility Score: inf
ROOT
ATOM      1  C   UNL     1       6.125  29.691  17.504  1.00  0.00     0.027 C 
ENDROOT
BRANCH   1   2
ATOM      2  C   UNL     1       7.614  29.751  17.131  1.00  0.00     0.004 C 
BRANCH   2   3
ATOM      3  C   UNL     1       8.021  31.114  16.549  1.00  0.00    -0.003 C 
ATOM      4  C   UNL     1       9.352  31.064  15.800  1.00  0.00     0.004 C 
ENDBRANCH   2   3
ENDBRANCH   1   2
BRANCH   1   5
ATOM      5  C   UNL     1       5.455  28.506  16.869  1.00  0.00    -0.023 C 
ATOM      6  C   UNL     1       6.131  27.383  16.601  1.00  0.00     0.042 C 
BRANCH   6   7
ATOM      7  C   UNL     1       5.511  26.189  15.989  1.00  0.00     0.152 C 
ATOM      8  O   UNL     1       6.167  25.542  15.131  1.00  0.00    -0.295 OA
ATOM      9  C   UNL     1       4.134  25.721  16.354  1.00  0.00     0.093 C 
ENDBRANCH   6   7
ENDBRANCH   1   5
TORSDOF 4
ENDMDL
