MODEL 1
REMARK VINA RESULT:    -3.902      0.000      0.000
REMARK INTER + INTRA:          -6.696
REMARK INTER:                  -5.955
REMARK INTRA:                  -0.741
REMARK UNBOUND:                -0.741
REMARK SMILES CCCCCCCCCCC(=O)[O-]
REMARK SMILES IDX 7 1 8 2 9 3 10 4 11 5 12 6 13 7 6 8 5 9 4 10 3 11 2 12 1 13
REMARK H PARENT
REMARK Flexibility Score: inf
ROOT
ATOM      1  C   UNL     1      -7.898 -13.692  14.535  1.00  0.00     0.000 C 
ENDROOT
BRANCH   1   2
ATOM      2  C   UNL     1      -8.764 -14.961  14.565  1.00  0.00     0.000 C 
BRANCH   2   3
ATOM      3  C   UNL     1      -9.068 -15.436  15.997  1.00  0.00     0.006 C 
BRANCH   3   4
ATOM      4  C   UNL     1      -7.800 -15.543  16.853  1.00  0.00     0.053 C 
BRANCH   4   5
ATOM      5  C   UNL     1      -7.841 -14.613  18.027  1.00  0.00     0.041 C 
ATOM      6  O   UNL     1      -8.857 -14.572  18.769  1.00  0.00    -0.550 OA
ATOM      7  O   UNL     1      -6.767 -13.770  18.284  1.00  0.00    -0.550 OA
ENDBRANCH   4   5
ENDBRANCH   3   4
ENDBRANCH   2   3
ENDBRANCH   1   2
BRANCH   1   8
ATOM      8  C   UNL     1      -8.648 -12.450  15.041  1.00  0.00     0.000 C 
BRANCH   8   9
ATOM      9  C   UNL     1     -10.052 -12.369  14.431  1.00  0.00    -0.000 C 
BRANCH   9  10
ATOM     10  C   UNL     1     -11.018 -11.628  15.368  1.00  0.00    -0.000 C 
BRANCH  10  11
ATOM     11  C   UNL     1     -10.712 -11.882  16.853  1.00  0.00    -0.000 C 
BRANCH  11  12
ATOM     12  C   UNL     1     -11.771 -11.278  17.787  1.00  0.00    -0.003 C 
ATOM     13  C   UNL     1     -12.323 -12.329  18.745  1.00  0.00     0.004 C 
ENDBRANCH  11  12
ENDBRANCH  10  11
ENDBRANCH   9  10
ENDBRANCH   8   9
ENDBRANCH   1   8
TORSDOF 9
ENDMDL
MODEL 2
REMARK VINA RESULT:    -3.729      2.272      4.453
REMARK INTER + INTRA:          -6.432
REMARK INTER:                  -5.538
REMARK INTRA:                  -0.894
REMARK UNBOUND:                -0.741
REMARK SMILES CCCCCCCCCCC(=O)[O-]
REMARK SMILES IDX 7 1 8 2 9 3 10 4 11 5 12 6 13 7 6 8 5 9 4 10 3 11 2 12 1 13
REMARK H PARENT
REMARK Flexibility Score: inf
ROOT
ATOM      1  C   UNL     1     -10.482 -11.658  14.505  1.00  0.00     0.000 C 
ENDROOT
BRANCH   1   2
ATOM      2  C   UNL     1     -11.539 -11.490  15.607  1.00  0.00     0.000 C 
BRANCH   2   3
ATOM      3  C   UNL     1     -10.962 -11.697  17.019  1.00  0.00     0.006 C 
BRANCH   3   4
ATOM      4  C   UNL     1     -11.778 -12.706  17.836  1.00  0.00     0.053 C 
BRANCH   4   5
ATOM      5  C   UNL     1     -12.440 -12.061  19.016  1.00  0.00     0.041 C 
ATOM      6  O   UNL     1     -12.642 -12.721  20.069  1.00  0.00    -0.550 OA
ATOM      7  O   UNL     1     -12.860 -10.739  18.940  1.00  0.00    -0.550 OA
ENDBRANCH   4   5
ENDBRANCH   3   4
ENDBRANCH   2   3
ENDBRANCH   1   2
BRANCH   1   8
ATOM      8  C   UNL     1      -9.749 -13.006  14.586  1.00  0.00     0.000 C 
BRANCH   8   9
ATOM      9  C   UNL     1      -8.272 -12.807  14.943  1.00  0.00    -0.000 C 
BRANCH   9  10
ATOM     10  C   UNL     1      -7.635 -14.126  15.408  1.00  0.00    -0.000 C 
BRANCH  10  11
ATOM     11  C   UNL     1      -8.609 -15.001  16.213  1.00  0.00    -0.000 C 
BRANCH  11  12
ATOM     12  C   UNL     1      -8.658 -14.617  17.699  1.00  0.00    -0.003 C 
ATOM     13  C   UNL     1      -7.272 -14.242  18.215  1.00  0.00     0.004 C 
ENDBRANCH  11  12
ENDBRANCH  10  11
ENDBRANCH   9  10
ENDBRANCH   8   9
ENDBRANCH   1   8
TORSDOF 9
ENDMDL
MODEL 3
REMARK VINA RESULT:    -3.718      9.725     11.992
REMARK INTER + INTRA:          -6.416
REMARK INTER:                  -5.268
REMARK INTRA:                  -1.148
REMARK UNBOUND:                -0.741
REMARK SMILES CCCCCCCCCCC(=O)[O-]
REMARK SMILES IDX 7 1 8 2 9 3 10 4 11 5 12 6 13 7 6 8 5 9 4 10 3 11 2 12 1 13
REMARK H PARENT
REMARK Flexibility Score: inf
ROOT
ATOM      1  C   UNL     1     -14.788  -7.908  26.493  1.00  0.00     0.000 C 
ENDROOT
BRANCH   1   2
ATOM      2  C   UNL     1     -13.698  -8.875  26.006  1.00  0.00     0.000 C 
BRANCH   2   3
ATOM      3  C   UNL     1     -12.297  -8.238  26.005  1.00  0.00     0.006 C 
BRANCH   3   4
ATOM      4  C   UNL     1     -11.314  -9.001  26.903  1.00  0.00     0.053 C 
BRANCH   4   5
ATOM      5  C   UNL     1     -11.611  -8.793  28.357  1.00  0.00     0.041 C 
ATOM      6  O   UNL     1     -11.441  -7.662  28.883  1.00  0.00    -0.550 OA
ATOM      7  O   UNL     1     -12.048  -9.857  29.136  1.00  0.00    -0.550 OA
ENDBRANCH   4   5
ENDBRANCH   3   4
ENDBRANCH   2   3
ENDBRANCH   1   2
BRANCH   1   8
ATOM      8  C   UNL     1     -15.764  -7.503  25.377  1.00  0.00     0.000 C 
BRANCH   8   9
ATOM      9  C   UNL     1     -15.728  -5.989  25.140  1.00  0.00    -0.000 C 
BRANCH   9  10
ATOM     10  C   UNL     1     -14.423  -5.571  24.446  1.00  0.00    -0.000 C 
BRANCH  10  11
ATOM     11  C   UNL     1     -14.375  -5.997  22.970  1.00  0.00    -0.000 C 
BRANCH  11  12
ATOM     12  C   UNL     1     -13.085  -6.749  22.613  1.00  0.00    -0.003 C 
ATOM     13  C   UNL     1     -13.364  -8.227  22.356  1.00  0.00     0.004 C 
ENDBRANCH  11  12
ENDBRANCH  10  11
ENDBRANCH   9  10
ENDBRANCH   8   9
ENDBRANCH   1   8
TORSDOF 9
ENDMDL
MODEL 4
REMARK VINA RESULT:    -3.678     13.895     16.721
REMARK INTER + INTRA:          -6.354
REMARK INTER:                  -5.899
REMARK INTRA:                  -0.454
REMARK UNBOUND:                -0.741
REMARK SMILES CCCCCCCCCCC(=O)[O-]
REMARK SMILES IDX 7 1 8 2 9 3 10 4 11 5 12 6 13 7 6 8 5 9 4 10 3 11 2 12 1 13
REMARK H PARENT
REMARK Flexibility Score: inf
ROOT
ATOM      1  C   UNL     1       1.853 -17.573  28.831  1.00  0.00     0.000 C 
ENDROOT
BRANCH   1   2
ATOM      2  C   UNL     1       1.071 -17.368  27.524  1.00  0.00     0.000 C 
BRANCH   2   3
ATOM      3  C   UNL     1      -0.430 -17.128  27.764  1.00  0.00     0.006 C 
BRANCH   3   4
ATOM      4  C   UNL     1      -1.170 -16.752  26.474  1.00  0.00     0.053 C 
BRANCH   4   5
ATOM      5  C   UNL     1      -2.386 -15.921  26.751  1.00  0.00     0.041 C 
ATOM      6  O   UNL     1      -2.622 -14.894  26.063  1.00  0.00    -0.550 OA
ATOM      7  O   UNL     1      -3.242 -16.266  27.789  1.00  0.00    -0.550 OA
ENDBRANCH   4   5
ENDBRANCH   3   4
ENDBRANCH   2   3
ENDBRANCH   1   2
BRANCH   1   8
ATOM      8  C   UNL     1       3.185 -18.309  28.615  1.00  0.00     0.000 C 
BRANCH   8   9
ATOM      9  C   UNL     1       3.105 -19.752  29.127  1.00  0.00    -0.000 C 
BRANCH   9  10
ATOM     10  C   UNL     1       1.690 -20.079  29.629  1.00  0.00    -0.000 C 
BRANCH  10  11
ATOM     11  C   UNL     1       1.473 -21.586  29.845  1.00  0.00    -0.000 C 
BRANCH  11  12
ATOM     12  C   UNL     1       0.071 -21.910  30.378  1.00  0.00    -0.003 C 
ATOM     13  C   UNL     1      -0.976 -20.980  29.772  1.00  0.00     0.004 C 
ENDBRANCH  11  12
ENDBRANCH  10  11
ENDBRANCH   9  10
ENDBRANCH   8   9
ENDBRANCH   1   8
TORSDOF 9
ENDMDL
MODEL 5
REMARK VINA RESULT:    -3.651     14.120     16.591
REMARK INTER + INTRA:          -6.313
REMARK INTER:                  -5.608
REMARK INTRA:                  -0.705
REMARK UNBOUND:                -0.741
REMARK SMILES CCCCCCCCCCC(=O)[O-]
REMARK SMILES IDX 7 1 8 2 9 3 10 4 11 5 12 6 13 7 6 8 5 9 4 10 3 11 2 12 1 13
REMARK H PARENT
REMARK Flexibility Score: inf
ROOT
ATOM      1  C   UNL     1      -0.275 -16.018  30.249  1.00  0.00     0.000 C 
ENDROOT
BRANCH   1   2
ATOM      2  C   UNL     1      -0.016 -14.613  30.815  1.00  0.00     0.000 C 
BRANCH   2   3
ATOM      3  C   UNL     1       1.483 -14.275  30.898  1.00  0.00     0.006 C 
BRANCH   3   4
ATOM      4  C   UNL     1       1.747 -13.017  31.736  1.00  0.00     0.053 C 
BRANCH   4   5
ATOM      5  C   UNL     1       2.085 -11.837  30.877  1.00  0.00     0.041 C 
ATOM      6  O   UNL     1       2.982 -11.928  29.998  1.00  0.00    -0.550 OA
ATOM      7  O   UNL     1       1.430 -10.627  31.069  1.00  0.00    -0.550 OA
ENDBRANCH   4   5
ENDBRANCH   3   4
ENDBRANCH   2   3
ENDBRANCH   1   2
BRANCH   1   8
ATOM      8  C   UNL     1       0.905 -16.551  29.422  1.00  0.00     0.000 C 
BRANCH   8   9
ATOM      9  C   UNL     1       0.411 -17.402  28.246  1.00  0.00    -0.000 C 
BRANCH   9  10
ATOM     10  C   UNL     1      -1.063 -17.104  27.933  1.00  0.00    -0.000 C 
BRANCH  10  11
ATOM     11  C   UNL     1      -1.289 -16.721  26.461  1.00  0.00    -0.000 C 
BRANCH  11  12
ATOM     12  C   UNL     1      -2.398 -15.674  26.286  1.00  0.00    -0.003 C 
ATOM     13  C   UNL     1      -2.824 -15.095  27.632  1.00  0.00     0.004 C 
ENDBRANCH  11  12
ENDBRANCH  10  11
ENDBRANCH   9  10
ENDBRANCH   8   9
ENDBRANCH   1   8
TORSDOF 9
ENDMDL
MODEL 6
REMARK VINA RESULT:    -3.616     10.509     12.487
REMARK INTER + INTRA:          -6.260
REMARK INTER:                  -5.410
REMARK INTRA:                  -0.850
REMARK UNBOUND:                -0.741
REMARK SMILES CCCCCCCCCCC(=O)[O-]
REMARK SMILES IDX 7 1 8 2 9 3 10 4 11 5 12 6 13 7 6 8 5 9 4 10 3 11 2 12 1 13
REMARK H PARENT
REMARK Flexibility Score: inf
ROOT
ATOM      1  C   UNL     1     -13.698  -8.871  25.990  1.00  0.00     0.000 C 
ENDROOT
BRANCH   1   2
ATOM      2  C   UNL     1     -12.333  -8.179  26.129  1.00  0.00     0.000 C 
BRANCH   2   3
ATOM      3  C   UNL     1     -11.454  -8.815  27.220  1.00  0.00     0.006 C 
BRANCH   3   4
ATOM      4  C   UNL     1     -11.620  -8.118  28.577  1.00  0.00     0.053 C 
BRANCH   4   5
ATOM      5  C   UNL     1     -11.631  -9.099  29.709  1.00  0.00     0.041 C 
ATOM      6  O   UNL     1     -11.950 -10.300  29.505  1.00  0.00    -0.550 OA
ATOM      7  O   UNL     1     -11.318  -8.679  30.995  1.00  0.00    -0.550 OA
ENDBRANCH   4   5
ENDBRANCH   3   4
ENDBRANCH   2   3
ENDBRANCH   1   2
BRANCH   1   8
ATOM      8  C   UNL     1     -14.860  -7.996  26.484  1.00  0.00     0.000 C 
BRANCH   8   9
ATOM      9  C   UNL     1     -15.719  -7.511  25.311  1.00  0.00    -0.000 C 
BRANCH   9  10
ATOM     10  C   UNL     1     -15.640  -5.983  25.166  1.00  0.00    -0.000 C 
BRANCH  10  11
ATOM     11  C   UNL     1     -14.379  -5.525  24.415  1.00  0.00    -0.000 C 
BRANCH  11  12
ATOM     12  C   UNL     1     -14.373  -5.966  22.945  1.00  0.00    -0.003 C 
ATOM     13  C   UNL     1     -13.150  -6.825  22.634  1.00  0.00     0.004 C 
ENDBRANCH  11  12
ENDBRANCH  10  11
ENDBRANCH   9  10
ENDBRANCH   8   9
ENDBRANCH   1   8
TORSDOF 9
ENDMDL
MODEL 7
REMARK VINA RESULT:    -3.611     12.381     15.205
REMARK INTER + INTRA:          -6.252
REMARK INTER:                  -5.312
REMARK INTRA:                  -0.939
REMARK UNBOUND:                -0.741
REMARK SMILES CCCCCCCCCCC(=O)[O-]
REMARK SMILES IDX 7 1 8 2 9 3 10 4 11 5 12 6 13 7 6 8 5 9 4 10 3 11 2 12 1 13
REMARK H PARENT
REMARK Flexibility Score: inf
ROOT
ATOM      1  C   UNL     1       0.692 -17.283  28.895  1.00  0.00     0.000 C 
ENDROOT
BRANCH   1   2
ATOM      2  C   UNL     1       0.028 -17.187  27.513  1.00  0.00     0.000 C 
BRANCH   2   3
ATOM      3  C   UNL     1      -1.393 -16.599  27.579  1.00  0.00     0.006 C 
BRANCH   3   4
ATOM      4  C   UNL     1      -2.139 -16.738  26.245  1.00  0.00     0.053 C 
BRANCH   4   5
ATOM      5  C   UNL     1      -2.891 -15.490  25.895  1.00  0.00     0.041 C 
ATOM      6  O   UNL     1      -3.618 -15.455  24.868  1.00  0.00    -0.550 OA
ATOM      7  O   UNL     1      -2.763 -14.356  26.688  1.00  0.00    -0.550 OA
ENDBRANCH   4   5
ENDBRANCH   3   4
ENDBRANCH   2   3
ENDBRANCH   1   2
BRANCH   1   8
ATOM      8  C   UNL     1      -0.081 -18.192  29.863  1.00  0.00     0.000 C 
BRANCH   8   9
ATOM      9  C   UNL     1       0.467 -19.623  29.830  1.00  0.00    -0.000 C 
BRANCH   9  10
ATOM     10  C   UNL     1      -0.653 -20.635  29.547  1.00  0.00    -0.000 C 
BRANCH  10  11
ATOM     11  C   UNL     1      -2.001 -19.957  29.251  1.00  0.00    -0.000 C 
BRANCH  11  12
ATOM     12  C   UNL     1      -2.499 -20.230  27.824  1.00  0.00    -0.003 C 
ATOM     13  C   UNL     1      -3.835 -20.967  27.840  1.00  0.00     0.004 C 
ENDBRANCH  11  12
ENDBRANCH  10  11
ENDBRANCH   9  10
ENDBRANCH   8   9
ENDBRANCH   1   8
TORSDOF 9
ENDMDL
MODEL 8
REMARK VINA RESULT:    -3.587      2.287      5.115
REMARK INTER + INTRA:          -6.215
REMARK INTER:                  -5.456
REMARK INTRA:                  -0.759
REMARK UNBOUND:                -0.741
REMARK SMILES CCCCCCCCCCC(=O)[O-]
REMARK SMILES IDX 7 1 8 2 9 3 10 4 11 5 12 6 13 7 6 8 5 9 4 10 3 11 2 12 1 13
REMARK H PARENT
REMARK Flexibility Score: inf
ROOT
ATOM      1  C   UNL     1     -10.583 -11.982  15.537  1.00  0.00     0.000 C 
ENDROOT
BRANCH   1   2
ATOM      2  C   UNL     1     -11.741 -11.067  15.962  1.00  0.00     0.000 C 
BRANCH   2   3
ATOM      3  C   UNL     1     -11.615 -10.590  17.420  1.00  0.00     0.006 C 
BRANCH   3   4
ATOM      4  C   UNL     1     -12.835 -10.980  18.265  1.00  0.00     0.053 C 
BRANCH   4   5
ATOM      5  C   UNL     1     -12.720 -12.376  18.797  1.00  0.00     0.041 C 
ATOM      6  O   UNL     1     -13.039 -13.358  18.076  1.00  0.00    -0.550 OA
ATOM      7  O   UNL     1     -12.289 -12.589  20.100  1.00  0.00    -0.550 OA
ENDBRANCH   4   5
ENDBRANCH   3   4
ENDBRANCH   2   3
ENDBRANCH   1   2
BRANCH   1   8
ATOM      8  C   UNL     1      -9.528 -12.157  16.642  1.00  0.00     0.000 C 
BRANCH   8   9
ATOM      9  C   UNL     1      -9.320 -13.640  16.972  1.00  0.00    -0.000 C 
BRANCH   9  10
ATOM     10  C   UNL     1      -7.881 -14.077  16.654  1.00  0.00    -0.000 C 
BRANCH  10  11
ATOM     11  C   UNL     1      -7.660 -14.338  15.155  1.00  0.00    -0.000 C 
BRANCH  11  12
ATOM     12  C   UNL     1      -8.744 -15.238  14.546  1.00  0.00    -0.003 C 
ATOM     13  C   UNL     1      -8.582 -15.344  13.032  1.00  0.00     0.004 C 
ENDBRANCH  11  12
ENDBRANCH  10  11
ENDBRANCH   9  10
ENDBRANCH   8   9
ENDBRANCH   1   8
TORSDOF 9
ENDMDL
MODEL 9
REMARK VINA RESULT:    -3.551     11.545     12.557
REMARK INTER + INTRA:          -6.160
REMARK INTER:                  -4.937
REMARK INTRA:                  -1.223
REMARK UNBOUND:                -0.741
REMARK SMILES CCCCCCCCCCC(=O)[O-]
REMARK SMILES IDX 7 1 8 2 9 3 10 4 11 5 12 6 13 7 6 8 5 9 4 10 3 11 2 12 1 13
REMARK H PARENT
REMARK Flexibility Score: inf
ROOT
ATOM      1  C   UNL     1     -11.214  -8.509  26.953  1.00  0.00     0.000 C 
ENDROOT
BRANCH   1   2
ATOM      2  C   UNL     1     -10.867 -10.002  27.058  1.00  0.00     0.000 C 
BRANCH   2   3
ATOM      3  C   UNL     1     -10.996 -10.541  28.494  1.00  0.00     0.006 C 
BRANCH   3   4
ATOM      4  C   UNL     1     -12.011  -9.743  29.322  1.00  0.00     0.053 C 
BRANCH   4   5
ATOM      5  C   UNL     1     -11.522  -9.497  30.716  1.00  0.00     0.041 C 
ATOM      6  O   UNL     1     -11.354  -8.321  31.132  1.00  0.00    -0.550 OA
ATOM      7  O   UNL     1     -11.224 -10.570  31.547  1.00  0.00    -0.550 OA
ENDBRANCH   4   5
ENDBRANCH   3   4
ENDBRANCH   2   3
ENDBRANCH   1   2
BRANCH   1   8
ATOM      8  C   UNL     1     -12.138  -8.197  25.765  1.00  0.00     0.000 C 
BRANCH   8   9
ATOM      9  C   UNL     1     -13.603  -8.136  26.211  1.00  0.00    -0.000 C 
BRANCH   9  10
ATOM     10  C   UNL     1     -14.519  -8.822  25.186  1.00  0.00    -0.000 C 
BRANCH  10  11
ATOM     11  C   UNL     1     -14.503 -10.354  25.311  1.00  0.00    -0.000 C 
BRANCH  11  12
ATOM     12  C   UNL     1     -14.539 -10.829  26.770  1.00  0.00    -0.003 C 
ATOM     13  C   UNL     1     -13.932 -12.222  26.910  1.00  0.00     0.004 C 
ENDBRANCH  11  12
ENDBRANCH  10  11
ENDBRANCH   9  10
ENDBRANCH   8   9
ENDBRANCH   1   8
TORSDOF 9
ENDMDL
