MODEL 1
REMARK VINA RESULT:    -3.077      0.000      0.000
REMARK INTER + INTRA:          -3.734
REMARK INTER:                  -3.616
REMARK INTRA:                  -0.117
REMARK UNBOUND:                -0.117
REMARK SMILES O=C([O-])CCC(=O)[O-]
REMARK SMILES IDX 4 1 2 2 1 3 3 4 5 5 6 6 7 7 8 8
REMARK H PARENT
REMARK Flexibility Score: inf
ROOT
ATOM      1  C   UNL     1      44.439  28.112   2.850  1.00  0.00     0.059 C 
ENDROOT
BRANCH   1   2
ATOM      2  C   UNL     1      43.308  27.505   2.082  1.00  0.00     0.042 C 
ATOM      3  O   UNL     1      43.536  26.646   1.191  1.00  0.00    -0.550 OA
ATOM      4  O   UNL     1      41.996  27.852   2.384  1.00  0.00    -0.550 OA
ENDBRANCH   1   2
BRANCH   1   5
ATOM      5  C   UNL     1      45.671  27.209   2.791  1.00  0.00     0.059 C 
BRANCH   5   6
ATOM      6  C   UNL     1      45.656  26.229   3.922  1.00  0.00     0.042 C 
ATOM      7  O   UNL     1      45.356  25.024   3.712  1.00  0.00    -0.550 OA
ATOM      8  O   UNL     1      46.018  26.636   5.200  1.00  0.00    -0.550 OA
ENDBRANCH   5   6
ENDBRANCH   1   5
TORSDOF 3
ENDMDL
MODEL 2
REMARK VINA RESULT:    -3.050      0.081      3.541
REMARK INTER + INTRA:          -3.702
REMARK INTER:                  -3.595
REMARK INTRA:                  -0.107
REMARK UNBOUND:                -0.117
REMARK SMILES O=C([O-])CCC(=O)[O-]
REMARK SMILES IDX 4 1 2 2 1 3 3 4 5 5 6 6 7 7 8 8
REMARK H PARENT
REMARK Flexibility Score: inf
ROOT
ATOM      1  C   UNL     1      45.732  27.232   2.835  1.00  0.00     0.059 C 
ENDROOT
BRANCH   1   2
ATOM      2  C   UNL     1      45.659  26.218   3.933  1.00  0.00     0.042 C 
ATOM      3  O   UNL     1      45.364  25.022   3.672  1.00  0.00    -0.550 OA
ATOM      4  O   UNL     1      45.964  26.583   5.238  1.00  0.00    -0.550 OA
ENDBRANCH   1   2
BRANCH   1   5
ATOM      5  C   UNL     1      44.515  28.157   2.881  1.00  0.00     0.059 C 
BRANCH   5   6
ATOM      6  C   UNL     1      43.376  27.563   2.114  1.00  0.00     0.042 C 
ATOM      7  O   UNL     1      43.594  26.694   1.229  1.00  0.00    -0.550 OA
ATOM      8  O   UNL     1      42.070  27.934   2.408  1.00  0.00    -0.550 OA
ENDBRANCH   5   6
ENDBRANCH   1   5
TORSDOF 3
ENDMDL
MODEL 3
REMARK VINA RESULT:    -2.953      1.269      3.752
REMARK INTER + INTRA:          -3.588
REMARK INTER:                  -3.471
REMARK INTRA:                  -0.117
REMARK UNBOUND:                -0.117
REMARK SMILES O=C([O-])CCC(=O)[O-]
REMARK SMILES IDX 4 1 2 2 1 3 3 4 5 5 6 6 7 7 8 8
REMARK H PARENT
REMARK Flexibility Score: inf
ROOT
ATOM      1  C   UNL     1      44.962  27.530   2.234  1.00  0.00     0.059 C 
ENDROOT
BRANCH   1   2
ATOM      2  C   UNL     1      45.323  26.813   3.496  1.00  0.00     0.042 C 
ATOM      3  O   UNL     1      45.668  27.463   4.517  1.00  0.00    -0.550 OA
ATOM      4  O   UNL     1      45.232  25.428   3.560  1.00  0.00    -0.550 OA
ENDBRANCH   1   2
BRANCH   1   5
ATOM      5  C   UNL     1      43.519  27.219   1.836  1.00  0.00     0.059 C 
BRANCH   5   6
ATOM      6  C   UNL     1      42.594  28.273   2.357  1.00  0.00     0.042 C 
ATOM      7  O   UNL     1      41.382  28.002   2.572  1.00  0.00    -0.550 OA
ATOM      8  O   UNL     1      43.078  29.541   2.652  1.00  0.00    -0.550 OA
ENDBRANCH   5   6
ENDBRANCH   1   5
TORSDOF 3
ENDMDL
MODEL 4
REMARK VINA RESULT:    -2.918      1.122      1.814
REMARK INTER + INTRA:          -3.547
REMARK INTER:                  -3.503
REMARK INTRA:                  -0.044
REMARK UNBOUND:                -0.117
REMARK SMILES O=C([O-])CCC(=O)[O-]
REMARK SMILES IDX 4 1 2 2 1 3 3 4 5 5 6 6 7 7 8 8
REMARK H PARENT
REMARK Flexibility Score: inf
ROOT
ATOM      1  C   UNL     1      43.691  27.133   2.201  1.00  0.00     0.059 C 
ENDROOT
BRANCH   1   2
ATOM      2  C   UNL     1      42.698  28.241   2.357  1.00  0.00     0.042 C 
ATOM      3  O   UNL     1      41.486  27.979   2.577  1.00  0.00    -0.550 OA
ATOM      4  O   UNL     1      43.118  29.564   2.309  1.00  0.00    -0.550 OA
ENDBRANCH   1   2
BRANCH   1   5
ATOM      5  C   UNL     1      45.040  27.536   2.798  1.00  0.00     0.059 C 
BRANCH   5   6
ATOM      6  C   UNL     1      45.476  26.540   3.826  1.00  0.00     0.042 C 
ATOM      7  O   UNL     1      45.998  26.929   4.904  1.00  0.00    -0.550 OA
ATOM      8  O   UNL     1      45.264  25.184   3.615  1.00  0.00    -0.550 OA
ENDBRANCH   5   6
ENDBRANCH   1   5
TORSDOF 3
ENDMDL
MODEL 5
REMARK VINA RESULT:    -2.895      0.967      1.879
REMARK INTER + INTRA:          -3.520
REMARK INTER:                  -3.452
REMARK INTRA:                  -0.068
REMARK UNBOUND:                -0.117
REMARK SMILES O=C([O-])CCC(=O)[O-]
REMARK SMILES IDX 4 1 2 2 1 3 3 4 5 5 6 6 7 7 8 8
REMARK H PARENT
REMARK Flexibility Score: inf
ROOT
ATOM      1  C   UNL     1      44.830  28.044   2.861  1.00  0.00     0.059 C 
ENDROOT
BRANCH   1   2
ATOM      2  C   UNL     1      44.475  27.411   1.554  1.00  0.00     0.042 C 
ATOM      3  O   UNL     1      43.363  26.840   1.407  1.00  0.00    -0.550 OA
ATOM      4  O   UNL     1      45.353  27.491   0.480  1.00  0.00    -0.550 OA
ENDBRANCH   1   2
BRANCH   1   5
ATOM      5  C   UNL     1      46.157  27.490   3.381  1.00  0.00     0.059 C 
BRANCH   5   6
ATOM      6  C   UNL     1      45.921  26.300   4.256  1.00  0.00     0.042 C 
ATOM      7  O   UNL     1      46.016  26.404   5.507  1.00  0.00    -0.550 OA
ATOM      8  O   UNL     1      45.547  25.085   3.693  1.00  0.00    -0.550 OA
ENDBRANCH   5   6
ENDBRANCH   1   5
TORSDOF 3
ENDMDL
MODEL 6
REMARK VINA RESULT:    -2.895      1.776      3.453
REMARK INTER + INTRA:          -3.520
REMARK INTER:                  -3.381
REMARK INTRA:                  -0.139
REMARK UNBOUND:                -0.117
REMARK SMILES O=C([O-])CCC(=O)[O-]
REMARK SMILES IDX 4 1 2 2 1 3 3 4 5 5 6 6 7 7 8 8
REMARK H PARENT
REMARK Flexibility Score: inf
ROOT
ATOM      1  C   UNL     1      44.045  26.889   2.823  1.00  0.00     0.059 C 
ENDROOT
BRANCH   1   2
ATOM      2  C   UNL     1      45.146  26.385   3.700  1.00  0.00     0.042 C 
ATOM      3  O   UNL     1      45.477  25.171   3.667  1.00  0.00    -0.550 OA
ATOM      4  O   UNL     1      45.841  27.265   4.520  1.00  0.00    -0.550 OA
ENDBRANCH   1   2
BRANCH   1   5
ATOM      5  C   UNL     1      44.383  28.281   2.287  1.00  0.00     0.059 C 
BRANCH   5   6
ATOM      6  C   UNL     1      45.371  28.186   1.168  1.00  0.00     0.042 C 
ATOM      7  O   UNL     1      45.204  27.343   0.246  1.00  0.00    -0.550 OA
ATOM      8  O   UNL     1      46.450  29.059   1.115  1.00  0.00    -0.550 OA
ENDBRANCH   5   6
ENDBRANCH   1   5
TORSDOF 3
ENDMDL
MODEL 7
REMARK VINA RESULT:    -2.812      0.961      3.784
REMARK INTER + INTRA:          -3.422
REMARK INTER:                  -3.351
REMARK INTRA:                  -0.071
REMARK UNBOUND:                -0.117
REMARK SMILES O=C([O-])CCC(=O)[O-]
REMARK SMILES IDX 4 1 2 2 1 3 3 4 5 5 6 6 7 7 8 8
REMARK H PARENT
REMARK Flexibility Score: inf
ROOT
ATOM      1  C   UNL     1      46.341  27.205   3.095  1.00  0.00     0.059 C 
ENDROOT
BRANCH   1   2
ATOM      2  C   UNL     1      46.243  26.032   4.018  1.00  0.00     0.042 C 
ATOM      3  O   UNL     1      46.900  26.015   5.093  1.00  0.00    -0.550 OA
ATOM      4  O   UNL     1      45.390  24.978   3.717  1.00  0.00    -0.550 OA
ENDBRANCH   1   2
BRANCH   1   5
ATOM      5  C   UNL     1      45.006  27.947   3.031  1.00  0.00     0.059 C 
BRANCH   5   6
ATOM      6  C   UNL     1      44.240  27.542   1.811  1.00  0.00     0.042 C 
ATOM      7  O   UNL     1      42.981  27.512   1.835  1.00  0.00    -0.550 OA
ATOM      8  O   UNL     1      44.913  27.244   0.633  1.00  0.00    -0.550 OA
ENDBRANCH   5   6
ENDBRANCH   1   5
TORSDOF 3
ENDMDL
MODEL 8
REMARK VINA RESULT:    -2.765      7.003      8.015
REMARK INTER + INTRA:          -3.367
REMARK INTER:                  -3.341
REMARK INTRA:                  -0.026
REMARK UNBOUND:                -0.117
REMARK SMILES O=C([O-])CCC(=O)[O-]
REMARK SMILES IDX 4 1 2 2 1 3 3 4 5 5 6 6 7 7 8 8
REMARK H PARENT
REMARK Flexibility Score: inf
ROOT
ATOM      1  C   UNL     1      44.036  27.491  -5.359  1.00  0.00     0.059 C 
ENDROOT
BRANCH   1   2
ATOM      2  C   UNL     1      42.915  28.289  -5.944  1.00  0.00     0.042 C 
ATOM      3  O   UNL     1      43.067  28.886  -7.042  1.00  0.00    -0.550 OA
ATOM      4  O   UNL     1      41.684  28.336  -5.301  1.00  0.00    -0.550 OA
ENDBRANCH   1   2
BRANCH   1   5
ATOM      5  C   UNL     1      44.877  28.359  -4.422  1.00  0.00     0.059 C 
BRANCH   5   6
ATOM      6  C   UNL     1      45.958  27.544  -3.784  1.00  0.00     0.042 C 
ATOM      7  O   UNL     1      47.027  27.310  -4.407  1.00  0.00    -0.550 OA
ATOM      8  O   UNL     1      45.805  27.082  -2.482  1.00  0.00    -0.550 OA
ENDBRANCH   5   6
ENDBRANCH   1   5
TORSDOF 3
ENDMDL
MODEL 9
REMARK VINA RESULT:    -2.680      2.136      4.519
REMARK INTER + INTRA:          -3.268
REMARK INTER:                  -3.210
REMARK INTRA:                  -0.057
REMARK UNBOUND:                -0.117
REMARK SMILES O=C([O-])CCC(=O)[O-]
REMARK SMILES IDX 4 1 2 2 1 3 3 4 5 5 6 6 7 7 8 8
REMARK H PARENT
REMARK Flexibility Score: inf
ROOT
ATOM      1  C   UNL     1      46.717  26.449   5.761  1.00  0.00     0.059 C 
ENDROOT
BRANCH   1   2
ATOM      2  C   UNL     1      46.314  26.973   7.103  1.00  0.00     0.042 C 
ATOM      3  O   UNL     1      45.915  28.160   7.226  1.00  0.00    -0.550 OA
ATOM      4  O   UNL     1      46.332  26.135   8.212  1.00  0.00    -0.550 OA
ENDBRANCH   1   2
BRANCH   1   5
ATOM      5  C   UNL     1      45.946  27.167   4.653  1.00  0.00     0.059 C 
BRANCH   5   6
ATOM      6  C   UNL     1      45.331  26.176   3.717  1.00  0.00     0.042 C 
ATOM      7  O   UNL     1      45.614  24.952   3.814  1.00  0.00    -0.550 OA
ATOM      8  O   UNL     1      44.409  26.595   2.766  1.00  0.00    -0.550 OA
ENDBRANCH   5   6
ENDBRANCH   1   5
TORSDOF 3
ENDMDL
