MODEL 1
REMARK VINA RESULT:    -4.351      0.000      0.000
REMARK INTER + INTRA:          -9.393
REMARK INTER:                  -7.911
REMARK INTRA:                  -1.481
REMARK UNBOUND:                -1.481
REMARK SMILES CCCCCCCCCCCCCC[C@@H](C)C(=O)[O-]
REMARK SMILES IDX 9 1 10 2 11 3 12 4 13 5 14 6 15 7 16 8 17 9 18 10 19 11 8 12
REMARK SMILES IDX 7 13 6 14 5 15 4 16 3 17 2 18 1 19
REMARK H PARENT
REMARK Flexibility Score: inf
ROOT
ATOM      1  C   UNL     1      -7.728  -7.884  -0.234  1.00  0.00     0.000 C 
ENDROOT
BRANCH   1   2
ATOM      2  C   UNL     1      -6.386  -7.208   0.083  1.00  0.00     0.000 C 
BRANCH   2   3
ATOM      3  C   UNL     1      -6.600  -5.887   0.831  1.00  0.00     0.000 C 
BRANCH   3   4
ATOM      4  C   UNL     1      -7.605  -6.061   1.981  1.00  0.00     0.000 C 
BRANCH   4   5
ATOM      5  C   UNL     1      -8.284  -4.741   2.381  1.00  0.00     0.001 C 
BRANCH   5   6
ATOM      6  C   UNL     1      -9.785  -4.719   2.029  1.00  0.00     0.009 C 
BRANCH   6   7
ATOM      7  C   UNL     1     -10.386  -6.110   1.728  1.00  0.00     0.032 C 
ATOM      8  C   UNL     1     -11.322  -6.602   2.840  1.00  0.00     0.014 C 
BRANCH   7   9
ATOM      9  C   UNL     1     -11.057  -6.145   0.379  1.00  0.00     0.044 C 
ATOM     10  O   UNL     1     -11.136  -7.232  -0.252  1.00  0.00    -0.550 OA
ATOM     11  O   UNL     1     -11.547  -4.982  -0.205  1.00  0.00    -0.550 OA
ENDBRANCH   7   9
ENDBRANCH   6   7
ENDBRANCH   5   6
ENDBRANCH   4   5
ENDBRANCH   3   4
ENDBRANCH   2   3
ENDBRANCH   1   2
BRANCH   1  12
ATOM     12  C   UNL     1      -7.681  -9.410  -0.054  1.00  0.00     0.000 C 
BRANCH  12  13
ATOM     13  C   UNL     1      -7.231  -9.827   1.353  1.00  0.00    -0.000 C 
BRANCH  13  14
ATOM     14  C   UNL     1      -6.025 -10.777   1.285  1.00  0.00    -0.000 C 
BRANCH  14  15
ATOM     15  C   UNL     1      -5.945 -11.540  -0.047  1.00  0.00    -0.000 C 
BRANCH  15  16
ATOM     16  C   UNL     1      -5.780 -13.054   0.147  1.00  0.00    -0.000 C 
BRANCH  16  17
ATOM     17  C   UNL     1      -5.892 -13.434   1.628  1.00  0.00    -0.000 C 
BRANCH  17  18
ATOM     18  C   UNL     1      -6.968 -14.506   1.842  1.00  0.00    -0.003 C 
ATOM     19  C   UNL     1      -6.787 -15.669   0.871  1.00  0.00     0.004 C 
ENDBRANCH  17  18
ENDBRANCH  16  17
ENDBRANCH  15  16
ENDBRANCH  14  15
ENDBRANCH  13  14
ENDBRANCH  12  13
ENDBRANCH   1  12
TORSDOF 14
ENDMDL
MODEL 2
REMARK VINA RESULT:    -4.250      3.124      7.087
REMARK INTER + INTRA:          -9.211
REMARK INTER:                  -7.326
REMARK INTRA:                  -1.884
REMARK UNBOUND:                -1.481
REMARK SMILES CCCCCCCCCCCCCC[C@@H](C)C(=O)[O-]
REMARK SMILES IDX 9 1 10 2 11 3 12 4 13 5 14 6 15 7 16 8 17 9 18 10 19 11 8 12
REMARK SMILES IDX 7 13 6 14 5 15 4 16 3 17 2 18 1 19
REMARK H PARENT
REMARK Flexibility Score: inf
ROOT
ATOM      1  C   UNL     1     -10.476  -7.187   0.123  1.00  0.00     0.000 C 
ENDROOT
BRANCH   1   2
ATOM      2  C   UNL     1      -9.278  -7.951   0.704  1.00  0.00     0.000 C 
BRANCH   2   3
ATOM      3  C   UNL     1      -8.850  -9.091  -0.229  1.00  0.00     0.000 C 
BRANCH   3   4
ATOM      4  C   UNL     1      -7.323  -9.259  -0.229  1.00  0.00     0.000 C 
BRANCH   4   5
ATOM      5  C   UNL     1      -6.747  -9.447   1.183  1.00  0.00     0.001 C 
BRANCH   5   6
ATOM      6  C   UNL     1      -5.385 -10.169   1.175  1.00  0.00     0.009 C 
BRANCH   6   7
ATOM      7  C   UNL     1      -5.459 -11.666   1.550  1.00  0.00     0.032 C 
ATOM      8  C   UNL     1      -6.728 -12.014   2.341  1.00  0.00     0.014 C 
BRANCH   7   9
ATOM      9  C   UNL     1      -5.296 -12.552   0.342  1.00  0.00     0.044 C 
ATOM     10  O   UNL     1      -5.282 -13.803   0.480  1.00  0.00    -0.550 OA
ATOM     11  O   UNL     1      -5.110 -12.004  -0.923  1.00  0.00    -0.550 OA
ENDBRANCH   7   9
ENDBRANCH   6   7
ENDBRANCH   5   6
ENDBRANCH   4   5
ENDBRANCH   3   4
ENDBRANCH   2   3
ENDBRANCH   1   2
BRANCH   1  12
ATOM     12  C   UNL     1     -10.751  -5.866   0.861  1.00  0.00     0.000 C 
BRANCH  12  13
ATOM     13  C   UNL     1      -9.970  -5.749   2.178  1.00  0.00    -0.000 C 
BRANCH  13  14
ATOM     14  C   UNL     1      -9.392  -4.336   2.350  1.00  0.00    -0.000 C 
BRANCH  14  15
ATOM     15  C   UNL     1      -7.856  -4.318   2.350  1.00  0.00    -0.000 C 
BRANCH  15  16
ATOM     16  C   UNL     1      -7.247  -5.721   2.492  1.00  0.00    -0.000 C 
BRANCH  16  17
ATOM     17  C   UNL     1      -5.882  -5.800   1.800  1.00  0.00    -0.000 C 
BRANCH  17  18
ATOM     18  C   UNL     1      -6.042  -5.943   0.281  1.00  0.00    -0.003 C 
ATOM     19  C   UNL     1      -5.248  -4.871  -0.460  1.00  0.00     0.004 C 
ENDBRANCH  17  18
ENDBRANCH  16  17
ENDBRANCH  15  16
ENDBRANCH  14  15
ENDBRANCH  13  14
ENDBRANCH  12  13
ENDBRANCH   1  12
TORSDOF 14
ENDMDL
MODEL 3
REMARK VINA RESULT:    -4.118      1.202      1.974
REMARK INTER + INTRA:          -8.969
REMARK INTER:                  -6.958
REMARK INTRA:                  -2.012
REMARK UNBOUND:                -1.481
REMARK SMILES CCCCCCCCCCCCCC[C@@H](C)C(=O)[O-]
REMARK SMILES IDX 9 1 10 2 11 3 12 4 13 5 14 6 15 7 16 8 17 9 18 10 19 11 8 12
REMARK SMILES IDX 7 13 6 14 5 15 4 16 3 17 2 18 1 19
REMARK H PARENT
REMARK Flexibility Score: inf
ROOT
ATOM      1  C   UNL     1      -6.912  -6.510   0.063  1.00  0.00     0.000 C 
ENDROOT
BRANCH   1   2
ATOM      2  C   UNL     1      -5.809  -5.804   0.864  1.00  0.00     0.000 C 
BRANCH   2   3
ATOM      3  C   UNL     1      -6.381  -4.635   1.674  1.00  0.00     0.000 C 
BRANCH   3   4
ATOM      4  C   UNL     1      -7.584  -5.086   2.517  1.00  0.00     0.000 C 
BRANCH   4   5
ATOM      5  C   UNL     1      -8.688  -4.020   2.593  1.00  0.00     0.001 C 
BRANCH   5   6
ATOM      6  C   UNL     1     -10.096  -4.613   2.388  1.00  0.00     0.009 C 
BRANCH   6   7
ATOM      7  C   UNL     1     -10.102  -6.071   1.876  1.00  0.00     0.032 C 
ATOM      8  C   UNL     1     -10.661  -7.058   2.910  1.00  0.00     0.014 C 
BRANCH   7   9
ATOM      9  C   UNL     1     -10.809  -6.192   0.551  1.00  0.00     0.044 C 
ATOM     10  O   UNL     1     -10.848  -7.304  -0.038  1.00  0.00    -0.550 OA
ATOM     11  O   UNL     1     -11.378  -5.079  -0.058  1.00  0.00    -0.550 OA
ENDBRANCH   7   9
ENDBRANCH   6   7
ENDBRANCH   5   6
ENDBRANCH   4   5
ENDBRANCH   3   4
ENDBRANCH   2   3
ENDBRANCH   1   2
BRANCH   1  12
ATOM     12  C   UNL     1      -6.641  -8.012  -0.125  1.00  0.00     0.000 C 
BRANCH  12  13
ATOM     13  C   UNL     1      -7.884  -8.875   0.134  1.00  0.00    -0.000 C 
BRANCH  13  14
ATOM     14  C   UNL     1      -7.997  -9.241   1.622  1.00  0.00    -0.000 C 
BRANCH  14  15
ATOM     15  C   UNL     1      -6.643  -9.210   2.346  1.00  0.00    -0.000 C 
BRANCH  15  16
ATOM     16  C   UNL     1      -5.757 -10.416   1.998  1.00  0.00    -0.000 C 
BRANCH  16  17
ATOM     17  C   UNL     1      -6.583 -11.707   1.949  1.00  0.00    -0.000 C 
BRANCH  17  18
ATOM     18  C   UNL     1      -6.323 -12.477   0.649  1.00  0.00    -0.003 C 
ATOM     19  C   UNL     1      -5.435 -11.676  -0.299  1.00  0.00     0.004 C 
ENDBRANCH  17  18
ENDBRANCH  16  17
ENDBRANCH  15  16
ENDBRANCH  14  15
ENDBRANCH  13  14
ENDBRANCH  12  13
ENDBRANCH   1  12
TORSDOF 14
ENDMDL
MODEL 4
REMARK VINA RESULT:    -4.083      2.061      4.326
REMARK INTER + INTRA:          -8.907
REMARK INTER:                  -8.208
REMARK INTRA:                  -0.698
REMARK UNBOUND:                -1.481
REMARK SMILES CCCCCCCCCCCCCC[C@@H](C)C(=O)[O-]
REMARK SMILES IDX 9 1 10 2 11 3 12 4 13 5 14 6 15 7 16 8 17 9 18 10 19 11 8 12
REMARK SMILES IDX 7 13 6 14 5 15 4 16 3 17 2 18 1 19
REMARK H PARENT
REMARK Flexibility Score: inf
ROOT
ATOM      1  C   UNL     1      -6.087 -13.004   0.193  1.00  0.00     0.000 C 
ENDROOT
BRANCH   1   2
ATOM      2  C   UNL     1      -5.900 -11.565  -0.308  1.00  0.00     0.000 C 
BRANCH   2   3
ATOM      3  C   UNL     1      -6.973 -10.637   0.276  1.00  0.00     0.000 C 
BRANCH   3   4
ATOM      4  C   UNL     1      -6.530  -9.168   0.200  1.00  0.00     0.000 C 
BRANCH   4   5
ATOM      5  C   UNL     1      -7.592  -8.261  -0.442  1.00  0.00     0.001 C 
BRANCH   5   6
ATOM      6  C   UNL     1      -9.001  -8.500   0.136  1.00  0.00     0.009 C 
BRANCH   6   7
ATOM      7  C   UNL     1      -9.388  -7.537   1.281  1.00  0.00     0.032 C 
ATOM      8  C   UNL     1      -8.288  -6.511   1.586  1.00  0.00     0.014 C 
BRANCH   7   9
ATOM      9  C   UNL     1     -10.715  -6.871   1.024  1.00  0.00     0.044 C 
ATOM     10  O   UNL     1     -11.309  -6.277   1.961  1.00  0.00    -0.550 OA
ATOM     11  O   UNL     1     -11.320  -6.947  -0.226  1.00  0.00    -0.550 OA
ENDBRANCH   7   9
ENDBRANCH   6   7
ENDBRANCH   5   6
ENDBRANCH   4   5
ENDBRANCH   3   4
ENDBRANCH   2   3
ENDBRANCH   1   2
BRANCH   1  12
ATOM     12  C   UNL     1      -6.554 -13.067   1.657  1.00  0.00     0.000 C 
BRANCH  12  13
ATOM     13  C   UNL     1      -6.868 -14.498   2.117  1.00  0.00    -0.000 C 
BRANCH  13  14
ATOM     14  C   UNL     1      -6.041 -15.523   1.324  1.00  0.00    -0.000 C 
BRANCH  14  15
ATOM     15  C   UNL     1      -6.896 -16.670   0.763  1.00  0.00    -0.000 C 
BRANCH  15  16
ATOM     16  C   UNL     1      -6.268 -18.050   1.006  1.00  0.00    -0.000 C 
BRANCH  16  17
ATOM     17  C   UNL     1      -5.535 -18.547  -0.246  1.00  0.00    -0.000 C 
BRANCH  17  18
ATOM     18  C   UNL     1      -5.926 -19.992  -0.576  1.00  0.00    -0.003 C 
ATOM     19  C   UNL     1      -7.440 -20.176  -0.537  1.00  0.00     0.004 C 
ENDBRANCH  17  18
ENDBRANCH  16  17
ENDBRANCH  15  16
ENDBRANCH  14  15
ENDBRANCH  13  14
ENDBRANCH  12  13
ENDBRANCH   1  12
TORSDOF 14
ENDMDL
MODEL 5
REMARK VINA RESULT:    -4.083      2.084      3.086
REMARK INTER + INTRA:          -8.906
REMARK INTER:                  -7.233
REMARK INTRA:                  -1.672
REMARK UNBOUND:                -1.481
REMARK SMILES CCCCCCCCCCCCCC[C@@H](C)C(=O)[O-]
REMARK SMILES IDX 9 1 10 2 11 3 12 4 13 5 14 6 15 7 16 8 17 9 18 10 19 11 8 12
REMARK SMILES IDX 7 13 6 14 5 15 4 16 3 17 2 18 1 19
REMARK H PARENT
REMARK Flexibility Score: inf
ROOT
ATOM      1  C   UNL     1      -8.088  -8.468  -0.259  1.00  0.00     0.000 C 
ENDROOT
BRANCH   1   2
ATOM      2  C   UNL     1      -9.477  -8.414   0.395  1.00  0.00     0.000 C 
BRANCH   2   3
ATOM      3  C   UNL     1     -10.135  -7.047   0.174  1.00  0.00     0.000 C 
BRANCH   3   4
ATOM      4  C   UNL     1     -10.999  -6.651   1.380  1.00  0.00     0.000 C 
BRANCH   4   5
ATOM      5  C   UNL     1     -10.173  -6.062   2.535  1.00  0.00     0.001 C 
BRANCH   5   6
ATOM      6  C   UNL     1      -9.099  -5.070   2.047  1.00  0.00     0.009 C 
BRANCH   6   7
ATOM      7  C   UNL     1      -7.690  -5.324   2.629  1.00  0.00     0.032 C 
ATOM      8  C   UNL     1      -7.496  -6.774   3.095  1.00  0.00     0.014 C 
BRANCH   7   9
ATOM      9  C   UNL     1      -6.607  -4.898   1.671  1.00  0.00     0.044 C 
ATOM     10  O   UNL     1      -6.210  -3.703   1.667  1.00  0.00    -0.550 OA
ATOM     11  O   UNL     1      -6.073  -5.796   0.754  1.00  0.00    -0.550 OA
ENDBRANCH   7   9
ENDBRANCH   6   7
ENDBRANCH   5   6
ENDBRANCH   4   5
ENDBRANCH   3   4
ENDBRANCH   2   3
ENDBRANCH   1   2
BRANCH   1  12
ATOM     12  C   UNL     1      -7.155  -9.490   0.412  1.00  0.00     0.000 C 
BRANCH  12  13
ATOM     13  C   UNL     1      -6.630 -10.547  -0.571  1.00  0.00    -0.000 C 
BRANCH  13  14
ATOM     14  C   UNL     1      -5.379 -11.241  -0.011  1.00  0.00    -0.000 C 
BRANCH  14  15
ATOM     15  C   UNL     1      -5.210 -11.034   1.502  1.00  0.00    -0.000 C 
BRANCH  15  16
ATOM     16  C   UNL     1      -5.279 -12.349   2.291  1.00  0.00    -0.000 C 
BRANCH  16  17
ATOM     17  C   UNL     1      -6.712 -12.893   2.328  1.00  0.00    -0.000 C 
BRANCH  17  18
ATOM     18  C   UNL     1      -6.734 -14.404   2.065  1.00  0.00    -0.003 C 
ATOM     19  C   UNL     1      -6.684 -14.704   0.570  1.00  0.00     0.004 C 
ENDBRANCH  17  18
ENDBRANCH  16  17
ENDBRANCH  15  16
ENDBRANCH  14  15
ENDBRANCH  13  14
ENDBRANCH  12  13
ENDBRANCH   1  12
TORSDOF 14
ENDMDL
MODEL 6
REMARK VINA RESULT:    -3.973      3.458      7.605
REMARK INTER + INTRA:          -8.706
REMARK INTER:                  -6.898
REMARK INTRA:                  -1.808
REMARK UNBOUND:                -1.481
REMARK SMILES CCCCCCCCCCCCCC[C@@H](C)C(=O)[O-]
REMARK SMILES IDX 9 1 10 2 11 3 12 4 13 5 14 6 15 7 16 8 17 9 18 10 19 11 8 12
REMARK SMILES IDX 7 13 6 14 5 15 4 16 3 17 2 18 1 19
REMARK H PARENT
REMARK Flexibility Score: inf
ROOT
ATOM      1  C   UNL     1      -7.458  -7.790  -0.249  1.00  0.00     0.000 C 
ENDROOT
BRANCH   1   2
ATOM      2  C   UNL     1      -7.707  -8.982   0.685  1.00  0.00     0.000 C 
BRANCH   2   3
ATOM      3  C   UNL     1      -7.634 -10.307  -0.084  1.00  0.00     0.000 C 
BRANCH   3   4
ATOM      4  C   UNL     1      -6.179 -10.678  -0.407  1.00  0.00     0.000 C 
BRANCH   4   5
ATOM      5  C   UNL     1      -5.471 -11.377   0.765  1.00  0.00     0.001 C 
BRANCH   5   6
ATOM      6  C   UNL     1      -5.697 -12.902   0.767  1.00  0.00     0.009 C 
BRANCH   6   7
ATOM      7  C   UNL     1      -6.043 -13.489   2.153  1.00  0.00     0.032 C 
ATOM      8  C   UNL     1      -7.060 -12.633   2.920  1.00  0.00     0.014 C 
BRANCH   7   9
ATOM      9  C   UNL     1      -6.487 -14.926   2.054  1.00  0.00     0.044 C 
ATOM     10  O   UNL     1      -7.113 -15.319   1.036  1.00  0.00    -0.550 OA
ATOM     11  O   UNL     1      -6.258 -15.816   3.099  1.00  0.00    -0.550 OA
ENDBRANCH   7   9
ENDBRANCH   6   7
ENDBRANCH   5   6
ENDBRANCH   4   5
ENDBRANCH   3   4
ENDBRANCH   2   3
ENDBRANCH   1   2
BRANCH   1  12
ATOM     12  C   UNL     1      -6.437  -6.792   0.321  1.00  0.00     0.000 C 
BRANCH  12  13
ATOM     13  C   UNL     1      -6.066  -7.092   1.780  1.00  0.00    -0.000 C 
BRANCH  13  14
ATOM     14  C   UNL     1      -6.847  -6.184   2.742  1.00  0.00    -0.000 C 
BRANCH  14  15
ATOM     15  C   UNL     1      -7.429  -4.943   2.048  1.00  0.00    -0.000 C 
BRANCH  15  16
ATOM     16  C   UNL     1      -8.913  -4.722   2.376  1.00  0.00    -0.000 C 
BRANCH  16  17
ATOM     17  C   UNL     1      -9.755  -5.930   1.949  1.00  0.00    -0.000 C 
BRANCH  17  18
ATOM     18  C   UNL     1     -10.471  -5.659   0.620  1.00  0.00    -0.003 C 
ATOM     19  C   UNL     1     -11.122  -6.927   0.076  1.00  0.00     0.004 C 
ENDBRANCH  17  18
ENDBRANCH  16  17
ENDBRANCH  15  16
ENDBRANCH  14  15
ENDBRANCH  13  14
ENDBRANCH  12  13
ENDBRANCH   1  12
TORSDOF 14
ENDMDL
MODEL 7
REMARK VINA RESULT:    -3.969      1.194      2.067
REMARK INTER + INTRA:          -8.698
REMARK INTER:                  -7.435
REMARK INTRA:                  -1.263
REMARK UNBOUND:                -1.481
REMARK SMILES CCCCCCCCCCCCCC[C@@H](C)C(=O)[O-]
REMARK SMILES IDX 9 1 10 2 11 3 12 4 13 5 14 6 15 7 16 8 17 9 18 10 19 11 8 12
REMARK SMILES IDX 7 13 6 14 5 15 4 16 3 17 2 18 1 19
REMARK H PARENT
REMARK Flexibility Score: inf
ROOT
ATOM      1  C   UNL     1      -7.284  -9.393   0.268  1.00  0.00     0.000 C 
ENDROOT
BRANCH   1   2
ATOM      2  C   UNL     1      -7.239  -8.076  -0.520  1.00  0.00     0.000 C 
BRANCH   2   3
ATOM      3  C   UNL     1      -6.390  -7.028   0.211  1.00  0.00     0.000 C 
BRANCH   3   4
ATOM      4  C   UNL     1      -6.214  -7.398   1.692  1.00  0.00     0.000 C 
BRANCH   4   5
ATOM      5  C   UNL     1      -6.677  -6.282   2.641  1.00  0.00     0.001 C 
BRANCH   5   6
ATOM      6  C   UNL     1      -7.632  -5.284   1.958  1.00  0.00     0.009 C 
BRANCH   6   7
ATOM      7  C   UNL     1      -9.102  -5.395   2.421  1.00  0.00     0.032 C 
ATOM      8  C   UNL     1      -9.797  -4.029   2.515  1.00  0.00     0.014 C 
BRANCH   7   9
ATOM      9  C   UNL     1      -9.884  -6.359   1.566  1.00  0.00     0.044 C 
ATOM     10  O   UNL     1      -9.891  -7.585   1.852  1.00  0.00    -0.550 OA
ATOM     11  O   UNL     1     -10.558  -5.920   0.432  1.00  0.00    -0.550 OA
ENDBRANCH   7   9
ENDBRANCH   6   7
ENDBRANCH   5   6
ENDBRANCH   4   5
ENDBRANCH   3   4
ENDBRANCH   2   3
ENDBRANCH   1   2
BRANCH   1  12
ATOM     12  C   UNL     1      -6.658 -10.567  -0.504  1.00  0.00     0.000 C 
BRANCH  12  13
ATOM     13  C   UNL     1      -5.467 -11.194   0.236  1.00  0.00    -0.000 C 
BRANCH  13  14
ATOM     14  C   UNL     1      -4.916 -12.402  -0.537  1.00  0.00    -0.000 C 
BRANCH  14  15
ATOM     15  C   UNL     1      -5.039 -13.717   0.248  1.00  0.00    -0.000 C 
BRANCH  15  16
ATOM     16  C   UNL     1      -6.367 -13.830   1.011  1.00  0.00    -0.000 C 
BRANCH  16  17
ATOM     17  C   UNL     1      -6.941 -15.248   0.908  1.00  0.00    -0.000 C 
BRANCH  17  18
ATOM     18  C   UNL     1      -5.820 -16.286   0.777  1.00  0.00    -0.003 C 
ATOM     19  C   UNL     1      -6.379 -17.706   0.800  1.00  0.00     0.004 C 
ENDBRANCH  17  18
ENDBRANCH  16  17
ENDBRANCH  15  16
ENDBRANCH  14  15
ENDBRANCH  13  14
ENDBRANCH  12  13
ENDBRANCH   1  12
TORSDOF 14
ENDMDL
MODEL 8
REMARK VINA RESULT:    -3.863     18.932     21.259
REMARK INTER + INTRA:          -8.505
REMARK INTER:                  -6.120
REMARK INTRA:                  -2.385
REMARK UNBOUND:                -1.481
REMARK SMILES CCCCCCCCCCCCCC[C@@H](C)C(=O)[O-]
REMARK SMILES IDX 9 1 10 2 11 3 12 4 13 5 14 6 15 7 16 8 17 9 18 10 19 11 8 12
REMARK SMILES IDX 7 13 6 14 5 15 4 16 3 17 2 18 1 19
REMARK H PARENT
REMARK Flexibility Score: inf
ROOT
ATOM      1  C   UNL     1     -23.066  -5.926 -15.448  1.00  0.00     0.000 C 
ENDROOT
BRANCH   1   2
ATOM      2  C   UNL     1     -24.423  -5.246 -15.678  1.00  0.00     0.000 C 
BRANCH   2   3
ATOM      3  C   UNL     1     -24.272  -4.009 -16.573  1.00  0.00     0.000 C 
BRANCH   3   4
ATOM      4  C   UNL     1     -23.757  -2.807 -15.768  1.00  0.00     0.000 C 
BRANCH   4   5
ATOM      5  C   UNL     1     -24.532  -2.594 -14.458  1.00  0.00     0.001 C 
BRANCH   5   6
ATOM      6  C   UNL     1     -23.820  -1.616 -13.503  1.00  0.00     0.009 C 
BRANCH   6   7
ATOM      7  C   UNL     1     -23.088  -2.299 -12.326  1.00  0.00     0.032 C 
ATOM      8  C   UNL     1     -23.422  -3.793 -12.210  1.00  0.00     0.014 C 
BRANCH   7   9
ATOM      9  C   UNL     1     -21.601  -2.064 -12.384  1.00  0.00     0.044 C 
ATOM     10  O   UNL     1     -20.918  -2.109 -11.328  1.00  0.00    -0.550 OA
ATOM     11  O   UNL     1     -20.976  -1.748 -13.586  1.00  0.00    -0.550 OA
ENDBRANCH   7   9
ENDBRANCH   6   7
ENDBRANCH   5   6
ENDBRANCH   4   5
ENDBRANCH   3   4
ENDBRANCH   2   3
ENDBRANCH   1   2
BRANCH   1  12
ATOM     12  C   UNL     1     -22.265  -6.108 -16.748  1.00  0.00     0.000 C 
BRANCH  12  13
ATOM     13  C   UNL     1     -20.775  -5.779 -16.576  1.00  0.00    -0.000 C 
BRANCH  13  14
ATOM     14  C   UNL     1     -20.559  -4.813 -15.400  1.00  0.00    -0.000 C 
BRANCH  14  15
ATOM     15  C   UNL     1     -19.616  -5.383 -14.329  1.00  0.00    -0.000 C 
BRANCH  15  16
ATOM     16  C   UNL     1     -20.301  -5.549 -12.964  1.00  0.00    -0.000 C 
BRANCH  16  17
ATOM     17  C   UNL     1     -20.686  -7.012 -12.717  1.00  0.00    -0.000 C 
BRANCH  17  18
ATOM     18  C   UNL     1     -19.988  -7.941 -13.718  1.00  0.00    -0.003 C 
ATOM     19  C   UNL     1     -20.338  -9.402 -13.450  1.00  0.00     0.004 C 
ENDBRANCH  17  18
ENDBRANCH  16  17
ENDBRANCH  15  16
ENDBRANCH  14  15
ENDBRANCH  13  14
ENDBRANCH  12  13
ENDBRANCH   1  12
TORSDOF 14
ENDMDL
MODEL 9
REMARK VINA RESULT:    -3.836     19.075     21.341
REMARK INTER + INTRA:          -8.457
REMARK INTER:                  -6.408
REMARK INTRA:                  -2.049
REMARK UNBOUND:                -1.481
REMARK SMILES CCCCCCCCCCCCCC[C@@H](C)C(=O)[O-]
REMARK SMILES IDX 9 1 10 2 11 3 12 4 13 5 14 6 15 7 16 8 17 9 18 10 19 11 8 12
REMARK SMILES IDX 7 13 6 14 5 15 4 16 3 17 2 18 1 19
REMARK H PARENT
REMARK Flexibility Score: inf
ROOT
ATOM      1  C   UNL     1     -20.912  -5.819 -12.950  1.00  0.00     0.000 C 
ENDROOT
BRANCH   1   2
ATOM      2  C   UNL     1     -19.847  -4.714 -13.003  1.00  0.00     0.000 C 
BRANCH   2   3
ATOM      3  C   UNL     1     -19.511  -4.344 -14.453  1.00  0.00     0.000 C 
BRANCH   3   4
ATOM      4  C   UNL     1     -20.117  -2.983 -14.828  1.00  0.00     0.000 C 
BRANCH   4   5
ATOM      5  C   UNL     1     -21.565  -3.097 -15.330  1.00  0.00     0.001 C 
BRANCH   5   6
ATOM      6  C   UNL     1     -22.526  -2.152 -14.581  1.00  0.00     0.009 C 
BRANCH   6   7
ATOM      7  C   UNL     1     -23.589  -2.877 -13.726  1.00  0.00     0.032 C 
ATOM      8  C   UNL     1     -24.021  -4.218 -14.333  1.00  0.00     0.014 C 
BRANCH   7   9
ATOM      9  C   UNL     1     -23.141  -3.033 -12.295  1.00  0.00     0.044 C 
ATOM     10  O   UNL     1     -22.131  -2.404 -11.883  1.00  0.00    -0.550 OA
ATOM     11  O   UNL     1     -23.799  -3.903 -11.433  1.00  0.00    -0.550 OA
ENDBRANCH   7   9
ENDBRANCH   6   7
ENDBRANCH   5   6
ENDBRANCH   4   5
ENDBRANCH   3   4
ENDBRANCH   2   3
ENDBRANCH   1   2
BRANCH   1  12
ATOM     12  C   UNL     1     -20.335  -7.214 -13.239  1.00  0.00     0.000 C 
BRANCH  12  13
ATOM     13  C   UNL     1     -20.857  -7.810 -14.554  1.00  0.00    -0.000 C 
BRANCH  13  14
ATOM     14  C   UNL     1     -21.853  -6.856 -15.231  1.00  0.00    -0.000 C 
BRANCH  14  15
ATOM     15  C   UNL     1     -22.445  -7.435 -16.525  1.00  0.00    -0.000 C 
BRANCH  15  16
ATOM     16  C   UNL     1     -23.978  -7.524 -16.488  1.00  0.00    -0.000 C 
BRANCH  16  17
ATOM     17  C   UNL     1     -24.445  -8.982 -16.548  1.00  0.00    -0.000 C 
BRANCH  17  18
ATOM     18  C   UNL     1     -23.261  -9.931 -16.769  1.00  0.00    -0.003 C 
ATOM     19  C   UNL     1     -23.119 -10.915 -15.611  1.00  0.00     0.004 C 
ENDBRANCH  17  18
ENDBRANCH  16  17
ENDBRANCH  15  16
ENDBRANCH  14  15
ENDBRANCH  13  14
ENDBRANCH  12  13
ENDBRANCH   1  12
TORSDOF 14
ENDMDL
