MODEL 1
REMARK VINA RESULT:     2.357      0.000      0.000
REMARK INTER + INTRA:           2.488
REMARK INTER:                   2.564
REMARK INTRA:                  -0.076
REMARK UNBOUND:                -0.076
REMARK SMILES C[C@@H]1[C@@H](C)CC[C@@]2(C(=O)[O-])CC[C@]3(C)C(=CC[C@@H]4[C@@]5(C)CC[C@H](O)C(C)(C)[C@@H]5CC[C@]43C)[C@@H]12
REMARK SMILES IDX 7 1 6 2 11 3 33 4 5 5 12 6 15 7 2 8 3 9 13 10 16 11 1 12
REMARK SMILES IDX 4 13 14 14 31 15 17 16 18 17 30 18 32 19 19 20 29 21 28 22
REMARK SMILES IDX 21 23 20 24 25 25 22 26 23 27 26 28 27 29 8 30 9 31 10 32
REMARK SMILES IDX 24 33
REMARK H PARENT 24 34
REMARK Flexibility Score: inf
ROOT
ATOM      1  C   UNL     1     -10.303  20.657 -10.660  1.00  0.00     0.017 C 
ATOM      2  C   UNL     1     -10.895  22.031 -11.066  1.00  0.00     0.014 C 
ATOM      3  C   UNL     1      -8.767  20.612 -11.002  1.00  0.00     0.014 C 
ATOM      4  C   UNL     1     -10.594  20.370  -9.139  1.00  0.00     0.030 C 
ATOM      5  C   UNL     1     -10.457  23.173 -10.152  1.00  0.00     0.004 C 
ATOM      6  C   UNL     1      -7.857  19.932  -9.957  1.00  0.00     0.013 C 
ATOM      7  C   UNL     1      -9.881  19.078  -8.697  1.00  0.00    -0.063 C 
ATOM      8  C   UNL     1     -10.285  21.576  -8.177  1.00  0.00    -0.003 C 
ATOM      9  C   UNL     1     -10.892  22.910  -8.709  1.00  0.00    -0.011 C 
ATOM     10  C   UNL     1      -8.496  18.706  -9.233  1.00  0.00    -0.006 C 
ATOM     11  C   UNL     1     -10.496  18.245  -7.824  1.00  0.00    -0.027 C 
ATOM     12  C   UNL     1     -10.836  21.309  -6.756  1.00  0.00     0.008 C 
ATOM     13  C   UNL     1     -10.499  24.124  -7.845  1.00  0.00     0.008 C 
ATOM     14  C   UNL     1      -8.710  17.592 -10.322  1.00  0.00     0.017 C 
ATOM     15  C   UNL     1      -7.610  18.188  -7.992  1.00  0.00    -0.020 C 
ATOM     16  C   UNL     1      -9.817  17.081  -7.122  1.00  0.00     0.032 C 
ATOM     17  C   UNL     1      -8.300  16.876  -7.447  1.00  0.00     0.006 C 
ATOM     18  C   UNL     1      -6.138  17.877  -8.418  1.00  0.00     0.008 C 
ATOM     19  C   UNL     1      -7.544  19.280  -6.871  1.00  0.00     0.012 C 
ATOM     20  C   UNL     1      -7.484  16.042  -6.369  1.00  0.00    -0.025 C 
ATOM     21  C   UNL     1      -5.333  17.063  -7.386  1.00  0.00     0.005 C 
ATOM     22  C   UNL     1      -6.063  15.751  -6.995  1.00  0.00     0.003 C 
ATOM     23  C   UNL     1      -8.209  14.673  -6.164  1.00  0.00     0.010 C 
ATOM     24  C   UNL     1      -7.414  16.781  -4.991  1.00  0.00     0.012 C 
ATOM     25  C   UNL     1      -5.177  14.684  -6.230  1.00  0.00    -0.006 C 
ATOM     26  C   UNL     1      -7.384  13.644  -5.379  1.00  0.00     0.033 C 
ATOM     27  C   UNL     1      -6.021  13.383  -6.029  1.00  0.00     0.120 C 
ATOM     28  C   UNL     1      -4.627  15.202  -4.876  1.00  0.00     0.014 C 
ATOM     29  C   UNL     1      -3.949  14.304  -7.103  1.00  0.00     0.014 C 
ENDROOT
BRANCH   1  30
ATOM     30  C   UNL     1     -11.029  19.635 -11.538  1.00  0.00     0.048 C 
ATOM     31  O   UNL     1     -10.436  19.024 -12.468  1.00  0.00    -0.550 OA
ATOM     32  O   UNL     1     -12.370  19.348 -11.302  1.00  0.00    -0.550 OA
ENDBRANCH   1  30
BRANCH  27  33
ATOM     33  O   UNL     1      -5.323  12.452  -5.236  1.00  0.00    -0.393 OA
ATOM     34  H   UNL     1      -4.429  12.316  -5.647  1.00  0.00     0.210 HD
ENDBRANCH  27  33
TORSDOF 2
ENDMDL
