MODEL 1
REMARK VINA RESULT:    -4.770      0.000      0.000
REMARK INTER + INTRA:          -6.320
REMARK INTER:                  -6.164
REMARK INTRA:                  -0.156
REMARK UNBOUND:                -0.156
REMARK SMILES CCCCCCC(=O)[O-]
REMARK SMILES IDX 5 1 6 2 7 3 8 4 9 5 4 6 3 7 2 8 1 9
REMARK H PARENT
REMARK Flexibility Score: inf
ROOT
ATOM      1  C   UNL     1      76.261  20.505  30.313  1.00  0.00     0.006 C 
ENDROOT
BRANCH   1   2
ATOM      2  C   UNL     1      77.675  20.947  29.919  1.00  0.00     0.053 C 
BRANCH   2   3
ATOM      3  C   UNL     1      77.660  21.613  28.579  1.00  0.00     0.041 C 
ATOM      4  O   UNL     1      77.927  22.839  28.477  1.00  0.00    -0.550 OA
ATOM      5  O   UNL     1      77.303  20.889  27.449  1.00  0.00    -0.550 OA
ENDBRANCH   2   3
ENDBRANCH   1   2
BRANCH   1   6
ATOM      6  C   UNL     1      76.183  19.976  31.755  1.00  0.00     0.000 C 
BRANCH   6   7
ATOM      7  C   UNL     1      76.985  20.840  32.744  1.00  0.00    -0.000 C 
BRANCH   7   8
ATOM      8  C   UNL     1      76.262  21.020  34.089  1.00  0.00    -0.003 C 
ATOM      9  C   UNL     1      75.234  19.921  34.361  1.00  0.00     0.004 C 
ENDBRANCH   7   8
ENDBRANCH   6   7
ENDBRANCH   1   6
TORSDOF 5
ENDMDL
MODEL 2
REMARK VINA RESULT:    -4.325      3.223      5.216
REMARK INTER + INTRA:          -5.746
REMARK INTER:                  -5.636
REMARK INTRA:                  -0.110
REMARK UNBOUND:                -0.156
REMARK SMILES CCCCCCC(=O)[O-]
REMARK SMILES IDX 5 1 6 2 7 3 8 4 9 5 4 6 3 7 2 8 1 9
REMARK H PARENT
REMARK Flexibility Score: inf
ROOT
ATOM      1  C   UNL     1      76.910  20.594  31.263  1.00  0.00     0.006 C 
ENDROOT
BRANCH   1   2
ATOM      2  C   UNL     1      76.815  20.787  32.782  1.00  0.00     0.053 C 
BRANCH   2   3
ATOM      3  C   UNL     1      75.689  19.976  33.342  1.00  0.00     0.041 C 
ATOM      4  O   UNL     1      75.367  20.090  34.554  1.00  0.00    -0.550 OA
ATOM      5  O   UNL     1      75.026  19.059  32.537  1.00  0.00    -0.550 OA
ENDBRANCH   2   3
ENDBRANCH   1   2
BRANCH   1   6
ATOM      6  C   UNL     1      78.125  21.308  30.649  1.00  0.00     0.000 C 
BRANCH   6   7
ATOM      7  C   UNL     1      77.831  21.872  29.248  1.00  0.00    -0.000 C 
BRANCH   7   8
ATOM      8  C   UNL     1      77.363  20.789  28.263  1.00  0.00    -0.003 C 
ATOM      9  C   UNL     1      77.488  21.223  26.802  1.00  0.00     0.004 C 
ENDBRANCH   7   8
ENDBRANCH   6   7
ENDBRANCH   1   6
TORSDOF 5
ENDMDL
MODEL 3
REMARK VINA RESULT:    -4.048      1.117      1.891
REMARK INTER + INTRA:          -5.387
REMARK INTER:                  -5.300
REMARK INTRA:                  -0.087
REMARK UNBOUND:                -0.156
REMARK SMILES CCCCCCC(=O)[O-]
REMARK SMILES IDX 5 1 6 2 7 3 8 4 9 5 4 6 3 7 2 8 1 9
REMARK H PARENT
REMARK Flexibility Score: inf
ROOT
ATOM      1  C   UNL     1      77.229  20.725  29.029  1.00  0.00     0.006 C 
ENDROOT
BRANCH   1   2
ATOM      2  C   UNL     1      77.817  22.095  28.666  1.00  0.00     0.053 C 
BRANCH   2   3
ATOM      3  C   UNL     1      77.790  22.299  27.184  1.00  0.00     0.041 C 
ATOM      4  O   UNL     1      77.555  21.330  26.414  1.00  0.00    -0.550 OA
ATOM      5  O   UNL     1      78.074  23.549  26.650  1.00  0.00    -0.550 OA
ENDBRANCH   2   3
ENDBRANCH   1   2
BRANCH   1   6
ATOM      6  C   UNL     1      76.252  20.793  30.214  1.00  0.00     0.000 C 
BRANCH   6   7
ATOM      7  C   UNL     1      76.971  20.762  31.573  1.00  0.00    -0.000 C 
BRANCH   7   8
ATOM      8  C   UNL     1      76.116  20.121  32.678  1.00  0.00    -0.003 C 
ATOM      9  C   UNL     1      76.290  20.804  34.034  1.00  0.00     0.004 C 
ENDBRANCH   7   8
ENDBRANCH   6   7
ENDBRANCH   1   6
TORSDOF 5
ENDMDL
MODEL 4
REMARK VINA RESULT:    -3.936     12.310     13.604
REMARK INTER + INTRA:          -5.242
REMARK INTER:                  -4.894
REMARK INTRA:                  -0.348
REMARK UNBOUND:                -0.156
REMARK SMILES CCCCCCC(=O)[O-]
REMARK SMILES IDX 5 1 6 2 7 3 8 4 9 5 4 6 3 7 2 8 1 9
REMARK H PARENT
REMARK Flexibility Score: inf
ROOT
ATOM      1  C   UNL     1      69.994   8.184  33.424  1.00  0.00     0.006 C 
ENDROOT
BRANCH   1   2
ATOM      2  C   UNL     1      71.058   9.261  33.667  1.00  0.00     0.053 C 
BRANCH   2   3
ATOM      3  C   UNL     1      72.195   9.098  32.708  1.00  0.00     0.041 C 
ATOM      4  O   UNL     1      73.281   8.590  33.093  1.00  0.00    -0.550 OA
ATOM      5  O   UNL     1      72.072   9.553  31.402  1.00  0.00    -0.550 OA
ENDBRANCH   2   3
ENDBRANCH   1   2
BRANCH   1   6
ATOM      6  C   UNL     1      68.587   8.772  33.224  1.00  0.00     0.000 C 
BRANCH   6   7
ATOM      7  C   UNL     1      68.562  10.303  33.375  1.00  0.00    -0.000 C 
BRANCH   7   8
ATOM      8  C   UNL     1      68.110  11.014  32.090  1.00  0.00    -0.003 C 
ATOM      9  C   UNL     1      69.248  11.764  31.396  1.00  0.00     0.004 C 
ENDBRANCH   7   8
ENDBRANCH   6   7
ENDBRANCH   1   6
TORSDOF 5
ENDMDL
MODEL 5
REMARK VINA RESULT:    -3.875     14.152     15.412
REMARK INTER + INTRA:          -5.164
REMARK INTER:                  -4.798
REMARK INTRA:                  -0.366
REMARK UNBOUND:                -0.156
REMARK SMILES CCCCCCC(=O)[O-]
REMARK SMILES IDX 5 1 6 2 7 3 8 4 9 5 4 6 3 7 2 8 1 9
REMARK H PARENT
REMARK Flexibility Score: inf
ROOT
ATOM      1  C   UNL     1      64.200  18.482  37.319  1.00  0.00     0.006 C 
ENDROOT
BRANCH   1   2
ATOM      2  C   UNL     1      65.250  17.376  37.483  1.00  0.00     0.053 C 
BRANCH   2   3
ATOM      3  C   UNL     1      64.742  16.086  36.922  1.00  0.00     0.041 C 
ATOM      4  O   UNL     1      64.886  15.013  37.566  1.00  0.00    -0.550 OA
ATOM      5  O   UNL     1      64.153  16.059  35.664  1.00  0.00    -0.550 OA
ENDBRANCH   2   3
ENDBRANCH   1   2
BRANCH   1   6
ATOM      6  C   UNL     1      62.958  18.257  38.196  1.00  0.00     0.000 C 
BRANCH   6   7
ATOM      7  C   UNL     1      63.029  19.025  39.527  1.00  0.00    -0.000 C 
BRANCH   7   8
ATOM      8  C   UNL     1      63.551  18.155  40.682  1.00  0.00    -0.003 C 
ATOM      9  C   UNL     1      63.191  16.678  40.520  1.00  0.00     0.004 C 
ENDBRANCH   7   8
ENDBRANCH   6   7
ENDBRANCH   1   6
TORSDOF 5
ENDMDL
MODEL 6
REMARK VINA RESULT:    -3.836     14.300     15.683
REMARK INTER + INTRA:          -5.114
REMARK INTER:                  -4.874
REMARK INTRA:                  -0.240
REMARK UNBOUND:                -0.156
REMARK SMILES CCCCCCC(=O)[O-]
REMARK SMILES IDX 5 1 6 2 7 3 8 4 9 5 4 6 3 7 2 8 1 9
REMARK H PARENT
REMARK Flexibility Score: inf
ROOT
ATOM      1  C   UNL     1      68.056   8.148  33.136  1.00  0.00     0.006 C 
ENDROOT
BRANCH   1   2
ATOM      2  C   UNL     1      69.305   7.273  33.297  1.00  0.00     0.053 C 
BRANCH   2   3
ATOM      3  C   UNL     1      69.016   6.109  34.191  1.00  0.00     0.041 C 
ATOM      4  O   UNL     1      69.956   5.388  34.618  1.00  0.00    -0.550 OA
ATOM      5  O   UNL     1      67.703   5.790  34.513  1.00  0.00    -0.550 OA
ENDBRANCH   2   3
ENDBRANCH   1   2
BRANCH   1   6
ATOM      6  C   UNL     1      68.360   9.649  33.276  1.00  0.00     0.000 C 
BRANCH   6   7
ATOM      7  C   UNL     1      69.869   9.943  33.319  1.00  0.00    -0.000 C 
BRANCH   7   8
ATOM      8  C   UNL     1      70.297  10.976  32.264  1.00  0.00    -0.003 C 
ATOM      9  C   UNL     1      69.112  11.578  31.509  1.00  0.00     0.004 C 
ENDBRANCH   7   8
ENDBRANCH   6   7
ENDBRANCH   1   6
TORSDOF 5
ENDMDL
MODEL 7
REMARK VINA RESULT:    -3.794     14.527     15.966
REMARK INTER + INTRA:          -5.059
REMARK INTER:                  -4.656
REMARK INTRA:                  -0.403
REMARK UNBOUND:                -0.156
REMARK SMILES CCCCCCC(=O)[O-]
REMARK SMILES IDX 5 1 6 2 7 3 8 4 9 5 4 6 3 7 2 8 1 9
REMARK H PARENT
REMARK Flexibility Score: inf
ROOT
ATOM      1  C   UNL     1      63.506  15.776  38.885  1.00  0.00     0.006 C 
ENDROOT
BRANCH   1   2
ATOM      2  C   UNL     1      63.133  16.229  37.468  1.00  0.00     0.053 C 
BRANCH   2   3
ATOM      3  C   UNL     1      64.290  16.923  36.821  1.00  0.00     0.041 C 
ATOM      4  O   UNL     1      64.351  17.018  35.567  1.00  0.00    -0.550 OA
ATOM      5  O   UNL     1      65.325  17.423  37.601  1.00  0.00    -0.550 OA
ENDBRANCH   2   3
ENDBRANCH   1   2
BRANCH   1   6
ATOM      6  C   UNL     1      62.625  16.422  39.967  1.00  0.00     0.000 C 
BRANCH   6   7
ATOM      7  C   UNL     1      63.340  17.568  40.703  1.00  0.00    -0.000 C 
BRANCH   7   8
ATOM      8  C   UNL     1      63.084  18.937  40.051  1.00  0.00    -0.003 C 
ATOM      9  C   UNL     1      61.659  19.081  39.516  1.00  0.00     0.004 C 
ENDBRANCH   7   8
ENDBRANCH   6   7
ENDBRANCH   1   6
TORSDOF 5
ENDMDL
MODEL 8
REMARK VINA RESULT:    -3.766     13.108     14.121
REMARK INTER + INTRA:          -5.023
REMARK INTER:                  -4.631
REMARK INTRA:                  -0.391
REMARK UNBOUND:                -0.156
REMARK SMILES CCCCCCC(=O)[O-]
REMARK SMILES IDX 5 1 6 2 7 3 8 4 9 5 4 6 3 7 2 8 1 9
REMARK H PARENT
REMARK Flexibility Score: inf
ROOT
ATOM      1  C   UNL     1      71.953   9.918  32.453  1.00  0.00     0.006 C 
ENDROOT
BRANCH   1   2
ATOM      2  C   UNL     1      71.861   9.101  33.747  1.00  0.00     0.053 C 
BRANCH   2   3
ATOM      3  C   UNL     1      71.938   7.637  33.448  1.00  0.00     0.041 C 
ATOM      4  O   UNL     1      71.257   7.145  32.510  1.00  0.00    -0.550 OA
ATOM      5  O   UNL     1      72.724   6.807  34.236  1.00  0.00    -0.550 OA
ENDBRANCH   2   3
ENDBRANCH   1   2
BRANCH   1   6
ATOM      6  C   UNL     1      70.651  10.670  32.132  1.00  0.00     0.000 C 
BRANCH   6   7
ATOM      7  C   UNL     1      69.623  10.584  33.273  1.00  0.00    -0.000 C 
BRANCH   7   8
ATOM      8  C   UNL     1      68.293   9.961  32.822  1.00  0.00    -0.003 C 
ATOM      9  C   UNL     1      68.140   8.505  33.265  1.00  0.00     0.004 C 
ENDBRANCH   7   8
ENDBRANCH   6   7
ENDBRANCH   1   6
TORSDOF 5
ENDMDL
MODEL 9
REMARK VINA RESULT:    -3.747     12.788     14.023
REMARK INTER + INTRA:          -4.999
REMARK INTER:                  -4.750
REMARK INTRA:                  -0.248
REMARK UNBOUND:                -0.156
REMARK SMILES CCCCCCC(=O)[O-]
REMARK SMILES IDX 5 1 6 2 7 3 8 4 9 5 4 6 3 7 2 8 1 9
REMARK H PARENT
REMARK Flexibility Score: inf
ROOT
ATOM      1  C   UNL     1      70.832   9.675  33.436  1.00  0.00     0.006 C 
ENDROOT
BRANCH   1   2
ATOM      2  C   UNL     1      71.828   9.998  32.315  1.00  0.00     0.053 C 
BRANCH   2   3
ATOM      3  C   UNL     1      72.555   8.761  31.890  1.00  0.00     0.041 C 
ATOM      4  O   UNL     1      71.984   7.639  31.945  1.00  0.00    -0.550 OA
ATOM      5  O   UNL     1      73.879   8.840  31.479  1.00  0.00    -0.550 OA
ENDBRANCH   2   3
ENDBRANCH   1   2
BRANCH   1   6
ATOM      6  C   UNL     1      69.476  10.373  33.244  1.00  0.00     0.000 C 
BRANCH   6   7
ATOM      7  C   UNL     1      68.291   9.398  33.356  1.00  0.00    -0.000 C 
BRANCH   7   8
ATOM      8  C   UNL     1      68.738   7.958  33.653  1.00  0.00    -0.003 C 
ATOM      9  C   UNL     1      67.829   6.910  33.011  1.00  0.00     0.004 C 
ENDBRANCH   7   8
ENDBRANCH   6   7
ENDBRANCH   1   6
TORSDOF 5
ENDMDL
