MODEL 1
REMARK VINA RESULT:    -4.291      0.000      0.000
REMARK INTER + INTRA:          -4.291
REMARK INTER:                  -4.291
REMARK INTRA:                   0.000
REMARK UNBOUND:                 0.000
REMARK SMILES O=c1ccc2ccccc2o1
REMARK SMILES IDX 7 1 8 2 9 3 10 4 5 5 6 6 4 7 3 8 2 9 1 10 11 11
REMARK H PARENT
REMARK Flexibility Score: inf
ROOT
ATOM      1  C   UNL     1      20.895  41.011  30.005  1.00  0.00     0.001 A 
ATOM      2  C   UNL     1      20.529  40.010  29.099  1.00  0.00     0.004 A 
ATOM      3  C   UNL     1      20.774  40.176  27.732  1.00  0.00     0.048 A 
ATOM      4  C   UNL     1      21.386  41.344  27.266  1.00  0.00     0.138 A 
ATOM      5  C   UNL     1      21.757  42.355  28.180  1.00  0.00     0.018 A 
ATOM      6  C   UNL     1      21.509  42.184  29.550  1.00  0.00     0.012 A 
ATOM      7  C   UNL     1      22.367  43.511  27.685  1.00  0.00     0.019 A 
ATOM      8  C   UNL     1      22.591  43.632  26.314  1.00  0.00     0.094 A 
ATOM      9  C   UNL     1      22.199  42.590  25.467  1.00  0.00     0.336 A 
ATOM     10  O   UNL     1      22.393  42.681  24.227  1.00  0.00    -0.246 OA
ATOM     11  O   UNL     1      21.620  41.500  25.964  1.00  0.00    -0.423 OA
ENDROOT
TORSDOF 0
ENDMDL
MODEL 2
REMARK VINA RESULT:    -4.221      2.032      4.400
REMARK INTER + INTRA:          -4.221
REMARK INTER:                  -4.221
REMARK INTRA:                   0.000
REMARK UNBOUND:                 0.000
REMARK SMILES O=c1ccc2ccccc2o1
REMARK SMILES IDX 7 1 8 2 9 3 10 4 5 5 6 6 4 7 3 8 2 9 1 10 11 11
REMARK H PARENT
REMARK Flexibility Score: inf
ROOT
ATOM      1  C   UNL     1      22.369  42.890  25.622  1.00  0.00     0.001 A 
ATOM      2  C   UNL     1      22.658  43.841  26.606  1.00  0.00     0.004 A 
ATOM      3  C   UNL     1      22.345  43.585  27.946  1.00  0.00     0.048 A 
ATOM      4  C   UNL     1      21.741  42.375  28.305  1.00  0.00     0.138 A 
ATOM      5  C   UNL     1      21.450  41.414  27.312  1.00  0.00     0.018 A 
ATOM      6  C   UNL     1      21.765  41.676  25.970  1.00  0.00     0.012 A 
ATOM      7  C   UNL     1      20.846  40.214  27.701  1.00  0.00     0.019 A 
ATOM      8  C   UNL     1      20.552  40.002  29.048  1.00  0.00     0.094 A 
ATOM      9  C   UNL     1      20.870  40.999  29.977  1.00  0.00     0.336 A 
ATOM     10  O   UNL     1      20.613  40.825  31.197  1.00  0.00    -0.246 OA
ATOM     11  O   UNL     1      21.444  42.132  29.580  1.00  0.00    -0.423 OA
ENDROOT
TORSDOF 0
ENDMDL
MODEL 3
REMARK VINA RESULT:    -4.090      2.486      4.596
REMARK INTER + INTRA:          -4.090
REMARK INTER:                  -4.090
REMARK INTRA:                   0.000
REMARK UNBOUND:                 0.000
REMARK SMILES O=c1ccc2ccccc2o1
REMARK SMILES IDX 7 1 8 2 9 3 10 4 5 5 6 6 4 7 3 8 2 9 1 10 11 11
REMARK H PARENT
REMARK Flexibility Score: inf
ROOT
ATOM      1  C   UNL     1      23.113  47.189  27.526  1.00  0.00     0.001 A 
ATOM      2  C   UNL     1      22.953  47.578  26.192  1.00  0.00     0.004 A 
ATOM      3  C   UNL     1      22.682  46.621  25.208  1.00  0.00     0.048 A 
ATOM      4  C   UNL     1      22.571  45.271  25.556  1.00  0.00     0.138 A 
ATOM      5  C   UNL     1      22.733  44.877  26.903  1.00  0.00     0.018 A 
ATOM      6  C   UNL     1      23.004  45.841  27.885  1.00  0.00     0.012 A 
ATOM      7  C   UNL     1      22.616  43.520  27.221  1.00  0.00     0.019 A 
ATOM      8  C   UNL     1      22.346  42.602  26.206  1.00  0.00     0.094 A 
ATOM      9  C   UNL     1      22.198  43.064  24.894  1.00  0.00     0.336 A 
ATOM     10  O   UNL     1      21.953  42.250  23.966  1.00  0.00    -0.246 OA
ATOM     11  O   UNL     1      22.313  44.360  24.618  1.00  0.00    -0.423 OA
ENDROOT
TORSDOF 0
ENDMDL
MODEL 4
REMARK VINA RESULT:    -4.012      2.191      2.936
REMARK INTER + INTRA:          -4.012
REMARK INTER:                  -4.012
REMARK INTRA:                   0.000
REMARK UNBOUND:                 0.000
REMARK SMILES O=c1ccc2ccccc2o1
REMARK SMILES IDX 7 1 8 2 9 3 10 4 5 5 6 6 4 7 3 8 2 9 1 10 11 11
REMARK H PARENT
REMARK Flexibility Score: inf
ROOT
ATOM      1  C   UNL     1      20.810  40.245  28.879  1.00  0.00     0.001 A 
ATOM      2  C   UNL     1      21.242  40.498  27.572  1.00  0.00     0.004 A 
ATOM      3  C   UNL     1      21.759  41.753  27.232  1.00  0.00     0.048 A 
ATOM      4  C   UNL     1      21.846  42.760  28.199  1.00  0.00     0.138 A 
ATOM      5  C   UNL     1      21.410  42.506  29.518  1.00  0.00     0.018 A 
ATOM      6  C   UNL     1      20.892  41.246  29.853  1.00  0.00     0.012 A 
ATOM      7  C   UNL     1      21.508  43.532  30.463  1.00  0.00     0.019 A 
ATOM      8  C   UNL     1      22.031  44.767  30.079  1.00  0.00     0.094 A 
ATOM      9  C   UNL     1      22.443  44.947  28.754  1.00  0.00     0.336 A 
ATOM     10  O   UNL     1      22.918  46.054  28.389  1.00  0.00    -0.246 OA
ATOM     11  O   UNL     1      22.339  43.954  27.875  1.00  0.00    -0.423 OA
ENDROOT
TORSDOF 0
ENDMDL
MODEL 5
REMARK VINA RESULT:    -3.826      1.961      3.578
REMARK INTER + INTRA:          -3.826
REMARK INTER:                  -3.826
REMARK INTRA:                   0.000
REMARK UNBOUND:                 0.000
REMARK SMILES O=c1ccc2ccccc2o1
REMARK SMILES IDX 7 1 8 2 9 3 10 4 5 5 6 6 4 7 3 8 2 9 1 10 11 11
REMARK H PARENT
REMARK Flexibility Score: inf
ROOT
ATOM      1  C   UNL     1      22.781  45.816  28.810  1.00  0.00     0.001 A 
ATOM      2  C   UNL     1      22.226  45.214  29.944  1.00  0.00     0.004 A 
ATOM      3  C   UNL     1      21.768  43.893  29.886  1.00  0.00     0.048 A 
ATOM      4  C   UNL     1      21.865  43.169  28.693  1.00  0.00     0.138 A 
ATOM      5  C   UNL     1      22.426  43.777  27.548  1.00  0.00     0.018 A 
ATOM      6  C   UNL     1      22.883  45.101  27.611  1.00  0.00     0.012 A 
ATOM      7  C   UNL     1      22.510  43.029  26.369  1.00  0.00     0.019 A 
ATOM      8  C   UNL     1      22.041  41.715  26.359  1.00  0.00     0.094 A 
ATOM      9  C   UNL     1      21.498  41.179  27.531  1.00  0.00     0.336 A 
ATOM     10  O   UNL     1      21.071  39.995  27.541  1.00  0.00    -0.246 OA
ATOM     11  O   UNL     1      21.430  41.912  28.640  1.00  0.00    -0.423 OA
ENDROOT
TORSDOF 0
ENDMDL
MODEL 6
REMARK VINA RESULT:    -3.555      1.810      3.096
REMARK INTER + INTRA:          -3.555
REMARK INTER:                  -3.555
REMARK INTRA:                   0.000
REMARK UNBOUND:                 0.000
REMARK SMILES O=c1ccc2ccccc2o1
REMARK SMILES IDX 7 1 8 2 9 3 10 4 5 5 6 6 4 7 3 8 2 9 1 10 11 11
REMARK H PARENT
REMARK Flexibility Score: inf
ROOT
ATOM      1  C   UNL     1      21.501  44.094  31.331  1.00  0.00     0.001 A 
ATOM      2  C   UNL     1      22.047  45.155  30.602  1.00  0.00     0.004 A 
ATOM      3  C   UNL     1      22.340  44.997  29.243  1.00  0.00     0.048 A 
ATOM      4  C   UNL     1      22.087  43.776  28.608  1.00  0.00     0.138 A 
ATOM      5  C   UNL     1      21.534  42.705  29.345  1.00  0.00     0.018 A 
ATOM      6  C   UNL     1      21.243  42.868  30.707  1.00  0.00     0.012 A 
ATOM      7  C   UNL     1      21.292  41.496  28.684  1.00  0.00     0.019 A 
ATOM      8  C   UNL     1      21.600  41.385  27.328  1.00  0.00     0.094 A 
ATOM      9  C   UNL     1      22.144  42.489  26.663  1.00  0.00     0.336 A 
ATOM     10  O   UNL     1      22.428  42.407  25.439  1.00  0.00    -0.246 OA
ATOM     11  O   UNL     1      22.365  43.627  27.315  1.00  0.00    -0.423 OA
ENDROOT
TORSDOF 0
ENDMDL
MODEL 7
REMARK VINA RESULT:    -3.294      2.067      3.073
REMARK INTER + INTRA:          -3.294
REMARK INTER:                  -3.294
REMARK INTRA:                   0.000
REMARK UNBOUND:                 0.000
REMARK SMILES O=c1ccc2ccccc2o1
REMARK SMILES IDX 7 1 8 2 9 3 10 4 5 5 6 6 4 7 3 8 2 9 1 10 11 11
REMARK H PARENT
REMARK Flexibility Score: inf
ROOT
ATOM      1  C   UNL     1      22.050  45.376  31.138  1.00  0.00     0.001 A 
ATOM      2  C   UNL     1      21.564  44.081  31.348  1.00  0.00     0.004 A 
ATOM      3  C   UNL     1      21.516  43.168  30.290  1.00  0.00     0.048 A 
ATOM      4  C   UNL     1      21.954  43.546  29.017  1.00  0.00     0.138 A 
ATOM      5  C   UNL     1      22.445  44.854  28.804  1.00  0.00     0.018 A 
ATOM      6  C   UNL     1      22.491  45.766  29.868  1.00  0.00     0.012 A 
ATOM      7  C   UNL     1      22.876  45.204  27.520  1.00  0.00     0.019 A 
ATOM      8  C   UNL     1      22.809  44.259  26.495  1.00  0.00     0.094 A 
ATOM      9  C   UNL     1      22.311  42.983  26.780  1.00  0.00     0.336 A 
ATOM     10  O   UNL     1      22.244  42.118  25.868  1.00  0.00    -0.246 OA
ATOM     11  O   UNL     1      21.908  42.676  28.010  1.00  0.00    -0.423 OA
ENDROOT
TORSDOF 0
ENDMDL
MODEL 8
REMARK VINA RESULT:    -3.159     14.747     16.099
REMARK INTER + INTRA:          -3.159
REMARK INTER:                  -3.159
REMARK INTRA:                   0.000
REMARK UNBOUND:                 0.000
REMARK SMILES O=c1ccc2ccccc2o1
REMARK SMILES IDX 7 1 8 2 9 3 10 4 5 5 6 6 4 7 3 8 2 9 1 10 11 11
REMARK H PARENT
REMARK Flexibility Score: inf
ROOT
ATOM      1  C   UNL     1      15.241  29.372  18.611  1.00  0.00     0.001 A 
ATOM      2  C   UNL     1      16.335  30.123  19.054  1.00  0.00     0.004 A 
ATOM      3  C   UNL     1      16.685  30.124  20.409  1.00  0.00     0.048 A 
ATOM      4  C   UNL     1      15.940  29.374  21.325  1.00  0.00     0.138 A 
ATOM      5  C   UNL     1      14.835  28.616  20.878  1.00  0.00     0.018 A 
ATOM      6  C   UNL     1      14.489  28.619  19.519  1.00  0.00     0.012 A 
ATOM      7  C   UNL     1      14.109  27.877  21.818  1.00  0.00     0.019 A 
ATOM      8  C   UNL     1      14.495  27.908  23.158  1.00  0.00     0.094 A 
ATOM      9  C   UNL     1      15.601  28.681  23.528  1.00  0.00     0.336 A 
ATOM     10  O   UNL     1      15.964  28.721  24.733  1.00  0.00    -0.246 OA
ATOM     11  O   UNL     1      16.274  29.375  22.615  1.00  0.00    -0.423 OA
ENDROOT
TORSDOF 0
ENDMDL
