MODEL 1
REMARK VINA RESULT:    -6.455      0.000      0.000
REMARK INTER + INTRA:          -8.089
REMARK INTER:                  -8.719
REMARK INTRA:                   0.630
REMARK UNBOUND:                 0.630
REMARK SMILES O=c1c(-c2ccc(O)cc2)coc2c([C@H]3O[C@H](CO)[C@H](O)[C@H](O)[C@@H]3O)c(O)ccc12
REMARK SMILES IDX 3 1 11 2 12 3 13 4 30 5 2 6 1 7 29 8 28 9 26 10 14 11 4 12
REMARK SMILES IDX 5 13 6 14 7 15 10 16 9 17 8 18 15 20 24 21 16 22 22 23 17 24
REMARK SMILES IDX 20 25 25 26 23 28 18 30 19 31 21 33 27 35
REMARK H PARENT 8 19 25 27 23 29 19 32 21 34 27 36
REMARK Flexibility Score: inf
ROOT
ATOM      1  C   UNL     1      16.107   5.937  12.857  1.00  0.00     0.065 A 
ATOM      2  C   UNL     1      15.545   6.723  13.871  1.00  0.00     0.208 A 
ATOM      3  O   UNL     1      15.127   7.957  13.623  1.00  0.00    -0.463 OA
ATOM      4  C   UNL     1      15.205   8.532  12.424  1.00  0.00     0.147 A 
ATOM      5  C   UNL     1      15.743   7.800  11.339  1.00  0.00     0.066 A 
ATOM      6  C   UNL     1      16.195   6.488  11.567  1.00  0.00     0.200 A 
ATOM      7  O   UNL     1      16.659   5.799  10.614  1.00  0.00    -0.288 OA
ATOM      8  C   UNL     1      15.803   8.387  10.072  1.00  0.00     0.020 A 
ATOM      9  C   UNL     1      15.318   9.675   9.875  1.00  0.00     0.047 A 
ATOM     10  C   UNL     1      14.779  10.416  10.936  1.00  0.00     0.125 A 
ATOM     11  C   UNL     1      14.747   9.865  12.250  1.00  0.00     0.069 A 
ENDROOT
BRANCH   1  12
ATOM     12  C   UNL     1      16.581   4.563  13.161  1.00  0.00    -0.011 A 
ATOM     13  C   UNL     1      17.957   4.298  13.284  1.00  0.00     0.013 A 
ATOM     14  C   UNL     1      18.406   3.004  13.563  1.00  0.00     0.047 A 
ATOM     15  C   UNL     1      17.487   1.957  13.715  1.00  0.00     0.115 A 
ATOM     16  C   UNL     1      15.666   3.506  13.310  1.00  0.00     0.013 A 
ATOM     17  C   UNL     1      16.118   2.212  13.587  1.00  0.00     0.047 A 
BRANCH  15  18
ATOM     18  O   UNL     1      17.923   0.664  13.993  1.00  0.00    -0.508 OA
ATOM     19  H   UNL     1      18.488   0.142  13.333  1.00  0.00     0.293 HD
ENDBRANCH  15  18
ENDBRANCH   1  12
BRANCH  11  20
ATOM     20  C   UNL     1      14.204  10.589  13.505  1.00  0.00     0.188 C 
ATOM     21  C   UNL     1      13.365   9.813  14.557  1.00  0.00     0.179 C 
ATOM     22  O   UNL     1      13.535  11.794  13.151  1.00  0.00    -0.362 OA
ATOM     23  C   UNL     1      11.929   9.563  14.030  1.00  0.00     0.177 C 
ATOM     24  C   UNL     1      12.284  11.535  12.528  1.00  0.00     0.176 C 
ATOM     25  C   UNL     1      11.304  10.873  13.519  1.00  0.00     0.177 C 
BRANCH  21  26
ATOM     26  O   UNL     1      13.309  10.589  15.730  1.00  0.00    -0.387 OA
ATOM     27  H   UNL     1      14.229  10.908  15.917  1.00  0.00     0.211 HD
ENDBRANCH  21  26
BRANCH  23  28
ATOM     28  O   UNL     1      11.120   9.004  15.032  1.00  0.00    -0.387 OA
ATOM     29  H   UNL     1      11.610   9.118  15.889  1.00  0.00     0.211 HD
ENDBRANCH  23  28
BRANCH  24  30
ATOM     30  C   UNL     1      11.727  12.845  11.952  1.00  0.00     0.191 C 
BRANCH  30  31
ATOM     31  O   UNL     1      11.548  12.739  10.566  1.00  0.00    -0.394 OA
ATOM     32  H   UNL     1      11.104  13.580  10.282  1.00  0.00     0.210 HD
ENDBRANCH  30  31
ENDBRANCH  24  30
BRANCH  25  33
ATOM     33  O   UNL     1      11.038  11.742  14.592  1.00  0.00    -0.388 OA
ATOM     34  H   UNL     1      10.487  11.237  15.246  1.00  0.00     0.211 HD
ENDBRANCH  25  33
ENDBRANCH  11  20
BRANCH  10  35
ATOM     35  O   UNL     1      14.277  11.682  10.652  1.00  0.00    -0.507 OA
ATOM     36  H   UNL     1      14.641  12.250   9.895  1.00  0.00     0.293 HD
ENDBRANCH  10  35
TORSDOF 9
ENDMDL
MODEL 2
REMARK VINA RESULT:    -6.124      2.127      3.532
REMARK INTER + INTRA:          -7.642
REMARK INTER:                  -7.908
REMARK INTRA:                   0.266
REMARK UNBOUND:                 0.630
REMARK SMILES O=c1c(-c2ccc(O)cc2)coc2c([C@H]3O[C@H](CO)[C@H](O)[C@H](O)[C@@H]3O)c(O)ccc12
REMARK SMILES IDX 3 1 11 2 12 3 13 4 30 5 2 6 1 7 29 8 28 9 26 10 14 11 4 12
REMARK SMILES IDX 5 13 6 14 7 15 10 16 9 17 8 18 15 20 24 21 16 22 22 23 17 24
REMARK SMILES IDX 20 25 25 26 23 28 18 30 19 31 21 33 27 35
REMARK H PARENT 8 19 25 27 23 29 19 32 21 34 27 36
REMARK Flexibility Score: inf
ROOT
ATOM      1  C   UNL     1      16.496   4.155  10.923  1.00  0.00     0.065 A 
ATOM      2  C   UNL     1      15.239   4.742  11.121  1.00  0.00     0.208 A 
ATOM      3  O   UNL     1      15.082   6.057  11.046  1.00  0.00    -0.463 OA
ATOM      4  C   UNL     1      16.078   6.902  10.785  1.00  0.00     0.147 A 
ATOM      5  C   UNL     1      17.377   6.390  10.553  1.00  0.00     0.066 A 
ATOM      6  C   UNL     1      17.579   5.000  10.624  1.00  0.00     0.200 A 
ATOM      7  O   UNL     1      18.721   4.510  10.399  1.00  0.00    -0.288 OA
ATOM      8  C   UNL     1      18.422   7.269  10.251  1.00  0.00     0.020 A 
ATOM      9  C   UNL     1      18.181   8.635  10.159  1.00  0.00     0.047 A 
ATOM     10  C   UNL     1      16.901   9.161  10.382  1.00  0.00     0.125 A 
ATOM     11  C   UNL     1      15.825   8.299  10.739  1.00  0.00     0.069 A 
ENDROOT
BRANCH   1  12
ATOM     12  C   UNL     1      16.650   2.682  11.025  1.00  0.00    -0.011 A 
ATOM     13  C   UNL     1      16.877   2.077  12.274  1.00  0.00     0.013 A 
ATOM     14  C   UNL     1      17.030   0.691  12.371  1.00  0.00     0.047 A 
ATOM     15  C   UNL     1      16.965  -0.107  11.222  1.00  0.00     0.115 A 
ATOM     16  C   UNL     1      16.592   1.874   9.875  1.00  0.00     0.013 A 
ATOM     17  C   UNL     1      16.747   0.488   9.976  1.00  0.00     0.047 A 
BRANCH  15  18
ATOM     18  O   UNL     1      17.117  -1.488  11.308  1.00  0.00    -0.508 OA
ATOM     19  H   UNL     1      16.557  -2.119  10.745  1.00  0.00     0.293 HD
ENDBRANCH  15  18
ENDBRANCH   1  12
BRANCH  11  20
ATOM     20  C   UNL     1      14.378   8.758  11.035  1.00  0.00     0.188 C 
ATOM     21  C   UNL     1      13.897  10.169  10.598  1.00  0.00     0.179 C 
ATOM     22  O   UNL     1      14.041   8.539  12.401  1.00  0.00    -0.362 OA
ATOM     23  C   UNL     1      14.478  11.257  11.536  1.00  0.00     0.177 C 
ATOM     24  C   UNL     1      14.708   9.453  13.259  1.00  0.00     0.176 C 
ATOM     25  C   UNL     1      14.219  10.895  13.010  1.00  0.00     0.177 C 
BRANCH  21  26
ATOM     26  O   UNL     1      12.491  10.191  10.664  1.00  0.00    -0.387 OA
ATOM     27  H   UNL     1      12.149   9.842   9.800  1.00  0.00     0.211 HD
ENDBRANCH  21  26
BRANCH  23  28
ATOM     28  O   UNL     1      13.924  12.514  11.247  1.00  0.00    -0.387 OA
ATOM     29  H   UNL     1      14.135  12.705  10.294  1.00  0.00     0.211 HD
ENDBRANCH  23  28
BRANCH  24  30
ATOM     30  C   UNL     1      14.505   9.017  14.717  1.00  0.00     0.191 C 
BRANCH  30  31
ATOM     31  O   UNL     1      14.160  10.114  15.518  1.00  0.00    -0.394 OA
ATOM     32  H   UNL     1      14.755  10.072  16.311  1.00  0.00     0.210 HD
ENDBRANCH  30  31
ENDBRANCH  24  30
BRANCH  25  33
ATOM     33  O   UNL     1      12.849  11.001  13.309  1.00  0.00    -0.388 OA
ATOM     34  H   UNL     1      12.619  10.235  13.897  1.00  0.00     0.211 HD
ENDBRANCH  25  33
ENDBRANCH  11  20
BRANCH  10  35
ATOM     35  O   UNL     1      16.731  10.534  10.231  1.00  0.00    -0.507 OA
ATOM     36  H   UNL     1      16.462  10.951   9.347  1.00  0.00     0.293 HD
ENDBRANCH  10  35
TORSDOF 9
ENDMDL
MODEL 3
REMARK VINA RESULT:    -6.122      1.894      7.857
REMARK INTER + INTRA:          -7.640
REMARK INTER:                  -7.753
REMARK INTRA:                   0.113
REMARK UNBOUND:                 0.630
REMARK SMILES O=c1c(-c2ccc(O)cc2)coc2c([C@H]3O[C@H](CO)[C@H](O)[C@H](O)[C@@H]3O)c(O)ccc12
REMARK SMILES IDX 3 1 11 2 12 3 13 4 30 5 2 6 1 7 29 8 28 9 26 10 14 11 4 12
REMARK SMILES IDX 5 13 6 14 7 15 10 16 9 17 8 18 15 20 24 21 16 22 22 23 17 24
REMARK SMILES IDX 20 25 25 26 23 28 18 30 19 31 21 33 27 35
REMARK H PARENT 8 19 25 27 23 29 19 32 21 34 27 36
REMARK Flexibility Score: inf
ROOT
ATOM      1  C   UNL     1      14.102   8.891  13.353  1.00  0.00     0.065 A 
ATOM      2  C   UNL     1      14.633   7.830  14.099  1.00  0.00     0.208 A 
ATOM      3  O   UNL     1      15.598   7.066  13.603  1.00  0.00    -0.463 OA
ATOM      4  C   UNL     1      16.124   7.241  12.393  1.00  0.00     0.147 A 
ATOM      5  C   UNL     1      15.658   8.303  11.582  1.00  0.00     0.066 A 
ATOM      6  C   UNL     1      14.636   9.133  12.076  1.00  0.00     0.200 A 
ATOM      7  O   UNL     1      14.214  10.104  11.386  1.00  0.00    -0.288 OA
ATOM      8  C   UNL     1      16.226   8.510  10.320  1.00  0.00     0.020 A 
ATOM      9  C   UNL     1      17.255   7.690   9.875  1.00  0.00     0.047 A 
ATOM     10  C   UNL     1      17.734   6.634  10.664  1.00  0.00     0.125 A 
ATOM     11  C   UNL     1      17.145   6.366  11.934  1.00  0.00     0.069 A 
ENDROOT
BRANCH   1  12
ATOM     12  C   UNL     1      13.013   9.724  13.923  1.00  0.00    -0.011 A 
ATOM     13  C   UNL     1      11.667   9.400  13.675  1.00  0.00     0.013 A 
ATOM     14  C   UNL     1      10.640  10.186  14.203  1.00  0.00     0.047 A 
ATOM     15  C   UNL     1      10.944  11.311  14.981  1.00  0.00     0.115 A 
ATOM     16  C   UNL     1      13.310  10.858  14.700  1.00  0.00     0.013 A 
ATOM     17  C   UNL     1      12.280  11.645  15.225  1.00  0.00     0.047 A 
BRANCH  15  18
ATOM     18  O   UNL     1       9.929  12.102  15.512  1.00  0.00    -0.508 OA
ATOM     19  H   UNL     1       9.246  11.725  16.160  1.00  0.00     0.293 HD
ENDBRANCH  15  18
ENDBRANCH   1  12
BRANCH  11  20
ATOM     20  C   UNL     1      17.564   5.220  12.884  1.00  0.00     0.188 C 
ATOM     21  C   UNL     1      18.567   4.133  12.409  1.00  0.00     0.179 C 
ATOM     22  O   UNL     1      16.424   4.598  13.468  1.00  0.00    -0.362 OA
ATOM     23  C   UNL     1      17.873   3.137  11.445  1.00  0.00     0.177 C 
ATOM     24  C   UNL     1      15.715   3.809  12.523  1.00  0.00     0.176 C 
ATOM     25  C   UNL     1      16.566   2.608  12.062  1.00  0.00     0.177 C 
BRANCH  21  26
ATOM     26  O   UNL     1      19.035   3.444  13.544  1.00  0.00    -0.387 OA
ATOM     27  H   UNL     1      19.668   2.749  13.228  1.00  0.00     0.211 HD
ENDBRANCH  21  26
BRANCH  23  28
ATOM     28  O   UNL     1      18.726   2.065  11.137  1.00  0.00    -0.387 OA
ATOM     29  H   UNL     1      19.289   1.909  11.941  1.00  0.00     0.211 HD
ENDBRANCH  23  28
BRANCH  24  30
ATOM     30  C   UNL     1      14.377   3.370  13.134  1.00  0.00     0.191 C 
BRANCH  30  31
ATOM     31  O   UNL     1      14.542   3.012  14.480  1.00  0.00    -0.394 OA
ATOM     32  H   UNL     1      13.629   2.860  14.837  1.00  0.00     0.210 HD
ENDBRANCH  30  31
ENDBRANCH  24  30
BRANCH  25  33
ATOM     33  O   UNL     1      16.843   1.763  13.152  1.00  0.00    -0.388 OA
ATOM     34  H   UNL     1      16.550   0.850  12.894  1.00  0.00     0.211 HD
ENDBRANCH  25  33
ENDBRANCH  11  20
BRANCH  10  35
ATOM     35  O   UNL     1      18.794   5.883  10.167  1.00  0.00    -0.507 OA
ATOM     36  H   UNL     1      19.581   6.309   9.691  1.00  0.00     0.293 HD
ENDBRANCH  10  35
TORSDOF 9
ENDMDL
MODEL 4
REMARK VINA RESULT:    -6.089      2.088      8.257
REMARK INTER + INTRA:          -7.594
REMARK INTER:                  -7.710
REMARK INTRA:                   0.116
REMARK UNBOUND:                 0.630
REMARK SMILES O=c1c(-c2ccc(O)cc2)coc2c([C@H]3O[C@H](CO)[C@H](O)[C@H](O)[C@@H]3O)c(O)ccc12
REMARK SMILES IDX 3 1 11 2 12 3 13 4 30 5 2 6 1 7 29 8 28 9 26 10 14 11 4 12
REMARK SMILES IDX 5 13 6 14 7 15 10 16 9 17 8 18 15 20 24 21 16 22 22 23 17 24
REMARK SMILES IDX 20 25 25 26 23 28 18 30 19 31 21 33 27 35
REMARK H PARENT 8 19 25 27 23 29 19 32 21 34 27 36
REMARK Flexibility Score: inf
ROOT
ATOM      1  C   UNL     1      15.253   7.954  12.159  1.00  0.00     0.065 A 
ATOM      2  C   UNL     1      15.053   6.627  12.564  1.00  0.00     0.208 A 
ATOM      3  O   UNL     1      15.890   5.668  12.192  1.00  0.00    -0.463 OA
ATOM      4  C   UNL     1      16.958   5.882  11.425  1.00  0.00     0.147 A 
ATOM      5  C   UNL     1      17.243   7.197  10.987  1.00  0.00     0.066 A 
ATOM      6  C   UNL     1      16.377   8.239  11.364  1.00  0.00     0.200 A 
ATOM      7  O   UNL     1      16.617   9.427  11.009  1.00  0.00    -0.288 OA
ATOM      8  C   UNL     1      18.378   7.434  10.204  1.00  0.00     0.020 A 
ATOM      9  C   UNL     1      19.230   6.387   9.875  1.00  0.00     0.047 A 
ATOM     10  C   UNL     1      18.966   5.077  10.301  1.00  0.00     0.125 A 
ATOM     11  C   UNL     1      17.795   4.794  11.060  1.00  0.00     0.069 A 
ENDROOT
BRANCH   1  12
ATOM     12  C   UNL     1      14.295   9.008  12.577  1.00  0.00    -0.011 A 
ATOM     13  C   UNL     1      14.363   9.557  13.870  1.00  0.00     0.013 A 
ATOM     14  C   UNL     1      13.458  10.545  14.268  1.00  0.00     0.047 A 
ATOM     15  C   UNL     1      12.469  10.991  13.382  1.00  0.00     0.115 A 
ATOM     16  C   UNL     1      13.296   9.458  11.696  1.00  0.00     0.013 A 
ATOM     17  C   UNL     1      12.390  10.444  12.098  1.00  0.00     0.047 A 
BRANCH  15  18
ATOM     18  O   UNL     1      11.561  11.974  13.769  1.00  0.00    -0.508 OA
ATOM     19  H   UNL     1      10.634  12.029  13.363  1.00  0.00     0.293 HD
ENDBRANCH  15  18
ENDBRANCH   1  12
BRANCH  11  20
ATOM     20  C   UNL     1      17.379   3.392  11.565  1.00  0.00     0.188 C 
ATOM     21  C   UNL     1      16.362   3.247  12.730  1.00  0.00     0.179 C 
ATOM     22  O   UNL     1      18.521   2.581  11.822  1.00  0.00    -0.362 OA
ATOM     23  C   UNL     1      17.036   3.581  14.085  1.00  0.00     0.177 C 
ATOM     24  C   UNL     1      19.212   3.005  12.989  1.00  0.00     0.176 C 
ATOM     25  C   UNL     1      18.346   2.790  14.247  1.00  0.00     0.177 C 
BRANCH  21  26
ATOM     26  O   UNL     1      15.903   1.917  12.746  1.00  0.00    -0.387 OA
ATOM     27  H   UNL     1      14.964   1.932  13.068  1.00  0.00     0.211 HD
ENDBRANCH  21  26
BRANCH  23  28
ATOM     28  O   UNL     1      16.171   3.301  15.155  1.00  0.00    -0.387 OA
ATOM     29  H   UNL     1      15.275   3.132  14.760  1.00  0.00     0.211 HD
ENDBRANCH  23  28
BRANCH  24  30
ATOM     30  C   UNL     1      20.554   2.263  13.077  1.00  0.00     0.191 C 
BRANCH  30  31
ATOM     31  O   UNL     1      20.950   2.114  14.413  1.00  0.00    -0.394 OA
ATOM     32  H   UNL     1      20.713   1.184  14.667  1.00  0.00     0.210 HD
ENDBRANCH  30  31
ENDBRANCH  24  30
BRANCH  25  33
ATOM     33  O   UNL     1      18.076   1.421  14.423  1.00  0.00    -0.388 OA
ATOM     34  H   UNL     1      17.671   1.094  13.578  1.00  0.00     0.211 HD
ENDBRANCH  25  33
ENDBRANCH  11  20
BRANCH  10  35
ATOM     35  O   UNL     1      19.888   4.090   9.967  1.00  0.00    -0.507 OA
ATOM     36  H   UNL     1      19.610   3.214   9.539  1.00  0.00     0.293 HD
ENDBRANCH  10  35
TORSDOF 9
ENDMDL
MODEL 5
REMARK VINA RESULT:    -5.831      2.517      9.222
REMARK INTER + INTRA:          -7.247
REMARK INTER:                  -7.439
REMARK INTRA:                   0.192
REMARK UNBOUND:                 0.630
REMARK SMILES O=c1c(-c2ccc(O)cc2)coc2c([C@H]3O[C@H](CO)[C@H](O)[C@H](O)[C@@H]3O)c(O)ccc12
REMARK SMILES IDX 3 1 11 2 12 3 13 4 30 5 2 6 1 7 29 8 28 9 26 10 14 11 4 12
REMARK SMILES IDX 5 13 6 14 7 15 10 16 9 17 8 18 15 20 24 21 16 22 22 23 17 24
REMARK SMILES IDX 20 25 25 26 23 28 18 30 19 31 21 33 27 35
REMARK H PARENT 8 19 25 27 23 29 19 32 21 34 27 36
REMARK Flexibility Score: inf
ROOT
ATOM      1  C   UNL     1      15.437   7.239  11.431  1.00  0.00     0.065 A 
ATOM      2  C   UNL     1      15.631   6.249  10.458  1.00  0.00     0.208 A 
ATOM      3  O   UNL     1      15.936   5.005  10.804  1.00  0.00    -0.463 OA
ATOM      4  C   UNL     1      16.079   4.609  12.067  1.00  0.00     0.147 A 
ATOM      5  C   UNL     1      15.882   5.542  13.112  1.00  0.00     0.066 A 
ATOM      6  C   UNL     1      15.556   6.869  12.781  1.00  0.00     0.200 A 
ATOM      7  O   UNL     1      15.351   7.721  13.692  1.00  0.00    -0.288 OA
ATOM      8  C   UNL     1      16.004   5.126  14.442  1.00  0.00     0.020 A 
ATOM      9  C   UNL     1      16.297   3.799  14.735  1.00  0.00     0.047 A 
ATOM     10  C   UNL     1      16.493   2.858  13.714  1.00  0.00     0.125 A 
ATOM     11  C   UNL     1      16.423   3.259  12.349  1.00  0.00     0.069 A 
ENDROOT
BRANCH   1  12
ATOM     12  C   UNL     1      15.109   8.627  11.019  1.00  0.00    -0.011 A 
ATOM     13  C   UNL     1      16.136   9.561  10.790  1.00  0.00     0.013 A 
ATOM     14  C   UNL     1      15.830  10.870  10.410  1.00  0.00     0.047 A 
ATOM     15  C   UNL     1      14.494  11.266  10.261  1.00  0.00     0.115 A 
ATOM     16  C   UNL     1      13.771   9.034  10.872  1.00  0.00     0.013 A 
ATOM     17  C   UNL     1      13.468  10.346  10.494  1.00  0.00     0.047 A 
BRANCH  15  18
ATOM     18  O   UNL     1      14.178  12.569   9.883  1.00  0.00    -0.508 OA
ATOM     19  H   UNL     1      14.752  13.356  10.163  1.00  0.00     0.293 HD
ENDBRANCH  15  18
ENDBRANCH   1  12
BRANCH  11  20
ATOM     20  C   UNL     1      16.646   2.326  11.135  1.00  0.00     0.188 C 
ATOM     21  C   UNL     1      16.702   0.786  11.329  1.00  0.00     0.179 C 
ATOM     22  O   UNL     1      17.761   2.752  10.359  1.00  0.00    -0.362 OA
ATOM     23  C   UNL     1      18.056   0.365  11.953  1.00  0.00     0.177 C 
ATOM     24  C   UNL     1      18.991   2.495  11.023  1.00  0.00     0.176 C 
ATOM     25  C   UNL     1      19.229   0.977  11.166  1.00  0.00     0.177 C 
BRANCH  21  26
ATOM     26  O   UNL     1      16.556   0.181  10.066  1.00  0.00    -0.387 OA
ATOM     27  H   UNL     1      15.584   0.059   9.908  1.00  0.00     0.211 HD
ENDBRANCH  21  26
BRANCH  23  28
ATOM     28  O   UNL     1      18.178  -1.033  11.986  1.00  0.00    -0.387 OA
ATOM     29  H   UNL     1      18.628  -1.260  12.842  1.00  0.00     0.211 HD
ENDBRANCH  23  28
BRANCH  24  30
ATOM     30  C   UNL     1      20.129   3.190  10.264  1.00  0.00     0.191 C 
BRANCH  30  31
ATOM     31  O   UNL     1      21.300   2.421  10.316  1.00  0.00    -0.394 OA
ATOM     32  H   UNL     1      21.505   2.170   9.378  1.00  0.00     0.210 HD
ENDBRANCH  30  31
ENDBRANCH  24  30
BRANCH  25  33
ATOM     33  O   UNL     1      19.333   0.381   9.896  1.00  0.00    -0.388 OA
ATOM     34  H   UNL     1      19.131  -0.585  10.011  1.00  0.00     0.211 HD
ENDBRANCH  25  33
ENDBRANCH  11  20
BRANCH  10  35
ATOM     35  O   UNL     1      16.742   1.541  14.087  1.00  0.00    -0.507 OA
ATOM     36  H   UNL     1      16.245   0.760  13.674  1.00  0.00     0.293 HD
ENDBRANCH  10  35
TORSDOF 9
ENDMDL
MODEL 6
REMARK VINA RESULT:    -5.719      1.970      7.744
REMARK INTER + INTRA:          -7.096
REMARK INTER:                  -7.257
REMARK INTRA:                   0.161
REMARK UNBOUND:                 0.630
REMARK SMILES O=c1c(-c2ccc(O)cc2)coc2c([C@H]3O[C@H](CO)[C@H](O)[C@H](O)[C@@H]3O)c(O)ccc12
REMARK SMILES IDX 3 1 11 2 12 3 13 4 30 5 2 6 1 7 29 8 28 9 26 10 14 11 4 12
REMARK SMILES IDX 5 13 6 14 7 15 10 16 9 17 8 18 15 20 24 21 16 22 22 23 17 24
REMARK SMILES IDX 20 25 25 26 23 28 18 30 19 31 21 33 27 35
REMARK H PARENT 8 19 25 27 23 29 19 32 21 34 27 36
REMARK Flexibility Score: inf
ROOT
ATOM      1  C   UNL     1      14.132   9.177  12.944  1.00  0.00     0.065 A 
ATOM      2  C   UNL     1      14.148   7.778  13.014  1.00  0.00     0.208 A 
ATOM      3  O   UNL     1      15.106   7.078  12.421  1.00  0.00    -0.463 OA
ATOM      4  C   UNL     1      16.100   7.633  11.729  1.00  0.00     0.147 A 
ATOM      5  C   UNL     1      16.168   9.042  11.625  1.00  0.00     0.066 A 
ATOM      6  C   UNL     1      15.170   9.816  12.243  1.00  0.00     0.200 A 
ATOM      7  O   UNL     1      15.216  11.077  12.189  1.00  0.00    -0.288 OA
ATOM      8  C   UNL     1      17.225   9.632  10.924  1.00  0.00     0.020 A 
ATOM      9  C   UNL     1      18.212   8.840  10.350  1.00  0.00     0.047 A 
ATOM     10  C   UNL     1      18.164   7.442  10.445  1.00  0.00     0.125 A 
ATOM     11  C   UNL     1      17.076   6.806  11.111  1.00  0.00     0.069 A 
ENDROOT
BRANCH   1  12
ATOM     12  C   UNL     1      13.043   9.939  13.606  1.00  0.00    -0.011 A 
ATOM     13  C   UNL     1      13.312  10.719  14.745  1.00  0.00     0.013 A 
ATOM     14  C   UNL     1      12.287  11.431  15.374  1.00  0.00     0.047 A 
ATOM     15  C   UNL     1      10.979  11.368  14.877  1.00  0.00     0.115 A 
ATOM     16  C   UNL     1      11.726   9.877  13.117  1.00  0.00     0.013 A 
ATOM     17  C   UNL     1      10.702  10.589  13.749  1.00  0.00     0.047 A 
BRANCH  15  18
ATOM     18  O   UNL     1       9.950  12.073  15.495  1.00  0.00    -0.508 OA
ATOM     19  H   UNL     1      10.086  13.018  15.839  1.00  0.00     0.293 HD
ENDBRANCH  15  18
ENDBRANCH   1  12
BRANCH  11  20
ATOM     20  C   UNL     1      16.895   5.277  11.259  1.00  0.00     0.188 C 
ATOM     21  C   UNL     1      16.011   4.699  12.399  1.00  0.00     0.179 C 
ATOM     22  O   UNL     1      18.151   4.609  11.240  1.00  0.00    -0.362 OA
ATOM     23  C   UNL     1      16.751   4.784  13.757  1.00  0.00     0.177 C 
ATOM     24  C   UNL     1      18.880   4.829  12.440  1.00  0.00     0.176 C 
ATOM     25  C   UNL     1      18.163   4.183  13.643  1.00  0.00     0.177 C 
BRANCH  21  26
ATOM     26  O   UNL     1      15.734   3.352  12.095  1.00  0.00    -0.387 OA
ATOM     27  H   UNL     1      16.246   3.122  11.277  1.00  0.00     0.211 HD
ENDBRANCH  21  26
BRANCH  23  28
ATOM     28  O   UNL     1      16.027   4.122  14.762  1.00  0.00    -0.387 OA
ATOM     29  H   UNL     1      16.266   4.562  15.621  1.00  0.00     0.211 HD
ENDBRANCH  23  28
BRANCH  24  30
ATOM     30  C   UNL     1      20.310   4.298  12.266  1.00  0.00     0.191 C 
BRANCH  30  31
ATOM     31  O   UNL     1      21.031   5.100  11.370  1.00  0.00    -0.394 OA
ATOM     32  H   UNL     1      20.396   5.341  10.646  1.00  0.00     0.210 HD
ENDBRANCH  30  31
ENDBRANCH  24  30
BRANCH  25  33
ATOM     33  O   UNL     1      18.092   2.789  13.475  1.00  0.00    -0.388 OA
ATOM     34  H   UNL     1      17.325   2.607  12.871  1.00  0.00     0.211 HD
ENDBRANCH  25  33
ENDBRANCH  11  20
BRANCH  10  35
ATOM     35  O   UNL     1      19.210   6.719   9.880  1.00  0.00    -0.507 OA
ATOM     36  H   UNL     1      19.623   6.972   8.990  1.00  0.00     0.293 HD
ENDBRANCH  10  35
TORSDOF 9
ENDMDL
MODEL 7
REMARK VINA RESULT:    -5.377      1.524      2.231
REMARK INTER + INTRA:          -6.634
REMARK INTER:                  -7.792
REMARK INTRA:                   1.158
REMARK UNBOUND:                 0.630
REMARK SMILES O=c1c(-c2ccc(O)cc2)coc2c([C@H]3O[C@H](CO)[C@H](O)[C@H](O)[C@@H]3O)c(O)ccc12
REMARK SMILES IDX 3 1 11 2 12 3 13 4 30 5 2 6 1 7 29 8 28 9 26 10 14 11 4 12
REMARK SMILES IDX 5 13 6 14 7 15 10 16 9 17 8 18 15 20 24 21 16 22 22 23 17 24
REMARK SMILES IDX 20 25 25 26 23 28 18 30 19 31 21 33 27 35
REMARK H PARENT 8 19 25 27 23 29 19 32 21 34 27 36
REMARK Flexibility Score: inf
ROOT
ATOM      1  C   UNL     1      17.021   4.589  13.158  1.00  0.00     0.065 A 
ATOM      2  C   UNL     1      16.737   5.642  14.039  1.00  0.00     0.208 A 
ATOM      3  O   UNL     1      15.998   6.673  13.651  1.00  0.00    -0.463 OA
ATOM      4  C   UNL     1      15.482   6.788  12.429  1.00  0.00     0.147 A 
ATOM      5  C   UNL     1      15.707   5.760  11.483  1.00  0.00     0.066 A 
ATOM      6  C   UNL     1      16.485   4.651  11.861  1.00  0.00     0.200 A 
ATOM      7  O   UNL     1      16.684   3.705  11.047  1.00  0.00    -0.288 OA
ATOM      8  C   UNL     1      15.145   5.861  10.206  1.00  0.00     0.020 A 
ATOM      9  C   UNL     1      14.356   6.956   9.875  1.00  0.00     0.047 A 
ATOM     10  C   UNL     1      14.119   7.984  10.799  1.00  0.00     0.125 A 
ATOM     11  C   UNL     1      14.715   7.935  12.092  1.00  0.00     0.069 A 
ENDROOT
BRANCH   1  12
ATOM     12  C   UNL     1      17.862   3.452  13.611  1.00  0.00    -0.011 A 
ATOM     13  C   UNL     1      17.314   2.443  14.423  1.00  0.00     0.013 A 
ATOM     14  C   UNL     1      18.105   1.375  14.856  1.00  0.00     0.047 A 
ATOM     15  C   UNL     1      19.455   1.305  14.489  1.00  0.00     0.115 A 
ATOM     16  C   UNL     1      19.220   3.377  13.251  1.00  0.00     0.013 A 
ATOM     17  C   UNL     1      20.009   2.308  13.688  1.00  0.00     0.047 A 
BRANCH  15  18
ATOM     18  O   UNL     1      20.252   0.246  14.916  1.00  0.00    -0.508 OA
ATOM     19  H   UNL     1      19.955  -0.717  14.811  1.00  0.00     0.293 HD
ENDBRANCH  15  18
ENDBRANCH   1  12
BRANCH  11  20
ATOM     20  C   UNL     1      14.554   9.015  13.187  1.00  0.00     0.188 C 
ATOM     21  C   UNL     1      13.206   9.170  13.944  1.00  0.00     0.179 C 
ATOM     22  O   UNL     1      14.989  10.287  12.719  1.00  0.00    -0.362 OA
ATOM     23  C   UNL     1      12.153   9.866  13.045  1.00  0.00     0.177 C 
ATOM     24  C   UNL     1      14.081  10.838  11.776  1.00  0.00     0.176 C 
ATOM     25  C   UNL     1      12.727  11.161  12.443  1.00  0.00     0.177 C 
BRANCH  21  26
ATOM     26  O   UNL     1      13.438   9.952  15.092  1.00  0.00    -0.387 OA
ATOM     27  H   UNL     1      12.648   9.848  15.684  1.00  0.00     0.211 HD
ENDBRANCH  21  26
BRANCH  23  28
ATOM     28  O   UNL     1      10.987  10.151  13.772  1.00  0.00    -0.387 OA
ATOM     29  H   UNL     1      10.817  11.125  13.666  1.00  0.00     0.211 HD
ENDBRANCH  23  28
BRANCH  24  30
ATOM     30  C   UNL     1      14.716  12.077  11.128  1.00  0.00     0.191 C 
BRANCH  30  31
ATOM     31  O   UNL     1      13.777  13.112  11.014  1.00  0.00    -0.394 OA
ATOM     32  H   UNL     1      13.395  13.036  10.102  1.00  0.00     0.210 HD
ENDBRANCH  30  31
ENDBRANCH  24  30
BRANCH  25  33
ATOM     33  O   UNL     1      12.898  12.135  13.442  1.00  0.00    -0.388 OA
ATOM     34  H   UNL     1      13.071  12.997  12.980  1.00  0.00     0.211 HD
ENDBRANCH  25  33
ENDBRANCH  11  20
BRANCH  10  35
ATOM     35  O   UNL     1      13.285   9.026  10.407  1.00  0.00    -0.507 OA
ATOM     36  H   UNL     1      12.298   8.887  10.222  1.00  0.00     0.293 HD
ENDBRANCH  10  35
TORSDOF 9
ENDMDL
MODEL 8
REMARK VINA RESULT:    -5.264      2.431      9.384
REMARK INTER + INTRA:          -6.480
REMARK INTER:                  -6.970
REMARK INTRA:                   0.490
REMARK UNBOUND:                 0.630
REMARK SMILES O=c1c(-c2ccc(O)cc2)coc2c([C@H]3O[C@H](CO)[C@H](O)[C@H](O)[C@@H]3O)c(O)ccc12
REMARK SMILES IDX 3 1 11 2 12 3 13 4 30 5 2 6 1 7 29 8 28 9 26 10 14 11 4 12
REMARK SMILES IDX 5 13 6 14 7 15 10 16 9 17 8 18 15 20 24 21 16 22 22 23 17 24
REMARK SMILES IDX 20 25 25 26 23 28 18 30 19 31 21 33 27 35
REMARK H PARENT 8 19 25 27 23 29 19 32 21 34 27 36
REMARK Flexibility Score: inf
ROOT
ATOM      1  C   UNL     1      15.802   6.346  11.497  1.00  0.00     0.065 A 
ATOM      2  C   UNL     1      17.064   6.173  12.081  1.00  0.00     0.208 A 
ATOM      3  O   UNL     1      17.712   5.021  11.972  1.00  0.00    -0.463 OA
ATOM      4  C   UNL     1      17.229   3.966  11.319  1.00  0.00     0.147 A 
ATOM      5  C   UNL     1      15.968   4.061  10.685  1.00  0.00     0.066 A 
ATOM      6  C   UNL     1      15.254   5.269  10.778  1.00  0.00     0.200 A 
ATOM      7  O   UNL     1      14.136   5.395  10.203  1.00  0.00    -0.288 OA
ATOM      8  C   UNL     1      15.467   2.966   9.974  1.00  0.00     0.020 A 
ATOM      9  C   UNL     1      16.213   1.798   9.875  1.00  0.00     0.047 A 
ATOM     10  C   UNL     1      17.466   1.683  10.494  1.00  0.00     0.125 A 
ATOM     11  C   UNL     1      17.984   2.763  11.265  1.00  0.00     0.069 A 
ENDROOT
BRANCH   1  12
ATOM     12  C   UNL     1      15.089   7.640  11.643  1.00  0.00    -0.011 A 
ATOM     13  C   UNL     1      14.708   8.373  10.504  1.00  0.00     0.013 A 
ATOM     14  C   UNL     1      14.043   9.595  10.639  1.00  0.00     0.047 A 
ATOM     15  C   UNL     1      13.757  10.104  11.912  1.00  0.00     0.115 A 
ATOM     16  C   UNL     1      14.803   8.161  12.917  1.00  0.00     0.013 A 
ATOM     17  C   UNL     1      14.140   9.385  13.049  1.00  0.00     0.047 A 
BRANCH  15  18
ATOM     18  O   UNL     1      13.096  11.321  12.058  1.00  0.00    -0.508 OA
ATOM     19  H   UNL     1      13.523  12.194  11.771  1.00  0.00     0.293 HD
ENDBRANCH  15  18
ENDBRANCH   1  12
BRANCH  11  20
ATOM     20  C   UNL     1      19.336   2.752  12.016  1.00  0.00     0.188 C 
ATOM     21  C   UNL     1      20.399   1.663  11.702  1.00  0.00     0.179 C 
ATOM     22  O   UNL     1      19.141   2.838  13.424  1.00  0.00    -0.362 OA
ATOM     23  C   UNL     1      19.992   0.307  12.330  1.00  0.00     0.177 C 
ATOM     24  C   UNL     1      18.619   1.628  13.956  1.00  0.00     0.176 C 
ATOM     25  C   UNL     1      19.644   0.483  13.819  1.00  0.00     0.177 C 
BRANCH  21  26
ATOM     26  O   UNL     1      21.629   2.084  12.243  1.00  0.00    -0.387 OA
ATOM     27  H   UNL     1      22.336   1.854  11.586  1.00  0.00     0.211 HD
ENDBRANCH  21  26
BRANCH  23  28
ATOM     28  O   UNL     1      21.020  -0.638  12.186  1.00  0.00    -0.387 OA
ATOM     29  H   UNL     1      21.458  -0.720  13.075  1.00  0.00     0.211 HD
ENDBRANCH  23  28
BRANCH  24  30
ATOM     30  C   UNL     1      18.200   1.858  15.415  1.00  0.00     0.191 C 
BRANCH  30  31
ATOM     31  O   UNL     1      18.600   0.783  16.220  1.00  0.00    -0.394 OA
ATOM     32  H   UNL     1      19.341   0.337  15.733  1.00  0.00     0.210 HD
ENDBRANCH  30  31
ENDBRANCH  24  30
BRANCH  25  33
ATOM     33  O   UNL     1      20.801   0.776  14.563  1.00  0.00    -0.388 OA
ATOM     34  H   UNL     1      20.509   1.273  15.372  1.00  0.00     0.211 HD
ENDBRANCH  25  33
ENDBRANCH  11  20
BRANCH  10  35
ATOM     35  O   UNL     1      18.170   0.497  10.315  1.00  0.00    -0.507 OA
ATOM     36  H   UNL     1      18.893   0.195  10.959  1.00  0.00     0.293 HD
ENDBRANCH  10  35
TORSDOF 9
ENDMDL
MODEL 9
REMARK VINA RESULT:    -5.124      5.423     12.917
REMARK INTER + INTRA:          -6.292
REMARK INTER:                  -6.434
REMARK INTRA:                   0.142
REMARK UNBOUND:                 0.630
REMARK SMILES O=c1c(-c2ccc(O)cc2)coc2c([C@H]3O[C@H](CO)[C@H](O)[C@H](O)[C@@H]3O)c(O)ccc12
REMARK SMILES IDX 3 1 11 2 12 3 13 4 30 5 2 6 1 7 29 8 28 9 26 10 14 11 4 12
REMARK SMILES IDX 5 13 6 14 7 15 10 16 9 17 8 18 15 20 24 21 16 22 22 23 17 24
REMARK SMILES IDX 20 25 25 26 23 28 18 30 19 31 21 33 27 35
REMARK H PARENT 8 19 25 27 23 29 19 32 21 34 27 36
REMARK Flexibility Score: inf
ROOT
ATOM      1  C   UNL     1      18.141   0.870  12.634  1.00  0.00     0.065 A 
ATOM      2  C   UNL     1      19.276   0.316  13.242  1.00  0.00     0.208 A 
ATOM      3  O   UNL     1      19.711  -0.890  12.899  1.00  0.00    -0.463 OA
ATOM      4  C   UNL     1      19.121  -1.649  11.978  1.00  0.00     0.147 A 
ATOM      5  C   UNL     1      17.979  -1.157  11.303  1.00  0.00     0.066 A 
ATOM      6  C   UNL     1      17.491   0.119  11.640  1.00  0.00     0.200 A 
ATOM      7  O   UNL     1      16.488   0.597  11.039  1.00  0.00    -0.288 OA
ATOM      8  C   UNL     1      17.370  -1.937  10.315  1.00  0.00     0.020 A 
ATOM      9  C   UNL     1      17.896  -3.181   9.985  1.00  0.00     0.047 A 
ATOM     10  C   UNL     1      19.028  -3.685  10.640  1.00  0.00     0.125 A 
ATOM     11  C   UNL     1      19.644  -2.937  11.684  1.00  0.00     0.069 A 
ENDROOT
BRANCH   1  12
ATOM     12  C   UNL     1      17.665   2.216  13.043  1.00  0.00    -0.011 A 
ATOM     13  C   UNL     1      18.303   3.371  12.559  1.00  0.00     0.013 A 
ATOM     14  C   UNL     1      17.862   4.639  12.948  1.00  0.00     0.047 A 
ATOM     15  C   UNL     1      16.782   4.768  13.831  1.00  0.00     0.115 A 
ATOM     16  C   UNL     1      16.585   2.354  13.933  1.00  0.00     0.013 A 
ATOM     17  C   UNL     1      16.147   3.623  14.322  1.00  0.00     0.047 A 
BRANCH  15  18
ATOM     18  O   UNL     1      16.334   6.026  14.225  1.00  0.00    -0.508 OA
ATOM     19  H   UNL     1      16.495   6.377  15.163  1.00  0.00     0.293 HD
ENDBRANCH  15  18
ENDBRANCH   1  12
BRANCH  11  20
ATOM     20  C   UNL     1      20.877  -3.394  12.498  1.00  0.00     0.188 C 
ATOM     21  C   UNL     1      21.408  -4.848  12.368  1.00  0.00     0.179 C 
ATOM     22  O   UNL     1      20.735  -3.056  13.874  1.00  0.00    -0.362 OA
ATOM     23  C   UNL     1      20.488  -5.834  13.131  1.00  0.00     0.177 C 
ATOM     24  C   UNL     1      19.770  -3.876  14.518  1.00  0.00     0.176 C 
ATOM     25  C   UNL     1      20.244  -5.343  14.570  1.00  0.00     0.177 C 
BRANCH  21  26
ATOM     26  O   UNL     1      22.704  -4.890  12.918  1.00  0.00    -0.387 OA
ATOM     27  H   UNL     1      23.315  -4.454  12.269  1.00  0.00     0.211 HD
ENDBRANCH  21  26
BRANCH  23  28
ATOM     28  O   UNL     1      21.045  -7.122  13.152  1.00  0.00    -0.387 OA
ATOM     29  H   UNL     1      20.753  -7.545  14.003  1.00  0.00     0.211 HD
ENDBRANCH  23  28
BRANCH  24  30
ATOM     30  C   UNL     1      19.482  -3.312  15.917  1.00  0.00     0.191 C 
BRANCH  30  31
ATOM     31  O   UNL     1      19.728  -1.933  15.955  1.00  0.00    -0.394 OA
ATOM     32  H   UNL     1      19.411  -1.574  15.086  1.00  0.00     0.210 HD
ENDBRANCH  30  31
ENDBRANCH  24  30
BRANCH  25  33
ATOM     33  O   UNL     1      21.421  -5.447  15.331  1.00  0.00    -0.388 OA
ATOM     34  H   UNL     1      22.052  -4.762  14.987  1.00  0.00     0.211 HD
ENDBRANCH  25  33
ENDBRANCH  11  20
BRANCH  10  35
ATOM     35  O   UNL     1      19.520  -4.919  10.225  1.00  0.00    -0.507 OA
ATOM     36  H   UNL     1      19.834  -5.084   9.276  1.00  0.00     0.293 HD
ENDBRANCH  10  35
TORSDOF 9
ENDMDL
