MODEL 1
REMARK VINA RESULT:    -9.406      0.000      0.000
REMARK INTER + INTRA:         -15.379
REMARK INTER:                 -14.354
REMARK INTRA:                  -1.024
REMARK UNBOUND:                -1.024
REMARK SMILES C[C@@H]1O[C@@H](Oc2cc(O)c3c(=O)c(O[C@H]4O[C@H](C)[C@H](O)[C@@H](O)[C@H]4O)c(-c4ccc(O)cc4)oc3c2)[C@@H](O)[C@@H](O)[C@H]1O
REMARK SMILES IDX 6 1 7 2 8 3 10 4 34 5 35 6 33 7 25 8 13 9 11 10 12 11 5 12
REMARK SMILES IDX 4 13 1 14 2 15 40 16 3 17 38 18 36 19 41 20 39 22 37 24 9 26
REMARK SMILES IDX 26 28 27 29 32 30 28 31 31 32 29 33 30 34 14 36 15 37 23 38
REMARK SMILES IDX 16 39 21 40 17 41 19 42 18 43 24 44 22 46 20 48
REMARK H PARENT 41 21 39 23 37 25 9 27 30 35 24 45 22 47 20 49
REMARK Flexibility Score: inf
ROOT
ATOM      1  C   UNL     1      -8.516 -15.656  30.394  1.00  0.00     0.130 A 
ATOM      2  C   UNL     1      -8.521 -15.494  28.986  1.00  0.00     0.093 A 
ATOM      3  C   UNL     1      -7.460 -14.833  28.321  1.00  0.00     0.134 A 
ATOM      4  C   UNL     1      -6.305 -14.467  29.083  1.00  0.00     0.111 A 
ATOM      5  C   UNL     1      -6.310 -14.654  30.479  1.00  0.00     0.146 A 
ATOM      6  C   UNL     1      -7.449 -15.192  31.106  1.00  0.00     0.094 A 
ATOM      7  O   UNL     1      -5.228 -14.363  31.218  1.00  0.00    -0.452 OA
ATOM      8  C   UNL     1      -4.135 -13.863  30.697  1.00  0.00     0.180 A 
ATOM      9  C   UNL     1      -4.122 -13.513  29.327  1.00  0.00     0.214 A 
ATOM     10  C   UNL     1      -5.159 -13.919  28.488  1.00  0.00     0.239 A 
ATOM     11  O   UNL     1      -4.979 -13.875  27.243  1.00  0.00    -0.285 OA
ENDROOT
BRANCH   1  12
ATOM     12  O   UNL     1      -9.520 -16.414  31.063  1.00  0.00    -0.462 OA
BRANCH  12  13
ATOM     13  C   UNL     1     -10.579 -16.892  30.246  1.00  0.00     0.339 C 
ATOM     14  C   UNL     1     -13.128 -15.904  28.779  1.00  0.00     0.042 C 
ATOM     15  C   UNL     1     -12.956 -16.912  29.956  1.00  0.00     0.151 C 
ATOM     16  C   UNL     1     -12.958 -18.444  29.571  1.00  0.00     0.174 C 
ATOM     17  O   UNL     1     -11.843 -16.621  30.842  1.00  0.00    -0.335 OA
ATOM     18  C   UNL     1     -11.595 -18.703  28.796  1.00  0.00     0.180 C 
ATOM     19  C   UNL     1     -10.418 -18.379  29.788  1.00  0.00     0.214 C 
BRANCH  16  20
ATOM     20  O   UNL     1     -13.148 -19.210  30.736  1.00  0.00    -0.388 OA
ATOM     21  H   UNL     1     -12.283 -19.717  30.831  1.00  0.00     0.211 HD
ENDBRANCH  16  20
BRANCH  18  22
ATOM     22  O   UNL     1     -11.602 -20.067  28.387  1.00  0.00    -0.387 OA
ATOM     23  H   UNL     1     -12.457 -20.164  27.945  1.00  0.00     0.211 HD
ENDBRANCH  18  22
BRANCH  19  24
ATOM     24  O   UNL     1     -10.489 -19.218  30.956  1.00  0.00    -0.384 OA
ATOM     25  H   UNL     1     -11.433 -19.498  31.056  1.00  0.00     0.211 HD
ENDBRANCH  19  24
ENDBRANCH  12  13
ENDBRANCH   1  12
BRANCH   3  26
ATOM     26  O   UNL     1      -7.613 -14.653  26.935  1.00  0.00    -0.507 OA
ATOM     27  H   UNL     1      -8.317 -15.120  26.366  1.00  0.00     0.293 HD
ENDBRANCH   3  26
BRANCH   8  28
ATOM     28  C   UNL     1      -2.945 -13.667  31.534  1.00  0.00     0.021 A 
ATOM     29  C   UNL     1      -1.811 -14.535  31.411  1.00  0.00     0.016 A 
ATOM     30  C   UNL     1      -2.895 -12.618  32.467  1.00  0.00     0.016 A 
ATOM     31  C   UNL     1      -0.640 -14.230  32.066  1.00  0.00     0.047 A 
ATOM     32  C   UNL     1      -1.698 -12.364  33.177  1.00  0.00     0.047 A 
ATOM     33  C   UNL     1      -0.548 -13.134  32.920  1.00  0.00     0.115 A 
BRANCH  33  34
ATOM     34  O   UNL     1       0.680 -12.841  33.548  1.00  0.00    -0.508 OA
ATOM     35  H   UNL     1       1.594 -13.060  33.149  1.00  0.00     0.293 HD
ENDBRANCH  33  34
ENDBRANCH   8  28
BRANCH   9  36
ATOM     36  O   UNL     1      -3.120 -12.691  28.797  1.00  0.00    -0.454 OA
BRANCH  36  37
ATOM     37  C   UNL     1      -1.772 -13.139  28.683  1.00  0.00     0.339 C 
ATOM     38  C   UNL     1      -0.832 -11.905  28.636  1.00  0.00     0.214 C 
ATOM     39  O   UNL     1      -1.634 -14.000  27.571  1.00  0.00    -0.335 OA
ATOM     40  C   UNL     1      -1.141 -11.113  27.333  1.00  0.00     0.180 C 
ATOM     41  C   UNL     1      -1.854 -13.331  26.335  1.00  0.00     0.151 C 
ATOM     42  C   UNL     1      -0.968 -12.072  26.151  1.00  0.00     0.174 C 
ATOM     43  C   UNL     1      -1.652 -14.307  25.184  1.00  0.00     0.042 C 
BRANCH  38  44
ATOM     44  O   UNL     1      -0.944 -11.159  29.821  1.00  0.00    -0.384 OA
ATOM     45  H   UNL     1      -0.223 -10.485  29.877  1.00  0.00     0.211 HD
ENDBRANCH  38  44
BRANCH  40  46
ATOM     46  O   UNL     1      -2.434 -10.542  27.313  1.00  0.00    -0.387 OA
ATOM     47  H   UNL     1      -2.782 -10.591  26.379  1.00  0.00     0.211 HD
ENDBRANCH  40  46
BRANCH  42  48
ATOM     48  O   UNL     1       0.379 -12.465  26.000  1.00  0.00    -0.388 OA
ATOM     49  H   UNL     1       0.416 -13.451  26.061  1.00  0.00     0.211 HD
ENDBRANCH  42  48
ENDBRANCH  36  37
ENDBRANCH   9  36
TORSDOF 13
ENDMDL
MODEL 2
REMARK VINA RESULT:    -9.092      1.122      2.092
REMARK INTER + INTRA:         -14.900
REMARK INTER:                 -13.314
REMARK INTRA:                  -1.586
REMARK UNBOUND:                -1.024
REMARK SMILES C[C@@H]1O[C@@H](Oc2cc(O)c3c(=O)c(O[C@H]4O[C@H](C)[C@H](O)[C@@H](O)[C@H]4O)c(-c4ccc(O)cc4)oc3c2)[C@@H](O)[C@@H](O)[C@H]1O
REMARK SMILES IDX 6 1 7 2 8 3 10 4 34 5 35 6 33 7 25 8 13 9 11 10 12 11 5 12
REMARK SMILES IDX 4 13 1 14 2 15 40 16 3 17 38 18 36 19 41 20 39 22 37 24 9 26
REMARK SMILES IDX 26 28 27 29 32 30 28 31 31 32 29 33 30 34 14 36 15 37 23 38
REMARK SMILES IDX 16 39 21 40 17 41 19 42 18 43 24 44 22 46 20 48
REMARK H PARENT 41 21 39 23 37 25 9 27 30 35 24 45 22 47 20 49
REMARK Flexibility Score: inf
ROOT
ATOM      1  C   UNL     1      -8.296 -15.591  30.414  1.00  0.00     0.130 A 
ATOM      2  C   UNL     1      -8.290 -15.405  29.009  1.00  0.00     0.093 A 
ATOM      3  C   UNL     1      -7.197 -14.786  28.356  1.00  0.00     0.134 A 
ATOM      4  C   UNL     1      -6.026 -14.492  29.124  1.00  0.00     0.111 A 
ATOM      5  C   UNL     1      -6.043 -14.702  30.517  1.00  0.00     0.146 A 
ATOM      6  C   UNL     1      -7.208 -15.193  31.134  1.00  0.00     0.094 A 
ATOM      7  O   UNL     1      -4.949 -14.478  31.262  1.00  0.00    -0.452 OA
ATOM      8  C   UNL     1      -3.831 -14.023  30.750  1.00  0.00     0.180 A 
ATOM      9  C   UNL     1      -3.799 -13.651  29.387  1.00  0.00     0.214 A 
ATOM     10  C   UNL     1      -4.854 -13.991  28.540  1.00  0.00     0.239 A 
ATOM     11  O   UNL     1      -4.670 -13.934  27.297  1.00  0.00    -0.285 OA
ENDROOT
BRANCH   1  12
ATOM     12  O   UNL     1      -9.337 -16.310  31.069  1.00  0.00    -0.462 OA
BRANCH  12  13
ATOM     13  C   UNL     1     -10.381 -16.784  30.231  1.00  0.00     0.339 C 
ATOM     14  C   UNL     1     -12.846 -15.772  28.641  1.00  0.00     0.042 C 
ATOM     15  C   UNL     1     -12.746 -16.743  29.857  1.00  0.00     0.151 C 
ATOM     16  C   UNL     1     -12.782 -18.287  29.524  1.00  0.00     0.174 C 
ATOM     17  O   UNL     1     -11.656 -16.455  30.772  1.00  0.00    -0.335 OA
ATOM     18  C   UNL     1     -11.401 -18.613  28.807  1.00  0.00     0.180 C 
ATOM     19  C   UNL     1     -10.250 -18.290  29.829  1.00  0.00     0.214 C 
BRANCH  16  20
ATOM     20  O   UNL     1     -13.037 -19.006  30.706  1.00  0.00    -0.388 OA
ATOM     21  H   UNL     1     -13.925 -19.447  30.529  1.00  0.00     0.211 HD
ENDBRANCH  16  20
BRANCH  18  22
ATOM     22  O   UNL     1     -11.437 -19.989  28.444  1.00  0.00    -0.387 OA
ATOM     23  H   UNL     1     -11.758 -19.973  27.532  1.00  0.00     0.211 HD
ENDBRANCH  18  22
BRANCH  19  24
ATOM     24  O   UNL     1     -10.389 -19.086  31.022  1.00  0.00    -0.384 OA
ATOM     25  H   UNL     1      -9.914 -18.609  31.746  1.00  0.00     0.211 HD
ENDBRANCH  19  24
ENDBRANCH  12  13
ENDBRANCH   1  12
BRANCH   3  26
ATOM     26  O   UNL     1      -7.338 -14.576  26.973  1.00  0.00    -0.507 OA
ATOM     27  H   UNL     1      -8.153 -14.149  26.533  1.00  0.00     0.293 HD
ENDBRANCH   3  26
BRANCH   8  28
ATOM     28  C   UNL     1      -2.634 -13.901  31.592  1.00  0.00     0.021 A 
ATOM     29  C   UNL     1      -1.418 -14.572  31.238  1.00  0.00     0.016 A 
ATOM     30  C   UNL     1      -2.660 -13.117  32.756  1.00  0.00     0.016 A 
ATOM     31  C   UNL     1      -0.260 -14.303  31.930  1.00  0.00     0.047 A 
ATOM     32  C   UNL     1      -1.467 -12.907  33.489  1.00  0.00     0.047 A 
ATOM     33  C   UNL     1      -0.252 -13.448  33.030  1.00  0.00     0.115 A 
BRANCH  33  34
ATOM     34  O   UNL     1       0.963 -13.176  33.692  1.00  0.00    -0.508 OA
ATOM     35  H   UNL     1       1.592 -13.894  34.052  1.00  0.00     0.293 HD
ENDBRANCH  33  34
ENDBRANCH   8  28
BRANCH   9  36
ATOM     36  O   UNL     1      -2.756 -12.871  28.872  1.00  0.00    -0.454 OA
BRANCH  36  37
ATOM     37  C   UNL     1      -2.953 -11.505  28.516  1.00  0.00     0.339 C 
ATOM     38  C   UNL     1      -1.816 -11.064  27.556  1.00  0.00     0.214 C 
ATOM     39  O   UNL     1      -3.058 -10.706  29.677  1.00  0.00    -0.335 OA
ATOM     40  C   UNL     1      -0.474 -11.122  28.342  1.00  0.00     0.180 C 
ATOM     41  C   UNL     1      -1.847 -10.670  30.423  1.00  0.00     0.151 C 
ATOM     42  C   UNL     1      -0.619 -10.236  29.582  1.00  0.00     0.174 C 
ATOM     43  C   UNL     1      -2.022  -9.764  31.634  1.00  0.00     0.042 C 
BRANCH  38  44
ATOM     44  O   UNL     1      -1.845 -11.830  26.379  1.00  0.00    -0.384 OA
ATOM     45  H   UNL     1      -2.664 -12.383  26.343  1.00  0.00     0.211 HD
ENDBRANCH  38  44
BRANCH  40  46
ATOM     46  O   UNL     1      -0.097 -12.431  28.719  1.00  0.00    -0.387 OA
ATOM     47  H   UNL     1      -0.506 -12.630  29.607  1.00  0.00     0.211 HD
ENDBRANCH  40  46
BRANCH  42  48
ATOM     48  O   UNL     1      -0.750  -8.875  29.230  1.00  0.00    -0.388 OA
ATOM     49  H   UNL     1       0.132  -8.557  28.914  1.00  0.00     0.211 HD
ENDBRANCH  42  48
ENDBRANCH  36  37
ENDBRANCH   9  36
TORSDOF 13
ENDMDL
MODEL 3
REMARK VINA RESULT:    -9.065      6.076      8.662
REMARK INTER + INTRA:         -14.859
REMARK INTER:                 -12.585
REMARK INTRA:                  -2.274
REMARK UNBOUND:                -1.024
REMARK SMILES C[C@@H]1O[C@@H](Oc2cc(O)c3c(=O)c(O[C@H]4O[C@H](C)[C@H](O)[C@@H](O)[C@H]4O)c(-c4ccc(O)cc4)oc3c2)[C@@H](O)[C@@H](O)[C@H]1O
REMARK SMILES IDX 6 1 7 2 8 3 10 4 34 5 35 6 33 7 25 8 13 9 11 10 12 11 5 12
REMARK SMILES IDX 4 13 1 14 2 15 40 16 3 17 38 18 36 19 41 20 39 22 37 24 9 26
REMARK SMILES IDX 26 28 27 29 32 30 28 31 31 32 29 33 30 34 14 36 15 37 23 38
REMARK SMILES IDX 16 39 21 40 17 41 19 42 18 43 24 44 22 46 20 48
REMARK H PARENT 41 21 39 23 37 25 9 27 30 35 24 45 22 47 20 49
REMARK Flexibility Score: inf
ROOT
ATOM      1  C   UNL     1      -2.165 -14.836  27.965  1.00  0.00     0.130 A 
ATOM      2  C   UNL     1      -2.192 -14.763  26.550  1.00  0.00     0.093 A 
ATOM      3  C   UNL     1      -1.715 -15.831  25.752  1.00  0.00     0.134 A 
ATOM      4  C   UNL     1      -1.349 -17.052  26.403  1.00  0.00     0.111 A 
ATOM      5  C   UNL     1      -1.348 -17.113  27.810  1.00  0.00     0.146 A 
ATOM      6  C   UNL     1      -1.701 -15.974  28.557  1.00  0.00     0.094 A 
ATOM      7  O   UNL     1      -1.052 -18.254  28.451  1.00  0.00    -0.452 OA
ATOM      8  C   UNL     1      -0.717 -19.351  27.817  1.00  0.00     0.180 A 
ATOM      9  C   UNL     1      -0.555 -19.312  26.413  1.00  0.00     0.214 A 
ATOM     10  C   UNL     1      -0.982 -18.201  25.686  1.00  0.00     0.239 A 
ATOM     11  O   UNL     1      -1.118 -18.312  24.440  1.00  0.00    -0.285 OA
ENDROOT
BRANCH   1  12
ATOM     12  O   UNL     1      -2.743 -13.817  28.777  1.00  0.00    -0.462 OA
BRANCH  12  13
ATOM     13  C   UNL     1      -4.072 -14.057  29.216  1.00  0.00     0.339 C 
ATOM     14  C   UNL     1      -6.890 -14.738  28.113  1.00  0.00     0.042 C 
ATOM     15  C   UNL     1      -6.370 -13.478  28.869  1.00  0.00     0.151 C 
ATOM     16  C   UNL     1      -6.655 -13.426  30.422  1.00  0.00     0.174 C 
ATOM     17  O   UNL     1      -4.981 -13.147  28.605  1.00  0.00    -0.335 OA
ATOM     18  C   UNL     1      -5.723 -14.536  31.076  1.00  0.00     0.180 C 
ATOM     19  C   UNL     1      -4.232 -14.140  30.770  1.00  0.00     0.214 C 
BRANCH  16  20
ATOM     20  O   UNL     1      -6.450 -12.113  30.883  1.00  0.00    -0.388 OA
ATOM     21  H   UNL     1      -6.923 -11.545  30.197  1.00  0.00     0.211 HD
ENDBRANCH  16  20
BRANCH  18  22
ATOM     22  O   UNL     1      -6.007 -14.547  32.471  1.00  0.00    -0.387 OA
ATOM     23  H   UNL     1      -5.711 -15.423  32.754  1.00  0.00     0.211 HD
ENDBRANCH  18  22
BRANCH  19  24
ATOM     24  O   UNL     1      -3.923 -12.846  31.322  1.00  0.00    -0.384 OA
ATOM     25  H   UNL     1      -3.231 -12.982  32.015  1.00  0.00     0.211 HD
ENDBRANCH  19  24
ENDBRANCH  12  13
ENDBRANCH   1  12
BRANCH   3  26
ATOM     26  O   UNL     1      -1.709 -15.614  24.363  1.00  0.00    -0.507 OA
ATOM     27  H   UNL     1      -0.870 -15.588  23.786  1.00  0.00     0.293 HD
ENDBRANCH   3  26
BRANCH   8  28
ATOM     28  C   UNL     1      -0.512 -20.598  28.563  1.00  0.00     0.021 A 
ATOM     29  C   UNL     1      -1.421 -21.696  28.421  1.00  0.00     0.016 A 
ATOM     30  C   UNL     1       0.587 -20.738  29.426  1.00  0.00     0.016 A 
ATOM     31  C   UNL     1      -1.117 -22.916  28.981  1.00  0.00     0.047 A 
ATOM     32  C   UNL     1       0.843 -21.986  30.043  1.00  0.00     0.047 A 
ATOM     33  C   UNL     1       0.024 -23.095  29.760  1.00  0.00     0.115 A 
BRANCH  33  34
ATOM     34  O   UNL     1       0.313 -24.369  30.289  1.00  0.00    -0.508 OA
ATOM     35  H   UNL     1       0.978 -25.023  29.876  1.00  0.00     0.293 HD
ENDBRANCH  33  34
ENDBRANCH   8  28
BRANCH   9  36
ATOM     36  O   UNL     1       0.104 -20.342  25.730  1.00  0.00    -0.454 OA
BRANCH  36  37
ATOM     37  C   UNL     1       1.526 -20.396  25.655  1.00  0.00     0.339 C 
ATOM     38  C   UNL     1       1.949 -20.509  24.166  1.00  0.00     0.214 C 
ATOM     39  O   UNL     1       2.020 -21.442  26.466  1.00  0.00    -0.335 OA
ATOM     40  C   UNL     1       1.431 -21.870  23.620  1.00  0.00     0.180 C 
ATOM     41  C   UNL     1       1.626 -22.727  25.997  1.00  0.00     0.151 C 
ATOM     42  C   UNL     1       1.996 -22.979  24.512  1.00  0.00     0.174 C 
ATOM     43  C   UNL     1       2.224 -23.802  26.894  1.00  0.00     0.042 C 
BRANCH  38  44
ATOM     44  O   UNL     1       1.518 -19.382  23.448  1.00  0.00    -0.384 OA
ATOM     45  H   UNL     1       1.662 -19.511  22.478  1.00  0.00     0.211 HD
ENDBRANCH  38  44
BRANCH  40  46
ATOM     46  O   UNL     1       0.020 -21.957  23.568  1.00  0.00    -0.387 OA
ATOM     47  H   UNL     1      -0.356 -21.057  23.778  1.00  0.00     0.211 HD
ENDBRANCH  40  46
BRANCH  42  48
ATOM     48  O   UNL     1       3.399 -23.074  24.389  1.00  0.00    -0.388 OA
ATOM     49  H   UNL     1       3.651 -22.715  23.502  1.00  0.00     0.211 HD
ENDBRANCH  42  48
ENDBRANCH  36  37
ENDBRANCH   9  36
TORSDOF 13
ENDMDL
MODEL 4
REMARK VINA RESULT:    -8.760      6.017      8.462
REMARK INTER + INTRA:         -14.393
REMARK INTER:                 -12.792
REMARK INTRA:                  -1.602
REMARK UNBOUND:                -1.024
REMARK SMILES C[C@@H]1O[C@@H](Oc2cc(O)c3c(=O)c(O[C@H]4O[C@H](C)[C@H](O)[C@@H](O)[C@H]4O)c(-c4ccc(O)cc4)oc3c2)[C@@H](O)[C@@H](O)[C@H]1O
REMARK SMILES IDX 6 1 7 2 8 3 10 4 34 5 35 6 33 7 25 8 13 9 11 10 12 11 5 12
REMARK SMILES IDX 4 13 1 14 2 15 40 16 3 17 38 18 36 19 41 20 39 22 37 24 9 26
REMARK SMILES IDX 26 28 27 29 32 30 28 31 31 32 29 33 30 34 14 36 15 37 23 38
REMARK SMILES IDX 16 39 21 40 17 41 19 42 18 43 24 44 22 46 20 48
REMARK H PARENT 41 21 39 23 37 25 9 27 30 35 24 45 22 47 20 49
REMARK Flexibility Score: inf
ROOT
ATOM      1  C   UNL     1      -2.250 -15.417  29.600  1.00  0.00     0.130 A 
ATOM      2  C   UNL     1      -2.356 -15.022  28.243  1.00  0.00     0.093 A 
ATOM      3  C   UNL     1      -1.964 -15.888  27.195  1.00  0.00     0.134 A 
ATOM      4  C   UNL     1      -1.603 -17.233  27.526  1.00  0.00     0.111 A 
ATOM      5  C   UNL     1      -1.522 -17.614  28.880  1.00  0.00     0.146 A 
ATOM      6  C   UNL     1      -1.792 -16.669  29.887  1.00  0.00     0.094 A 
ATOM      7  O   UNL     1      -1.230 -18.877  29.226  1.00  0.00    -0.452 OA
ATOM      8  C   UNL     1      -0.971 -19.807  28.338  1.00  0.00     0.180 A 
ATOM      9  C   UNL     1      -0.889 -19.451  26.972  1.00  0.00     0.214 A 
ATOM     10  C   UNL     1      -1.318 -18.195  26.546  1.00  0.00     0.239 A 
ATOM     11  O   UNL     1      -1.530 -18.016  25.318  1.00  0.00    -0.285 OA
ENDROOT
BRANCH   1  12
ATOM     12  O   UNL     1      -2.744 -14.599  30.658  1.00  0.00    -0.462 OA
BRANCH  12  13
ATOM     13  C   UNL     1      -3.825 -13.742  30.321  1.00  0.00     0.339 C 
ATOM     14  C   UNL     1      -4.458 -10.753  29.784  1.00  0.00     0.042 C 
ATOM     15  C   UNL     1      -4.955 -11.713  30.907  1.00  0.00     0.151 C 
ATOM     16  C   UNL     1      -6.376 -12.369  30.689  1.00  0.00     0.174 C 
ATOM     17  O   UNL     1      -3.993 -12.726  31.305  1.00  0.00    -0.335 OA
ATOM     18  C   UNL     1      -6.199 -13.413  29.502  1.00  0.00     0.180 C 
ATOM     19  C   UNL     1      -5.154 -14.490  29.973  1.00  0.00     0.214 C 
BRANCH  16  20
ATOM     20  O   UNL     1      -6.825 -12.908  31.908  1.00  0.00    -0.388 OA
ATOM     21  H   UNL     1      -6.333 -13.784  31.976  1.00  0.00     0.211 HD
ENDBRANCH  16  20
BRANCH  18  22
ATOM     22  O   UNL     1      -7.483 -13.974  29.249  1.00  0.00    -0.387 OA
ATOM     23  H   UNL     1      -8.091 -13.271  29.516  1.00  0.00     0.211 HD
ENDBRANCH  18  22
BRANCH  19  24
ATOM     24  O   UNL     1      -5.614 -15.164  31.160  1.00  0.00    -0.384 OA
ATOM     25  H   UNL     1      -5.503 -14.533  31.913  1.00  0.00     0.211 HD
ENDBRANCH  19  24
ENDBRANCH  12  13
ENDBRANCH   1  12
BRANCH   3  26
ATOM     26  O   UNL     1      -2.031 -15.360  25.894  1.00  0.00    -0.507 OA
ATOM     27  H   UNL     1      -2.827 -14.848  25.519  1.00  0.00     0.293 HD
ENDBRANCH   3  26
BRANCH   8  28
ATOM     28  C   UNL     1      -0.766 -21.196  28.768  1.00  0.00     0.021 A 
ATOM     29  C   UNL     1       0.523 -21.646  29.201  1.00  0.00     0.016 A 
ATOM     30  C   UNL     1      -1.835 -22.106  28.768  1.00  0.00     0.016 A 
ATOM     31  C   UNL     1       0.659 -22.891  29.771  1.00  0.00     0.047 A 
ATOM     32  C   UNL     1      -1.654 -23.405  29.301  1.00  0.00     0.047 A 
ATOM     33  C   UNL     1      -0.418 -23.769  29.867  1.00  0.00     0.115 A 
BRANCH  33  34
ATOM     34  O   UNL     1      -0.242 -25.023  30.486  1.00  0.00    -0.508 OA
ATOM     35  H   UNL     1       0.321 -25.780  30.097  1.00  0.00     0.293 HD
ENDBRANCH  33  34
ENDBRANCH   8  28
BRANCH   9  36
ATOM     36  O   UNL     1      -0.307 -20.311  26.032  1.00  0.00    -0.454 OA
BRANCH  36  37
ATOM     37  C   UNL     1       1.107 -20.413  25.891  1.00  0.00     0.339 C 
ATOM     38  C   UNL     1       1.543 -19.648  24.613  1.00  0.00     0.214 C 
ATOM     39  O   UNL     1       1.504 -21.770  25.904  1.00  0.00    -0.335 OA
ATOM     40  C   UNL     1       0.927 -20.375  23.383  1.00  0.00     0.180 C 
ATOM     41  C   UNL     1       1.018 -22.489  24.777  1.00  0.00     0.151 C 
ATOM     42  C   UNL     1       1.390 -21.834  23.422  1.00  0.00     0.174 C 
ATOM     43  C   UNL     1       1.515 -23.927  24.838  1.00  0.00     0.042 C 
BRANCH  38  44
ATOM     44  O   UNL     1       1.214 -18.288  24.721  1.00  0.00    -0.384 OA
ATOM     45  H   UNL     1       2.031 -17.731  24.736  1.00  0.00     0.211 HD
ENDBRANCH  38  44
BRANCH  40  46
ATOM     46  O   UNL     1      -0.484 -20.311  23.339  1.00  0.00    -0.387 OA
ATOM     47  H   UNL     1      -0.832 -20.443  24.265  1.00  0.00     0.211 HD
ENDBRANCH  40  46
BRANCH  42  48
ATOM     48  O   UNL     1       2.782 -21.939  23.217  1.00  0.00    -0.388 OA
ATOM     49  H   UNL     1       3.150 -22.525  23.924  1.00  0.00     0.211 HD
ENDBRANCH  42  48
ENDBRANCH  36  37
ENDBRANCH   9  36
TORSDOF 13
ENDMDL
MODEL 5
REMARK VINA RESULT:    -8.633      6.381      9.855
REMARK INTER + INTRA:         -14.199
REMARK INTER:                 -11.860
REMARK INTRA:                  -2.339
REMARK UNBOUND:                -1.024
REMARK SMILES C[C@@H]1O[C@@H](Oc2cc(O)c3c(=O)c(O[C@H]4O[C@H](C)[C@H](O)[C@@H](O)[C@H]4O)c(-c4ccc(O)cc4)oc3c2)[C@@H](O)[C@@H](O)[C@H]1O
REMARK SMILES IDX 6 1 7 2 8 3 10 4 34 5 35 6 33 7 25 8 13 9 11 10 12 11 5 12
REMARK SMILES IDX 4 13 1 14 2 15 40 16 3 17 38 18 36 19 41 20 39 22 37 24 9 26
REMARK SMILES IDX 26 28 27 29 32 30 28 31 31 32 29 33 30 34 14 36 15 37 23 38
REMARK SMILES IDX 16 39 21 40 17 41 19 42 18 43 24 44 22 46 20 48
REMARK H PARENT 41 21 39 23 37 25 9 27 30 35 24 45 22 47 20 49
REMARK Flexibility Score: inf
ROOT
ATOM      1  C   UNL     1      -1.914 -15.129  25.977  1.00  0.00     0.130 A 
ATOM      2  C   UNL     1      -1.608 -15.446  24.630  1.00  0.00     0.093 A 
ATOM      3  C   UNL     1      -1.064 -16.705  24.278  1.00  0.00     0.134 A 
ATOM      4  C   UNL     1      -0.975 -17.712  25.292  1.00  0.00     0.111 A 
ATOM      5  C   UNL     1      -1.302 -17.385  26.622  1.00  0.00     0.146 A 
ATOM      6  C   UNL     1      -1.708 -16.075  26.938  1.00  0.00     0.094 A 
ATOM      7  O   UNL     1      -1.272 -18.314  27.589  1.00  0.00    -0.452 OA
ATOM      8  C   UNL     1      -0.906 -19.553  27.362  1.00  0.00     0.180 A 
ATOM      9  C   UNL     1      -0.422 -19.904  26.081  1.00  0.00     0.214 A 
ATOM     10  C   UNL     1      -0.563 -19.023  25.010  1.00  0.00     0.239 A 
ATOM     11  O   UNL     1      -0.419 -19.467  23.842  1.00  0.00    -0.285 OA
ENDROOT
BRANCH   1  12
ATOM     12  O   UNL     1      -2.563 -13.910  26.330  1.00  0.00    -0.462 OA
BRANCH  12  13
ATOM     13  C   UNL     1      -2.577 -13.598  27.715  1.00  0.00     0.339 C 
ATOM     14  C   UNL     1      -3.561 -14.725  30.432  1.00  0.00     0.042 C 
ATOM     15  C   UNL     1      -3.968 -13.435  29.658  1.00  0.00     0.151 C 
ATOM     16  C   UNL     1      -3.272 -12.094  30.119  1.00  0.00     0.174 C 
ATOM     17  O   UNL     1      -3.911 -13.556  28.212  1.00  0.00    -0.335 OA
ATOM     18  C   UNL     1      -1.752 -12.210  29.666  1.00  0.00     0.180 C 
ATOM     19  C   UNL     1      -1.735 -12.336  28.099  1.00  0.00     0.214 C 
BRANCH  16  20
ATOM     20  O   UNL     1      -3.982 -11.002  29.587  1.00  0.00    -0.388 OA
ATOM     21  H   UNL     1      -4.761 -10.895  30.217  1.00  0.00     0.211 HD
ENDBRANCH  16  20
BRANCH  18  22
ATOM     22  O   UNL     1      -1.092 -11.035  30.125  1.00  0.00    -0.387 OA
ATOM     23  H   UNL     1      -0.740 -11.297  30.987  1.00  0.00     0.211 HD
ENDBRANCH  18  22
BRANCH  19  24
ATOM     24  O   UNL     1      -2.347 -11.185  27.487  1.00  0.00    -0.384 OA
ATOM     25  H   UNL     1      -1.659 -10.756  26.921  1.00  0.00     0.211 HD
ENDBRANCH  19  24
ENDBRANCH  12  13
ENDBRANCH   1  12
BRANCH   3  26
ATOM     26  O   UNL     1      -0.718 -16.877  22.927  1.00  0.00    -0.507 OA
ATOM     27  H   UNL     1       0.100 -17.388  22.600  1.00  0.00     0.293 HD
ENDBRANCH   3  26
BRANCH   8  28
ATOM     28  C   UNL     1      -0.997 -20.553  28.433  1.00  0.00     0.021 A 
ATOM     29  C   UNL     1      -1.800 -21.729  28.271  1.00  0.00     0.016 A 
ATOM     30  C   UNL     1      -0.290 -20.378  29.634  1.00  0.00     0.016 A 
ATOM     31  C   UNL     1      -1.730 -22.740  29.201  1.00  0.00     0.047 A 
ATOM     32  C   UNL     1      -0.287 -21.407  30.605  1.00  0.00     0.047 A 
ATOM     33  C   UNL     1      -0.955 -22.619  30.352  1.00  0.00     0.115 A 
BRANCH  33  34
ATOM     34  O   UNL     1      -0.888 -23.692  31.264  1.00  0.00    -0.508 OA
ATOM     35  H   UNL     1      -1.678 -24.294  31.500  1.00  0.00     0.293 HD
ENDBRANCH  33  34
ENDBRANCH   8  28
BRANCH   9  36
ATOM     36  O   UNL     1       0.275 -21.101  25.872  1.00  0.00    -0.454 OA
BRANCH  36  37
ATOM     37  C   UNL     1       1.672 -21.205  26.132  1.00  0.00     0.339 C 
ATOM     38  C   UNL     1       2.378 -21.779  24.876  1.00  0.00     0.214 C 
ATOM     39  O   UNL     1       1.897 -21.960  27.306  1.00  0.00    -0.335 OA
ATOM     40  C   UNL     1       1.865 -23.232  24.658  1.00  0.00     0.180 C 
ATOM     41  C   UNL     1       1.497 -23.318  27.164  1.00  0.00     0.151 C 
ATOM     42  C   UNL     1       2.139 -24.023  25.940  1.00  0.00     0.174 C 
ATOM     43  C   UNL     1       1.804 -24.076  28.448  1.00  0.00     0.042 C 
BRANCH  38  44
ATOM     44  O   UNL     1       2.202 -20.920  23.780  1.00  0.00    -0.384 OA
ATOM     45  H   UNL     1       2.739 -20.097  23.892  1.00  0.00     0.211 HD
ENDBRANCH  38  44
BRANCH  40  46
ATOM     46  O   UNL     1       0.493 -23.302  24.325  1.00  0.00    -0.387 OA
ATOM     47  H   UNL     1       0.394 -23.898  23.531  1.00  0.00     0.211 HD
ENDBRANCH  40  46
BRANCH  42  48
ATOM     48  O   UNL     1       3.523 -24.180  26.163  1.00  0.00    -0.388 OA
ATOM     49  H   UNL     1       3.762 -25.115  25.942  1.00  0.00     0.211 HD
ENDBRANCH  42  48
ENDBRANCH  36  37
ENDBRANCH   9  36
TORSDOF 13
ENDMDL
MODEL 6
REMARK VINA RESULT:    -8.589      4.934      8.896
REMARK INTER + INTRA:         -14.132
REMARK INTER:                 -11.923
REMARK INTRA:                  -2.209
REMARK UNBOUND:                -1.024
REMARK SMILES C[C@@H]1O[C@@H](Oc2cc(O)c3c(=O)c(O[C@H]4O[C@H](C)[C@H](O)[C@@H](O)[C@H]4O)c(-c4ccc(O)cc4)oc3c2)[C@@H](O)[C@@H](O)[C@H]1O
REMARK SMILES IDX 6 1 7 2 8 3 10 4 34 5 35 6 33 7 25 8 13 9 11 10 12 11 5 12
REMARK SMILES IDX 4 13 1 14 2 15 40 16 3 17 38 18 36 19 41 20 39 22 37 24 9 26
REMARK SMILES IDX 26 28 27 29 32 30 28 31 31 32 29 33 30 34 14 36 15 37 23 38
REMARK SMILES IDX 16 39 21 40 17 41 19 42 18 43 24 44 22 46 20 48
REMARK H PARENT 41 21 39 23 37 25 9 27 30 35 24 45 22 47 20 49
REMARK Flexibility Score: inf
ROOT
ATOM      1  C   UNL     1       0.374 -18.164  25.264  1.00  0.00     0.130 A 
ATOM      2  C   UNL     1      -0.497 -17.440  24.411  1.00  0.00     0.093 A 
ATOM      3  C   UNL     1      -1.316 -16.400  24.912  1.00  0.00     0.134 A 
ATOM      4  C   UNL     1      -1.135 -15.988  26.271  1.00  0.00     0.111 A 
ATOM      5  C   UNL     1      -0.250 -16.707  27.099  1.00  0.00     0.146 A 
ATOM      6  C   UNL     1       0.439 -17.820  26.583  1.00  0.00     0.094 A 
ATOM      7  O   UNL     1      -0.023 -16.322  28.364  1.00  0.00    -0.452 OA
ATOM      8  C   UNL     1      -0.628 -15.294  28.906  1.00  0.00     0.180 A 
ATOM      9  C   UNL     1      -1.637 -14.625  28.175  1.00  0.00     0.214 A 
ATOM     10  C   UNL     1      -1.814 -14.890  26.818  1.00  0.00     0.239 A 
ATOM     11  O   UNL     1      -2.485 -14.078  26.128  1.00  0.00    -0.285 OA
ENDROOT
BRANCH   1  12
ATOM     12  O   UNL     1       1.283 -19.136  24.754  1.00  0.00    -0.462 OA
BRANCH  12  13
ATOM     13  C   UNL     1       0.972 -20.488  25.055  1.00  0.00     0.339 C 
ATOM     14  C   UNL     1       0.314 -22.336  27.459  1.00  0.00     0.042 C 
ATOM     15  C   UNL     1       1.519 -22.342  26.470  1.00  0.00     0.151 C 
ATOM     16  C   UNL     1       1.432 -23.364  25.268  1.00  0.00     0.174 C 
ATOM     17  O   UNL     1       1.907 -21.030  25.983  1.00  0.00    -0.335 OA
ATOM     18  C   UNL     1       0.296 -22.811  24.303  1.00  0.00     0.180 C 
ATOM     19  C   UNL     1       0.755 -21.394  23.797  1.00  0.00     0.214 C 
BRANCH  16  20
ATOM     20  O   UNL     1       2.707 -23.500  24.689  1.00  0.00    -0.388 OA
ATOM     21  H   UNL     1       2.699 -24.436  24.315  1.00  0.00     0.211 HD
ENDBRANCH  16  20
BRANCH  18  22
ATOM     22  O   UNL     1       0.160 -23.749  23.242  1.00  0.00    -0.387 OA
ATOM     23  H   UNL     1      -0.359 -24.463  23.638  1.00  0.00     0.211 HD
ENDBRANCH  18  22
BRANCH  19  24
ATOM     24  O   UNL     1       2.005 -21.484  23.089  1.00  0.00    -0.384 OA
ATOM     25  H   UNL     1       2.723 -21.284  23.739  1.00  0.00     0.211 HD
ENDBRANCH  19  24
ENDBRANCH  12  13
ENDBRANCH   1  12
BRANCH   3  26
ATOM     26  O   UNL     1      -2.203 -15.811  23.994  1.00  0.00    -0.507 OA
ATOM     27  H   UNL     1      -2.674 -14.919  24.137  1.00  0.00     0.293 HD
ENDBRANCH   3  26
BRANCH   8  28
ATOM     28  C   UNL     1      -0.260 -14.852  30.257  1.00  0.00     0.021 A 
ATOM     29  C   UNL     1       0.156 -13.502  30.498  1.00  0.00     0.016 A 
ATOM     30  C   UNL     1      -0.316 -15.745  31.338  1.00  0.00     0.016 A 
ATOM     31  C   UNL     1       0.320 -13.056  31.789  1.00  0.00     0.047 A 
ATOM     32  C   UNL     1      -0.080 -15.276  32.652  1.00  0.00     0.047 A 
ATOM     33  C   UNL     1       0.171 -13.910  32.879  1.00  0.00     0.115 A 
BRANCH  33  34
ATOM     34  O   UNL     1       0.318 -13.403  34.187  1.00  0.00    -0.508 OA
ATOM     35  H   UNL     1      -0.450 -13.034  34.748  1.00  0.00     0.293 HD
ENDBRANCH  33  34
ENDBRANCH   8  28
BRANCH   9  36
ATOM     36  O   UNL     1      -2.528 -13.747  28.805  1.00  0.00    -0.454 OA
BRANCH  36  37
ATOM     37  C   UNL     1      -3.706 -14.218  29.453  1.00  0.00     0.339 C 
ATOM     38  C   UNL     1      -4.933 -13.454  28.890  1.00  0.00     0.214 C 
ATOM     39  O   UNL     1      -3.568 -14.115  30.856  1.00  0.00    -0.335 OA
ATOM     40  C   UNL     1      -4.789 -11.955  29.282  1.00  0.00     0.180 C 
ATOM     41  C   UNL     1      -3.480 -12.764  31.295  1.00  0.00     0.151 C 
ATOM     42  C   UNL     1      -4.657 -11.881  30.805  1.00  0.00     0.174 C 
ATOM     43  C   UNL     1      -3.372 -12.729  32.814  1.00  0.00     0.042 C 
BRANCH  38  44
ATOM     44  O   UNL     1      -5.069 -13.694  27.513  1.00  0.00    -0.384 OA
ATOM     45  H   UNL     1      -5.437 -14.597  27.351  1.00  0.00     0.211 HD
ENDBRANCH  38  44
BRANCH  40  46
ATOM     46  O   UNL     1      -3.690 -11.314  28.665  1.00  0.00    -0.387 OA
ATOM     47  H   UNL     1      -3.276 -10.696  29.329  1.00  0.00     0.211 HD
ENDBRANCH  40  46
BRANCH  42  48
ATOM     48  O   UNL     1      -5.846 -12.287  31.446  1.00  0.00    -0.388 OA
ATOM     49  H   UNL     1      -5.623 -12.520  32.382  1.00  0.00     0.211 HD
ENDBRANCH  42  48
ENDBRANCH  36  37
ENDBRANCH   9  36
TORSDOF 13
ENDMDL
MODEL 7
REMARK VINA RESULT:    -8.436      5.105      8.271
REMARK INTER + INTRA:         -13.899
REMARK INTER:                 -11.996
REMARK INTRA:                  -1.903
REMARK UNBOUND:                -1.024
REMARK SMILES C[C@@H]1O[C@@H](Oc2cc(O)c3c(=O)c(O[C@H]4O[C@H](C)[C@H](O)[C@@H](O)[C@H]4O)c(-c4ccc(O)cc4)oc3c2)[C@@H](O)[C@@H](O)[C@H]1O
REMARK SMILES IDX 6 1 7 2 8 3 10 4 34 5 35 6 33 7 25 8 13 9 11 10 12 11 5 12
REMARK SMILES IDX 4 13 1 14 2 15 40 16 3 17 38 18 36 19 41 20 39 22 37 24 9 26
REMARK SMILES IDX 26 28 27 29 32 30 28 31 31 32 29 33 30 34 14 36 15 37 23 38
REMARK SMILES IDX 16 39 21 40 17 41 19 42 18 43 24 44 22 46 20 48
REMARK H PARENT 41 21 39 23 37 25 9 27 30 35 24 45 22 47 20 49
REMARK Flexibility Score: inf
ROOT
ATOM      1  C   UNL     1      -1.553 -13.239  28.903  1.00  0.00     0.130 A 
ATOM      2  C   UNL     1      -1.743 -13.183  27.499  1.00  0.00     0.093 A 
ATOM      3  C   UNL     1      -1.571 -14.331  26.690  1.00  0.00     0.134 A 
ATOM      4  C   UNL     1      -1.354 -15.590  27.337  1.00  0.00     0.111 A 
ATOM      5  C   UNL     1      -1.189 -15.630  28.735  1.00  0.00     0.146 A 
ATOM      6  C   UNL     1      -1.233 -14.434  29.476  1.00  0.00     0.094 A 
ATOM      7  O   UNL     1      -1.027 -16.796  29.378  1.00  0.00    -0.452 OA
ATOM      8  C   UNL     1      -0.980 -17.945  28.749  1.00  0.00     0.180 A 
ATOM      9  C   UNL     1      -0.989 -17.957  27.335  1.00  0.00     0.214 A 
ATOM     10  C   UNL     1      -1.294 -16.797  26.625  1.00  0.00     0.239 A 
ATOM     11  O   UNL     1      -1.603 -16.899  25.409  1.00  0.00    -0.285 OA
ENDROOT
BRANCH   1  12
ATOM     12  O   UNL     1      -1.830 -12.119  29.740  1.00  0.00    -0.462 OA
BRANCH  12  13
ATOM     13  C   UNL     1      -3.123 -12.091  30.325  1.00  0.00     0.339 C 
ATOM     14  C   UNL     1      -4.850 -13.574  32.433  1.00  0.00     0.042 C 
ATOM     15  C   UNL     1      -5.031 -13.423  30.892  1.00  0.00     0.151 C 
ATOM     16  C   UNL     1      -6.034 -12.301  30.412  1.00  0.00     0.174 C 
ATOM     17  O   UNL     1      -3.789 -13.337  30.144  1.00  0.00    -0.335 OA
ATOM     18  C   UNL     1      -5.328 -10.914  30.736  1.00  0.00     0.180 C 
ATOM     19  C   UNL     1      -3.992 -10.859  29.907  1.00  0.00     0.214 C 
BRANCH  16  20
ATOM     20  O   UNL     1      -6.353 -12.518  29.059  1.00  0.00    -0.388 OA
ATOM     21  H   UNL     1      -5.467 -12.425  28.588  1.00  0.00     0.211 HD
ENDBRANCH  16  20
BRANCH  18  22
ATOM     22  O   UNL     1      -6.241  -9.887  30.364  1.00  0.00    -0.387 OA
ATOM     23  H   UNL     1      -6.570  -9.562  31.214  1.00  0.00     0.211 HD
ENDBRANCH  18  22
BRANCH  19  24
ATOM     24  O   UNL     1      -4.262 -10.959  28.495  1.00  0.00    -0.384 OA
ATOM     25  H   UNL     1      -4.203 -11.917  28.255  1.00  0.00     0.211 HD
ENDBRANCH  19  24
ENDBRANCH  12  13
ENDBRANCH   1  12
BRANCH   3  26
ATOM     26  O   UNL     1      -1.699 -14.139  25.303  1.00  0.00    -0.507 OA
ATOM     27  H   UNL     1      -0.942 -13.843  24.689  1.00  0.00     0.293 HD
ENDBRANCH   3  26
BRANCH   8  28
ATOM     28  C   UNL     1      -0.912 -19.198  29.511  1.00  0.00     0.021 A 
ATOM     29  C   UNL     1       0.263 -19.541  30.255  1.00  0.00     0.016 A 
ATOM     30  C   UNL     1      -2.005 -20.080  29.530  1.00  0.00     0.016 A 
ATOM     31  C   UNL     1       0.245 -20.621  31.108  1.00  0.00     0.047 A 
ATOM     32  C   UNL     1      -1.975 -21.220  30.367  1.00  0.00     0.047 A 
ATOM     33  C   UNL     1      -0.871 -21.449  31.209  1.00  0.00     0.115 A 
BRANCH  33  34
ATOM     34  O   UNL     1      -0.858 -22.527  32.117  1.00  0.00    -0.508 OA
ATOM     35  H   UNL     1      -0.323 -22.538  32.986  1.00  0.00     0.293 HD
ENDBRANCH  33  34
ENDBRANCH   8  28
BRANCH   9  36
ATOM     36  O   UNL     1      -0.619 -19.101  26.617  1.00  0.00    -0.454 OA
BRANCH  36  37
ATOM     37  C   UNL     1       0.742 -19.368  26.290  1.00  0.00     0.339 C 
ATOM     38  C   UNL     1       0.839 -19.728  24.784  1.00  0.00     0.214 C 
ATOM     39  O   UNL     1       1.265 -20.363  27.147  1.00  0.00    -0.335 OA
ATOM     40  C   UNL     1       0.066 -21.059  24.557  1.00  0.00     0.180 C 
ATOM     41  C   UNL     1       0.639 -21.626  26.959  1.00  0.00     0.151 C 
ATOM     42  C   UNL     1       0.668 -22.115  25.488  1.00  0.00     0.174 C 
ATOM     43  C   UNL     1       1.277 -22.654  27.884  1.00  0.00     0.042 C 
BRANCH  38  44
ATOM     44  O   UNL     1       0.405 -18.651  23.994  1.00  0.00    -0.384 OA
ATOM     45  H   UNL     1       0.683 -17.791  24.395  1.00  0.00     0.211 HD
ENDBRANCH  38  44
BRANCH  40  46
ATOM     46  O   UNL     1      -1.326 -20.949  24.780  1.00  0.00    -0.387 OA
ATOM     47  H   UNL     1      -1.738 -20.524  23.977  1.00  0.00     0.211 HD
ENDBRANCH  40  46
BRANCH  42  48
ATOM     48  O   UNL     1       1.996 -22.426  25.124  1.00  0.00    -0.388 OA
ATOM     49  H   UNL     1       2.547 -21.617  25.267  1.00  0.00     0.211 HD
ENDBRANCH  42  48
ENDBRANCH  36  37
ENDBRANCH   9  36
TORSDOF 13
ENDMDL
MODEL 8
REMARK VINA RESULT:    -8.421      1.734      4.177
REMARK INTER + INTRA:         -13.876
REMARK INTER:                 -11.701
REMARK INTRA:                  -2.175
REMARK UNBOUND:                -1.024
REMARK SMILES C[C@@H]1O[C@@H](Oc2cc(O)c3c(=O)c(O[C@H]4O[C@H](C)[C@H](O)[C@@H](O)[C@H]4O)c(-c4ccc(O)cc4)oc3c2)[C@@H](O)[C@@H](O)[C@H]1O
REMARK SMILES IDX 6 1 7 2 8 3 10 4 34 5 35 6 33 7 25 8 13 9 11 10 12 11 5 12
REMARK SMILES IDX 4 13 1 14 2 15 40 16 3 17 38 18 36 19 41 20 39 22 37 24 9 26
REMARK SMILES IDX 26 28 27 29 32 30 28 31 31 32 29 33 30 34 14 36 15 37 23 38
REMARK SMILES IDX 16 39 21 40 17 41 19 42 18 43 24 44 22 46 20 48
REMARK H PARENT 41 21 39 23 37 25 9 27 30 35 24 45 22 47 20 49
REMARK Flexibility Score: inf
ROOT
ATOM      1  C   UNL     1      -7.919 -15.190  29.412  1.00  0.00     0.130 A 
ATOM      2  C   UNL     1      -7.888 -15.213  30.828  1.00  0.00     0.093 A 
ATOM      3  C   UNL     1      -6.757 -14.753  31.544  1.00  0.00     0.134 A 
ATOM      4  C   UNL     1      -5.704 -14.116  30.812  1.00  0.00     0.111 A 
ATOM      5  C   UNL     1      -5.762 -14.084  29.406  1.00  0.00     0.146 A 
ATOM      6  C   UNL     1      -6.848 -14.680  28.739  1.00  0.00     0.094 A 
ATOM      7  O   UNL     1      -4.814 -13.458  28.690  1.00  0.00    -0.452 OA
ATOM      8  C   UNL     1      -3.779 -12.881  29.248  1.00  0.00     0.180 A 
ATOM      9  C   UNL     1      -3.587 -13.009  30.643  1.00  0.00     0.214 A 
ATOM     10  C   UNL     1      -4.603 -13.523  31.448  1.00  0.00     0.239 A 
ATOM     11  O   UNL     1      -4.539 -13.338  32.691  1.00  0.00    -0.285 OA
ENDROOT
BRANCH   1  12
ATOM     12  O   UNL     1      -9.091 -15.546  28.683  1.00  0.00    -0.462 OA
BRANCH  12  13
ATOM     13  C   UNL     1      -9.977 -16.440  29.341  1.00  0.00     0.339 C 
ATOM     14  C   UNL     1      -9.993 -18.671  31.496  1.00  0.00     0.042 C 
ATOM     15  C   UNL     1     -10.320 -18.725  29.973  1.00  0.00     0.151 C 
ATOM     16  C   UNL     1     -11.850 -18.667  29.584  1.00  0.00     0.174 C 
ATOM     17  O   UNL     1      -9.562 -17.791  29.160  1.00  0.00    -0.335 OA
ATOM     18  C   UNL     1     -12.330 -17.187  29.909  1.00  0.00     0.180 C 
ATOM     19  C   UNL     1     -11.489 -16.209  29.009  1.00  0.00     0.214 C 
BRANCH  16  20
ATOM     20  O   UNL     1     -11.999 -19.073  28.245  1.00  0.00    -0.388 OA
ATOM     21  H   UNL     1     -11.299 -19.789  28.135  1.00  0.00     0.211 HD
ENDBRANCH  16  20
BRANCH  18  22
ATOM     22  O   UNL     1     -13.723 -17.129  29.621  1.00  0.00    -0.387 OA
ATOM     23  H   UNL     1     -13.923 -16.184  29.668  1.00  0.00     0.211 HD
ENDBRANCH  18  22
BRANCH  19  24
ATOM     24  O   UNL     1     -11.691 -16.499  27.613  1.00  0.00    -0.384 OA
ATOM     25  H   UNL     1     -10.857 -16.253  27.141  1.00  0.00     0.211 HD
ENDBRANCH  19  24
ENDBRANCH  12  13
ENDBRANCH   1  12
BRANCH   3  26
ATOM     26  O   UNL     1      -6.802 -14.904  32.941  1.00  0.00    -0.507 OA
ATOM     27  H   UNL     1      -7.647 -15.103  33.474  1.00  0.00     0.293 HD
ENDBRANCH   3  26
BRANCH   8  28
ATOM     28  C   UNL     1      -2.832 -12.117  28.426  1.00  0.00     0.021 A 
ATOM     29  C   UNL     1      -1.982 -12.778  27.482  1.00  0.00     0.016 A 
ATOM     30  C   UNL     1      -2.750 -10.720  28.548  1.00  0.00     0.016 A 
ATOM     31  C   UNL     1      -1.236 -12.037  26.594  1.00  0.00     0.047 A 
ATOM     32  C   UNL     1      -1.925  -9.984  27.664  1.00  0.00     0.047 A 
ATOM     33  C   UNL     1      -1.221 -10.645  26.640  1.00  0.00     0.115 A 
BRANCH  33  34
ATOM     34  O   UNL     1      -0.468  -9.925  25.691  1.00  0.00    -0.508 OA
ATOM     35  H   UNL     1      -0.707  -9.855  24.702  1.00  0.00     0.293 HD
ENDBRANCH  33  34
ENDBRANCH   8  28
BRANCH   9  36
ATOM     36  O   UNL     1      -2.357 -12.701  31.238  1.00  0.00    -0.454 OA
BRANCH  36  37
ATOM     37  C   UNL     1      -1.412 -13.717  31.564  1.00  0.00     0.339 C 
ATOM     38  C   UNL     1      -0.772 -13.389  32.938  1.00  0.00     0.214 C 
ATOM     39  O   UNL     1      -0.471 -13.863  30.519  1.00  0.00    -0.335 OA
ATOM     40  C   UNL     1       0.039 -12.069  32.790  1.00  0.00     0.180 C 
ATOM     41  C   UNL     1       0.344 -12.708  30.357  1.00  0.00     0.151 C 
ATOM     42  C   UNL     1       1.056 -12.269  31.662  1.00  0.00     0.174 C 
ATOM     43  C   UNL     1       1.355 -12.952  29.245  1.00  0.00     0.042 C 
BRANCH  38  44
ATOM     44  O   UNL     1      -1.753 -13.369  33.943  1.00  0.00    -0.384 OA
ATOM     45  H   UNL     1      -1.556 -12.664  34.609  1.00  0.00     0.211 HD
ENDBRANCH  38  44
BRANCH  40  46
ATOM     46  O   UNL     1      -0.768 -10.938  32.524  1.00  0.00    -0.387 OA
ATOM     47  H   UNL     1      -1.669 -11.258  32.239  1.00  0.00     0.211 HD
ENDBRANCH  40  46
BRANCH  42  48
ATOM     48  O   UNL     1       2.029 -13.229  32.011  1.00  0.00    -0.388 OA
ATOM     49  H   UNL     1       1.871 -14.036  31.462  1.00  0.00     0.211 HD
ENDBRANCH  42  48
ENDBRANCH  36  37
ENDBRANCH   9  36
TORSDOF 13
ENDMDL
MODEL 9
REMARK VINA RESULT:    -8.272      6.257      9.458
REMARK INTER + INTRA:         -13.649
REMARK INTER:                 -11.518
REMARK INTRA:                  -2.131
REMARK UNBOUND:                -1.024
REMARK SMILES C[C@@H]1O[C@@H](Oc2cc(O)c3c(=O)c(O[C@H]4O[C@H](C)[C@H](O)[C@@H](O)[C@H]4O)c(-c4ccc(O)cc4)oc3c2)[C@@H](O)[C@@H](O)[C@H]1O
REMARK SMILES IDX 6 1 7 2 8 3 10 4 34 5 35 6 33 7 25 8 13 9 11 10 12 11 5 12
REMARK SMILES IDX 4 13 1 14 2 15 40 16 3 17 38 18 36 19 41 20 39 22 37 24 9 26
REMARK SMILES IDX 26 28 27 29 32 30 28 31 31 32 29 33 30 34 14 36 15 37 23 38
REMARK SMILES IDX 16 39 21 40 17 41 19 42 18 43 24 44 22 46 20 48
REMARK H PARENT 41 21 39 23 37 25 9 27 30 35 24 45 22 47 20 49
REMARK Flexibility Score: inf
ROOT
ATOM      1  C   UNL     1      -1.920 -15.087  30.103  1.00  0.00     0.130 A 
ATOM      2  C   UNL     1      -1.089 -15.249  31.240  1.00  0.00     0.093 A 
ATOM      3  C   UNL     1      -0.326 -16.426  31.429  1.00  0.00     0.134 A 
ATOM      4  C   UNL     1      -0.289 -17.387  30.368  1.00  0.00     0.111 A 
ATOM      5  C   UNL     1      -1.106 -17.200  29.236  1.00  0.00     0.146 A 
ATOM      6  C   UNL     1      -1.949 -16.076  29.164  1.00  0.00     0.094 A 
ATOM      7  O   UNL     1      -1.064 -18.057  28.205  1.00  0.00    -0.452 OA
ATOM      8  C   UNL     1      -0.300 -19.122  28.207  1.00  0.00     0.180 A 
ATOM      9  C   UNL     1       0.429 -19.445  29.375  1.00  0.00     0.214 A 
ATOM     10  C   UNL     1       0.532 -18.523  30.416  1.00  0.00     0.239 A 
ATOM     11  O   UNL     1       1.424 -18.697  31.287  1.00  0.00    -0.285 OA
ENDROOT
BRANCH   1  12
ATOM     12  O   UNL     1      -2.605 -13.864  29.846  1.00  0.00    -0.462 OA
BRANCH  12  13
ATOM     13  C   UNL     1      -3.970 -13.828  30.237  1.00  0.00     0.339 C 
ATOM     14  C   UNL     1      -6.817 -14.311  29.104  1.00  0.00     0.042 C 
ATOM     15  C   UNL     1      -6.142 -13.014  29.644  1.00  0.00     0.151 C 
ATOM     16  C   UNL     1      -6.472 -12.624  31.139  1.00  0.00     0.174 C 
ATOM     17  O   UNL     1      -4.711 -12.936  29.411  1.00  0.00    -0.335 OA
ATOM     18  C   UNL     1      -5.738 -13.705  32.046  1.00  0.00     0.180 C 
ATOM     19  C   UNL     1      -4.195 -13.587  31.766  1.00  0.00     0.214 C 
BRANCH  16  20
ATOM     20  O   UNL     1      -6.091 -11.288  31.360  1.00  0.00    -0.388 OA
ATOM     21  H   UNL     1      -6.270 -10.841  30.475  1.00  0.00     0.211 HD
ENDBRANCH  16  20
BRANCH  18  22
ATOM     22  O   UNL     1      -6.071 -13.407  33.397  1.00  0.00    -0.387 OA
ATOM     23  H   UNL     1      -5.641 -14.117  33.896  1.00  0.00     0.211 HD
ENDBRANCH  18  22
BRANCH  19  24
ATOM     24  O   UNL     1      -3.718 -12.266  32.086  1.00  0.00    -0.384 OA
ATOM     25  H   UNL     1      -2.798 -12.366  32.436  1.00  0.00     0.211 HD
ENDBRANCH  19  24
ENDBRANCH  12  13
ENDBRANCH   1  12
BRANCH   3  26
ATOM     26  O   UNL     1       0.392 -16.515  32.634  1.00  0.00    -0.507 OA
ATOM     27  H   UNL     1       0.227 -15.927  33.449  1.00  0.00     0.293 HD
ENDBRANCH   3  26
BRANCH   8  28
ATOM     28  C   UNL     1      -0.211 -19.965  27.008  1.00  0.00     0.021 A 
ATOM     29  C   UNL     1       1.000 -20.029  26.245  1.00  0.00     0.016 A 
ATOM     30  C   UNL     1      -1.313 -20.730  26.593  1.00  0.00     0.016 A 
ATOM     31  C   UNL     1       1.127 -20.957  25.237  1.00  0.00     0.047 A 
ATOM     32  C   UNL     1      -1.176 -21.633  25.511  1.00  0.00     0.047 A 
ATOM     33  C   UNL     1       0.071 -21.792  24.879  1.00  0.00     0.115 A 
BRANCH  33  34
ATOM     34  O   UNL     1       0.255 -22.750  23.861  1.00  0.00    -0.508 OA
ATOM     35  H   UNL     1       0.949 -23.498  23.896  1.00  0.00     0.293 HD
ENDBRANCH  33  34
ENDBRANCH   8  28
BRANCH   9  36
ATOM     36  O   UNL     1       0.994 -20.714  29.550  1.00  0.00    -0.454 OA
BRANCH  36  37
ATOM     37  C   UNL     1       0.205 -21.833  29.944  1.00  0.00     0.339 C 
ATOM     38  C   UNL     1       0.804 -22.442  31.239  1.00  0.00     0.214 C 
ATOM     39  O   UNL     1       0.097 -22.756  28.880  1.00  0.00    -0.335 OA
ATOM     40  C   UNL     1       2.216 -23.001  30.900  1.00  0.00     0.180 C 
ATOM     41  C   UNL     1       1.346 -23.349  28.545  1.00  0.00     0.151 C 
ATOM     42  C   UNL     1       2.059 -24.007  29.756  1.00  0.00     0.174 C 
ATOM     43  C   UNL     1       1.148 -24.357  27.421  1.00  0.00     0.042 C 
BRANCH  38  44
ATOM     44  O   UNL     1       0.777 -21.501  32.281  1.00  0.00    -0.384 OA
ATOM     45  H   UNL     1      -0.123 -21.099  32.364  1.00  0.00     0.211 HD
ENDBRANCH  38  44
BRANCH  40  46
ATOM     46  O   UNL     1       3.149 -22.000  30.545  1.00  0.00    -0.387 OA
ATOM     47  H   UNL     1       3.455 -22.175  29.612  1.00  0.00     0.211 HD
ENDBRANCH  40  46
BRANCH  42  48
ATOM     48  O   UNL     1       1.332 -25.144  30.166  1.00  0.00    -0.388 OA
ATOM     49  H   UNL     1       1.686 -25.431  31.044  1.00  0.00     0.211 HD
ENDBRANCH  42  48
ENDBRANCH  36  37
ENDBRANCH   9  36
TORSDOF 13
ENDMDL
