MODEL 1
REMARK VINA RESULT:    -3.264      0.000      0.000
REMARK INTER + INTRA:          -3.670
REMARK INTER:                  -3.646
REMARK INTRA:                  -0.024
REMARK UNBOUND:                -0.024
REMARK SMILES CCCC(=O)[O-]
REMARK SMILES IDX 3 1 4 2 5 3 6 4 2 5 1 6
REMARK H PARENT
REMARK Flexibility Score: inf
ROOT
ATOM      1  C   UNL     1      75.623  83.386  75.704  1.00  0.00     0.052 C 
ENDROOT
BRANCH   1   2
ATOM      2  C   UNL     1      76.694  84.104  74.943  1.00  0.00     0.041 C 
ATOM      3  O   UNL     1      76.662  85.359  74.833  1.00  0.00    -0.550 OA
ATOM      4  O   UNL     1      77.710  83.385  74.326  1.00  0.00    -0.550 OA
ENDBRANCH   1   2
BRANCH   1   5
ATOM      5  C   UNL     1      74.770  82.502  74.785  1.00  0.00     0.003 C 
ATOM      6  C   UNL     1      73.373  83.077  74.556  1.00  0.00     0.004 C 
ENDBRANCH   1   5
TORSDOF 2
ENDMDL
MODEL 2
REMARK VINA RESULT:    -3.207      1.916      3.355
REMARK INTER + INTRA:          -3.606
REMARK INTER:                  -3.568
REMARK INTRA:                  -0.038
REMARK UNBOUND:                -0.024
REMARK SMILES CCCC(=O)[O-]
REMARK SMILES IDX 3 1 4 2 5 3 6 4 2 5 1 6
REMARK H PARENT
REMARK Flexibility Score: inf
ROOT
ATOM      1  C   UNL     1      77.205  82.870  75.334  1.00  0.00     0.052 C 
ENDROOT
BRANCH   1   2
ATOM      2  C   UNL     1      76.270  83.996  75.014  1.00  0.00     0.041 C 
ATOM      3  O   UNL     1      75.036  83.780  74.889  1.00  0.00    -0.550 OA
ATOM      4  O   UNL     1      76.767  85.279  74.821  1.00  0.00    -0.550 OA
ENDBRANCH   1   2
BRANCH   1   5
ATOM      5  C   UNL     1      78.455  82.902  74.446  1.00  0.00     0.003 C 
ATOM      6  C   UNL     1      79.716  83.263  75.230  1.00  0.00     0.004 C 
ENDBRANCH   1   5
TORSDOF 2
ENDMDL
MODEL 3
REMARK VINA RESULT:    -3.116      1.412      2.531
REMARK INTER + INTRA:          -3.505
REMARK INTER:                  -3.490
REMARK INTRA:                  -0.014
REMARK UNBOUND:                -0.024
REMARK SMILES CCCC(=O)[O-]
REMARK SMILES IDX 3 1 4 2 5 3 6 4 2 5 1 6
REMARK H PARENT
REMARK Flexibility Score: inf
ROOT
ATOM      1  C   UNL     1      75.708  83.501  76.100  1.00  0.00     0.052 C 
ENDROOT
BRANCH   1   2
ATOM      2  C   UNL     1      76.617  84.033  75.036  1.00  0.00     0.041 C 
ATOM      3  O   UNL     1      77.367  83.252  74.393  1.00  0.00    -0.550 OA
ATOM      4  O   UNL     1      76.661  85.398  74.778  1.00  0.00    -0.550 OA
ENDBRANCH   1   2
BRANCH   1   5
ATOM      5  C   UNL     1      76.221  82.174  76.673  1.00  0.00     0.003 C 
ATOM      6  C   UNL     1      76.170  82.141  78.200  1.00  0.00     0.004 C 
ENDBRANCH   1   5
TORSDOF 2
ENDMDL
MODEL 4
REMARK VINA RESULT:    -3.014      1.272      1.945
REMARK INTER + INTRA:          -3.391
REMARK INTER:                  -3.386
REMARK INTRA:                  -0.005
REMARK UNBOUND:                -0.024
REMARK SMILES CCCC(=O)[O-]
REMARK SMILES IDX 3 1 4 2 5 3 6 4 2 5 1 6
REMARK H PARENT
REMARK Flexibility Score: inf
ROOT
ATOM      1  C   UNL     1      75.707  83.212  75.697  1.00  0.00     0.052 C 
ENDROOT
BRANCH   1   2
ATOM      2  C   UNL     1      76.744  83.963  74.920  1.00  0.00     0.041 C 
ATOM      3  O   UNL     1      76.724  85.222  74.885  1.00  0.00    -0.550 OA
ATOM      4  O   UNL     1      77.715  83.271  74.207  1.00  0.00    -0.550 OA
ENDBRANCH   1   2
BRANCH   1   5
ATOM      5  C   UNL     1      76.324  82.444  76.872  1.00  0.00     0.003 C 
ATOM      6  C   UNL     1      75.271  81.959  77.867  1.00  0.00     0.004 C 
ENDBRANCH   1   5
TORSDOF 2
ENDMDL
MODEL 5
REMARK VINA RESULT:    -2.984     12.543     13.131
REMARK INTER + INTRA:          -3.357
REMARK INTER:                  -3.350
REMARK INTRA:                  -0.007
REMARK UNBOUND:                -0.024
REMARK SMILES CCCC(=O)[O-]
REMARK SMILES IDX 3 1 4 2 5 3 6 4 2 5 1 6
REMARK H PARENT
REMARK Flexibility Score: inf
ROOT
ATOM      1  C   UNL     1      73.163  95.443  71.457  1.00  0.00     0.052 C 
ENDROOT
BRANCH   1   2
ATOM      2  C   UNL     1      71.764  95.658  71.948  1.00  0.00     0.041 C 
ATOM      3  O   UNL     1      71.074  96.612  71.501  1.00  0.00    -0.550 OA
ATOM      4  O   UNL     1      71.234  94.825  72.925  1.00  0.00    -0.550 OA
ENDBRANCH   1   2
BRANCH   1   5
ATOM      5  C   UNL     1      73.244  95.513  69.927  1.00  0.00     0.003 C 
ATOM      6  C   UNL     1      74.274  94.540  69.354  1.00  0.00     0.004 C 
ENDBRANCH   1   5
TORSDOF 2
ENDMDL
MODEL 6
REMARK VINA RESULT:    -2.777      9.750     10.668
REMARK INTER + INTRA:          -3.125
REMARK INTER:                  -3.065
REMARK INTRA:                  -0.061
REMARK UNBOUND:                -0.024
REMARK SMILES CCCC(=O)[O-]
REMARK SMILES IDX 3 1 4 2 5 3 6 4 2 5 1 6
REMARK H PARENT
REMARK Flexibility Score: inf
ROOT
ATOM      1  C   UNL     1      78.549  93.094  77.646  1.00  0.00     0.052 C 
ENDROOT
BRANCH   1   2
ATOM      2  C   UNL     1      79.065  93.524  78.984  1.00  0.00     0.041 C 
ATOM      3  O   UNL     1      80.033  92.920  79.517  1.00  0.00    -0.550 OA
ATOM      4  O   UNL     1      78.454  94.574  79.660  1.00  0.00    -0.550 OA
ENDBRANCH   1   2
BRANCH   1   5
ATOM      5  C   UNL     1      77.063  92.719  77.704  1.00  0.00     0.003 C 
ATOM      6  C   UNL     1      76.773  91.650  78.757  1.00  0.00     0.004 C 
ENDBRANCH   1   5
TORSDOF 2
ENDMDL
MODEL 7
REMARK VINA RESULT:    -2.754     10.676     11.345
REMARK INTER + INTRA:          -3.100
REMARK INTER:                  -3.040
REMARK INTRA:                  -0.060
REMARK UNBOUND:                -0.024
REMARK SMILES CCCC(=O)[O-]
REMARK SMILES IDX 3 1 4 2 5 3 6 4 2 5 1 6
REMARK H PARENT
REMARK Flexibility Score: inf
ROOT
ATOM      1  C   UNL     1      76.766  94.235  77.534  1.00  0.00     0.052 C 
ENDROOT
BRANCH   1   2
ATOM      2  C   UNL     1      77.084  93.619  78.862  1.00  0.00     0.041 C 
ATOM      3  O   UNL     1      76.835  92.403  79.074  1.00  0.00    -0.550 OA
ATOM      4  O   UNL     1      77.626  94.397  79.878  1.00  0.00    -0.550 OA
ENDBRANCH   1   2
BRANCH   1   5
ATOM      5  C   UNL     1      78.003  94.880  76.897  1.00  0.00     0.003 C 
ATOM      6  C   UNL     1      79.177  93.908  76.791  1.00  0.00     0.004 C 
ENDBRANCH   1   5
TORSDOF 2
ENDMDL
MODEL 8
REMARK VINA RESULT:    -2.440     10.967     11.548
REMARK INTER + INTRA:          -2.749
REMARK INTER:                  -2.712
REMARK INTRA:                  -0.038
REMARK UNBOUND:                -0.024
REMARK SMILES CCCC(=O)[O-]
REMARK SMILES IDX 3 1 4 2 5 3 6 4 2 5 1 6
REMARK H PARENT
REMARK Flexibility Score: inf
ROOT
ATOM      1  C   UNL     1      78.284  93.031  78.046  1.00  0.00     0.052 C 
ENDROOT
BRANCH   1   2
ATOM      2  C   UNL     1      77.684  94.240  78.695  1.00  0.00     0.041 C 
ATOM      3  O   UNL     1      77.909  94.486  79.910  1.00  0.00    -0.550 OA
ATOM      4  O   UNL     1      76.849  95.078  77.967  1.00  0.00    -0.550 OA
ENDBRANCH   1   2
BRANCH   1   5
ATOM      5  C   UNL     1      79.312  93.413  76.974  1.00  0.00     0.003 C 
ATOM      6  C   UNL     1      80.736  93.464  77.526  1.00  0.00     0.004 C 
ENDBRANCH   1   5
TORSDOF 2
ENDMDL
MODEL 9
REMARK VINA RESULT:    -2.402     10.111     10.961
REMARK INTER + INTRA:          -2.707
REMARK INTER:                  -2.688
REMARK INTRA:                  -0.019
REMARK UNBOUND:                -0.024
REMARK SMILES CCCC(=O)[O-]
REMARK SMILES IDX 3 1 4 2 5 3 6 4 2 5 1 6
REMARK H PARENT
REMARK Flexibility Score: inf
ROOT
ATOM      1  C   UNL     1      78.501  92.945  77.882  1.00  0.00     0.052 C 
ENDROOT
BRANCH   1   2
ATOM      2  C   UNL     1      77.071  93.016  78.320  1.00  0.00     0.041 C 
ATOM      3  O   UNL     1      76.616  92.177  79.141  1.00  0.00    -0.550 OA
ATOM      4  O   UNL     1      76.230  93.989  77.794  1.00  0.00    -0.550 OA
ENDBRANCH   1   2
BRANCH   1   5
ATOM      5  C   UNL     1      79.427  93.698  78.846  1.00  0.00     0.003 C 
ATOM      6  C   UNL     1      80.608  92.843  79.304  1.00  0.00     0.004 C 
ENDBRANCH   1   5
TORSDOF 2
ENDMDL
