MODEL 1
REMARK VINA RESULT:    -9.497      0.000      0.000
REMARK INTER + INTRA:         -17.235
REMARK INTER:                 -15.605
REMARK INTRA:                  -1.631
REMARK UNBOUND:                -1.631
REMARK SMILES C[C@H]1O[C@H](OC[C@@H]2O[C@@H](Oc3c(-c4ccc(O)c(O)c4)oc4cc(O)cc(O)c4c3=O)[C@H](O)[C@H](O)[C@H]2O)[C@H](O)[C@H](O)[C@@H]1O
REMARK SMILES IDX 7 1 36 2 34 3 32 4 9 5 8 6 6 7 5 8 4 9 1 10 2 11 42 12 3 13
REMARK SMILES IDX 40 14 38 15 43 16 41 18 39 20 37 22 35 24 10 26 11 27 12 28
REMARK SMILES IDX 30 29 21 30 29 31 31 32 22 33 27 34 23 35 26 36 24 37 13 38
REMARK SMILES IDX 20 39 14 40 18 41 15 42 16 43 19 44 17 46 28 48 25 50 33 52
REMARK H PARENT 43 17 41 19 39 21 37 23 35 25 19 45 17 47 28 49 25 51 33 53
REMARK Flexibility Score: inf
ROOT
ATOM      1  C   UNL     1      50.691  61.457   0.661  1.00  0.00     0.180 C 
ATOM      2  C   UNL     1      50.346  62.759  -0.105  1.00  0.00     0.177 C 
ATOM      3  C   UNL     1      49.350  63.641   0.668  1.00  0.00     0.180 C 
ATOM      4  C   UNL     1      49.778  63.777   2.141  1.00  0.00     0.214 C 
ATOM      5  C   UNL     1      50.066  62.395   2.754  1.00  0.00     0.339 C 
ATOM      6  O   UNL     1      51.070  61.714   2.020  1.00  0.00    -0.332 OA
ENDROOT
BRANCH   1   7
ATOM      7  C   UNL     1      49.676  60.279   0.514  1.00  0.00     0.198 C 
BRANCH   7   8
ATOM      8  O   UNL     1      50.248  59.163  -0.152  1.00  0.00    -0.347 OA
BRANCH   8   9
ATOM      9  C   UNL     1      51.636  59.335  -0.380  1.00  0.00     0.281 C 
ATOM     10  C   UNL     1      54.622  59.140  -0.035  1.00  0.00     0.041 C 
ATOM     11  C   UNL     1      53.623  57.991  -0.275  1.00  0.00     0.150 C 
ATOM     12  C   UNL     1      53.560  57.520  -1.761  1.00  0.00     0.174 C 
ATOM     13  O   UNL     1      52.335  58.265   0.270  1.00  0.00    -0.344 OA
ATOM     14  C   UNL     1      52.262  58.005  -2.450  1.00  0.00     0.179 C 
ATOM     15  C   UNL     1      51.861  59.383  -1.920  1.00  0.00     0.202 C 
BRANCH  12  16
ATOM     16  O   UNL     1      53.658  56.123  -1.807  1.00  0.00    -0.388 OA
ATOM     17  H   UNL     1      53.839  55.804  -0.880  1.00  0.00     0.211 HD
ENDBRANCH  12  16
BRANCH  14  18
ATOM     18  O   UNL     1      51.200  57.090  -2.328  1.00  0.00    -0.387 OA
ATOM     19  H   UNL     1      50.709  57.045  -3.192  1.00  0.00     0.211 HD
ENDBRANCH  14  18
BRANCH  15  20
ATOM     20  O   UNL     1      50.705  59.821  -2.598  1.00  0.00    -0.385 OA
ATOM     21  H   UNL     1      50.448  59.090  -3.215  1.00  0.00     0.211 HD
ENDBRANCH  15  20
ENDBRANCH   8   9
ENDBRANCH   7   8
ENDBRANCH   1   7
BRANCH   2  22
ATOM     22  O   UNL     1      51.533  63.495  -0.283  1.00  0.00    -0.387 OA
ATOM     23  H   UNL     1      51.657  63.611  -1.259  1.00  0.00     0.211 HD
ENDBRANCH   2  22
BRANCH   3  24
ATOM     24  O   UNL     1      48.022  63.197   0.535  1.00  0.00    -0.387 OA
ATOM     25  H   UNL     1      47.606  63.597  -0.280  1.00  0.00     0.211 HD
ENDBRANCH   3  24
BRANCH   5  26
ATOM     26  O   UNL     1      50.550  62.617   4.081  1.00  0.00    -0.454 OA
BRANCH  26  27
ATOM     27  C   UNL     1      50.567  61.702   5.151  1.00  0.00     0.214 A 
ATOM     28  C   UNL     1      49.411  61.173   5.780  1.00  0.00     0.180 A 
ATOM     29  C   UNL     1      51.817  61.364   5.701  1.00  0.00     0.239 A 
ATOM     30  O   UNL     1      49.527  60.300   6.769  1.00  0.00    -0.452 OA
ATOM     31  C   UNL     1      51.894  60.528   6.832  1.00  0.00     0.111 A 
ATOM     32  O   UNL     1      52.856  61.817   5.168  1.00  0.00    -0.285 OA
ATOM     33  C   UNL     1      50.692  59.974   7.319  1.00  0.00     0.146 A 
ATOM     34  C   UNL     1      53.095  60.282   7.536  1.00  0.00     0.134 A 
ATOM     35  C   UNL     1      50.707  59.114   8.422  1.00  0.00     0.094 A 
ATOM     36  C   UNL     1      53.104  59.434   8.647  1.00  0.00     0.093 A 
ATOM     37  C   UNL     1      51.914  58.854   9.083  1.00  0.00     0.123 A 
BRANCH  28  38
ATOM     38  C   UNL     1      48.040  61.619   5.483  1.00  0.00     0.025 A 
ATOM     39  C   UNL     1      47.113  60.685   5.012  1.00  0.00     0.062 A 
ATOM     40  C   UNL     1      47.685  62.964   5.566  1.00  0.00     0.016 A 
ATOM     41  C   UNL     1      45.823  61.074   4.659  1.00  0.00     0.158 A 
ATOM     42  C   UNL     1      46.374  63.355   5.270  1.00  0.00     0.051 A 
ATOM     43  C   UNL     1      45.442  62.429   4.799  1.00  0.00     0.157 A 
BRANCH  41  44
ATOM     44  O   UNL     1      44.953  60.078   4.202  1.00  0.00    -0.504 OA
ATOM     45  H   UNL     1      44.361  60.166   3.393  1.00  0.00     0.293 HD
ENDBRANCH  41  44
BRANCH  43  46
ATOM     46  O   UNL     1      44.155  62.878   4.507  1.00  0.00    -0.504 OA
ATOM     47  H   UNL     1      43.843  63.828   4.669  1.00  0.00     0.293 HD
ENDBRANCH  43  46
ENDBRANCH  28  38
BRANCH  34  48
ATOM     48  O   UNL     1      54.292  60.893   7.146  1.00  0.00    -0.507 OA
ATOM     49  H   UNL     1      54.625  61.731   7.607  1.00  0.00     0.293 HD
ENDBRANCH  34  48
BRANCH  37  50
ATOM     50  O   UNL     1      51.931  58.036  10.200  1.00  0.00    -0.508 OA
ATOM     51  H   UNL     1      51.860  57.030  10.124  1.00  0.00     0.293 HD
ENDBRANCH  37  50
ENDBRANCH  26  27
ENDBRANCH   5  26
BRANCH   4  52
ATOM     52  O   UNL     1      48.780  64.427   2.871  1.00  0.00    -0.384 OA
ATOM     53  H   UNL     1      47.922  64.232   2.413  1.00  0.00     0.211 HD
ENDBRANCH   4  52
TORSDOF 16
ENDMDL
MODEL 2
REMARK VINA RESULT:    -9.231      1.994      7.802
REMARK INTER + INTRA:         -16.797
REMARK INTER:                 -15.307
REMARK INTRA:                  -1.491
REMARK UNBOUND:                -1.631
REMARK SMILES C[C@H]1O[C@H](OC[C@@H]2O[C@@H](Oc3c(-c4ccc(O)c(O)c4)oc4cc(O)cc(O)c4c3=O)[C@H](O)[C@H](O)[C@H]2O)[C@H](O)[C@H](O)[C@@H]1O
REMARK SMILES IDX 7 1 36 2 34 3 32 4 9 5 8 6 6 7 5 8 4 9 1 10 2 11 42 12 3 13
REMARK SMILES IDX 40 14 38 15 43 16 41 18 39 20 37 22 35 24 10 26 11 27 12 28
REMARK SMILES IDX 30 29 21 30 29 31 31 32 22 33 27 34 23 35 26 36 24 37 13 38
REMARK SMILES IDX 20 39 14 40 18 41 15 42 16 43 19 44 17 46 28 48 25 50 33 52
REMARK H PARENT 43 17 41 19 39 21 37 23 35 25 19 45 17 47 28 49 25 51 33 53
REMARK Flexibility Score: inf
ROOT
ATOM      1  C   UNL     1      50.359  60.829   6.359  1.00  0.00     0.180 C 
ATOM      2  C   UNL     1      49.046  60.595   7.149  1.00  0.00     0.177 C 
ATOM      3  C   UNL     1      47.825  61.201   6.438  1.00  0.00     0.180 C 
ATOM      4  C   UNL     1      47.830  60.831   4.943  1.00  0.00     0.214 C 
ATOM      5  C   UNL     1      49.197  61.141   4.309  1.00  0.00     0.339 C 
ATOM      6  O   UNL     1      50.236  60.450   4.981  1.00  0.00    -0.332 OA
ENDROOT
BRANCH   1   7
ATOM      7  C   UNL     1      51.047  62.217   6.560  1.00  0.00     0.198 C 
BRANCH   7   8
ATOM      8  O   UNL     1      52.320  62.095   7.180  1.00  0.00    -0.347 OA
BRANCH   8   9
ATOM      9  C   UNL     1      52.660  60.743   7.433  1.00  0.00     0.281 C 
ATOM     10  C   UNL     1      53.904  58.017   7.126  1.00  0.00     0.041 C 
ATOM     11  C   UNL     1      54.624  59.366   7.321  1.00  0.00     0.150 C 
ATOM     12  C   UNL     1      55.071  59.627   8.792  1.00  0.00     0.174 C 
ATOM     13  O   UNL     1      53.896  60.457   6.765  1.00  0.00    -0.344 OA
ATOM     14  C   UNL     1      54.167  60.683   9.475  1.00  0.00     0.179 C 
ATOM     15  C   UNL     1      52.726  60.552   8.976  1.00  0.00     0.202 C 
BRANCH  12  16
ATOM     16  O   UNL     1      56.411  60.036   8.803  1.00  0.00    -0.388 OA
ATOM     17  H   UNL     1      56.476  60.834   9.396  1.00  0.00     0.211 HD
ENDBRANCH  12  16
BRANCH  14  18
ATOM     18  O   UNL     1      54.638  61.998   9.313  1.00  0.00    -0.387 OA
ATOM     19  H   UNL     1      55.306  62.194  10.024  1.00  0.00     0.211 HD
ENDBRANCH  14  18
BRANCH  15  20
ATOM     20  O   UNL     1      51.917  61.491   9.649  1.00  0.00    -0.385 OA
ATOM     21  H   UNL     1      52.112  62.372   9.241  1.00  0.00     0.211 HD
ENDBRANCH  15  20
ENDBRANCH   8   9
ENDBRANCH   7   8
ENDBRANCH   1   7
BRANCH   2  22
ATOM     22  O   UNL     1      48.840  59.206   7.261  1.00  0.00    -0.387 OA
ATOM     23  H   UNL     1      48.068  59.077   7.868  1.00  0.00     0.211 HD
ENDBRANCH   2  22
BRANCH   3  24
ATOM     24  O   UNL     1      47.715  62.589   6.645  1.00  0.00    -0.387 OA
ATOM     25  H   UNL     1      47.056  62.776   7.371  1.00  0.00     0.211 HD
ENDBRANCH   3  24
BRANCH   5  26
ATOM     26  O   UNL     1      49.149  60.678   2.958  1.00  0.00    -0.454 OA
BRANCH  26  27
ATOM     27  C   UNL     1      49.992  61.051   1.893  1.00  0.00     0.214 A 
ATOM     28  C   UNL     1      49.993  62.327   1.271  1.00  0.00     0.180 A 
ATOM     29  C   UNL     1      50.822  60.060   1.340  1.00  0.00     0.239 A 
ATOM     30  O   UNL     1      50.839  62.591   0.288  1.00  0.00    -0.452 OA
ATOM     31  C   UNL     1      51.619  60.345   0.214  1.00  0.00     0.111 A 
ATOM     32  O   UNL     1      50.841  58.923   1.866  1.00  0.00    -0.285 OA
ATOM     33  C   UNL     1      51.623  61.671  -0.264  1.00  0.00     0.146 A 
ATOM     34  C   UNL     1      52.346  59.360  -0.494  1.00  0.00     0.134 A 
ATOM     35  C   UNL     1      52.416  62.023  -1.362  1.00  0.00     0.094 A 
ATOM     36  C   UNL     1      53.125  59.713  -1.598  1.00  0.00     0.093 A 
ATOM     37  C   UNL     1      53.158  61.039  -2.027  1.00  0.00     0.123 A 
BRANCH  28  38
ATOM     38  C   UNL     1      49.015  63.384   1.571  1.00  0.00     0.025 A 
ATOM     39  C   UNL     1      49.480  64.664   1.889  1.00  0.00     0.062 A 
ATOM     40  C   UNL     1      47.651  63.107   1.642  1.00  0.00     0.016 A 
ATOM     41  C   UNL     1      48.594  65.680   2.241  1.00  0.00     0.158 A 
ATOM     42  C   UNL     1      46.748  64.136   1.936  1.00  0.00     0.051 A 
ATOM     43  C   UNL     1      47.204  65.416   2.255  1.00  0.00     0.157 A 
BRANCH  41  44
ATOM     44  O   UNL     1      49.139  66.933   2.540  1.00  0.00    -0.504 OA
ATOM     45  H   UNL     1      48.759  67.809   2.221  1.00  0.00     0.293 HD
ENDBRANCH  41  44
BRANCH  43  46
ATOM     46  O   UNL     1      46.260  66.398   2.553  1.00  0.00    -0.504 OA
ATOM     47  H   UNL     1      45.270  66.298   2.364  1.00  0.00     0.293 HD
ENDBRANCH  43  46
ENDBRANCH  28  38
BRANCH  34  48
ATOM     48  O   UNL     1      52.288  58.015  -0.112  1.00  0.00    -0.507 OA
ATOM     49  H   UNL     1      52.487  57.276  -0.775  1.00  0.00     0.293 HD
ENDBRANCH  34  48
BRANCH  37  50
ATOM     50  O   UNL     1      53.913  61.371  -3.138  1.00  0.00    -0.508 OA
ATOM     51  H   UNL     1      54.862  61.710  -3.055  1.00  0.00     0.293 HD
ENDBRANCH  37  50
ENDBRANCH  26  27
ENDBRANCH   5  26
BRANCH   4  52
ATOM     52  O   UNL     1      46.822  61.529   4.274  1.00  0.00    -0.384 OA
ATOM     53  H   UNL     1      46.923  62.483   4.525  1.00  0.00     0.211 HD
ENDBRANCH   4  52
TORSDOF 16
ENDMDL
MODEL 3
REMARK VINA RESULT:    -9.022      2.483      8.293
REMARK INTER + INTRA:         -16.454
REMARK INTER:                 -14.873
REMARK INTRA:                  -1.581
REMARK UNBOUND:                -1.631
REMARK SMILES C[C@H]1O[C@H](OC[C@@H]2O[C@@H](Oc3c(-c4ccc(O)c(O)c4)oc4cc(O)cc(O)c4c3=O)[C@H](O)[C@H](O)[C@H]2O)[C@H](O)[C@H](O)[C@@H]1O
REMARK SMILES IDX 7 1 36 2 34 3 32 4 9 5 8 6 6 7 5 8 4 9 1 10 2 11 42 12 3 13
REMARK SMILES IDX 40 14 38 15 43 16 41 18 39 20 37 22 35 24 10 26 11 27 12 28
REMARK SMILES IDX 30 29 21 30 29 31 31 32 22 33 27 34 23 35 26 36 24 37 13 38
REMARK SMILES IDX 20 39 14 40 18 41 15 42 16 43 19 44 17 46 28 48 25 50 33 52
REMARK H PARENT 43 17 41 19 39 21 37 23 35 25 19 45 17 47 28 49 25 51 33 53
REMARK Flexibility Score: inf
ROOT
ATOM      1  C   UNL     1      51.544  61.764   5.602  1.00  0.00     0.180 C 
ATOM      2  C   UNL     1      52.968  61.249   5.270  1.00  0.00     0.177 C 
ATOM      3  C   UNL     1      52.940  59.896   4.539  1.00  0.00     0.180 C 
ATOM      4  C   UNL     1      51.909  59.919   3.396  1.00  0.00     0.214 C 
ATOM      5  C   UNL     1      50.551  60.438   3.898  1.00  0.00     0.339 C 
ATOM      6  O   UNL     1      50.678  61.734   4.459  1.00  0.00    -0.332 OA
ENDROOT
BRANCH   1   7
ATOM      7  C   UNL     1      50.884  61.184   6.894  1.00  0.00     0.198 C 
BRANCH   7   8
ATOM      8  O   UNL     1      51.620  61.516   8.062  1.00  0.00    -0.347 OA
BRANCH   8   9
ATOM      9  C   UNL     1      51.884  60.378   8.865  1.00  0.00     0.281 C 
ATOM     10  C   UNL     1      51.948  57.522   9.817  1.00  0.00     0.041 C 
ATOM     11  C   UNL     1      52.564  58.101   8.528  1.00  0.00     0.150 C 
ATOM     12  C   UNL     1      54.094  58.385   8.642  1.00  0.00     0.174 C 
ATOM     13  O   UNL     1      51.833  59.216   8.027  1.00  0.00    -0.344 OA
ATOM     14  C   UNL     1      54.376  59.903   8.756  1.00  0.00     0.179 C 
ATOM     15  C   UNL     1      53.265  60.593   9.551  1.00  0.00     0.202 C 
BRANCH  12  16
ATOM     16  O   UNL     1      54.750  57.837   7.532  1.00  0.00    -0.388 OA
ATOM     17  H   UNL     1      55.532  57.320   7.872  1.00  0.00     0.211 HD
ENDBRANCH  12  16
BRANCH  14  18
ATOM     18  O   UNL     1      54.560  60.523   7.507  1.00  0.00    -0.387 OA
ATOM     19  H   UNL     1      55.347  61.130   7.559  1.00  0.00     0.211 HD
ENDBRANCH  14  18
BRANCH  15  20
ATOM     20  O   UNL     1      53.571  61.963   9.681  1.00  0.00    -0.385 OA
ATOM     21  H   UNL     1      53.107  62.426   8.938  1.00  0.00     0.211 HD
ENDBRANCH  15  20
ENDBRANCH   8   9
ENDBRANCH   7   8
ENDBRANCH   1   7
BRANCH   2  22
ATOM     22  O   UNL     1      53.590  62.188   4.425  1.00  0.00    -0.387 OA
ATOM     23  H   UNL     1      53.718  61.746   3.548  1.00  0.00     0.211 HD
ENDBRANCH   2  22
BRANCH   3  24
ATOM     24  O   UNL     1      52.742  58.814   5.417  1.00  0.00    -0.387 OA
ATOM     25  H   UNL     1      53.170  57.991   5.048  1.00  0.00     0.211 HD
ENDBRANCH   3  24
BRANCH   5  26
ATOM     26  O   UNL     1      49.687  60.522   2.761  1.00  0.00    -0.454 OA
BRANCH  26  27
ATOM     27  C   UNL     1      48.756  61.537   2.465  1.00  0.00     0.214 A 
ATOM     28  C   UNL     1      48.890  62.473   1.407  1.00  0.00     0.180 A 
ATOM     29  C   UNL     1      47.666  61.698   3.338  1.00  0.00     0.239 A 
ATOM     30  O   UNL     1      47.951  63.380   1.192  1.00  0.00    -0.452 OA
ATOM     31  C   UNL     1      46.752  62.753   3.149  1.00  0.00     0.111 A 
ATOM     32  O   UNL     1      47.521  60.888   4.283  1.00  0.00    -0.285 OA
ATOM     33  C   UNL     1      46.919  63.565   2.010  1.00  0.00     0.146 A 
ATOM     34  C   UNL     1      45.736  63.076   4.077  1.00  0.00     0.134 A 
ATOM     35  C   UNL     1      46.027  64.612   1.752  1.00  0.00     0.094 A 
ATOM     36  C   UNL     1      44.855  64.131   3.824  1.00  0.00     0.093 A 
ATOM     37  C   UNL     1      45.003  64.893   2.666  1.00  0.00     0.123 A 
BRANCH  28  38
ATOM     38  C   UNL     1      50.092  62.589   0.565  1.00  0.00     0.025 A 
ATOM     39  C   UNL     1      50.523  63.862   0.175  1.00  0.00     0.062 A 
ATOM     40  C   UNL     1      50.740  61.459   0.071  1.00  0.00     0.016 A 
ATOM     41  C   UNL     1      51.617  64.017  -0.672  1.00  0.00     0.158 A 
ATOM     42  C   UNL     1      51.876  61.606  -0.734  1.00  0.00     0.051 A 
ATOM     43  C   UNL     1      52.313  62.872  -1.127  1.00  0.00     0.157 A 
BRANCH  41  44
ATOM     44  O   UNL     1      51.988  65.323  -1.010  1.00  0.00    -0.504 OA
ATOM     45  H   UNL     1      51.344  66.044  -1.290  1.00  0.00     0.293 HD
ENDBRANCH  41  44
BRANCH  43  46
ATOM     46  O   UNL     1      53.443  62.958  -1.939  1.00  0.00    -0.504 OA
ATOM     47  H   UNL     1      53.717  63.802  -2.428  1.00  0.00     0.293 HD
ENDBRANCH  43  46
ENDBRANCH  28  38
BRANCH  34  48
ATOM     48  O   UNL     1      45.599  62.357   5.270  1.00  0.00    -0.507 OA
ATOM     49  H   UNL     1      44.911  62.624   5.964  1.00  0.00     0.293 HD
ENDBRANCH  34  48
BRANCH  37  50
ATOM     50  O   UNL     1      44.141  65.952   2.438  1.00  0.00    -0.508 OA
ATOM     51  H   UNL     1      43.655  66.063   1.559  1.00  0.00     0.293 HD
ENDBRANCH  37  50
ENDBRANCH  26  27
ENDBRANCH   5  26
BRANCH   4  52
ATOM     52  O   UNL     1      51.764  58.639   2.856  1.00  0.00    -0.384 OA
ATOM     53  H   UNL     1      52.291  58.624   2.016  1.00  0.00     0.211 HD
ENDBRANCH   4  52
TORSDOF 16
ENDMDL
MODEL 4
REMARK VINA RESULT:    -8.846      2.566      7.844
REMARK INTER + INTRA:         -16.165
REMARK INTER:                 -15.554
REMARK INTRA:                  -0.611
REMARK UNBOUND:                -1.631
REMARK SMILES C[C@H]1O[C@H](OC[C@@H]2O[C@@H](Oc3c(-c4ccc(O)c(O)c4)oc4cc(O)cc(O)c4c3=O)[C@H](O)[C@H](O)[C@H]2O)[C@H](O)[C@H](O)[C@@H]1O
REMARK SMILES IDX 7 1 36 2 34 3 32 4 9 5 8 6 6 7 5 8 4 9 1 10 2 11 42 12 3 13
REMARK SMILES IDX 40 14 38 15 43 16 41 18 39 20 37 22 35 24 10 26 11 27 12 28
REMARK SMILES IDX 30 29 21 30 29 31 31 32 22 33 27 34 23 35 26 36 24 37 13 38
REMARK SMILES IDX 20 39 14 40 18 41 15 42 16 43 19 44 17 46 28 48 25 50 33 52
REMARK H PARENT 43 17 41 19 39 21 37 23 35 25 19 45 17 47 28 49 25 51 33 53
REMARK Flexibility Score: inf
ROOT
ATOM      1  C   UNL     1      48.034  63.767   2.681  1.00  0.00     0.180 C 
ATOM      2  C   UNL     1      48.170  64.127   1.180  1.00  0.00     0.177 C 
ATOM      3  C   UNL     1      49.569  63.803   0.629  1.00  0.00     0.180 C 
ATOM      4  C   UNL     1      50.008  62.393   1.064  1.00  0.00     0.214 C 
ATOM      5  C   UNL     1      49.825  62.208   2.580  1.00  0.00     0.339 C 
ATOM      6  O   UNL     1      48.477  62.432   2.959  1.00  0.00    -0.332 OA
ENDROOT
BRANCH   1   7
ATOM      7  C   UNL     1      48.576  64.824   3.696  1.00  0.00     0.198 C 
BRANCH   7   8
ATOM      8  O   UNL     1      47.526  65.513   4.359  1.00  0.00    -0.347 OA
BRANCH   8   9
ATOM      9  C   UNL     1      46.354  65.585   3.565  1.00  0.00     0.281 C 
ATOM     10  C   UNL     1      43.514  65.191   2.644  1.00  0.00     0.041 C 
ATOM     11  C   UNL     1      44.001  65.910   3.917  1.00  0.00     0.150 C 
ATOM     12  C   UNL     1      44.045  67.463   3.778  1.00  0.00     0.174 C 
ATOM     13  O   UNL     1      45.221  65.368   4.416  1.00  0.00    -0.344 OA
ATOM     14  C   UNL     1      45.500  67.975   3.643  1.00  0.00     0.179 C 
ATOM     15  C   UNL     1      46.346  66.971   2.857  1.00  0.00     0.202 C 
BRANCH  12  16
ATOM     16  O   UNL     1      43.412  68.045   4.884  1.00  0.00    -0.388 OA
ATOM     17  H   UNL     1      43.481  69.034   4.783  1.00  0.00     0.211 HD
ENDBRANCH  12  16
BRANCH  14  18
ATOM     18  O   UNL     1      46.095  68.272   4.883  1.00  0.00    -0.387 OA
ATOM     19  H   UNL     1      47.056  68.017   4.851  1.00  0.00     0.211 HD
ENDBRANCH  14  18
BRANCH  15  20
ATOM     20  O   UNL     1      47.651  67.483   2.708  1.00  0.00    -0.385 OA
ATOM     21  H   UNL     1      48.211  67.027   3.386  1.00  0.00     0.211 HD
ENDBRANCH  15  20
ENDBRANCH   8   9
ENDBRANCH   7   8
ENDBRANCH   1   7
BRANCH   2  22
ATOM     22  O   UNL     1      47.230  63.367   0.457  1.00  0.00    -0.387 OA
ATOM     23  H   UNL     1      47.174  63.764  -0.449  1.00  0.00     0.211 HD
ENDBRANCH   2  22
BRANCH   3  24
ATOM     24  O   UNL     1      50.519  64.786   0.962  1.00  0.00    -0.387 OA
ATOM     25  H   UNL     1      50.060  65.618   1.267  1.00  0.00     0.211 HD
ENDBRANCH   3  24
BRANCH   5  26
ATOM     26  O   UNL     1      50.158  60.850   2.881  1.00  0.00    -0.454 OA
BRANCH  26  27
ATOM     27  C   UNL     1      51.201  60.386   3.706  1.00  0.00     0.214 A 
ATOM     28  C   UNL     1      52.312  59.628   3.254  1.00  0.00     0.180 A 
ATOM     29  C   UNL     1      51.084  60.604   5.090  1.00  0.00     0.239 A 
ATOM     30  O   UNL     1      53.256  59.253   4.103  1.00  0.00    -0.452 OA
ATOM     31  C   UNL     1      52.047  60.082   5.976  1.00  0.00     0.111 A 
ATOM     32  O   UNL     1      50.113  61.268   5.520  1.00  0.00    -0.285 OA
ATOM     33  C   UNL     1      53.164  59.430   5.417  1.00  0.00     0.146 A 
ATOM     34  C   UNL     1      51.907  60.115   7.383  1.00  0.00     0.134 A 
ATOM     35  C   UNL     1      54.168  58.916   6.245  1.00  0.00     0.094 A 
ATOM     36  C   UNL     1      52.905  59.587   8.206  1.00  0.00     0.093 A 
ATOM     37  C   UNL     1      54.029  58.992   7.636  1.00  0.00     0.123 A 
BRANCH  28  38
ATOM     38  C   UNL     1      52.447  59.111   1.883  1.00  0.00     0.025 A 
ATOM     39  C   UNL     1      53.728  58.884   1.370  1.00  0.00     0.062 A 
ATOM     40  C   UNL     1      51.334  58.943   1.062  1.00  0.00     0.016 A 
ATOM     41  C   UNL     1      53.906  58.455   0.057  1.00  0.00     0.158 A 
ATOM     42  C   UNL     1      51.499  58.456  -0.240  1.00  0.00     0.051 A 
ATOM     43  C   UNL     1      52.774  58.227  -0.760  1.00  0.00     0.157 A 
BRANCH  41  44
ATOM     44  O   UNL     1      55.219  58.245  -0.378  1.00  0.00    -0.504 OA
ATOM     45  H   UNL     1      56.033  58.659   0.046  1.00  0.00     0.293 HD
ENDBRANCH  41  44
BRANCH  43  46
ATOM     46  O   UNL     1      52.879  57.754  -2.067  1.00  0.00    -0.504 OA
ATOM     47  H   UNL     1      52.489  58.235  -2.870  1.00  0.00     0.293 HD
ENDBRANCH  43  46
ENDBRANCH  28  38
BRANCH  34  48
ATOM     48  O   UNL     1      50.765  60.664   7.977  1.00  0.00    -0.507 OA
ATOM     49  H   UNL     1      50.122  60.084   8.503  1.00  0.00     0.293 HD
ENDBRANCH  34  48
BRANCH  37  50
ATOM     50  O   UNL     1      54.999  58.450   8.462  1.00  0.00    -0.508 OA
ATOM     51  H   UNL     1      55.479  57.592   8.227  1.00  0.00     0.293 HD
ENDBRANCH  37  50
ENDBRANCH  26  27
ENDBRANCH   5  26
BRANCH   4  52
ATOM     52  O   UNL     1      51.343  62.178   0.712  1.00  0.00    -0.384 OA
ATOM     53  H   UNL     1      51.379  61.297   0.259  1.00  0.00     0.211 HD
ENDBRANCH   4  52
TORSDOF 16
ENDMDL
MODEL 5
REMARK VINA RESULT:    -8.508      2.067      7.872
REMARK INTER + INTRA:         -15.609
REMARK INTER:                 -14.698
REMARK INTRA:                  -0.911
REMARK UNBOUND:                -1.631
REMARK SMILES C[C@H]1O[C@H](OC[C@@H]2O[C@@H](Oc3c(-c4ccc(O)c(O)c4)oc4cc(O)cc(O)c4c3=O)[C@H](O)[C@H](O)[C@H]2O)[C@H](O)[C@H](O)[C@@H]1O
REMARK SMILES IDX 7 1 36 2 34 3 32 4 9 5 8 6 6 7 5 8 4 9 1 10 2 11 42 12 3 13
REMARK SMILES IDX 40 14 38 15 43 16 41 18 39 20 37 22 35 24 10 26 11 27 12 28
REMARK SMILES IDX 30 29 21 30 29 31 31 32 22 33 27 34 23 35 26 36 24 37 13 38
REMARK SMILES IDX 20 39 14 40 18 41 15 42 16 43 19 44 17 46 28 48 25 50 33 52
REMARK H PARENT 43 17 41 19 39 21 37 23 35 25 19 45 17 47 28 49 25 51 33 53
REMARK Flexibility Score: inf
ROOT
ATOM      1  C   UNL     1      47.496  62.346   4.824  1.00  0.00     0.180 C 
ATOM      2  C   UNL     1      47.155  61.957   6.285  1.00  0.00     0.177 C 
ATOM      3  C   UNL     1      47.882  60.675   6.729  1.00  0.00     0.180 C 
ATOM      4  C   UNL     1      49.370  60.734   6.338  1.00  0.00     0.214 C 
ATOM      5  C   UNL     1      49.530  61.117   4.856  1.00  0.00     0.339 C 
ATOM      6  O   UNL     1      48.910  62.362   4.584  1.00  0.00    -0.332 OA
ENDROOT
BRANCH   1   7
ATOM      7  C   UNL     1      46.687  61.612   3.708  1.00  0.00     0.198 C 
BRANCH   7   8
ATOM      8  O   UNL     1      46.933  62.163   2.422  1.00  0.00    -0.347 OA
BRANCH   8   9
ATOM      9  C   UNL     1      46.401  63.470   2.294  1.00  0.00     0.281 C 
ATOM     10  C   UNL     1      45.098  66.093   2.997  1.00  0.00     0.041 C 
ATOM     11  C   UNL     1      46.412  65.513   3.555  1.00  0.00     0.150 C 
ATOM     12  C   UNL     1      47.689  66.098   2.876  1.00  0.00     0.174 C 
ATOM     13  O   UNL     1      46.409  64.088   3.587  1.00  0.00    -0.344 OA
ATOM     14  C   UNL     1      48.334  65.071   1.914  1.00  0.00     0.179 C 
ATOM     15  C   UNL     1      47.253  64.227   1.234  1.00  0.00     0.202 C 
BRANCH  12  16
ATOM     16  O   UNL     1      48.599  66.494   3.866  1.00  0.00    -0.388 OA
ATOM     17  H   UNL     1      49.148  65.697   4.104  1.00  0.00     0.211 HD
ENDBRANCH  12  16
BRANCH  14  18
ATOM     18  O   UNL     1      49.290  64.253   2.543  1.00  0.00    -0.387 OA
ATOM     19  H   UNL     1      49.492  63.478   1.953  1.00  0.00     0.211 HD
ENDBRANCH  14  18
BRANCH  15  20
ATOM     20  O   UNL     1      47.865  63.336   0.328  1.00  0.00    -0.385 OA
ATOM     21  H   UNL     1      47.134  62.941  -0.213  1.00  0.00     0.211 HD
ENDBRANCH  15  20
ENDBRANCH   8   9
ENDBRANCH   7   8
ENDBRANCH   1   7
BRANCH   2  22
ATOM     22  O   UNL     1      47.568  63.006   7.129  1.00  0.00    -0.387 OA
ATOM     23  H   UNL     1      47.577  63.830   6.580  1.00  0.00     0.211 HD
ENDBRANCH   2  22
BRANCH   3  24
ATOM     24  O   UNL     1      47.251  59.509   6.259  1.00  0.00    -0.387 OA
ATOM     25  H   UNL     1      47.509  58.728   6.825  1.00  0.00     0.211 HD
ENDBRANCH   3  24
BRANCH   5  26
ATOM     26  O   UNL     1      50.931  61.247   4.605  1.00  0.00    -0.454 OA
BRANCH  26  27
ATOM     27  C   UNL     1      51.699  60.549   3.653  1.00  0.00     0.214 A 
ATOM     28  C   UNL     1      52.813  59.725   3.960  1.00  0.00     0.180 A 
ATOM     29  C   UNL     1      51.405  60.761   2.294  1.00  0.00     0.239 A 
ATOM     30  O   UNL     1      53.462  59.091   2.996  1.00  0.00    -0.452 OA
ATOM     31  C   UNL     1      52.197  60.166   1.293  1.00  0.00     0.111 A 
ATOM     32  O   UNL     1      50.429  61.485   1.991  1.00  0.00    -0.285 OA
ATOM     33  C   UNL     1      53.217  59.284   1.704  1.00  0.00     0.146 A 
ATOM     34  C   UNL     1      52.066  60.466  -0.083  1.00  0.00     0.134 A 
ATOM     35  C   UNL     1      54.018  58.641   0.755  1.00  0.00     0.094 A 
ATOM     36  C   UNL     1      52.878  59.832  -1.026  1.00  0.00     0.093 A 
ATOM     37  C   UNL     1      53.848  58.924  -0.605  1.00  0.00     0.123 A 
BRANCH  28  38
ATOM     38  C   UNL     1      53.394  59.602   5.306  1.00  0.00     0.025 A 
ATOM     39  C   UNL     1      53.271  60.674   6.195  1.00  0.00     0.062 A 
ATOM     40  C   UNL     1      54.144  58.485   5.670  1.00  0.00     0.016 A 
ATOM     41  C   UNL     1      53.858  60.627   7.457  1.00  0.00     0.158 A 
ATOM     42  C   UNL     1      54.688  58.404   6.958  1.00  0.00     0.051 A 
ATOM     43  C   UNL     1      54.570  59.469   7.850  1.00  0.00     0.157 A 
BRANCH  41  44
ATOM     44  O   UNL     1      53.685  61.739   8.289  1.00  0.00    -0.504 OA
ATOM     45  H   UNL     1      53.059  61.767   9.077  1.00  0.00     0.293 HD
ENDBRANCH  41  44
BRANCH  43  46
ATOM     46  O   UNL     1      55.143  59.338   9.114  1.00  0.00    -0.504 OA
ATOM     47  H   UNL     1      54.924  59.948   9.894  1.00  0.00     0.293 HD
ENDBRANCH  43  46
ENDBRANCH  28  38
BRANCH  34  48
ATOM     48  O   UNL     1      51.133  61.412  -0.524  1.00  0.00    -0.507 OA
ATOM     49  H   UNL     1      50.262  61.556  -0.028  1.00  0.00     0.293 HD
ENDBRANCH  34  48
BRANCH  37  50
ATOM     50  O   UNL     1      54.664  58.321  -1.548  1.00  0.00    -0.508 OA
ATOM     51  H   UNL     1      54.472  58.387  -2.538  1.00  0.00     0.293 HD
ENDBRANCH  37  50
ENDBRANCH  26  27
ENDBRANCH   5  26
BRANCH   4  52
ATOM     52  O   UNL     1      49.978  59.501   6.583  1.00  0.00    -0.384 OA
ATOM     53  H   UNL     1      50.105  59.437   7.565  1.00  0.00     0.211 HD
ENDBRANCH   4  52
TORSDOF 16
ENDMDL
MODEL 6
REMARK VINA RESULT:    -8.416      2.740      8.822
REMARK INTER + INTRA:         -15.459
REMARK INTER:                 -15.071
REMARK INTRA:                  -0.388
REMARK UNBOUND:                -1.631
REMARK SMILES C[C@H]1O[C@H](OC[C@@H]2O[C@@H](Oc3c(-c4ccc(O)c(O)c4)oc4cc(O)cc(O)c4c3=O)[C@H](O)[C@H](O)[C@H]2O)[C@H](O)[C@H](O)[C@@H]1O
REMARK SMILES IDX 7 1 36 2 34 3 32 4 9 5 8 6 6 7 5 8 4 9 1 10 2 11 42 12 3 13
REMARK SMILES IDX 40 14 38 15 43 16 41 18 39 20 37 22 35 24 10 26 11 27 12 28
REMARK SMILES IDX 30 29 21 30 29 31 31 32 22 33 27 34 23 35 26 36 24 37 13 38
REMARK SMILES IDX 20 39 14 40 18 41 15 42 16 43 19 44 17 46 28 48 25 50 33 52
REMARK H PARENT 43 17 41 19 39 21 37 23 35 25 19 45 17 47 28 49 25 51 33 53
REMARK Flexibility Score: inf
ROOT
ATOM      1  C   UNL     1      48.332  64.263   4.370  1.00  0.00     0.180 C 
ATOM      2  C   UNL     1      47.337  63.211   4.924  1.00  0.00     0.177 C 
ATOM      3  C   UNL     1      47.338  61.917   4.092  1.00  0.00     0.180 C 
ATOM      4  C   UNL     1      48.780  61.453   3.815  1.00  0.00     0.214 C 
ATOM      5  C   UNL     1      49.626  62.610   3.255  1.00  0.00     0.339 C 
ATOM      6  O   UNL     1      49.637  63.710   4.150  1.00  0.00    -0.332 OA
ENDROOT
BRANCH   1   7
ATOM      7  C   UNL     1      47.822  65.136   3.180  1.00  0.00     0.198 C 
BRANCH   7   8
ATOM      8  O   UNL     1      46.412  65.057   3.027  1.00  0.00    -0.347 OA
BRANCH   8   9
ATOM      9  C   UNL     1      45.736  66.015   3.823  1.00  0.00     0.281 C 
ATOM     10  C   UNL     1      44.883  68.664   4.973  1.00  0.00     0.041 C 
ATOM     11  C   UNL     1      44.744  68.180   3.517  1.00  0.00     0.150 C 
ATOM     12  C   UNL     1      43.321  67.642   3.171  1.00  0.00     0.174 C 
ATOM     13  O   UNL     1      45.780  67.276   3.142  1.00  0.00    -0.344 OA
ATOM     14  C   UNL     1      43.315  66.098   3.064  1.00  0.00     0.179 C 
ATOM     15  C   UNL     1      44.292  65.490   4.073  1.00  0.00     0.202 C 
BRANCH  12  16
ATOM     16  O   UNL     1      42.883  68.228   1.976  1.00  0.00    -0.388 OA
ATOM     17  H   UNL     1      41.889  68.153   1.953  1.00  0.00     0.211 HD
ENDBRANCH  12  16
BRANCH  14  18
ATOM     18  O   UNL     1      43.583  65.636   1.762  1.00  0.00    -0.387 OA
ATOM     19  H   UNL     1      44.442  65.135   1.767  1.00  0.00     0.211 HD
ENDBRANCH  14  18
BRANCH  15  20
ATOM     20  O   UNL     1      44.230  64.084   3.987  1.00  0.00    -0.385 OA
ATOM     21  H   UNL     1      43.971  63.871   3.054  1.00  0.00     0.211 HD
ENDBRANCH  15  20
ENDBRANCH   8   9
ENDBRANCH   7   8
ENDBRANCH   1   7
BRANCH   2  22
ATOM     22  O   UNL     1      47.725  62.885   6.237  1.00  0.00    -0.387 OA
ATOM     23  H   UNL     1      48.711  62.785   6.230  1.00  0.00     0.211 HD
ENDBRANCH   2  22
BRANCH   3  24
ATOM     24  O   UNL     1      46.577  62.033   2.914  1.00  0.00    -0.387 OA
ATOM     25  H   UNL     1      46.360  62.992   2.740  1.00  0.00     0.211 HD
ENDBRANCH   3  24
BRANCH   5  26
ATOM     26  O   UNL     1      50.964  62.125   3.121  1.00  0.00    -0.454 OA
BRANCH  26  27
ATOM     27  C   UNL     1      51.401  61.003   2.390  1.00  0.00     0.214 A 
ATOM     28  C   UNL     1      52.192  59.951   2.920  1.00  0.00     0.180 A 
ATOM     29  C   UNL     1      51.117  60.971   1.014  1.00  0.00     0.239 A 
ATOM     30  O   UNL     1      52.537  58.924   2.159  1.00  0.00    -0.452 OA
ATOM     31  C   UNL     1      51.606  59.922   0.210  1.00  0.00     0.111 A 
ATOM     32  O   UNL     1      50.422  61.886   0.516  1.00  0.00    -0.285 OA
ATOM     33  C   UNL     1      52.296  58.874   0.852  1.00  0.00     0.146 A 
ATOM     34  C   UNL     1      51.505  59.911  -1.200  1.00  0.00     0.134 A 
ATOM     35  C   UNL     1      52.782  57.791   0.112  1.00  0.00     0.094 A 
ATOM     36  C   UNL     1      52.004  58.835  -1.938  1.00  0.00     0.093 A 
ATOM     37  C   UNL     1      52.638  57.782  -1.281  1.00  0.00     0.123 A 
BRANCH  28  38
ATOM     38  C   UNL     1      52.774  59.965   4.271  1.00  0.00     0.025 A 
ATOM     39  C   UNL     1      53.622  58.920   4.653  1.00  0.00     0.062 A 
ATOM     40  C   UNL     1      52.418  60.940   5.201  1.00  0.00     0.016 A 
ATOM     41  C   UNL     1      54.146  58.859   5.941  1.00  0.00     0.158 A 
ATOM     42  C   UNL     1      52.987  60.920   6.480  1.00  0.00     0.051 A 
ATOM     43  C   UNL     1      53.833  59.881   6.868  1.00  0.00     0.157 A 
BRANCH  41  44
ATOM     44  O   UNL     1      54.990  57.785   6.242  1.00  0.00    -0.504 OA
ATOM     45  H   UNL     1      55.477  57.233   5.555  1.00  0.00     0.293 HD
ENDBRANCH  41  44
BRANCH  43  46
ATOM     46  O   UNL     1      54.360  59.906   8.159  1.00  0.00    -0.504 OA
ATOM     47  H   UNL     1      55.274  60.280   8.384  1.00  0.00     0.293 HD
ENDBRANCH  43  46
ENDBRANCH  28  38
BRANCH  34  48
ATOM     48  O   UNL     1      50.916  60.981  -1.885  1.00  0.00    -0.507 OA
ATOM     49  H   UNL     1      49.920  60.998  -2.067  1.00  0.00     0.293 HD
ENDBRANCH  34  48
BRANCH  37  50
ATOM     50  O   UNL     1      53.152  56.732  -2.025  1.00  0.00    -0.508 OA
ATOM     51  H   UNL     1      53.386  56.838  -3.002  1.00  0.00     0.293 HD
ENDBRANCH  37  50
ENDBRANCH  26  27
ENDBRANCH   5  26
BRANCH   4  52
ATOM     52  O   UNL     1      48.773  60.385   2.915  1.00  0.00    -0.384 OA
ATOM     53  H   UNL     1      47.893  59.938   3.011  1.00  0.00     0.211 HD
ENDBRANCH   4  52
TORSDOF 16
ENDMDL
MODEL 7
REMARK VINA RESULT:    -8.348      2.645      8.192
REMARK INTER + INTRA:         -15.347
REMARK INTER:                 -15.174
REMARK INTRA:                  -0.172
REMARK UNBOUND:                -1.631
REMARK SMILES C[C@H]1O[C@H](OC[C@@H]2O[C@@H](Oc3c(-c4ccc(O)c(O)c4)oc4cc(O)cc(O)c4c3=O)[C@H](O)[C@H](O)[C@H]2O)[C@H](O)[C@H](O)[C@@H]1O
REMARK SMILES IDX 7 1 36 2 34 3 32 4 9 5 8 6 6 7 5 8 4 9 1 10 2 11 42 12 3 13
REMARK SMILES IDX 40 14 38 15 43 16 41 18 39 20 37 22 35 24 10 26 11 27 12 28
REMARK SMILES IDX 30 29 21 30 29 31 31 32 22 33 27 34 23 35 26 36 24 37 13 38
REMARK SMILES IDX 20 39 14 40 18 41 15 42 16 43 19 44 17 46 28 48 25 50 33 52
REMARK H PARENT 43 17 41 19 39 21 37 23 35 25 19 45 17 47 28 49 25 51 33 53
REMARK Flexibility Score: inf
ROOT
ATOM      1  C   UNL     1      47.468  63.242   2.587  1.00  0.00     0.180 C 
ATOM      2  C   UNL     1      47.785  64.145   1.368  1.00  0.00     0.177 C 
ATOM      3  C   UNL     1      49.256  64.034   0.930  1.00  0.00     0.180 C 
ATOM      4  C   UNL     1      49.687  62.558   0.852  1.00  0.00     0.214 C 
ATOM      5  C   UNL     1      49.314  61.812   2.145  1.00  0.00     0.339 C 
ATOM      6  O   UNL     1      47.921  61.895   2.395  1.00  0.00    -0.332 OA
ENDROOT
BRANCH   1   7
ATOM      7  C   UNL     1      47.833  63.823   3.990  1.00  0.00     0.198 C 
BRANCH   7   8
ATOM      8  O   UNL     1      47.790  65.243   4.006  1.00  0.00    -0.347 OA
BRANCH   8   9
ATOM      9  C   UNL     1      46.606  65.745   3.410  1.00  0.00     0.281 C 
ATOM     10  C   UNL     1      43.689  66.307   2.914  1.00  0.00     0.041 C 
ATOM     11  C   UNL     1      44.529  66.700   4.144  1.00  0.00     0.150 C 
ATOM     12  C   UNL     1      45.027  68.178   4.113  1.00  0.00     0.174 C 
ATOM     13  O   UNL     1      45.577  65.772   4.408  1.00  0.00    -0.344 OA
ATOM     14  C   UNL     1      46.540  68.255   3.792  1.00  0.00     0.179 C 
ATOM     15  C   UNL     1      46.933  67.145   2.813  1.00  0.00     0.202 C 
BRANCH  12  16
ATOM     16  O   UNL     1      44.746  68.787   5.343  1.00  0.00    -0.388 OA
ATOM     17  H   UNL     1      45.606  69.137   5.707  1.00  0.00     0.211 HD
ENDBRANCH  12  16
BRANCH  14  18
ATOM     18  O   UNL     1      47.348  68.220   4.943  1.00  0.00    -0.387 OA
ATOM     19  H   UNL     1      47.270  69.090   5.420  1.00  0.00     0.211 HD
ENDBRANCH  14  18
BRANCH  15  20
ATOM     20  O   UNL     1      48.303  67.268   2.502  1.00  0.00    -0.385 OA
ATOM     21  H   UNL     1      48.352  67.486   1.536  1.00  0.00     0.211 HD
ENDBRANCH  15  20
ENDBRANCH   8   9
ENDBRANCH   7   8
ENDBRANCH   1   7
BRANCH   2  22
ATOM     22  O   UNL     1      46.978  63.731   0.291  1.00  0.00    -0.387 OA
ATOM     23  H   UNL     1      46.912  64.500  -0.331  1.00  0.00     0.211 HD
ENDBRANCH   2  22
BRANCH   3  24
ATOM     24  O   UNL     1      50.117  64.801   1.737  1.00  0.00    -0.387 OA
ATOM     25  H   UNL     1      50.017  64.536   2.694  1.00  0.00     0.211 HD
ENDBRANCH   3  24
BRANCH   5  26
ATOM     26  O   UNL     1      49.656  60.437   1.951  1.00  0.00    -0.454 OA
BRANCH  26  27
ATOM     27  C   UNL     1      50.943  59.888   1.788  1.00  0.00     0.214 A 
ATOM     28  C   UNL     1      51.899  59.748   2.827  1.00  0.00     0.180 A 
ATOM     29  C   UNL     1      51.346  59.545   0.485  1.00  0.00     0.239 A 
ATOM     30  O   UNL     1      53.079  59.200   2.582  1.00  0.00    -0.452 OA
ATOM     31  C   UNL     1      52.653  59.079   0.244  1.00  0.00     0.111 A 
ATOM     32  O   UNL     1      50.525  59.659  -0.453  1.00  0.00    -0.285 OA
ATOM     33  C   UNL     1      53.492  58.881   1.359  1.00  0.00     0.146 A 
ATOM     34  C   UNL     1      53.180  58.876  -1.052  1.00  0.00     0.134 A 
ATOM     35  C   UNL     1      54.792  58.394   1.187  1.00  0.00     0.094 A 
ATOM     36  C   UNL     1      54.483  58.403  -1.221  1.00  0.00     0.093 A 
ATOM     37  C   UNL     1      55.282  58.164  -0.104  1.00  0.00     0.123 A 
BRANCH  28  38
ATOM     38  C   UNL     1      51.718  60.287   4.184  1.00  0.00     0.025 A 
ATOM     39  C   UNL     1      51.689  59.399   5.265  1.00  0.00     0.062 A 
ATOM     40  C   UNL     1      51.475  61.643   4.397  1.00  0.00     0.016 A 
ATOM     41  C   UNL     1      51.457  59.857   6.560  1.00  0.00     0.158 A 
ATOM     42  C   UNL     1      51.300  62.120   5.702  1.00  0.00     0.051 A 
ATOM     43  C   UNL     1      51.270  61.241   6.785  1.00  0.00     0.157 A 
BRANCH  41  44
ATOM     44  O   UNL     1      51.450  58.907   7.586  1.00  0.00    -0.504 OA
ATOM     45  H   UNL     1      51.612  57.923   7.452  1.00  0.00     0.293 HD
ENDBRANCH  41  44
BRANCH  43  46
ATOM     46  O   UNL     1      51.078  61.772   8.060  1.00  0.00    -0.504 OA
ATOM     47  H   UNL     1      51.817  62.206   8.602  1.00  0.00     0.293 HD
ENDBRANCH  43  46
ENDBRANCH  28  38
BRANCH  34  48
ATOM     48  O   UNL     1      52.413  59.157  -2.189  1.00  0.00    -0.507 OA
ATOM     49  H   UNL     1      52.004  60.073  -2.329  1.00  0.00     0.293 HD
ENDBRANCH  34  48
BRANCH  37  50
ATOM     50  O   UNL     1      56.581  57.719  -0.285  1.00  0.00    -0.508 OA
ATOM     51  H   UNL     1      57.124  57.338   0.477  1.00  0.00     0.293 HD
ENDBRANCH  37  50
ENDBRANCH  26  27
ENDBRANCH   5  26
BRANCH   4  52
ATOM     52  O   UNL     1      51.064  62.473   0.630  1.00  0.00    -0.384 OA
ATOM     53  H   UNL     1      51.259  61.525   0.416  1.00  0.00     0.211 HD
ENDBRANCH   4  52
TORSDOF 16
ENDMDL
MODEL 8
REMARK VINA RESULT:    -8.303      2.142      7.261
REMARK INTER + INTRA:         -15.273
REMARK INTER:                 -14.105
REMARK INTRA:                  -1.167
REMARK UNBOUND:                -1.631
REMARK SMILES C[C@H]1O[C@H](OC[C@@H]2O[C@@H](Oc3c(-c4ccc(O)c(O)c4)oc4cc(O)cc(O)c4c3=O)[C@H](O)[C@H](O)[C@H]2O)[C@H](O)[C@H](O)[C@@H]1O
REMARK SMILES IDX 7 1 36 2 34 3 32 4 9 5 8 6 6 7 5 8 4 9 1 10 2 11 42 12 3 13
REMARK SMILES IDX 40 14 38 15 43 16 41 18 39 20 37 22 35 24 10 26 11 27 12 28
REMARK SMILES IDX 30 29 21 30 29 31 31 32 22 33 27 34 23 35 26 36 24 37 13 38
REMARK SMILES IDX 20 39 14 40 18 41 15 42 16 43 19 44 17 46 28 48 25 50 33 52
REMARK H PARENT 43 17 41 19 39 21 37 23 35 25 19 45 17 47 28 49 25 51 33 53
REMARK Flexibility Score: inf
ROOT
ATOM      1  C   UNL     1      49.187  60.702   6.136  1.00  0.00     0.180 C 
ATOM      2  C   UNL     1      47.750  60.595   6.705  1.00  0.00     0.177 C 
ATOM      3  C   UNL     1      46.758  61.497   5.951  1.00  0.00     0.180 C 
ATOM      4  C   UNL     1      46.932  61.339   4.429  1.00  0.00     0.214 C 
ATOM      5  C   UNL     1      48.411  61.489   4.032  1.00  0.00     0.339 C 
ATOM      6  O   UNL     1      49.218  60.542   4.711  1.00  0.00    -0.332 OA
ENDROOT
BRANCH   1   7
ATOM      7  C   UNL     1      50.042  61.908   6.642  1.00  0.00     0.198 C 
BRANCH   7   8
ATOM      8  O   UNL     1      51.390  61.826   6.203  1.00  0.00    -0.347 OA
BRANCH   8   9
ATOM      9  C   UNL     1      52.188  61.050   7.080  1.00  0.00     0.281 C 
ATOM     10  C   UNL     1      52.987  59.273   9.377  1.00  0.00     0.041 C 
ATOM     11  C   UNL     1      52.020  58.945   8.223  1.00  0.00     0.150 C 
ATOM     12  C   UNL     1      52.674  58.105   7.082  1.00  0.00     0.174 C 
ATOM     13  O   UNL     1      51.340  60.098   7.737  1.00  0.00    -0.344 OA
ATOM     14  C   UNL     1      52.940  58.973   5.828  1.00  0.00     0.179 C 
ATOM     15  C   UNL     1      53.323  60.397   6.237  1.00  0.00     0.202 C 
BRANCH  12  16
ATOM     16  O   UNL     1      51.843  57.021   6.772  1.00  0.00    -0.388 OA
ATOM     17  H   UNL     1      52.052  56.741   5.838  1.00  0.00     0.211 HD
ENDBRANCH  12  16
BRANCH  14  18
ATOM     18  O   UNL     1      51.860  58.982   4.926  1.00  0.00    -0.387 OA
ATOM     19  H   UNL     1      51.214  58.272   5.187  1.00  0.00     0.211 HD
ENDBRANCH  14  18
BRANCH  15  20
ATOM     20  O   UNL     1      53.606  61.151   5.080  1.00  0.00    -0.385 OA
ATOM     21  H   UNL     1      52.758  61.590   4.816  1.00  0.00     0.211 HD
ENDBRANCH  15  20
ENDBRANCH   8   9
ENDBRANCH   7   8
ENDBRANCH   1   7
BRANCH   2  22
ATOM     22  O   UNL     1      47.318  59.262   6.567  1.00  0.00    -0.387 OA
ATOM     23  H   UNL     1      46.337  59.289   6.432  1.00  0.00     0.211 HD
ENDBRANCH   2  22
BRANCH   3  24
ATOM     24  O   UNL     1      46.833  62.841   6.362  1.00  0.00    -0.387 OA
ATOM     25  H   UNL     1      46.854  62.894   7.358  1.00  0.00     0.211 HD
ENDBRANCH   3  24
BRANCH   5  26
ATOM     26  O   UNL     1      48.497  61.231   2.628  1.00  0.00    -0.454 OA
BRANCH  26  27
ATOM     27  C   UNL     1      49.452  61.731   1.721  1.00  0.00     0.214 A 
ATOM     28  C   UNL     1      49.572  63.093   1.343  1.00  0.00     0.180 A 
ATOM     29  C   UNL     1      50.282  60.801   1.070  1.00  0.00     0.239 A 
ATOM     30  O   UNL     1      50.517  63.472   0.496  1.00  0.00    -0.452 OA
ATOM     31  C   UNL     1      51.192  61.228   0.084  1.00  0.00     0.111 A 
ATOM     32  O   UNL     1      50.198  59.591   1.382  1.00  0.00    -0.285 OA
ATOM     33  C   UNL     1      51.304  62.614  -0.146  1.00  0.00     0.146 A 
ATOM     34  C   UNL     1      51.934  60.339  -0.728  1.00  0.00     0.134 A 
ATOM     35  C   UNL     1      52.211  63.102  -1.093  1.00  0.00     0.094 A 
ATOM     36  C   UNL     1      52.828  60.829  -1.682  1.00  0.00     0.093 A 
ATOM     37  C   UNL     1      52.963  62.205  -1.861  1.00  0.00     0.123 A 
BRANCH  28  38
ATOM     38  C   UNL     1      48.621  64.141   1.746  1.00  0.00     0.025 A 
ATOM     39  C   UNL     1      49.116  65.315   2.323  1.00  0.00     0.062 A 
ATOM     40  C   UNL     1      47.245  63.941   1.657  1.00  0.00     0.016 A 
ATOM     41  C   UNL     1      48.251  66.308   2.777  1.00  0.00     0.158 A 
ATOM     42  C   UNL     1      46.369  64.958   2.056  1.00  0.00     0.051 A 
ATOM     43  C   UNL     1      46.854  66.132   2.632  1.00  0.00     0.157 A 
BRANCH  41  44
ATOM     44  O   UNL     1      48.824  67.454   3.337  1.00  0.00    -0.504 OA
ATOM     45  H   UNL     1      48.614  67.805   4.256  1.00  0.00     0.293 HD
ENDBRANCH  41  44
BRANCH  43  46
ATOM     46  O   UNL     1      45.935  67.105   3.024  1.00  0.00    -0.504 OA
ATOM     47  H   UNL     1      44.930  66.976   2.979  1.00  0.00     0.293 HD
ENDBRANCH  43  46
ENDBRANCH  28  38
BRANCH  34  48
ATOM     48  O   UNL     1      51.777  58.954  -0.600  1.00  0.00    -0.507 OA
ATOM     49  H   UNL     1      52.505  58.382  -0.188  1.00  0.00     0.293 HD
ENDBRANCH  34  48
BRANCH  37  50
ATOM     50  O   UNL     1      53.834  62.679  -2.828  1.00  0.00    -0.508 OA
ATOM     51  H   UNL     1      54.556  63.351  -2.610  1.00  0.00     0.293 HD
ENDBRANCH  37  50
ENDBRANCH  26  27
ENDBRANCH   5  26
BRANCH   4  52
ATOM     52  O   UNL     1      46.156  62.287   3.758  1.00  0.00    -0.384 OA
ATOM     53  H   UNL     1      46.779  62.991   3.442  1.00  0.00     0.211 HD
ENDBRANCH   4  52
TORSDOF 16
ENDMDL
MODEL 9
REMARK VINA RESULT:    -8.161      2.732      7.866
REMARK INTER + INTRA:         -15.040
REMARK INTER:                 -15.569
REMARK INTRA:                   0.529
REMARK UNBOUND:                -1.631
REMARK SMILES C[C@H]1O[C@H](OC[C@@H]2O[C@@H](Oc3c(-c4ccc(O)c(O)c4)oc4cc(O)cc(O)c4c3=O)[C@H](O)[C@H](O)[C@H]2O)[C@H](O)[C@H](O)[C@@H]1O
REMARK SMILES IDX 7 1 36 2 34 3 32 4 9 5 8 6 6 7 5 8 4 9 1 10 2 11 42 12 3 13
REMARK SMILES IDX 40 14 38 15 43 16 41 18 39 20 37 22 35 24 10 26 11 27 12 28
REMARK SMILES IDX 30 29 21 30 29 31 31 32 22 33 27 34 23 35 26 36 24 37 13 38
REMARK SMILES IDX 20 39 14 40 18 41 15 42 16 43 19 44 17 46 28 48 25 50 33 52
REMARK H PARENT 43 17 41 19 39 21 37 23 35 25 19 45 17 47 28 49 25 51 33 53
REMARK Flexibility Score: inf
ROOT
ATOM      1  C   UNL     1      48.328  64.254   4.397  1.00  0.00     0.180 C 
ATOM      2  C   UNL     1      47.313  63.235   4.973  1.00  0.00     0.177 C 
ATOM      3  C   UNL     1      47.268  61.934   4.152  1.00  0.00     0.180 C 
ATOM      4  C   UNL     1      48.692  61.429   3.860  1.00  0.00     0.214 C 
ATOM      5  C   UNL     1      49.562  62.558   3.280  1.00  0.00     0.339 C 
ATOM      6  O   UNL     1      49.615  63.664   4.165  1.00  0.00    -0.332 OA
ENDROOT
BRANCH   1   7
ATOM      7  C   UNL     1      47.826  65.132   3.207  1.00  0.00     0.198 C 
BRANCH   7   8
ATOM      8  O   UNL     1      46.422  65.024   3.020  1.00  0.00    -0.347 OA
BRANCH   8   9
ATOM      9  C   UNL     1      45.709  65.973   3.794  1.00  0.00     0.281 C 
ATOM     10  C   UNL     1      44.782  68.611   4.913  1.00  0.00     0.041 C 
ATOM     11  C   UNL     1      44.692  68.121   3.455  1.00  0.00     0.150 C 
ATOM     12  C   UNL     1      43.288  67.561   3.070  1.00  0.00     0.174 C 
ATOM     13  O   UNL     1      45.752  67.233   3.112  1.00  0.00    -0.344 OA
ATOM     14  C   UNL     1      43.309  66.016   2.966  1.00  0.00     0.179 C 
ATOM     15  C   UNL     1      44.267  65.426   4.004  1.00  0.00     0.202 C 
BRANCH  12  16
ATOM     16  O   UNL     1      42.875  68.137   1.862  1.00  0.00    -0.388 OA
ATOM     17  H   UNL     1      43.626  68.042   1.213  1.00  0.00     0.211 HD
ENDBRANCH  12  16
BRANCH  14  18
ATOM     18  O   UNL     1      43.622  65.556   1.674  1.00  0.00    -0.387 OA
ATOM     19  H   UNL     1      43.471  64.574   1.634  1.00  0.00     0.211 HD
ENDBRANCH  14  18
BRANCH  15  20
ATOM     20  O   UNL     1      44.230  64.019   3.920  1.00  0.00    -0.385 OA
ATOM     21  H   UNL     1      43.490  63.794   3.300  1.00  0.00     0.211 HD
ENDBRANCH  15  20
ENDBRANCH   8   9
ENDBRANCH   7   8
ENDBRANCH   1   7
BRANCH   2  22
ATOM     22  O   UNL     1      47.709  62.909   6.284  1.00  0.00    -0.387 OA
ATOM     23  H   UNL     1      47.100  63.393   6.898  1.00  0.00     0.211 HD
ENDBRANCH   2  22
BRANCH   3  24
ATOM     24  O   UNL     1      46.494  62.062   2.984  1.00  0.00    -0.387 OA
ATOM     25  H   UNL     1      45.951  62.898   3.022  1.00  0.00     0.211 HD
ENDBRANCH   3  24
BRANCH   5  26
ATOM     26  O   UNL     1      50.885  62.036   3.133  1.00  0.00    -0.454 OA
BRANCH  26  27
ATOM     27  C   UNL     1      51.579  61.195   4.024  1.00  0.00     0.214 A 
ATOM     28  C   UNL     1      52.274  60.016   3.649  1.00  0.00     0.180 A 
ATOM     29  C   UNL     1      51.495  61.488   5.397  1.00  0.00     0.239 A 
ATOM     30  O   UNL     1      52.916  59.299   4.557  1.00  0.00    -0.452 OA
ATOM     31  C   UNL     1      52.089  60.632   6.345  1.00  0.00     0.111 A 
ATOM     32  O   UNL     1      50.887  62.521   5.760  1.00  0.00    -0.285 OA
ATOM     33  C   UNL     1      52.842  59.543   5.862  1.00  0.00     0.146 A 
ATOM     34  C   UNL     1      51.905  60.771   7.740  1.00  0.00     0.134 A 
ATOM     35  C   UNL     1      53.479  58.674   6.754  1.00  0.00     0.094 A 
ATOM     36  C   UNL     1      52.531  59.892   8.628  1.00  0.00     0.093 A 
ATOM     37  C   UNL     1      53.314  58.850   8.133  1.00  0.00     0.123 A 
BRANCH  28  38
ATOM     38  C   UNL     1      52.244  59.445   2.293  1.00  0.00     0.025 A 
ATOM     39  C   UNL     1      53.442  59.016   1.713  1.00  0.00     0.062 A 
ATOM     40  C   UNL     1      51.067  59.419   1.546  1.00  0.00     0.016 A 
ATOM     41  C   UNL     1      53.471  58.528   0.410  1.00  0.00     0.158 A 
ATOM     42  C   UNL     1      51.075  58.875   0.256  1.00  0.00     0.051 A 
ATOM     43  C   UNL     1      52.267  58.445  -0.329  1.00  0.00     0.157 A 
BRANCH  41  44
ATOM     44  O   UNL     1      54.708  58.113  -0.095  1.00  0.00    -0.504 OA
ATOM     45  H   UNL     1      55.408  57.628   0.442  1.00  0.00     0.293 HD
ENDBRANCH  41  44
BRANCH  43  46
ATOM     46  O   UNL     1      52.217  57.924  -1.621  1.00  0.00    -0.504 OA
ATOM     47  H   UNL     1      51.470  57.326  -1.956  1.00  0.00     0.293 HD
ENDBRANCH  43  46
ENDBRANCH  28  38
BRANCH  34  48
ATOM     48  O   UNL     1      51.083  61.779   8.258  1.00  0.00    -0.507 OA
ATOM     49  H   UNL     1      51.415  62.400   8.986  1.00  0.00     0.293 HD
ENDBRANCH  34  48
BRANCH  37  50
ATOM     50  O   UNL     1      53.908  57.971   9.022  1.00  0.00    -0.508 OA
ATOM     51  H   UNL     1      53.802  56.970   8.931  1.00  0.00     0.293 HD
ENDBRANCH  37  50
ENDBRANCH  26  27
ENDBRANCH   5  26
BRANCH   4  52
ATOM     52  O   UNL     1      48.645  60.354   2.970  1.00  0.00    -0.384 OA
ATOM     53  H   UNL     1      47.756  59.930   3.084  1.00  0.00     0.211 HD
ENDBRANCH   4  52
TORSDOF 16
ENDMDL
