MODEL 1
REMARK VINA RESULT:    -2.286      0.000      0.000
REMARK INTER + INTRA:          -2.286
REMARK INTER:                  -2.286
REMARK INTRA:                   0.000
REMARK UNBOUND:                 0.000
REMARK SMILES CC(=O)[O-]
REMARK SMILES IDX 1 1 2 2 3 3 4 4
REMARK H PARENT
REMARK Flexibility Score: inf
ROOT
ATOM      1  C   UNL     1      -7.775  25.559   6.588  1.00  0.00     0.063 C 
ATOM      2  C   UNL     1      -6.737  26.312   5.827  1.00  0.00     0.038 C 
ATOM      3  O   UNL     1      -6.692  26.232   4.571  1.00  0.00    -0.550 OA
ATOM      4  O   UNL     1      -5.851  27.146   6.497  1.00  0.00    -0.550 OA
ENDROOT
TORSDOF 0
ENDMDL
MODEL 2
REMARK VINA RESULT:    -2.257      4.619      4.957
REMARK INTER + INTRA:          -2.257
REMARK INTER:                  -2.257
REMARK INTRA:                   0.000
REMARK UNBOUND:                 0.000
REMARK SMILES CC(=O)[O-]
REMARK SMILES IDX 1 1 2 2 3 3 4 4
REMARK H PARENT
REMARK Flexibility Score: inf
ROOT
ATOM      1  C   UNL     1      -7.389  26.008   2.315  1.00  0.00     0.063 C 
ATOM      2  C   UNL     1      -7.778  24.779   1.567  1.00  0.00     0.038 C 
ATOM      3  O   UNL     1      -8.877  24.733   0.955  1.00  0.00    -0.550 OA
ATOM      4  O   UNL     1      -6.904  23.701   1.496  1.00  0.00    -0.550 OA
ENDROOT
TORSDOF 0
ENDMDL
MODEL 3
REMARK VINA RESULT:    -2.233      2.911      3.296
REMARK INTER + INTRA:          -2.233
REMARK INTER:                  -2.233
REMARK INTRA:                   0.000
REMARK UNBOUND:                 0.000
REMARK SMILES CC(=O)[O-]
REMARK SMILES IDX 1 1 2 2 3 3 4 4
REMARK H PARENT
REMARK Flexibility Score: inf
ROOT
ATOM      1  C   UNL     1      -7.532  25.907   4.373  1.00  0.00     0.063 C 
ATOM      2  C   UNL     1      -7.814  26.193   2.937  1.00  0.00     0.038 C 
ATOM      3  O   UNL     1      -8.598  25.454   2.287  1.00  0.00    -0.550 OA
ATOM      4  O   UNL     1      -7.253  27.309   2.327  1.00  0.00    -0.550 OA
ENDROOT
TORSDOF 0
ENDMDL
MODEL 4
REMARK VINA RESULT:    -2.218      8.548      9.014
REMARK INTER + INTRA:          -2.218
REMARK INTER:                  -2.218
REMARK INTRA:                   0.000
REMARK UNBOUND:                 0.000
REMARK SMILES CC(=O)[O-]
REMARK SMILES IDX 1 1 2 2 3 3 4 4
REMARK H PARENT
REMARK Flexibility Score: inf
ROOT
ATOM      1  C   UNL     1      -7.250  32.878  -1.893  1.00  0.00     0.063 C 
ATOM      2  C   UNL     1      -7.463  31.634  -1.100  1.00  0.00     0.038 C 
ATOM      3  O   UNL     1      -6.935  30.552  -1.466  1.00  0.00    -0.550 OA
ATOM      4  O   UNL     1      -8.200  31.678   0.078  1.00  0.00    -0.550 OA
ENDROOT
TORSDOF 0
ENDMDL
MODEL 5
REMARK VINA RESULT:    -2.192      4.646      5.322
REMARK INTER + INTRA:          -2.192
REMARK INTER:                  -2.192
REMARK INTRA:                   0.000
REMARK UNBOUND:                 0.000
REMARK SMILES CC(=O)[O-]
REMARK SMILES IDX 1 1 2 2 3 3 4 4
REMARK H PARENT
REMARK Flexibility Score: inf
ROOT
ATOM      1  C   UNL     1      -7.895  25.545   2.251  1.00  0.00     0.063 C 
ATOM      2  C   UNL     1      -7.612  24.382   1.363  1.00  0.00     0.038 C 
ATOM      3  O   UNL     1      -6.566  23.701   1.525  1.00  0.00    -0.550 OA
ATOM      4  O   UNL     1      -8.531  24.011   0.388  1.00  0.00    -0.550 OA
ENDROOT
TORSDOF 0
ENDMDL
MODEL 6
REMARK VINA RESULT:    -2.175     14.285     14.647
REMARK INTER + INTRA:          -2.175
REMARK INTER:                  -2.175
REMARK INTRA:                   0.000
REMARK UNBOUND:                 0.000
REMARK SMILES CC(=O)[O-]
REMARK SMILES IDX 1 1 2 2 3 3 4 4
REMARK H PARENT
REMARK Flexibility Score: inf
ROOT
ATOM      1  C   UNL     1     -13.549  26.018  -7.869  1.00  0.00     0.063 C 
ATOM      2  C   UNL     1     -14.118  26.587  -6.614  1.00  0.00     0.038 C 
ATOM      3  O   UNL     1     -14.222  27.834  -6.475  1.00  0.00    -0.550 OA
ATOM      4  O   UNL     1     -14.586  25.741  -5.616  1.00  0.00    -0.550 OA
ENDROOT
TORSDOF 0
ENDMDL
MODEL 7
REMARK VINA RESULT:    -2.166      1.770      2.322
REMARK INTER + INTRA:          -2.166
REMARK INTER:                  -2.166
REMARK INTRA:                   0.000
REMARK UNBOUND:                 0.000
REMARK SMILES CC(=O)[O-]
REMARK SMILES IDX 1 1 2 2 3 3 4 4
REMARK H PARENT
REMARK Flexibility Score: inf
ROOT
ATOM      1  C   UNL     1      -6.458  26.557   6.391  1.00  0.00     0.063 C 
ATOM      2  C   UNL     1      -7.576  25.776   5.788  1.00  0.00     0.038 C 
ATOM      3  O   UNL     1      -8.566  25.444   6.490  1.00  0.00    -0.550 OA
ATOM      4  O   UNL     1      -7.553  25.459   4.435  1.00  0.00    -0.550 OA
ENDROOT
TORSDOF 0
ENDMDL
MODEL 8
REMARK VINA RESULT:    -2.148     14.132     14.346
REMARK INTER + INTRA:          -2.148
REMARK INTER:                  -2.148
REMARK INTRA:                   0.000
REMARK UNBOUND:                 0.000
REMARK SMILES CC(=O)[O-]
REMARK SMILES IDX 1 1 2 2 3 3 4 4
REMARK H PARENT
REMARK Flexibility Score: inf
ROOT
ATOM      1  C   UNL     1     -12.908  25.784  -7.254  1.00  0.00     0.063 C 
ATOM      2  C   UNL     1     -13.955  26.411  -6.398  1.00  0.00     0.038 C 
ATOM      3  O   UNL     1     -14.596  25.713  -5.570  1.00  0.00    -0.550 OA
ATOM      4  O   UNL     1     -14.189  27.779  -6.473  1.00  0.00    -0.550 OA
ENDROOT
TORSDOF 0
ENDMDL
MODEL 9
REMARK VINA RESULT:    -2.115      8.143      8.724
REMARK INTER + INTRA:          -2.115
REMARK INTER:                  -2.115
REMARK INTRA:                   0.000
REMARK UNBOUND:                 0.000
REMARK SMILES CC(=O)[O-]
REMARK SMILES IDX 1 1 2 2 3 3 4 4
REMARK H PARENT
REMARK Flexibility Score: inf
ROOT
ATOM      1  C   UNL     1      -6.068  31.449   0.024  1.00  0.00     0.063 C 
ATOM      2  C   UNL     1      -7.374  31.824  -0.587  1.00  0.00     0.038 C 
ATOM      3  O   UNL     1      -8.452  31.468  -0.044  1.00  0.00    -0.550 OA
ATOM      4  O   UNL     1      -7.406  32.616  -1.729  1.00  0.00    -0.550 OA
ENDROOT
TORSDOF 0
ENDMDL
