MODEL 1
REMARK VINA RESULT:    -3.837      0.000      0.000
REMARK INTER + INTRA:          -1.513
REMARK INTER:                  -4.734
REMARK INTRA:                   3.221
REMARK UNBOUND:                 3.221
REMARK SMILES C=C1CC[C@@H]2[C@@H]([C@@H]3[C@@H]1CC[C@@H]3C)C2(C)C
REMARK SMILES IDX 3 1 2 2 1 3 8 4 12 5 11 6 10 7 7 8 9 9 4 11 5 12 6 13 13 14
REMARK SMILES IDX 14 16 15 17
REMARK H PARENT
REMARK Flexibility Score: 80.00
ROOT
ATOM      1  C   UNL     1      22.718  62.381  18.000  1.00  0.00     0.031 C 
ENDROOT
BRANCH   1   2
ATOM      2  C   UNL     1      21.795  63.605  17.941  1.00  0.00    -0.074 C 
ATOM      3  C   UNL     1      22.145  64.719  18.607  1.00  0.00     0.008 C 
BRANCH   2   4
ATOM      4  C   UNL     1      20.659  63.582  16.912  1.00  0.00     0.018 C 
ATOM      5  C   UNL     1      19.419  62.829  13.967  1.00  0.00     0.008 C 
ATOM      6  C   UNL     1      19.829  64.113  14.709  1.00  0.00    -0.010 C 
ATOM      7  C   UNL     1      18.763  64.526  15.753  1.00  0.00     0.004 C 
ATOM      8  C   UNL     1      21.131  63.981  15.515  1.00  0.00     0.003 CG0
ATOM      9  C   UNL     1      19.424  64.444  17.138  1.00  0.00     0.008 C 
ATOM     10  G   UNL     1      22.159  62.932  15.042  1.00  0.00     0.000 G0
ENDBRANCH   2   4
ENDBRANCH   1   2
BRANCH   1  11
ATOM     11  C   UNL     1      23.775  62.292  16.852  1.00  0.00     0.009 C 
BRANCH  11  12
ATOM     12  C   UNL     1      23.515  63.311  15.731  1.00  0.00    -0.001 C 
ATOM     13  C   UNL     1      22.175  62.931  15.039  1.00  0.00     0.002 CG0
ATOM     14  C   UNL     1      23.448  63.111  14.221  1.00  0.00    -0.029 C 
ATOM     15  G   UNL     1      21.153  63.989  15.506  1.00  0.00     0.000 G0
ATOM     16  C   UNL     1      23.515  64.372  13.351  1.00  0.00     0.011 C 
ATOM     17  C   UNL     1      24.090  61.839  13.659  1.00  0.00     0.011 C 
ENDBRANCH  11  12
ENDBRANCH   1  11
TORSDOF 0
ENDMDL
MODEL 2
REMARK VINA RESULT:    -3.544      1.293      3.441
REMARK INTER + INTRA:          -1.152
REMARK INTER:                  -4.429
REMARK INTRA:                   3.277
REMARK UNBOUND:                 3.221
REMARK SMILES C=C1CC[C@@H]2[C@@H]([C@@H]3[C@@H]1CC[C@@H]3C)C2(C)C
REMARK SMILES IDX 3 1 2 2 1 3 8 4 12 5 11 6 10 7 7 8 9 9 4 11 5 12 6 13 13 14
REMARK SMILES IDX 14 16 15 17
REMARK H PARENT
REMARK Flexibility Score: 80.00
ROOT
ATOM      1  C   UNL     1      21.167  64.262  13.402  1.00  0.00     0.031 C 
ENDROOT
BRANCH   1   2
ATOM      2  C   UNL     1      19.881  63.871  14.142  1.00  0.00    -0.074 C 
ATOM      3  C   UNL     1      19.224  62.760  13.766  1.00  0.00     0.008 C 
BRANCH   2   4
ATOM      4  C   UNL     1      19.558  64.620  15.439  1.00  0.00     0.018 C 
ATOM      5  C   UNL     1      20.433  66.106  18.233  1.00  0.00     0.008 C 
ATOM      6  C   UNL     1      19.722  64.799  17.841  1.00  0.00    -0.010 C 
ATOM      7  C   UNL     1      18.254  65.059  17.423  1.00  0.00     0.004 C 
ATOM      8  C   UNL     1      20.349  64.084  16.632  1.00  0.00     0.003 CG0
ATOM      9  C   UNL     1      18.122  64.661  15.945  1.00  0.00     0.008 C 
ATOM     10  G   UNL     1      21.847  64.328  16.357  1.00  0.00     0.000 G0
ENDBRANCH   2   4
ENDBRANCH   1   2
BRANCH   1  11
ATOM     11  C   UNL     1      22.483  63.667  14.001  1.00  0.00     0.009 C 
BRANCH  11  12
ATOM     12  C   UNL     1      22.289  63.125  15.427  1.00  0.00    -0.001 C 
ATOM     13  C   UNL     1      21.860  64.312  16.336  1.00  0.00     0.002 CG0
ATOM     14  C   UNL     1      23.054  63.440  16.707  1.00  0.00    -0.029 C 
ATOM     15  G   UNL     1      20.360  64.091  16.624  1.00  0.00     0.000 G0
ATOM     16  C   UNL     1      22.849  62.487  17.890  1.00  0.00     0.011 C 
ATOM     17  C   UNL     1      24.441  64.072  16.550  1.00  0.00     0.011 C 
ENDBRANCH  11  12
ENDBRANCH   1  11
TORSDOF 0
ENDMDL
MODEL 3
REMARK VINA RESULT:    -3.482      1.234      4.545
REMARK INTER + INTRA:          -1.075
REMARK INTER:                  -4.324
REMARK INTRA:                   3.248
REMARK UNBOUND:                 3.221
REMARK SMILES C=C1CC[C@@H]2[C@@H]([C@@H]3[C@@H]1CC[C@@H]3C)C2(C)C
REMARK SMILES IDX 3 1 2 2 1 3 8 4 12 5 11 6 10 7 7 8 9 9 4 11 5 12 6 13 13 14
REMARK SMILES IDX 14 16 15 17
REMARK H PARENT
REMARK Flexibility Score: 80.00
ROOT
ATOM      1  C   UNL     1      20.154  63.182  14.956  1.00  0.00     0.031 C 
ENDROOT
BRANCH   1   2
ATOM      2  C   UNL     1      21.479  63.384  14.209  1.00  0.00    -0.074 C 
ATOM      3  C   UNL     1      21.585  64.398  13.333  1.00  0.00     0.008 C 
BRANCH   2   4
ATOM      4  C   UNL     1      22.691  62.585  14.697  1.00  0.00     0.018 C 
ATOM      5  C   UNL     1      24.529  61.246  17.066  1.00  0.00     0.008 C 
ATOM      6  C   UNL     1      24.663  62.421  16.081  1.00  0.00    -0.010 C 
ATOM      7  C   UNL     1      25.014  61.927  14.657  1.00  0.00     0.004 C 
ATOM      8  C   UNL     1      23.371  63.236  15.902  1.00  0.00     0.003 CG0
ATOM      9  C   UNL     1      23.842  62.306  13.738  1.00  0.00     0.008 C 
ATOM     10  G   UNL     1      22.363  63.242  17.070  1.00  0.00     0.000 G0
ENDBRANCH   2   4
ENDBRANCH   1   2
BRANCH   1  11
ATOM     11  C   UNL     1      20.056  63.901  16.340  1.00  0.00     0.009 C 
BRANCH  11  12
ATOM     12  C   UNL     1      21.411  64.453  16.814  1.00  0.00    -0.001 C 
ATOM     13  C   UNL     1      22.355  63.245  17.078  1.00  0.00     0.002 CG0
ATOM     14  C   UNL     1      22.118  64.296  18.156  1.00  0.00    -0.029 C 
ATOM     15  G   UNL     1      23.367  63.248  15.913  1.00  0.00     0.000 G0
ATOM     16  C   UNL     1      23.288  65.245  18.438  1.00  0.00     0.011 C 
ATOM     17  C   UNL     1      21.256  63.874  19.350  1.00  0.00     0.011 C 
ENDBRANCH  11  12
ENDBRANCH   1  11
TORSDOF 0
ENDMDL
MODEL 4
REMARK VINA RESULT:    -3.328      0.939      3.742
REMARK INTER + INTRA:          -0.885
REMARK INTER:                  -4.107
REMARK INTRA:                   3.222
REMARK UNBOUND:                 3.221
REMARK SMILES C=C1CC[C@@H]2[C@@H]([C@@H]3[C@@H]1CC[C@@H]3C)C2(C)C
REMARK SMILES IDX 3 1 2 2 1 3 8 4 12 5 11 6 10 7 7 8 9 9 4 11 5 12 6 13 13 14
REMARK SMILES IDX 14 16 15 17
REMARK H PARENT
REMARK Flexibility Score: 80.00
ROOT
ATOM      1  C   UNL     1      22.015  64.071  18.102  1.00  0.00     0.031 C 
ENDROOT
BRANCH   1   2
ATOM      2  C   UNL     1      23.049  63.348  17.231  1.00  0.00    -0.074 C 
ATOM      3  C   UNL     1      23.406  62.092  17.549  1.00  0.00     0.008 C 
BRANCH   2   4
ATOM      4  C   UNL     1      23.422  63.997  15.894  1.00  0.00     0.018 C 
ATOM      5  C   UNL     1      22.679  65.662  13.164  1.00  0.00     0.008 C 
ATOM      6  C   UNL     1      23.079  64.219  13.515  1.00  0.00    -0.010 C 
ATOM      7  C   UNL     1      24.598  64.104  13.788  1.00  0.00     0.004 C 
ATOM      8  C   UNL     1      22.413  63.678  14.791  1.00  0.00     0.003 CG0
ATOM      9  C   UNL     1      24.769  63.682  15.256  1.00  0.00     0.008 C 
ATOM     10  G   UNL     1      21.055  64.286  15.199  1.00  0.00     0.000 G0
ENDBRANCH   2   4
ENDBRANCH   1   2
BRANCH   1  11
ATOM     11  C   UNL     1      20.532  63.926  17.629  1.00  0.00     0.009 C 
BRANCH  11  12
ATOM     12  C   UNL     1      20.419  63.302  16.229  1.00  0.00    -0.001 C 
ATOM     13  C   UNL     1      21.040  64.298  15.208  1.00  0.00     0.002 CG0
ATOM     14  C   UNL     1      19.626  63.764  15.011  1.00  0.00    -0.029 C 
ATOM     15  G   UNL     1      22.389  63.676  14.791  1.00  0.00     0.000 G0
ATOM     16  C   UNL     1      19.444  62.749  13.877  1.00  0.00     0.011 C 
ATOM     17  C   UNL     1      18.478  64.748  15.261  1.00  0.00     0.011 C 
ENDBRANCH  11  12
ENDBRANCH   1  11
TORSDOF 0
ENDMDL
MODEL 5
REMARK VINA RESULT:    -3.273      1.606      4.367
REMARK INTER + INTRA:          -0.817
REMARK INTER:                  -4.074
REMARK INTRA:                   3.256
REMARK UNBOUND:                 3.221
REMARK SMILES C=C1CC[C@@H]2[C@@H]([C@@H]3[C@@H]1CC[C@@H]3C)C2(C)C
REMARK SMILES IDX 3 1 2 2 1 3 8 4 12 5 11 6 10 7 7 8 9 9 4 11 5 12 6 13 13 14
REMARK SMILES IDX 14 16 15 17
REMARK H PARENT
REMARK Flexibility Score: 80.00
ROOT
ATOM      1  C   UNL     1      20.037  63.627  17.390  1.00  0.00     0.031 C 
ENDROOT
BRANCH   1   2
ATOM      2  C   UNL     1      20.889  63.946  16.155  1.00  0.00    -0.074 C 
ATOM      3  C   UNL     1      20.722  65.127  15.535  1.00  0.00     0.008 C 
BRANCH   2   4
ATOM      4  C   UNL     1      22.069  63.016  15.853  1.00  0.00     0.018 C 
ATOM      5  C   UNL     1      24.576  61.107  16.775  1.00  0.00     0.008 C 
ATOM      6  C   UNL     1      24.410  62.472  16.086  1.00  0.00    -0.010 C 
ATOM      7  C   UNL     1      24.007  62.308  14.599  1.00  0.00     0.004 C 
ATOM      8  C   UNL     1      23.302  63.348  16.693  1.00  0.00     0.003 CG0
ATOM      9  C   UNL     1      22.611  62.928  14.432  1.00  0.00     0.008 C 
ATOM     10  G   UNL     1      22.943  63.119  18.176  1.00  0.00     0.000 G0
ENDBRANCH   2   4
ENDBRANCH   1   2
BRANCH   1  11
ATOM     11  C   UNL     1      20.682  64.017  18.759  1.00  0.00     0.009 C 
BRANCH  11  12
ATOM     12  C   UNL     1      22.164  64.401  18.624  1.00  0.00    -0.001 C 
ATOM     13  C   UNL     1      22.950  63.133  18.183  1.00  0.00     0.002 CG0
ATOM     14  C   UNL     1      23.377  63.923  19.415  1.00  0.00    -0.029 C 
ATOM     15  G   UNL     1      23.309  63.363  16.700  1.00  0.00     0.000 G0
ATOM     16  C   UNL     1      24.664  64.743  19.275  1.00  0.00     0.011 C 
ATOM     17  C   UNL     1      23.106  63.273  20.777  1.00  0.00     0.011 C 
ENDBRANCH  11  12
ENDBRANCH   1  11
TORSDOF 0
ENDMDL
MODEL 6
REMARK VINA RESULT:    -3.215      1.330      2.758
REMARK INTER + INTRA:          -0.746
REMARK INTER:                  -4.033
REMARK INTRA:                   3.288
REMARK UNBOUND:                 3.221
REMARK SMILES C=C1CC[C@@H]2[C@@H]([C@@H]3[C@@H]1CC[C@@H]3C)C2(C)C
REMARK SMILES IDX 3 1 2 2 1 3 8 4 12 5 11 6 10 7 7 8 9 9 4 11 5 12 6 13 13 14
REMARK SMILES IDX 14 16 15 17
REMARK H PARENT
REMARK Flexibility Score: 80.00
ROOT
ATOM      1  C   UNL     1      20.396  63.109  18.389  1.00  0.00     0.031 C 
ENDROOT
BRANCH   1   2
ATOM      2  C   UNL     1      20.014  63.964  17.174  1.00  0.00    -0.074 C 
ATOM      3  C   UNL     1      19.409  65.148  17.374  1.00  0.00     0.008 C 
BRANCH   2   4
ATOM      4  C   UNL     1      20.578  63.546  15.812  1.00  0.00     0.018 C 
ATOM      5  C   UNL     1      22.955  62.334  13.899  1.00  0.00     0.008 C 
ATOM      6  C   UNL     1      22.303  63.708  14.130  1.00  0.00    -0.010 C 
ATOM      7  C   UNL     1      20.922  63.802  13.436  1.00  0.00     0.004 C 
ATOM      8  C   UNL     1      22.016  64.023  15.608  1.00  0.00     0.003 CG0
ATOM      9  C   UNL     1      19.867  63.983  14.538  1.00  0.00     0.008 C 
ATOM     10  G   UNL     1      22.901  63.335  16.668  1.00  0.00     0.000 G0
ENDBRANCH   2   4
ENDBRANCH   1   2
BRANCH   1  11
ATOM     11  C   UNL     1      21.833  63.359  18.950  1.00  0.00     0.009 C 
BRANCH  11  12
ATOM     12  C   UNL     1      22.710  64.170  17.983  1.00  0.00    -0.001 C 
ATOM     13  C   UNL     1      22.894  63.332  16.685  1.00  0.00     0.002 CG0
ATOM     14  C   UNL     1      24.103  63.873  17.439  1.00  0.00    -0.029 C 
ATOM     15  G   UNL     1      22.017  64.021  15.619  1.00  0.00     0.000 G0
ATOM     16  C   UNL     1      24.849  65.033  16.770  1.00  0.00     0.011 C 
ATOM     17  C   UNL     1      24.946  62.851  18.210  1.00  0.00     0.011 C 
ENDBRANCH  11  12
ENDBRANCH   1  11
TORSDOF 0
ENDMDL
MODEL 7
REMARK VINA RESULT:    -3.160      1.149      3.425
REMARK INTER + INTRA:          -0.678
REMARK INTER:                  -3.958
REMARK INTRA:                   3.280
REMARK UNBOUND:                 3.221
REMARK SMILES C=C1CC[C@@H]2[C@@H]([C@@H]3[C@@H]1CC[C@@H]3C)C2(C)C
REMARK SMILES IDX 3 1 2 2 1 3 8 4 12 5 11 6 10 7 7 8 9 9 4 11 5 12 6 13 13 14
REMARK SMILES IDX 14 16 15 17
REMARK H PARENT
REMARK Flexibility Score: 80.00
ROOT
ATOM      1  C   UNL     1      20.307  65.100  13.787  1.00  0.00     0.031 C 
ENDROOT
BRANCH   1   2
ATOM      2  C   UNL     1      19.996  63.993  14.802  1.00  0.00    -0.074 C 
ATOM      3  C   UNL     1      19.205  62.971  14.432  1.00  0.00     0.008 C 
BRANCH   2   4
ATOM      4  C   UNL     1      20.817  63.974  16.096  1.00  0.00     0.018 C 
ATOM      5  C   UNL     1      23.611  64.378  17.773  1.00  0.00     0.008 C 
ATOM      6  C   UNL     1      22.733  63.191  17.340  1.00  0.00    -0.010 C 
ATOM      7  C   UNL     1      21.475  63.064  18.234  1.00  0.00     0.004 C 
ATOM      8  C   UNL     1      22.182  63.310  15.910  1.00  0.00     0.003 CG0
ATOM      9  C   UNL     1      20.249  63.293  17.335  1.00  0.00     0.008 C 
ATOM     10  G   UNL     1      22.988  64.156  14.903  1.00  0.00     0.000 G0
ENDBRANCH   2   4
ENDBRANCH   1   2
BRANCH   1  11
ATOM     11  C   UNL     1      21.606  64.883  12.946  1.00  0.00     0.009 C 
BRANCH  11  12
ATOM     12  C   UNL     1      22.478  63.742  13.493  1.00  0.00    -0.001 C 
ATOM     13  C   UNL     1      22.996  64.164  14.897  1.00  0.00     0.002 CG0
ATOM     14  C   UNL     1      23.969  63.714  13.814  1.00  0.00    -0.029 C 
ATOM     15  G   UNL     1      22.194  63.317  15.907  1.00  0.00     0.000 G0
ATOM     16  C   UNL     1      24.609  62.335  14.016  1.00  0.00     0.011 C 
ATOM     17  C   UNL     1      24.837  64.802  13.174  1.00  0.00     0.011 C 
ENDBRANCH  11  12
ENDBRANCH   1  11
TORSDOF 0
ENDMDL
MODEL 8
REMARK VINA RESULT:    -2.934      1.302      3.645
REMARK INTER + INTRA:          -0.400
REMARK INTER:                  -3.690
REMARK INTRA:                   3.290
REMARK UNBOUND:                 3.221
REMARK SMILES C=C1CC[C@@H]2[C@@H]([C@@H]3[C@@H]1CC[C@@H]3C)C2(C)C
REMARK SMILES IDX 3 1 2 2 1 3 8 4 12 5 11 6 10 7 7 8 9 9 4 11 5 12 6 13 13 14
REMARK SMILES IDX 14 16 15 17
REMARK H PARENT
REMARK Flexibility Score: 80.00
ROOT
ATOM      1  C   UNL     1      23.865  62.339  14.541  1.00  0.00     0.031 C 
ENDROOT
BRANCH   1   2
ATOM      2  C   UNL     1      24.282  63.556  15.378  1.00  0.00    -0.074 C 
ATOM      3  C   UNL     1      25.069  64.492  14.820  1.00  0.00     0.008 C 
BRANCH   2   4
ATOM      4  C   UNL     1      23.563  63.772  16.714  1.00  0.00     0.018 C 
ATOM      5  C   UNL     1      20.895  63.695  18.626  1.00  0.00     0.008 C 
ATOM      6  C   UNL     1      21.773  64.781  17.981  1.00  0.00    -0.010 C 
ATOM      7  C   UNL     1      23.099  64.971  18.758  1.00  0.00     0.004 C 
ATOM      8  C   UNL     1      22.209  64.460  16.542  1.00  0.00     0.003 CG0
ATOM      9  C   UNL     1      24.244  64.581  17.810  1.00  0.00     0.008 C 
ATOM     10  G   UNL     1      21.303  63.525  15.714  1.00  0.00     0.000 G0
ENDBRANCH   2   4
ENDBRANCH   1   2
BRANCH   1  11
ATOM     11  C   UNL     1      22.496  62.480  13.802  1.00  0.00     0.009 C 
BRANCH  11  12
ATOM     12  C   UNL     1      21.718  63.733  14.237  1.00  0.00    -0.001 C 
ATOM     13  C   UNL     1      21.289  63.540  15.720  1.00  0.00     0.002 CG0
ATOM     14  C   UNL     1      20.258  63.885  14.651  1.00  0.00    -0.029 C 
ATOM     15  G   UNL     1      22.201  64.477  16.539  1.00  0.00     0.000 G0
ATOM     16  C   UNL     1      19.696  65.311  14.695  1.00  0.00     0.011 C 
ATOM     17  C   UNL     1      19.297  62.767  14.235  1.00  0.00     0.011 C 
ENDBRANCH  11  12
ENDBRANCH   1  11
TORSDOF 0
ENDMDL
MODEL 9
REMARK VINA RESULT:    -2.893      1.456      3.934
REMARK INTER + INTRA:          -0.349
REMARK INTER:                  -3.618
REMARK INTRA:                   3.270
REMARK UNBOUND:                 3.221
REMARK SMILES C=C1CC[C@@H]2[C@@H]([C@@H]3[C@@H]1CC[C@@H]3C)C2(C)C
REMARK SMILES IDX 3 1 2 2 1 3 8 4 12 5 11 6 10 7 7 8 9 9 4 11 5 12 6 13 13 14
REMARK SMILES IDX 14 16 15 17
REMARK H PARENT
REMARK Flexibility Score: 80.00
ROOT
ATOM      1  C   UNL     1      25.073  63.141  17.870  1.00  0.00     0.031 C 
ENDROOT
BRANCH   1   2
ATOM      2  C   UNL     1      24.512  62.332  16.694  1.00  0.00    -0.074 C 
ATOM      3  C   UNL     1      24.522  60.989  16.762  1.00  0.00     0.008 C 
BRANCH   2   4
ATOM      4  C   UNL     1      23.729  63.097  15.622  1.00  0.00     0.018 C 
ATOM      5  C   UNL     1      21.653  65.453  14.665  1.00  0.00     0.008 C 
ATOM      6  C   UNL     1      21.629  63.918  14.760  1.00  0.00    -0.010 C 
ATOM      7  C   UNL     1      22.422  63.268  13.599  1.00  0.00     0.004 C 
ATOM      8  C   UNL     1      22.281  63.360  16.035  1.00  0.00     0.003 CG0
ATOM      9  C   UNL     1      23.606  62.511  14.221  1.00  0.00     0.008 C 
ATOM     10  G   UNL     1      22.301  64.268  17.282  1.00  0.00     0.000 G0
ENDBRANCH   2   4
ENDBRANCH   1   2
BRANCH   1  11
ATOM     11  C   UNL     1      24.025  63.546  18.957  1.00  0.00     0.009 C 
BRANCH  11  12
ATOM     12  C   UNL     1      22.577  63.317  18.492  1.00  0.00    -0.001 C 
ATOM     13  C   UNL     1      22.302  64.269  17.293  1.00  0.00     0.002 CG0
ATOM     14  C   UNL     1      21.382  64.263  18.508  1.00  0.00    -0.029 C 
ATOM     15  G   UNL     1      22.279  63.365  16.043  1.00  0.00     0.000 G0
ATOM     16  C   UNL     1      19.999  63.636  18.301  1.00  0.00     0.011 C 
ATOM     17  C   UNL     1      21.468  65.476  19.442  1.00  0.00     0.011 C 
ENDBRANCH  11  12
ENDBRANCH   1  11
TORSDOF 0
ENDMDL
