MODEL 1
REMARK VINA RESULT:    -3.704      0.000      0.000
REMARK INTER + INTRA:          -6.491
REMARK INTER:                  -5.653
REMARK INTRA:                  -0.838
REMARK UNBOUND:                -0.838
REMARK SMILES O=C([O-])CCCCCCCCC(=O)[O-]
REMARK SMILES IDX 7 1 6 2 5 3 4 4 2 5 1 6 3 7 8 8 9 9 10 10 11 11 12 12 13 13
REMARK SMILES IDX 14 14
REMARK H PARENT
REMARK Flexibility Score: inf
ROOT
ATOM      1  C   UNL     1     156.241 154.669 164.896  1.00  0.00     0.000 C 
ENDROOT
BRANCH   1   2
ATOM      2  C   UNL     1     156.213 155.554 166.156  1.00  0.00     0.000 C 
BRANCH   2   3
ATOM      3  C   UNL     1     154.930 155.377 166.985  1.00  0.00     0.006 C 
BRANCH   3   4
ATOM      4  C   UNL     1     155.155 154.494 168.218  1.00  0.00     0.053 C 
BRANCH   4   5
ATOM      5  C   UNL     1     154.434 153.185 168.104  1.00  0.00     0.041 C 
ATOM      6  O   UNL     1     153.954 152.820 166.999  1.00  0.00    -0.550 OA
ATOM      7  O   UNL     1     154.319 152.357 169.213  1.00  0.00    -0.550 OA
ENDBRANCH   4   5
ENDBRANCH   3   4
ENDBRANCH   2   3
ENDBRANCH   1   2
BRANCH   1   8
ATOM      8  C   UNL     1     154.926 154.634 164.098  1.00  0.00     0.000 C 
BRANCH   8   9
ATOM      9  C   UNL     1     154.876 155.691 162.981  1.00  0.00     0.000 C 
BRANCH   9  10
ATOM     10  C   UNL     1     153.520 156.411 162.908  1.00  0.00     0.006 C 
BRANCH  10  11
ATOM     11  C   UNL     1     153.129 157.066 164.239  1.00  0.00     0.053 C 
BRANCH  11  12
ATOM     12  C   UNL     1     153.708 158.442 164.333  1.00  0.00     0.041 C 
ATOM     13  O   UNL     1     153.845 159.143 163.296  1.00  0.00    -0.550 OA
ATOM     14  O   UNL     1     154.052 158.970 165.571  1.00  0.00    -0.550 OA
ENDBRANCH  11  12
ENDBRANCH  10  11
ENDBRANCH   9  10
ENDBRANCH   8   9
ENDBRANCH   1   8
TORSDOF 9
ENDMDL
MODEL 2
REMARK VINA RESULT:    -3.557      1.575      2.398
REMARK INTER + INTRA:          -6.267
REMARK INTER:                  -5.629
REMARK INTRA:                  -0.638
REMARK UNBOUND:                -0.838
REMARK SMILES O=C([O-])CCCCCCCCC(=O)[O-]
REMARK SMILES IDX 7 1 6 2 5 3 4 4 2 5 1 6 3 7 8 8 9 9 10 10 11 11 12 12 13 13
REMARK SMILES IDX 14 14
REMARK H PARENT
REMARK Flexibility Score: inf
ROOT
ATOM      1  C   UNL     1     155.671 155.188 167.206  1.00  0.00     0.000 C 
ENDROOT
BRANCH   1   2
ATOM      2  C   UNL     1     154.811 153.913 167.147  1.00  0.00     0.000 C 
BRANCH   2   3
ATOM      3  C   UNL     1     153.689 153.897 168.199  1.00  0.00     0.006 C 
BRANCH   3   4
ATOM      4  C   UNL     1     153.840 155.028 169.224  1.00  0.00     0.053 C 
BRANCH   4   5
ATOM      5  C   UNL     1     154.051 154.499 170.610  1.00  0.00     0.041 C 
ATOM      6  O   UNL     1     154.414 155.272 171.535  1.00  0.00    -0.550 OA
ATOM      7  O   UNL     1     153.819 153.158 170.884  1.00  0.00    -0.550 OA
ENDBRANCH   4   5
ENDBRANCH   3   4
ENDBRANCH   2   3
ENDBRANCH   1   2
BRANCH   1   8
ATOM      8  C   UNL     1     156.045 155.782 165.836  1.00  0.00     0.000 C 
BRANCH   8   9
ATOM      9  C   UNL     1     155.172 155.241 164.691  1.00  0.00     0.000 C 
BRANCH   9  10
ATOM     10  C   UNL     1     154.360 156.344 163.994  1.00  0.00     0.006 C 
BRANCH  10  11
ATOM     11  C   UNL     1     153.547 157.190 164.982  1.00  0.00     0.053 C 
BRANCH  11  12
ATOM     12  C   UNL     1     153.704 158.645 164.675  1.00  0.00     0.041 C 
ATOM     13  O   UNL     1     153.846 159.477 165.609  1.00  0.00    -0.550 OA
ATOM     14  O   UNL     1     153.744 159.078 163.356  1.00  0.00    -0.550 OA
ENDBRANCH  11  12
ENDBRANCH  10  11
ENDBRANCH   9  10
ENDBRANCH   8   9
ENDBRANCH   1   8
TORSDOF 9
ENDMDL
MODEL 3
REMARK VINA RESULT:    -3.540      1.402      5.928
REMARK INTER + INTRA:          -6.241
REMARK INTER:                  -5.511
REMARK INTRA:                  -0.730
REMARK UNBOUND:                -0.838
REMARK SMILES O=C([O-])CCCCCCCCC(=O)[O-]
REMARK SMILES IDX 7 1 6 2 5 3 4 4 2 5 1 6 3 7 8 8 9 9 10 10 11 11 12 12 13 13
REMARK SMILES IDX 14 14
REMARK H PARENT
REMARK Flexibility Score: inf
ROOT
ATOM      1  C   UNL     1     155.932 155.395 165.188  1.00  0.00     0.000 C 
ENDROOT
BRANCH   1   2
ATOM      2  C   UNL     1     154.846 154.903 164.214  1.00  0.00     0.000 C 
BRANCH   2   3
ATOM      3  C   UNL     1     154.783 155.730 162.919  1.00  0.00     0.006 C 
BRANCH   3   4
ATOM      4  C   UNL     1     153.528 156.610 162.854  1.00  0.00     0.053 C 
BRANCH   4   5
ATOM      5  C   UNL     1     153.863 158.066 162.967  1.00  0.00     0.041 C 
ATOM      6  O   UNL     1     153.684 158.675 164.054  1.00  0.00    -0.550 OA
ATOM      7  O   UNL     1     154.399 158.742 161.878  1.00  0.00    -0.550 OA
ENDBRANCH   4   5
ENDBRANCH   3   4
ENDBRANCH   2   3
ENDBRANCH   1   2
BRANCH   1   8
ATOM      8  C   UNL     1     155.419 155.798 166.582  1.00  0.00     0.000 C 
BRANCH   8   9
ATOM      9  C   UNL     1     153.911 156.109 166.598  1.00  0.00     0.000 C 
BRANCH   9  10
ATOM     10  C   UNL     1     153.208 155.561 167.850  1.00  0.00     0.006 C 
BRANCH  10  11
ATOM     11  C   UNL     1     153.643 154.130 168.190  1.00  0.00     0.053 C 
BRANCH  11  12
ATOM     12  C   UNL     1     153.961 154.014 169.647  1.00  0.00     0.041 C 
ATOM     13  O   UNL     1     153.813 152.915 170.242  1.00  0.00    -0.550 OA
ATOM     14  O   UNL     1     154.470 155.107 170.337  1.00  0.00    -0.550 OA
ENDBRANCH  11  12
ENDBRANCH  10  11
ENDBRANCH   9  10
ENDBRANCH   8   9
ENDBRANCH   1   8
TORSDOF 9
ENDMDL
MODEL 4
REMARK VINA RESULT:    -3.479      3.275      4.315
REMARK INTER + INTRA:          -6.148
REMARK INTER:                  -5.419
REMARK INTRA:                  -0.729
REMARK UNBOUND:                -0.838
REMARK SMILES O=C([O-])CCCCCCCCC(=O)[O-]
REMARK SMILES IDX 7 1 6 2 5 3 4 4 2 5 1 6 3 7 8 8 9 9 10 10 11 11 12 12 13 13
REMARK SMILES IDX 14 14
REMARK H PARENT
REMARK Flexibility Score: inf
ROOT
ATOM      1  C   UNL     1     155.882 155.164 167.334  1.00  0.00     0.000 C 
ENDROOT
BRANCH   1   2
ATOM      2  C   UNL     1     155.129 153.821 167.305  1.00  0.00     0.000 C 
BRANCH   2   3
ATOM      3  C   UNL     1     153.885 153.812 168.211  1.00  0.00     0.006 C 
BRANCH   3   4
ATOM      4  C   UNL     1     153.878 154.986 169.197  1.00  0.00     0.053 C 
BRANCH   4   5
ATOM      5  C   UNL     1     154.040 154.524 170.613  1.00  0.00     0.041 C 
ATOM      6  O   UNL     1     153.903 153.306 170.902  1.00  0.00    -0.550 OA
ATOM      7  O   UNL     1     154.369 155.436 171.608  1.00  0.00    -0.550 OA
ENDBRANCH   4   5
ENDBRANCH   3   4
ENDBRANCH   2   3
ENDBRANCH   1   2
BRANCH   1   8
ATOM      8  C   UNL     1     156.145 155.791 165.953  1.00  0.00     0.000 C 
BRANCH   8   9
ATOM      9  C   UNL     1     154.961 155.620 164.984  1.00  0.00     0.000 C 
BRANCH   9  10
ATOM     10  C   UNL     1     155.327 154.788 163.745  1.00  0.00     0.006 C 
BRANCH  10  11
ATOM     11  C   UNL     1     156.800 154.359 163.738  1.00  0.00     0.053 C 
BRANCH  11  12
ATOM     12  C   UNL     1     156.910 152.868 163.708  1.00  0.00     0.041 C 
ATOM     13  O   UNL     1     156.258 152.169 164.528  1.00  0.00    -0.550 OA
ATOM     14  O   UNL     1     157.692 152.247 162.743  1.00  0.00    -0.550 OA
ENDBRANCH  11  12
ENDBRANCH  10  11
ENDBRANCH   9  10
ENDBRANCH   8   9
ENDBRANCH   1   8
TORSDOF 9
ENDMDL
MODEL 5
REMARK VINA RESULT:    -3.468      2.622      3.756
REMARK INTER + INTRA:          -6.131
REMARK INTER:                  -5.712
REMARK INTRA:                  -0.419
REMARK UNBOUND:                -0.838
REMARK SMILES O=C([O-])CCCCCCCCC(=O)[O-]
REMARK SMILES IDX 7 1 6 2 5 3 4 4 2 5 1 6 3 7 8 8 9 9 10 10 11 11 12 12 13 13
REMARK SMILES IDX 14 14
REMARK H PARENT
REMARK Flexibility Score: inf
ROOT
ATOM      1  C   UNL     1     154.788 154.005 168.729  1.00  0.00     0.000 C 
ENDROOT
BRANCH   1   2
ATOM      2  C   UNL     1     153.741 155.057 169.142  1.00  0.00     0.000 C 
BRANCH   2   3
ATOM      3  C   UNL     1     153.100 154.760 170.508  1.00  0.00     0.006 C 
BRANCH   3   4
ATOM      4  C   UNL     1     154.107 154.880 171.659  1.00  0.00     0.053 C 
BRANCH   4   5
ATOM      5  C   UNL     1     153.850 153.867 172.732  1.00  0.00     0.041 C 
ATOM      6  O   UNL     1     154.242 152.679 172.589  1.00  0.00    -0.550 OA
ATOM      7  O   UNL     1     153.202 154.242 173.901  1.00  0.00    -0.550 OA
ENDBRANCH   4   5
ENDBRANCH   3   4
ENDBRANCH   2   3
ENDBRANCH   1   2
BRANCH   1   8
ATOM      8  C   UNL     1     155.244 154.086 167.261  1.00  0.00     0.000 C 
BRANCH   8   9
ATOM      9  C   UNL     1     156.082 155.343 166.964  1.00  0.00     0.000 C 
BRANCH   9  10
ATOM     10  C   UNL     1     155.566 156.122 165.744  1.00  0.00     0.006 C 
BRANCH  10  11
ATOM     11  C   UNL     1     154.198 156.769 165.994  1.00  0.00     0.053 C 
BRANCH  11  12
ATOM     12  C   UNL     1     153.986 157.918 165.061  1.00  0.00     0.041 C 
ATOM     13  O   UNL     1     153.922 159.093 165.509  1.00  0.00    -0.550 OA
ATOM     14  O   UNL     1     153.908 157.698 163.692  1.00  0.00    -0.550 OA
ENDBRANCH  11  12
ENDBRANCH  10  11
ENDBRANCH   9  10
ENDBRANCH   8   9
ENDBRANCH   1   8
TORSDOF 9
ENDMDL
MODEL 6
REMARK VINA RESULT:    -3.362      3.051      4.710
REMARK INTER + INTRA:          -5.968
REMARK INTER:                  -5.192
REMARK INTRA:                  -0.776
REMARK UNBOUND:                -0.838
REMARK SMILES O=C([O-])CCCCCCCCC(=O)[O-]
REMARK SMILES IDX 7 1 6 2 5 3 4 4 2 5 1 6 3 7 8 8 9 9 10 10 11 11 12 12 13 13
REMARK SMILES IDX 14 14
REMARK H PARENT
REMARK Flexibility Score: inf
ROOT
ATOM      1  C   UNL     1     155.113 155.481 165.043  1.00  0.00     0.000 C 
ENDROOT
BRANCH   1   2
ATOM      2  C   UNL     1     156.167 155.777 166.126  1.00  0.00     0.000 C 
BRANCH   2   3
ATOM      3  C   UNL     1     156.270 154.663 167.183  1.00  0.00     0.006 C 
BRANCH   3   4
ATOM      4  C   UNL     1     155.043 154.623 168.103  1.00  0.00     0.053 C 
BRANCH   4   5
ATOM      5  C   UNL     1     154.405 153.268 168.120  1.00  0.00     0.041 C 
ATOM      6  O   UNL     1     154.203 152.675 169.213  1.00  0.00    -0.550 OA
ATOM      7  O   UNL     1     154.008 152.672 166.930  1.00  0.00    -0.550 OA
ENDBRANCH   4   5
ENDBRANCH   3   4
ENDBRANCH   2   3
ENDBRANCH   1   2
BRANCH   1   8
ATOM      8  C   UNL     1     155.453 154.304 164.112  1.00  0.00     0.000 C 
BRANCH   8   9
ATOM      9  C   UNL     1     156.907 154.338 163.611  1.00  0.00     0.000 C 
BRANCH   9  10
ATOM     10  C   UNL     1     157.522 152.935 163.483  1.00  0.00     0.006 C 
BRANCH  10  11
ATOM     11  C   UNL     1     158.000 152.377 164.829  1.00  0.00     0.053 C 
BRANCH  11  12
ATOM     12  C   UNL     1     159.416 152.783 165.089  1.00  0.00     0.041 C 
ATOM     13  O   UNL     1     160.147 153.173 164.140  1.00  0.00    -0.550 OA
ATOM     14  O   UNL     1     159.915 152.780 166.385  1.00  0.00    -0.550 OA
ENDBRANCH  11  12
ENDBRANCH  10  11
ENDBRANCH   9  10
ENDBRANCH   8   9
ENDBRANCH   1   8
TORSDOF 9
ENDMDL
MODEL 7
REMARK VINA RESULT:    -3.332      2.126      3.178
REMARK INTER + INTRA:          -5.923
REMARK INTER:                  -5.235
REMARK INTRA:                  -0.688
REMARK UNBOUND:                -0.838
REMARK SMILES O=C([O-])CCCCCCCCC(=O)[O-]
REMARK SMILES IDX 7 1 6 2 5 3 4 4 2 5 1 6 3 7 8 8 9 9 10 10 11 11 12 12 13 13
REMARK SMILES IDX 14 14
REMARK H PARENT
REMARK Flexibility Score: inf
ROOT
ATOM      1  C   UNL     1     155.794 155.039 167.510  1.00  0.00     0.000 C 
ENDROOT
BRANCH   1   2
ATOM      2  C   UNL     1     154.289 155.331 167.364  1.00  0.00     0.000 C 
BRANCH   2   3
ATOM      3  C   UNL     1     153.412 154.398 168.216  1.00  0.00     0.006 C 
BRANCH   3   4
ATOM      4  C   UNL     1     152.944 155.068 169.514  1.00  0.00     0.053 C 
BRANCH   4   5
ATOM      5  C   UNL     1     153.790 154.668 170.683  1.00  0.00     0.041 C 
ATOM      6  O   UNL     1     154.441 155.536 171.322  1.00  0.00    -0.550 OA
ATOM      7  O   UNL     1     153.837 153.339 171.085  1.00  0.00    -0.550 OA
ENDBRANCH   4   5
ENDBRANCH   3   4
ENDBRANCH   2   3
ENDBRANCH   1   2
BRANCH   1   8
ATOM      8  C   UNL     1     156.576 154.988 166.185  1.00  0.00     0.000 C 
BRANCH   8   9
ATOM      9  C   UNL     1     156.409 153.649 165.444  1.00  0.00     0.000 C 
BRANCH   9  10
ATOM     10  C   UNL     1     155.473 153.758 164.230  1.00  0.00     0.006 C 
BRANCH  10  11
ATOM     11  C   UNL     1     155.359 155.195 163.703  1.00  0.00     0.053 C 
BRANCH  11  12
ATOM     12  C   UNL     1     153.922 155.583 163.554  1.00  0.00     0.041 C 
ATOM     13  O   UNL     1     153.599 156.536 162.797  1.00  0.00    -0.550 OA
ATOM     14  O   UNL     1     152.934 154.860 164.211  1.00  0.00    -0.550 OA
ENDBRANCH  11  12
ENDBRANCH  10  11
ENDBRANCH   9  10
ENDBRANCH   8   9
ENDBRANCH   1   8
TORSDOF 9
ENDMDL
MODEL 8
REMARK VINA RESULT:    -3.283      3.948      6.192
REMARK INTER + INTRA:          -5.849
REMARK INTER:                  -5.218
REMARK INTRA:                  -0.631
REMARK UNBOUND:                -0.838
REMARK SMILES O=C([O-])CCCCCCCCC(=O)[O-]
REMARK SMILES IDX 7 1 6 2 5 3 4 4 2 5 1 6 3 7 8 8 9 9 10 10 11 11 12 12 13 13
REMARK SMILES IDX 14 14
REMARK H PARENT
REMARK Flexibility Score: inf
ROOT
ATOM      1  C   UNL     1     157.051 154.370 162.933  1.00  0.00     0.000 C 
ENDROOT
BRANCH   1   2
ATOM      2  C   UNL     1     155.881 154.501 163.925  1.00  0.00     0.000 C 
BRANCH   2   3
ATOM      3  C   UNL     1     156.336 154.503 165.393  1.00  0.00     0.006 C 
BRANCH   3   4
ATOM      4  C   UNL     1     156.178 155.882 166.048  1.00  0.00     0.053 C 
BRANCH   4   5
ATOM      5  C   UNL     1     154.748 156.329 166.062  1.00  0.00     0.041 C 
ATOM      6  O   UNL     1     154.416 157.410 165.509  1.00  0.00    -0.550 OA
ATOM      7  O   UNL     1     153.778 155.537 166.663  1.00  0.00    -0.550 OA
ENDBRANCH   4   5
ENDBRANCH   3   4
ENDBRANCH   2   3
ENDBRANCH   1   2
BRANCH   1   8
ATOM      8  C   UNL     1     157.925 153.117 163.124  1.00  0.00     0.000 C 
BRANCH   8   9
ATOM      9  C   UNL     1     159.383 153.455 163.485  1.00  0.00     0.000 C 
BRANCH   9  10
ATOM     10  C   UNL     1     160.012 152.420 164.431  1.00  0.00     0.006 C 
BRANCH  10  11
ATOM     11  C   UNL     1     159.720 152.718 165.907  1.00  0.00     0.053 C 
BRANCH  11  12
ATOM     12  C   UNL     1     160.996 152.840 166.678  1.00  0.00     0.041 C 
ATOM     13  O   UNL     1     162.099 152.873 166.073  1.00  0.00    -0.550 OA
ATOM     14  O   UNL     1     160.965 152.967 168.060  1.00  0.00    -0.550 OA
ENDBRANCH  11  12
ENDBRANCH  10  11
ENDBRANCH   9  10
ENDBRANCH   8   9
ENDBRANCH   1   8
TORSDOF 9
ENDMDL
MODEL 9
REMARK VINA RESULT:    -3.237      1.707      5.008
REMARK INTER + INTRA:          -5.779
REMARK INTER:                  -5.107
REMARK INTRA:                  -0.671
REMARK UNBOUND:                -0.838
REMARK SMILES O=C([O-])CCCCCCCCC(=O)[O-]
REMARK SMILES IDX 7 1 6 2 5 3 4 4 2 5 1 6 3 7 8 8 9 9 10 10 11 11 12 12 13 13
REMARK SMILES IDX 14 14
REMARK H PARENT
REMARK Flexibility Score: inf
ROOT
ATOM      1  C   UNL     1     155.393 155.016 163.615  1.00  0.00     0.000 C 
ENDROOT
BRANCH   1   2
ATOM      2  C   UNL     1     154.751 156.151 162.796  1.00  0.00     0.000 C 
BRANCH   2   3
ATOM      3  C   UNL     1     153.390 156.598 163.355  1.00  0.00     0.006 C 
BRANCH   3   4
ATOM      4  C   UNL     1     153.366 158.094 163.694  1.00  0.00     0.053 C 
BRANCH   4   5
ATOM      5  C   UNL     1     153.724 158.345 165.127  1.00  0.00     0.041 C 
ATOM      6  O   UNL     1     153.942 159.518 165.530  1.00  0.00    -0.550 OA
ATOM      7  O   UNL     1     153.788 157.286 166.023  1.00  0.00    -0.550 OA
ENDBRANCH   4   5
ENDBRANCH   3   4
ENDBRANCH   2   3
ENDBRANCH   1   2
BRANCH   1   8
ATOM      8  C   UNL     1     154.425 154.255 164.539  1.00  0.00     0.000 C 
BRANCH   8   9
ATOM      9  C   UNL     1     155.096 153.078 165.269  1.00  0.00     0.000 C 
BRANCH   9  10
ATOM     10  C   UNL     1     154.493 152.826 166.661  1.00  0.00     0.006 C 
BRANCH  10  11
ATOM     11  C   UNL     1     153.466 153.893 167.059  1.00  0.00     0.053 C 
BRANCH  11  12
ATOM     12  C   UNL     1     153.939 154.649 168.260  1.00  0.00     0.041 C 
ATOM     13  O   UNL     1     155.161 154.920 168.396  1.00  0.00    -0.550 OA
ATOM     14  O   UNL     1     153.025 155.099 169.204  1.00  0.00    -0.550 OA
ENDBRANCH  11  12
ENDBRANCH  10  11
ENDBRANCH   9  10
ENDBRANCH   8   9
ENDBRANCH   1   8
TORSDOF 9
ENDMDL
