MODEL 1
REMARK VINA RESULT:    -2.974      0.000      0.000
REMARK INTER + INTRA:          -4.532
REMARK INTER:                  -4.018
REMARK INTRA:                  -0.515
REMARK UNBOUND:                -0.515
REMARK SMILES CCCCCCC=CC(=O)[O-]
REMARK SMILES IDX 5 1 6 2 7 3 8 4 9 5 10 6 11 7 4 8 3 9 2 10 1 11
REMARK H PARENT
REMARK Flexibility Score: inf
ROOT
ATOM      1  C   UNL     1      34.781 -39.266  14.720  1.00  0.00     0.004 C 
ENDROOT
BRANCH   1   2
ATOM      2  C   UNL     1      34.860 -37.897  14.028  1.00  0.00     0.027 C 
BRANCH   2   3
ATOM      3  C   UNL     1      34.674 -38.029  12.544  1.00  0.00    -0.025 C 
ATOM      4  C   UNL     1      34.239 -37.007  11.801  1.00  0.00     0.020 C 
BRANCH   4   5
ATOM      5  C   UNL     1      34.067 -37.117  10.345  1.00  0.00     0.064 C 
ATOM      6  O   UNL     1      34.707 -37.993   9.708  1.00  0.00    -0.545 OA
ATOM      7  O   UNL     1      33.209 -36.265   9.658  1.00  0.00    -0.545 OA
ENDBRANCH   4   5
ENDBRANCH   2   3
ENDBRANCH   1   2
BRANCH   1   8
ATOM      8  C   UNL     1      35.979 -40.168  14.382  1.00  0.00     0.000 C 
BRANCH   8   9
ATOM      9  C   UNL     1      35.589 -41.651  14.255  1.00  0.00    -0.000 C 
BRANCH   9  10
ATOM     10  C   UNL     1      34.631 -41.908  13.082  1.00  0.00    -0.003 C 
ATOM     11  C   UNL     1      35.254 -41.573  11.727  1.00  0.00     0.004 C 
ENDBRANCH   9  10
ENDBRANCH   8   9
ENDBRANCH   1   8
TORSDOF 6
ENDMDL
MODEL 2
REMARK VINA RESULT:    -2.952     10.249     11.274
REMARK INTER + INTRA:          -4.501
REMARK INTER:                  -4.164
REMARK INTRA:                  -0.338
REMARK UNBOUND:                -0.515
REMARK SMILES CCCCCCC=CC(=O)[O-]
REMARK SMILES IDX 5 1 6 2 7 3 8 4 9 5 10 6 11 7 4 8 3 9 2 10 1 11
REMARK H PARENT
REMARK Flexibility Score: inf
ROOT
ATOM      1  C   UNL     1      45.847 -41.339  13.816  1.00  0.00     0.004 C 
ENDROOT
BRANCH   1   2
ATOM      2  C   UNL     1      45.676 -40.077  12.957  1.00  0.00     0.027 C 
BRANCH   2   3
ATOM      3  C   UNL     1      44.240 -39.636  12.923  1.00  0.00    -0.025 C 
ATOM      4  C   UNL     1      43.824 -38.558  13.594  1.00  0.00     0.020 C 
BRANCH   4   5
ATOM      5  C   UNL     1      42.426 -38.106  13.556  1.00  0.00     0.064 C 
ATOM      6  O   UNL     1      41.567 -38.683  14.272  1.00  0.00    -0.545 OA
ATOM      7  O   UNL     1      42.035 -37.050  12.740  1.00  0.00    -0.545 OA
ENDBRANCH   4   5
ENDBRANCH   2   3
ENDBRANCH   1   2
BRANCH   1   8
ATOM      8  C   UNL     1      47.055 -41.248  14.763  1.00  0.00     0.000 C 
BRANCH   8   9
ATOM      9  C   UNL     1      48.379 -41.614  14.072  1.00  0.00    -0.000 C 
BRANCH   9  10
ATOM     10  C   UNL     1      49.433 -40.502  14.193  1.00  0.00    -0.003 C 
ATOM     11  C   UNL     1      49.505 -39.620  12.947  1.00  0.00     0.004 C 
ENDBRANCH   9  10
ENDBRANCH   8   9
ENDBRANCH   1   8
TORSDOF 6
ENDMDL
MODEL 3
REMARK VINA RESULT:    -2.891     16.002     17.686
REMARK INTER + INTRA:          -4.420
REMARK INTER:                  -3.699
REMARK INTRA:                  -0.720
REMARK UNBOUND:                -0.515
REMARK SMILES CCCCCCC=CC(=O)[O-]
REMARK SMILES IDX 5 1 6 2 7 3 8 4 9 5 10 6 11 7 4 8 3 9 2 10 1 11
REMARK H PARENT
REMARK Flexibility Score: inf
ROOT
ATOM      1  C   UNL     1      41.971 -36.995  -2.498  1.00  0.00     0.004 C 
ENDROOT
BRANCH   1   2
ATOM      2  C   UNL     1      42.390 -36.976  -3.976  1.00  0.00     0.027 C 
BRANCH   2   3
ATOM      3  C   UNL     1      42.079 -38.284  -4.645  1.00  0.00    -0.025 C 
ATOM      4  C   UNL     1      41.965 -39.417  -3.945  1.00  0.00     0.020 C 
BRANCH   4   5
ATOM      5  C   UNL     1      41.646 -40.702  -4.585  1.00  0.00     0.064 C 
ATOM      6  O   UNL     1      40.449 -41.086  -4.645  1.00  0.00    -0.545 OA
ATOM      7  O   UNL     1      42.647 -41.501  -5.125  1.00  0.00    -0.545 OA
ENDBRANCH   4   5
ENDBRANCH   2   3
ENDBRANCH   1   2
BRANCH   1   8
ATOM      8  C   UNL     1      40.949 -35.896  -2.161  1.00  0.00     0.000 C 
BRANCH   8   9
ATOM      9  C   UNL     1      39.574 -36.465  -1.773  1.00  0.00    -0.000 C 
BRANCH   9  10
ATOM     10  C   UNL     1      38.680 -36.726  -2.995  1.00  0.00    -0.003 C 
ATOM     11  C   UNL     1      38.495 -38.216  -3.282  1.00  0.00     0.004 C 
ENDBRANCH   9  10
ENDBRANCH   8   9
ENDBRANCH   1   8
TORSDOF 6
ENDMDL
MODEL 4
REMARK VINA RESULT:    -2.876     15.534     16.584
REMARK INTER + INTRA:          -4.399
REMARK INTER:                  -3.677
REMARK INTRA:                  -0.722
REMARK UNBOUND:                -0.515
REMARK SMILES CCCCCCC=CC(=O)[O-]
REMARK SMILES IDX 5 1 6 2 7 3 8 4 9 5 10 6 11 7 4 8 3 9 2 10 1 11
REMARK H PARENT
REMARK Flexibility Score: inf
ROOT
ATOM      1  C   UNL     1      39.807 -36.001  -1.343  1.00  0.00     0.004 C 
ENDROOT
BRANCH   1   2
ATOM      2  C   UNL     1      38.589 -35.931  -2.276  1.00  0.00     0.027 C 
BRANCH   2   3
ATOM      3  C   UNL     1      38.569 -37.092  -3.229  1.00  0.00    -0.025 C 
ATOM      4  C   UNL     1      38.262 -38.326  -2.820  1.00  0.00     0.020 C 
BRANCH   4   5
ATOM      5  C   UNL     1      38.223 -39.469  -3.744  1.00  0.00     0.064 C 
ATOM      6  O   UNL     1      37.168 -39.716  -4.383  1.00  0.00    -0.545 OA
ATOM      7  O   UNL     1      39.336 -40.283  -3.923  1.00  0.00    -0.545 OA
ENDBRANCH   4   5
ENDBRANCH   2   3
ENDBRANCH   1   2
BRANCH   1   8
ATOM      8  C   UNL     1      41.138 -36.021  -2.112  1.00  0.00     0.000 C 
BRANCH   8   9
ATOM      9  C   UNL     1      42.012 -37.235  -1.753  1.00  0.00    -0.000 C 
BRANCH   9  10
ATOM     10  C   UNL     1      42.242 -38.169  -2.952  1.00  0.00    -0.003 C 
ATOM     11  C   UNL     1      42.221 -37.428  -4.289  1.00  0.00     0.004 C 
ENDBRANCH   9  10
ENDBRANCH   8   9
ENDBRANCH   1   8
TORSDOF 6
ENDMDL
MODEL 5
REMARK VINA RESULT:    -2.861      1.598      2.840
REMARK INTER + INTRA:          -4.379
REMARK INTER:                  -4.195
REMARK INTRA:                  -0.184
REMARK UNBOUND:                -0.515
REMARK SMILES CCCCCCC=CC(=O)[O-]
REMARK SMILES IDX 5 1 6 2 7 3 8 4 9 5 10 6 11 7 4 8 3 9 2 10 1 11
REMARK H PARENT
REMARK Flexibility Score: inf
ROOT
ATOM      1  C   UNL     1      34.441 -38.133  12.313  1.00  0.00     0.004 C 
ENDROOT
BRANCH   1   2
ATOM      2  C   UNL     1      33.688 -37.007  11.588  1.00  0.00     0.027 C 
BRANCH   2   3
ATOM      3  C   UNL     1      33.901 -37.083  10.103  1.00  0.00    -0.025 C 
ATOM      4  C   UNL     1      33.269 -36.256   9.264  1.00  0.00     0.020 C 
BRANCH   4   5
ATOM      5  C   UNL     1      33.479 -36.308   7.810  1.00  0.00     0.064 C 
ATOM      6  O   UNL     1      32.567 -36.753   7.066  1.00  0.00    -0.545 OA
ATOM      7  O   UNL     1      34.672 -35.875   7.242  1.00  0.00    -0.545 OA
ENDBRANCH   4   5
ENDBRANCH   2   3
ENDBRANCH   1   2
BRANCH   1   8
ATOM      8  C   UNL     1      34.835 -37.749  13.749  1.00  0.00     0.000 C 
BRANCH   8   9
ATOM      9  C   UNL     1      34.839 -38.955  14.704  1.00  0.00    -0.000 C 
BRANCH   9  10
ATOM     10  C   UNL     1      35.913 -39.991  14.338  1.00  0.00    -0.003 C 
ATOM     11  C   UNL     1      35.377 -41.423  14.343  1.00  0.00     0.004 C 
ENDBRANCH   9  10
ENDBRANCH   8   9
ENDBRANCH   1   8
TORSDOF 6
ENDMDL
MODEL 6
REMARK VINA RESULT:    -2.854      3.109      4.675
REMARK INTER + INTRA:          -4.369
REMARK INTER:                  -3.707
REMARK INTRA:                  -0.662
REMARK UNBOUND:                -0.515
REMARK SMILES CCCCCCC=CC(=O)[O-]
REMARK SMILES IDX 5 1 6 2 7 3 8 4 9 5 10 6 11 7 4 8 3 9 2 10 1 11
REMARK H PARENT
REMARK Flexibility Score: inf
ROOT
ATOM      1  C   UNL     1      33.607 -37.634  12.025  1.00  0.00     0.004 C 
ENDROOT
BRANCH   1   2
ATOM      2  C   UNL     1      34.709 -37.255  13.025  1.00  0.00     0.027 C 
BRANCH   2   3
ATOM      3  C   UNL     1      35.104 -38.433  13.869  1.00  0.00    -0.025 C 
ATOM      4  C   UNL     1      34.697 -39.671  13.575  1.00  0.00     0.020 C 
BRANCH   4   5
ATOM      5  C   UNL     1      35.087 -40.835  14.383  1.00  0.00     0.064 C 
ATOM      6  O   UNL     1      34.215 -41.450  15.049  1.00  0.00    -0.545 OA
ATOM      7  O   UNL     1      36.409 -41.267  14.425  1.00  0.00    -0.545 OA
ENDBRANCH   4   5
ENDBRANCH   2   3
ENDBRANCH   1   2
BRANCH   1   8
ATOM      8  C   UNL     1      33.833 -37.012  10.636  1.00  0.00     0.000 C 
BRANCH   8   9
ATOM      9  C   UNL     1      34.604 -37.946   9.687  1.00  0.00    -0.000 C 
BRANCH   9  10
ATOM     10  C   UNL     1      34.251 -39.426   9.904  1.00  0.00    -0.003 C 
ATOM     11  C   UNL     1      35.488 -40.319   9.997  1.00  0.00     0.004 C 
ENDBRANCH   9  10
ENDBRANCH   8   9
ENDBRANCH   1   8
TORSDOF 6
ENDMDL
MODEL 7
REMARK VINA RESULT:    -2.817     14.993     16.718
REMARK INTER + INTRA:          -4.319
REMARK INTER:                  -4.065
REMARK INTRA:                  -0.254
REMARK UNBOUND:                -0.515
REMARK SMILES CCCCCCC=CC(=O)[O-]
REMARK SMILES IDX 5 1 6 2 7 3 8 4 9 5 10 6 11 7 4 8 3 9 2 10 1 11
REMARK H PARENT
REMARK Flexibility Score: inf
ROOT
ATOM      1  C   UNL     1      36.837 -39.295  -3.264  1.00  0.00     0.004 C 
ENDROOT
BRANCH   1   2
ATOM      2  C   UNL     1      37.163 -40.273  -4.403  1.00  0.00     0.027 C 
BRANCH   2   3
ATOM      3  C   UNL     1      36.060 -41.274  -4.590  1.00  0.00    -0.025 C 
ATOM      4  C   UNL     1      34.851 -41.091  -4.051  1.00  0.00     0.020 C 
BRANCH   4   5
ATOM      5  C   UNL     1      33.758 -42.055  -4.240  1.00  0.00     0.064 C 
ATOM      6  O   UNL     1      32.574 -41.641  -4.339  1.00  0.00    -0.545 OA
ATOM      7  O   UNL     1      34.010 -43.421  -4.308  1.00  0.00    -0.545 OA
ENDBRANCH   4   5
ENDBRANCH   2   3
ENDBRANCH   1   2
BRANCH   1   8
ATOM      8  C   UNL     1      38.099 -38.768  -2.560  1.00  0.00     0.000 C 
BRANCH   8   9
ATOM      9  C   UNL     1      38.726 -37.568  -3.289  1.00  0.00    -0.000 C 
BRANCH   9  10
ATOM     10  C   UNL     1      38.387 -36.228  -2.617  1.00  0.00    -0.003 C 
ATOM     11  C   UNL     1      38.396 -36.314  -1.091  1.00  0.00     0.004 C 
ENDBRANCH   9  10
ENDBRANCH   8   9
ENDBRANCH   1   8
TORSDOF 6
ENDMDL
MODEL 8
REMARK VINA RESULT:    -2.804     16.139     17.336
REMARK INTER + INTRA:          -4.303
REMARK INTER:                  -3.633
REMARK INTRA:                  -0.669
REMARK UNBOUND:                -0.515
REMARK SMILES CCCCCCC=CC(=O)[O-]
REMARK SMILES IDX 5 1 6 2 7 3 8 4 9 5 10 6 11 7 4 8 3 9 2 10 1 11
REMARK H PARENT
REMARK Flexibility Score: inf
ROOT
ATOM      1  C   UNL     1      41.544 -37.412  -2.719  1.00  0.00     0.004 C 
ENDROOT
BRANCH   1   2
ATOM      2  C   UNL     1      40.242 -36.608  -2.588  1.00  0.00     0.027 C 
BRANCH   2   3
ATOM      3  C   UNL     1      39.086 -37.345  -3.202  1.00  0.00    -0.025 C 
ATOM      4  C   UNL     1      38.915 -38.657  -3.014  1.00  0.00     0.020 C 
BRANCH   4   5
ATOM      5  C   UNL     1      37.780 -39.388  -3.596  1.00  0.00     0.064 C 
ATOM      6  O   UNL     1      36.606 -39.077  -3.267  1.00  0.00    -0.545 OA
ATOM      7  O   UNL     1      37.982 -40.420  -4.505  1.00  0.00    -0.545 OA
ENDBRANCH   4   5
ENDBRANCH   2   3
ENDBRANCH   1   2
BRANCH   1   8
ATOM      8  C   UNL     1      42.329 -37.058  -3.993  1.00  0.00     0.000 C 
BRANCH   8   9
ATOM      9  C   UNL     1      42.279 -38.175  -5.050  1.00  0.00    -0.000 C 
BRANCH   9  10
ATOM     10  C   UNL     1      42.713 -39.537  -4.486  1.00  0.00    -0.003 C 
ATOM     11  C   UNL     1      41.642 -40.614  -4.656  1.00  0.00     0.004 C 
ENDBRANCH   9  10
ENDBRANCH   8   9
ENDBRANCH   1   8
TORSDOF 6
ENDMDL
MODEL 9
REMARK VINA RESULT:    -2.754     15.127     16.400
REMARK INTER + INTRA:          -4.235
REMARK INTER:                  -3.525
REMARK INTRA:                  -0.710
REMARK UNBOUND:                -0.515
REMARK SMILES CCCCCCC=CC(=O)[O-]
REMARK SMILES IDX 5 1 6 2 7 3 8 4 9 5 10 6 11 7 4 8 3 9 2 10 1 11
REMARK H PARENT
REMARK Flexibility Score: inf
ROOT
ATOM      1  C   UNL     1      32.885 -41.134  -2.483  1.00  0.00     0.004 C 
ENDROOT
BRANCH   1   2
ATOM      2  C   UNL     1      34.014 -40.185  -2.052  1.00  0.00     0.027 C 
BRANCH   2   3
ATOM      3  C   UNL     1      34.992 -39.963  -3.170  1.00  0.00    -0.025 C 
ATOM      4  C   UNL     1      36.311 -39.966  -2.956  1.00  0.00     0.020 C 
BRANCH   4   5
ATOM      5  C   UNL     1      37.279 -39.766  -4.043  1.00  0.00     0.064 C 
ATOM      6  O   UNL     1      38.072 -38.790  -3.997  1.00  0.00    -0.545 OA
ATOM      7  O   UNL     1      37.333 -40.638  -5.125  1.00  0.00    -0.545 OA
ENDBRANCH   4   5
ENDBRANCH   2   3
ENDBRANCH   1   2
BRANCH   1   8
ATOM      8  C   UNL     1      32.879 -41.393  -3.999  1.00  0.00     0.000 C 
BRANCH   8   9
ATOM      9  C   UNL     1      33.020 -42.885  -4.346  1.00  0.00    -0.000 C 
BRANCH   9  10
ATOM     10  C   UNL     1      34.032 -43.606  -3.442  1.00  0.00    -0.003 C 
ATOM     11  C   UNL     1      35.455 -43.563  -3.998  1.00  0.00     0.004 C 
ENDBRANCH   9  10
ENDBRANCH   8   9
ENDBRANCH   1   8
TORSDOF 6
ENDMDL
