MODEL 1
REMARK VINA RESULT:    -6.307      0.000      0.000
REMARK INTER + INTRA:          -7.059
REMARK INTER:                  -6.860
REMARK INTRA:                  -0.198
REMARK UNBOUND:                -0.198
REMARK SMILES Cc1ccc(C(C)C)c(O)c1
REMARK SMILES IDX 1 1 2 2 11 3 9 4 5 5 4 6 3 7 10 8 6 10 7 11 8 12
REMARK H PARENT 10 9
REMARK Flexibility Score: inf
ROOT
ATOM      1  C   UNL     1      79.934  63.951 101.069  1.00  0.00     0.044 C 
ATOM      2  C   UNL     1      79.623  63.311 102.390  1.00  0.00    -0.047 A 
ATOM      3  C   UNL     1      80.586  63.289 103.408  1.00  0.00     0.049 A 
ATOM      4  C   UNL     1      80.318  62.660 104.632  1.00  0.00     0.119 A 
ATOM      5  C   UNL     1      79.071  62.029 104.846  1.00  0.00    -0.004 A 
ATOM      6  C   UNL     1      78.119  62.042 103.807  1.00  0.00     0.008 A 
ATOM      7  C   UNL     1      78.396  62.669 102.591  1.00  0.00     0.004 A 
ENDROOT
BRANCH   4   8
ATOM      8  O   UNL     1      81.290  62.660 105.632  1.00  0.00    -0.508 OA
ATOM      9  H   UNL     1      82.251  62.399 105.442  1.00  0.00     0.293 HD
ENDBRANCH   4   8
BRANCH   5  10
ATOM     10  C   UNL     1      78.755  61.341 106.165  1.00  0.00     0.017 C 
ATOM     11  C   UNL     1      77.898  60.089 105.942  1.00  0.00     0.012 C 
ATOM     12  C   UNL     1      78.076  62.306 107.145  1.00  0.00     0.012 C 
ENDBRANCH   5  10
TORSDOF 2
ENDMDL
MODEL 2
REMARK VINA RESULT:    -6.073      1.980      2.661
REMARK INTER + INTRA:          -6.804
REMARK INTER:                  -6.606
REMARK INTRA:                  -0.198
REMARK UNBOUND:                -0.198
REMARK SMILES Cc1ccc(C(C)C)c(O)c1
REMARK SMILES IDX 1 1 2 2 11 3 9 4 5 5 4 6 3 7 10 8 6 10 7 11 8 12
REMARK H PARENT 10 9
REMARK Flexibility Score: inf
ROOT
ATOM      1  C   UNL     1      80.121  64.139 100.997  1.00  0.00     0.044 C 
ATOM      2  C   UNL     1      79.590  63.864 102.373  1.00  0.00    -0.047 A 
ATOM      3  C   UNL     1      78.320  64.325 102.745  1.00  0.00     0.049 A 
ATOM      4  C   UNL     1      77.831  64.104 104.040  1.00  0.00     0.119 A 
ATOM      5  C   UNL     1      78.624  63.421 104.990  1.00  0.00    -0.004 A 
ATOM      6  C   UNL     1      79.907  62.980 104.609  1.00  0.00     0.008 A 
ATOM      7  C   UNL     1      80.386  63.205 103.317  1.00  0.00     0.004 A 
ENDROOT
BRANCH   4   8
ATOM      8  O   UNL     1      76.559  64.565 104.382  1.00  0.00    -0.508 OA
ATOM      9  H   UNL     1      75.790  64.547 103.721  1.00  0.00     0.293 HD
ENDBRANCH   4   8
BRANCH   5  10
ATOM     10  C   UNL     1      78.116  63.169 106.401  1.00  0.00     0.017 C 
ATOM     11  C   UNL     1      78.869  64.031 107.421  1.00  0.00     0.012 C 
ATOM     12  C   UNL     1      78.206  61.681 106.764  1.00  0.00     0.012 C 
ENDBRANCH   5  10
TORSDOF 2
ENDMDL
MODEL 3
REMARK VINA RESULT:    -6.034      2.569      4.479
REMARK INTER + INTRA:          -6.761
REMARK INTER:                  -6.572
REMARK INTRA:                  -0.189
REMARK UNBOUND:                -0.198
REMARK SMILES Cc1ccc(C(C)C)c(O)c1
REMARK SMILES IDX 1 1 2 2 11 3 9 4 5 5 4 6 3 7 10 8 6 10 7 11 8 12
REMARK H PARENT 10 9
REMARK Flexibility Score: inf
ROOT
ATOM      1  C   UNL     1      80.927  62.391 105.262  1.00  0.00     0.044 C 
ATOM      2  C   UNL     1      80.003  63.070 104.294  1.00  0.00    -0.047 A 
ATOM      3  C   UNL     1      80.413  63.305 102.974  1.00  0.00     0.049 A 
ATOM      4  C   UNL     1      79.571  63.972 102.072  1.00  0.00     0.119 A 
ATOM      5  C   UNL     1      78.300  64.424 102.493  1.00  0.00    -0.004 A 
ATOM      6  C   UNL     1      77.908  64.198 103.827  1.00  0.00     0.008 A 
ATOM      7  C   UNL     1      78.754  63.535 104.718  1.00  0.00     0.004 A 
ENDROOT
BRANCH   4   8
ATOM      8  O   UNL     1      79.999  64.185 100.762  1.00  0.00    -0.508 OA
ATOM      9  H   UNL     1      79.815  65.056 100.276  1.00  0.00     0.293 HD
ENDBRANCH   4   8
BRANCH   5  10
ATOM     10  C   UNL     1      77.368  65.149 101.534  1.00  0.00     0.017 C 
ATOM     11  C   UNL     1      76.503  66.176 102.275  1.00  0.00     0.012 C 
ATOM     12  C   UNL     1      76.497  64.158 100.753  1.00  0.00     0.012 C 
ENDBRANCH   5  10
TORSDOF 2
ENDMDL
MODEL 4
REMARK VINA RESULT:    -6.008      1.911      2.889
REMARK INTER + INTRA:          -6.733
REMARK INTER:                  -6.547
REMARK INTRA:                  -0.186
REMARK UNBOUND:                -0.198
REMARK SMILES Cc1ccc(C(C)C)c(O)c1
REMARK SMILES IDX 1 1 2 2 11 3 9 4 5 5 4 6 3 7 10 8 6 10 7 11 8 12
REMARK H PARENT 10 9
REMARK Flexibility Score: inf
ROOT
ATOM      1  C   UNL     1      77.112  63.515 100.204  1.00  0.00     0.044 C 
ATOM      2  C   UNL     1      77.860  63.185 101.462  1.00  0.00    -0.047 A 
ATOM      3  C   UNL     1      77.374  62.202 102.335  1.00  0.00     0.049 A 
ATOM      4  C   UNL     1      78.046  61.913 103.531  1.00  0.00     0.119 A 
ATOM      5  C   UNL     1      79.219  62.623 103.873  1.00  0.00    -0.004 A 
ATOM      6  C   UNL     1      79.686  63.623 102.997  1.00  0.00     0.008 A 
ATOM      7  C   UNL     1      79.009  63.904 101.809  1.00  0.00     0.004 A 
ENDROOT
BRANCH   4   8
ATOM      8  O   UNL     1      77.547  60.923 104.378  1.00  0.00    -0.508 OA
ATOM      9  H   UNL     1      76.696  60.417 104.162  1.00  0.00     0.293 HD
ENDBRANCH   4   8
BRANCH   5  10
ATOM     10  C   UNL     1      79.967  62.329 105.165  1.00  0.00     0.017 C 
ATOM     11  C   UNL     1      79.391  63.137 106.333  1.00  0.00     0.012 C 
ATOM     12  C   UNL     1      81.470  62.586 105.005  1.00  0.00     0.012 C 
ENDBRANCH   5  10
TORSDOF 2
ENDMDL
MODEL 5
REMARK VINA RESULT:    -5.903      2.508      4.280
REMARK INTER + INTRA:          -6.619
REMARK INTER:                  -6.419
REMARK INTRA:                  -0.201
REMARK UNBOUND:                -0.198
REMARK SMILES Cc1ccc(C(C)C)c(O)c1
REMARK SMILES IDX 1 1 2 2 11 3 9 4 5 5 4 6 3 7 10 8 6 10 7 11 8 12
REMARK H PARENT 10 9
REMARK Flexibility Score: inf
ROOT
ATOM      1  C   UNL     1      81.363  62.445 104.854  1.00  0.00     0.044 C 
ATOM      2  C   UNL     1      80.191  63.124 104.210  1.00  0.00    -0.047 A 
ATOM      3  C   UNL     1      78.991  63.281 104.916  1.00  0.00     0.049 A 
ATOM      4  C   UNL     1      77.878  63.881 104.309  1.00  0.00     0.119 A 
ATOM      5  C   UNL     1      77.955  64.323 102.969  1.00  0.00    -0.004 A 
ATOM      6  C   UNL     1      79.162  64.142 102.264  1.00  0.00     0.008 A 
ATOM      7  C   UNL     1      80.264  63.543 102.876  1.00  0.00     0.004 A 
ENDROOT
BRANCH   4   8
ATOM      8  O   UNL     1      76.698  64.033 105.037  1.00  0.00    -0.508 OA
ATOM      9  H   UNL     1      76.704  64.325 106.008  1.00  0.00     0.293 HD
ENDBRANCH   4   8
BRANCH   5  10
ATOM     10  C   UNL     1      76.762  64.977 102.288  1.00  0.00     0.017 C 
ATOM     11  C   UNL     1      76.574  64.437 100.866  1.00  0.00     0.012 C 
ATOM     12  C   UNL     1      76.896  66.505 102.285  1.00  0.00     0.012 C 
ENDBRANCH   5  10
TORSDOF 2
ENDMDL
MODEL 6
REMARK VINA RESULT:    -5.890      1.864      4.795
REMARK INTER + INTRA:          -6.605
REMARK INTER:                  -6.405
REMARK INTRA:                  -0.201
REMARK UNBOUND:                -0.198
REMARK SMILES Cc1ccc(C(C)C)c(O)c1
REMARK SMILES IDX 1 1 2 2 11 3 9 4 5 5 4 6 3 7 10 8 6 10 7 11 8 12
REMARK H PARENT 10 9
REMARK Flexibility Score: inf
ROOT
ATOM      1  C   UNL     1      76.596  63.230 109.335  1.00  0.00     0.044 C 
ATOM      2  C   UNL     1      77.474  62.915 108.160  1.00  0.00    -0.047 A 
ATOM      3  C   UNL     1      77.456  61.635 107.589  1.00  0.00     0.049 A 
ATOM      4  C   UNL     1      78.300  61.320 106.514  1.00  0.00     0.119 A 
ATOM      5  C   UNL     1      79.188  62.293 106.003  1.00  0.00    -0.004 A 
ATOM      6  C   UNL     1      79.210  63.570 106.599  1.00  0.00     0.008 A 
ATOM      7  C   UNL     1      78.367  63.874 107.670  1.00  0.00     0.004 A 
ENDROOT
BRANCH   4   8
ATOM      8  O   UNL     1      78.256  60.042 105.958  1.00  0.00    -0.508 OA
ATOM      9  H   UNL     1      79.088  59.468 105.874  1.00  0.00     0.293 HD
ENDBRANCH   4   8
BRANCH   5  10
ATOM     10  C   UNL     1      80.113  61.977 104.838  1.00  0.00     0.017 C 
ATOM     11  C   UNL     1      81.516  62.548 105.076  1.00  0.00     0.012 C 
ATOM     12  C   UNL     1      79.529  62.486 103.514  1.00  0.00     0.012 C 
ENDBRANCH   5  10
TORSDOF 2
ENDMDL
MODEL 7
REMARK VINA RESULT:    -5.711      3.492      5.246
REMARK INTER + INTRA:          -6.410
REMARK INTER:                  -6.213
REMARK INTRA:                  -0.198
REMARK UNBOUND:                -0.198
REMARK SMILES Cc1ccc(C(C)C)c(O)c1
REMARK SMILES IDX 1 1 2 2 11 3 9 4 5 5 4 6 3 7 10 8 6 10 7 11 8 12
REMARK H PARENT 10 9
REMARK Flexibility Score: inf
ROOT
ATOM      1  C   UNL     1      74.138  65.767 101.992  1.00  0.00     0.044 C 
ATOM      2  C   UNL     1      75.513  65.186 101.840  1.00  0.00    -0.047 A 
ATOM      3  C   UNL     1      75.682  63.906 101.296  1.00  0.00     0.049 A 
ATOM      4  C   UNL     1      76.959  63.339 101.184  1.00  0.00     0.119 A 
ATOM      5  C   UNL     1      78.092  64.055 101.632  1.00  0.00    -0.004 A 
ATOM      6  C   UNL     1      77.907  65.334 102.194  1.00  0.00     0.008 A 
ATOM      7  C   UNL     1      76.631  65.889 102.302  1.00  0.00     0.004 A 
ENDROOT
BRANCH   4   8
ATOM      8  O   UNL     1      77.101  62.066 100.631  1.00  0.00    -0.508 OA
ATOM      9  H   UNL     1      77.252  61.248 101.210  1.00  0.00     0.293 HD
ENDBRANCH   4   8
BRANCH   5  10
ATOM     10  C   UNL     1      79.490  63.463 101.521  1.00  0.00     0.017 C 
ATOM     11  C   UNL     1      80.211  63.494 102.874  1.00  0.00     0.012 C 
ATOM     12  C   UNL     1      80.311  64.181 100.443  1.00  0.00     0.012 C 
ENDBRANCH   5  10
TORSDOF 2
ENDMDL
MODEL 8
REMARK VINA RESULT:    -5.695      1.139      4.091
REMARK INTER + INTRA:          -6.392
REMARK INTER:                  -6.192
REMARK INTRA:                  -0.200
REMARK UNBOUND:                -0.198
REMARK SMILES Cc1ccc(C(C)C)c(O)c1
REMARK SMILES IDX 1 1 2 2 11 3 9 4 5 5 4 6 3 7 10 8 6 10 7 11 8 12
REMARK H PARENT 10 9
REMARK Flexibility Score: inf
ROOT
ATOM      1  C   UNL     1      77.724  59.880 106.372  1.00  0.00     0.044 C 
ATOM      2  C   UNL     1      78.184  60.868 105.341  1.00  0.00    -0.047 A 
ATOM      3  C   UNL     1      79.498  61.354 105.366  1.00  0.00     0.049 A 
ATOM      4  C   UNL     1      79.926  62.305 104.429  1.00  0.00     0.119 A 
ATOM      5  C   UNL     1      79.027  62.792 103.454  1.00  0.00    -0.004 A 
ATOM      6  C   UNL     1      77.704  62.309 103.451  1.00  0.00     0.008 A 
ATOM      7  C   UNL     1      77.286  61.364 104.389  1.00  0.00     0.004 A 
ENDROOT
BRANCH   4   8
ATOM      8  O   UNL     1      81.242  62.766 104.470  1.00  0.00    -0.508 OA
ATOM      9  H   UNL     1      81.493  63.692 104.141  1.00  0.00     0.293 HD
ENDBRANCH   4   8
BRANCH   5  10
ATOM     10  C   UNL     1      79.467  63.824 102.425  1.00  0.00     0.017 C 
ATOM     11  C   UNL     1      78.382  64.885 102.210  1.00  0.00     0.012 C 
ATOM     12  C   UNL     1      79.855  63.155 101.101  1.00  0.00     0.012 C 
ENDBRANCH   5  10
TORSDOF 2
ENDMDL
MODEL 9
REMARK VINA RESULT:    -5.641      6.426      8.588
REMARK INTER + INTRA:          -6.334
REMARK INTER:                  -6.172
REMARK INTRA:                  -0.162
REMARK UNBOUND:                -0.198
REMARK SMILES Cc1ccc(C(C)C)c(O)c1
REMARK SMILES IDX 1 1 2 2 11 3 9 4 5 5 4 6 3 7 10 8 6 10 7 11 8 12
REMARK H PARENT 10 9
REMARK Flexibility Score: inf
ROOT
ATOM      1  C   UNL     1      71.377  55.581 105.277  1.00  0.00     0.044 C 
ATOM      2  C   UNL     1      71.763  57.019 105.453  1.00  0.00    -0.047 A 
ATOM      3  C   UNL     1      71.711  57.902 104.365  1.00  0.00     0.049 A 
ATOM      4  C   UNL     1      72.106  59.239 104.510  1.00  0.00     0.119 A 
ATOM      5  C   UNL     1      72.573  59.708 105.759  1.00  0.00    -0.004 A 
ATOM      6  C   UNL     1      72.639  58.806 106.839  1.00  0.00     0.008 A 
ATOM      7  C   UNL     1      72.245  57.475 106.685  1.00  0.00     0.004 A 
ENDROOT
BRANCH   4   8
ATOM      8  O   UNL     1      72.036  60.099 103.414  1.00  0.00    -0.508 OA
ATOM      9  H   UNL     1      72.129  61.104 103.518  1.00  0.00     0.293 HD
ENDBRANCH   4   8
BRANCH   5  10
ATOM     10  C   UNL     1      73.007  61.154 105.943  1.00  0.00     0.017 C 
ATOM     11  C   UNL     1      74.448  61.364 105.462  1.00  0.00     0.012 C 
ATOM     12  C   UNL     1      72.843  61.600 107.401  1.00  0.00     0.012 C 
ENDBRANCH   5  10
TORSDOF 2
ENDMDL
