MODEL 1
REMARK VINA RESULT:    -3.471      0.000      0.000
REMARK INTER + INTRA:          -4.182
REMARK INTER:                  -4.080
REMARK INTRA:                  -0.102
REMARK UNBOUND:                -0.102
REMARK SMILES CCCCC(=O)[O-]
REMARK SMILES IDX 4 1 5 2 6 3 7 4 3 5 2 6 1 7
REMARK H PARENT
REMARK Flexibility Score: inf
ROOT
ATOM      1  C   UNL     1     -36.908  19.199 -30.300  1.00  0.00     0.053 C 
ENDROOT
BRANCH   1   2
ATOM      2  C   UNL     1     -37.844  19.108 -31.464  1.00  0.00     0.041 C 
ATOM      3  O   UNL     1     -38.153  20.143 -32.112  1.00  0.00    -0.550 OA
ATOM      4  O   UNL     1     -38.416  17.888 -31.802  1.00  0.00    -0.550 OA
ENDBRANCH   1   2
BRANCH   1   5
ATOM      5  C   UNL     1     -37.640  19.742 -29.066  1.00  0.00     0.006 C 
BRANCH   5   6
ATOM      6  C   UNL     1     -38.575  18.702 -28.431  1.00  0.00    -0.003 C 
ATOM      7  C   UNL     1     -40.046  19.108 -28.500  1.00  0.00     0.004 C 
ENDBRANCH   5   6
ENDBRANCH   1   5
TORSDOF 3
ENDMDL
MODEL 2
REMARK VINA RESULT:    -3.455      2.249      3.308
REMARK INTER + INTRA:          -4.163
REMARK INTER:                  -4.086
REMARK INTRA:                  -0.077
REMARK UNBOUND:                -0.102
REMARK SMILES CCCCC(=O)[O-]
REMARK SMILES IDX 4 1 5 2 6 3 7 4 3 5 2 6 1 7
REMARK H PARENT
REMARK Flexibility Score: inf
ROOT
ATOM      1  C   UNL     1     -38.274  18.603 -28.469  1.00  0.00     0.053 C 
ENDROOT
BRANCH   1   2
ATOM      2  C   UNL     1     -39.504  19.422 -28.699  1.00  0.00     0.041 C 
ATOM      3  O   UNL     1     -40.630  18.991 -28.337  1.00  0.00    -0.550 OA
ATOM      4  O   UNL     1     -39.413  20.642 -29.359  1.00  0.00    -0.550 OA
ENDBRANCH   1   2
BRANCH   1   5
ATOM      5  C   UNL     1     -37.334  18.696 -29.678  1.00  0.00     0.006 C 
BRANCH   5   6
ATOM      6  C   UNL     1     -37.350  17.422 -30.535  1.00  0.00    -0.003 C 
ATOM      7  C   UNL     1     -38.420  17.455 -31.626  1.00  0.00     0.004 C 
ENDBRANCH   5   6
ENDBRANCH   1   5
TORSDOF 3
ENDMDL
MODEL 3
REMARK VINA RESULT:    -3.418      1.420      1.809
REMARK INTER + INTRA:          -4.120
REMARK INTER:                  -4.010
REMARK INTRA:                  -0.110
REMARK UNBOUND:                -0.102
REMARK SMILES CCCCC(=O)[O-]
REMARK SMILES IDX 4 1 5 2 6 3 7 4 3 5 2 6 1 7
REMARK H PARENT
REMARK Flexibility Score: inf
ROOT
ATOM      1  C   UNL     1     -37.232  18.648 -29.854  1.00  0.00     0.053 C 
ENDROOT
BRANCH   1   2
ATOM      2  C   UNL     1     -37.506  17.468 -30.733  1.00  0.00     0.041 C 
ATOM      3  O   UNL     1     -38.414  17.524 -31.604  1.00  0.00    -0.550 OA
ATOM      4  O   UNL     1     -36.792  16.289 -30.556  1.00  0.00    -0.550 OA
ENDBRANCH   1   2
BRANCH   1   5
ATOM      5  C   UNL     1     -37.922  18.474 -28.495  1.00  0.00     0.006 C 
BRANCH   5   6
ATOM      6  C   UNL     1     -39.367  18.994 -28.497  1.00  0.00    -0.003 C 
ATOM      7  C   UNL     1     -39.514  20.331 -29.222  1.00  0.00     0.004 C 
ENDBRANCH   5   6
ENDBRANCH   1   5
TORSDOF 3
ENDMDL
MODEL 4
REMARK VINA RESULT:    -3.345      2.778      3.550
REMARK INTER + INTRA:          -4.034
REMARK INTER:                  -3.948
REMARK INTRA:                  -0.086
REMARK UNBOUND:                -0.102
REMARK SMILES CCCCC(=O)[O-]
REMARK SMILES IDX 4 1 5 2 6 3 7 4 3 5 2 6 1 7
REMARK H PARENT
REMARK Flexibility Score: inf
ROOT
ATOM      1  C   UNL     1     -38.699  19.966 -29.815  1.00  0.00     0.053 C 
ENDROOT
BRANCH   1   2
ATOM      2  C   UNL     1     -39.130  19.067 -28.699  1.00  0.00     0.041 C 
ATOM      3  O   UNL     1     -38.288  18.335 -28.114  1.00  0.00    -0.550 OA
ATOM      4  O   UNL     1     -40.470  19.000 -28.338  1.00  0.00    -0.550 OA
ENDBRANCH   1   2
BRANCH   1   5
ATOM      5  C   UNL     1     -39.447  21.303 -29.743  1.00  0.00     0.006 C 
BRANCH   5   6
ATOM      6  C   UNL     1     -38.678  22.366 -28.945  1.00  0.00    -0.003 C 
ATOM      7  C   UNL     1     -37.162  22.219 -29.073  1.00  0.00     0.004 C 
ENDBRANCH   5   6
ENDBRANCH   1   5
TORSDOF 3
ENDMDL
MODEL 5
REMARK VINA RESULT:    -3.317      2.188      3.486
REMARK INTER + INTRA:          -4.001
REMARK INTER:                  -3.908
REMARK INTRA:                  -0.092
REMARK UNBOUND:                -0.102
REMARK SMILES CCCCC(=O)[O-]
REMARK SMILES IDX 4 1 5 2 6 3 7 4 3 5 2 6 1 7
REMARK H PARENT
REMARK Flexibility Score: inf
ROOT
ATOM      1  C   UNL     1     -38.321  18.656 -28.831  1.00  0.00     0.053 C 
ENDROOT
BRANCH   1   2
ATOM      2  C   UNL     1     -39.567  19.482 -28.767  1.00  0.00     0.041 C 
ATOM      3  O   UNL     1     -40.640  18.979 -28.339  1.00  0.00    -0.550 OA
ATOM      4  O   UNL     1     -39.555  20.794 -29.225  1.00  0.00    -0.550 OA
ENDBRANCH   1   2
BRANCH   1   5
ATOM      5  C   UNL     1     -38.055  18.201 -30.273  1.00  0.00     0.006 C 
BRANCH   5   6
ATOM      6  C   UNL     1     -36.968  19.038 -30.962  1.00  0.00    -0.003 C 
ATOM      7  C   UNL     1     -37.540  20.068 -31.934  1.00  0.00     0.004 C 
ENDBRANCH   5   6
ENDBRANCH   1   5
TORSDOF 3
ENDMDL
MODEL 6
REMARK VINA RESULT:    -3.260      2.369      3.387
REMARK INTER + INTRA:          -3.934
REMARK INTER:                  -3.856
REMARK INTRA:                  -0.078
REMARK UNBOUND:                -0.102
REMARK SMILES CCCCC(=O)[O-]
REMARK SMILES IDX 4 1 5 2 6 3 7 4 3 5 2 6 1 7
REMARK H PARENT
REMARK Flexibility Score: inf
ROOT
ATOM      1  C   UNL     1     -38.424  18.330 -30.362  1.00  0.00     0.053 C 
ENDROOT
BRANCH   1   2
ATOM      2  C   UNL     1     -38.677  18.614 -28.914  1.00  0.00     0.041 C 
ATOM      3  O   UNL     1     -37.739  18.528 -28.078  1.00  0.00    -0.550 OA
ATOM      4  O   UNL     1     -39.960  18.925 -28.481  1.00  0.00    -0.550 OA
ENDBRANCH   1   2
BRANCH   1   5
ATOM      5  C   UNL     1     -36.973  18.669 -30.728  1.00  0.00     0.006 C 
BRANCH   5   6
ATOM      6  C   UNL     1     -36.835  20.064 -31.355  1.00  0.00    -0.003 C 
ATOM      7  C   UNL     1     -38.108  20.523 -32.064  1.00  0.00     0.004 C 
ENDBRANCH   5   6
ENDBRANCH   1   5
TORSDOF 3
ENDMDL
MODEL 7
REMARK VINA RESULT:    -3.221      2.039      2.187
REMARK INTER + INTRA:          -3.888
REMARK INTER:                  -3.815
REMARK INTRA:                  -0.073
REMARK UNBOUND:                -0.102
REMARK SMILES CCCCC(=O)[O-]
REMARK SMILES IDX 4 1 5 2 6 3 7 4 3 5 2 6 1 7
REMARK H PARENT
REMARK Flexibility Score: inf
ROOT
ATOM      1  C   UNL     1     -37.117  17.873 -28.656  1.00  0.00     0.053 C 
ENDROOT
BRANCH   1   2
ATOM      2  C   UNL     1     -36.543  17.340 -29.930  1.00  0.00     0.041 C 
ATOM      3  O   UNL     1     -35.877  18.092 -30.689  1.00  0.00    -0.550 OA
ATOM      4  O   UNL     1     -36.786  16.024 -30.305  1.00  0.00    -0.550 OA
ENDBRANCH   1   2
BRANCH   1   5
ATOM      5  C   UNL     1     -37.503  19.349 -28.819  1.00  0.00     0.006 C 
BRANCH   5   6
ATOM      6  C   UNL     1     -38.901  19.527 -29.429  1.00  0.00    -0.003 C 
ATOM      7  C   UNL     1     -40.020  19.088 -28.485  1.00  0.00     0.004 C 
ENDBRANCH   5   6
ENDBRANCH   1   5
TORSDOF 3
ENDMDL
MODEL 8
REMARK VINA RESULT:    -3.192      2.058      2.457
REMARK INTER + INTRA:          -3.854
REMARK INTER:                  -3.773
REMARK INTRA:                  -0.080
REMARK UNBOUND:                -0.102
REMARK SMILES CCCCC(=O)[O-]
REMARK SMILES IDX 4 1 5 2 6 3 7 4 3 5 2 6 1 7
REMARK H PARENT
REMARK Flexibility Score: inf
ROOT
ATOM      1  C   UNL     1     -37.128  17.555 -30.546  1.00  0.00     0.053 C 
ENDROOT
BRANCH   1   2
ATOM      2  C   UNL     1     -35.945  18.460 -30.397  1.00  0.00     0.041 C 
ATOM      3  O   UNL     1     -35.024  18.172 -29.588  1.00  0.00    -0.550 OA
ATOM      4  O   UNL     1     -35.885  19.647 -31.117  1.00  0.00    -0.550 OA
ENDBRANCH   1   2
BRANCH   1   5
ATOM      5  C   UNL     1     -38.428  18.328 -30.289  1.00  0.00     0.006 C 
BRANCH   5   6
ATOM      6  C   UNL     1     -38.608  18.702 -28.810  1.00  0.00    -0.003 C 
ATOM      7  C   UNL     1     -40.037  19.131 -28.478  1.00  0.00     0.004 C 
ENDBRANCH   5   6
ENDBRANCH   1   5
TORSDOF 3
ENDMDL
MODEL 9
REMARK VINA RESULT:    -3.169      2.304      3.241
REMARK INTER + INTRA:          -3.826
REMARK INTER:                  -3.776
REMARK INTRA:                  -0.051
REMARK UNBOUND:                -0.102
REMARK SMILES CCCCC(=O)[O-]
REMARK SMILES IDX 4 1 5 2 6 3 7 4 3 5 2 6 1 7
REMARK H PARENT
REMARK Flexibility Score: inf
ROOT
ATOM      1  C   UNL     1     -39.478  19.475 -28.883  1.00  0.00     0.053 C 
ENDROOT
BRANCH   1   2
ATOM      2  C   UNL     1     -39.159  20.867 -29.329  1.00  0.00     0.041 C 
ATOM      3  O   UNL     1     -38.010  21.346 -29.137  1.00  0.00    -0.550 OA
ATOM      4  O   UNL     1     -40.145  21.654 -29.911  1.00  0.00    -0.550 OA
ENDBRANCH   1   2
BRANCH   1   5
ATOM      5  C   UNL     1     -38.226  18.590 -28.956  1.00  0.00     0.006 C 
BRANCH   5   6
ATOM      6  C   UNL     1     -37.984  18.028 -30.364  1.00  0.00    -0.003 C 
ATOM      7  C   UNL     1     -36.881  16.970 -30.398  1.00  0.00     0.004 C 
ENDBRANCH   5   6
ENDBRANCH   1   5
TORSDOF 3
ENDMDL
