MODEL 1
REMARK VINA RESULT:    -3.157      0.000      0.000
REMARK INTER + INTRA:          -4.805
REMARK INTER:                  -4.449
REMARK INTRA:                  -0.355
REMARK UNBOUND:                -0.355
REMARK SMILES CCCCCCCCC(=O)[O-]
REMARK SMILES IDX 6 1 7 2 8 3 9 4 10 5 11 6 5 7 4 8 3 9 2 10 1 11
REMARK H PARENT
REMARK Flexibility Score: inf
ROOT
ATOM      1  C   UNL     1      18.964 -14.715  -1.309  1.00  0.00     0.000 C 
ENDROOT
BRANCH   1   2
ATOM      2  C   UNL     1      17.897 -15.187  -2.313  1.00  0.00     0.006 C 
BRANCH   2   3
ATOM      3  C   UNL     1      17.124 -14.013  -2.930  1.00  0.00     0.053 C 
BRANCH   3   4
ATOM      4  C   UNL     1      15.653 -14.123  -2.673  1.00  0.00     0.041 C 
ATOM      5  O   UNL     1      14.863 -13.252  -3.124  1.00  0.00    -0.550 OA
ATOM      6  O   UNL     1      15.157 -15.167  -1.903  1.00  0.00    -0.550 OA
ENDBRANCH   3   4
ENDBRANCH   2   3
ENDBRANCH   1   2
BRANCH   1   7
ATOM      7  C   UNL     1      19.836 -13.577  -1.862  1.00  0.00     0.000 C 
BRANCH   7   8
ATOM      8  C   UNL     1      20.198 -12.535  -0.790  1.00  0.00    -0.000 C 
BRANCH   8   9
ATOM      9  C   UNL     1      20.822 -11.258  -1.381  1.00  0.00    -0.000 C 
BRANCH   9  10
ATOM     10  C   UNL     1      19.920 -10.012  -1.333  1.00  0.00    -0.003 C 
ATOM     11  C   UNL     1      18.930  -9.945  -2.496  1.00  0.00     0.004 C 
ENDBRANCH   9  10
ENDBRANCH   8   9
ENDBRANCH   7   8
ENDBRANCH   1   7
TORSDOF 7
ENDMDL
MODEL 2
REMARK VINA RESULT:    -3.038     14.612     15.862
REMARK INTER + INTRA:          -4.637
REMARK INTER:                  -4.245
REMARK INTRA:                  -0.392
REMARK UNBOUND:                -0.355
REMARK SMILES CCCCCCCCC(=O)[O-]
REMARK SMILES IDX 6 1 7 2 8 3 9 4 10 5 11 6 5 7 4 8 3 9 2 10 1 11
REMARK H PARENT
REMARK Flexibility Score: inf
ROOT
ATOM      1  C   UNL     1      17.727 -16.303  13.613  1.00  0.00     0.000 C 
ENDROOT
BRANCH   1   2
ATOM      2  C   UNL     1      18.890 -15.887  14.532  1.00  0.00     0.006 C 
BRANCH   2   3
ATOM      3  C   UNL     1      19.994 -15.146  13.766  1.00  0.00     0.053 C 
BRANCH   3   4
ATOM      4  C   UNL     1      21.356 -15.492  14.286  1.00  0.00     0.041 C 
ATOM      5  O   UNL     1      21.909 -14.764  15.152  1.00  0.00    -0.550 OA
ATOM      6  O   UNL     1      22.030 -16.599  13.786  1.00  0.00    -0.550 OA
ENDBRANCH   3   4
ENDBRANCH   2   3
ENDBRANCH   1   2
BRANCH   1   7
ATOM      7  C   UNL     1      17.991 -17.631  12.887  1.00  0.00     0.000 C 
BRANCH   7   8
ATOM      8  C   UNL     1      17.076 -17.830  11.666  1.00  0.00    -0.000 C 
BRANCH   8   9
ATOM      9  C   UNL     1      17.828 -17.714  10.328  1.00  0.00    -0.000 C 
BRANCH   9  10
ATOM     10  C   UNL     1      18.847 -16.562  10.253  1.00  0.00    -0.003 C 
ATOM     11  C   UNL     1      18.506 -15.531   9.177  1.00  0.00     0.004 C 
ENDBRANCH   9  10
ENDBRANCH   8   9
ENDBRANCH   7   8
ENDBRANCH   1   7
TORSDOF 7
ENDMDL
MODEL 3
REMARK VINA RESULT:    -3.021     15.488     16.654
REMARK INTER + INTRA:          -4.612
REMARK INTER:                  -4.270
REMARK INTRA:                  -0.342
REMARK UNBOUND:                -0.355
REMARK SMILES CCCCCCCCC(=O)[O-]
REMARK SMILES IDX 6 1 7 2 8 3 9 4 10 5 11 6 5 7 4 8 3 9 2 10 1 11
REMARK H PARENT
REMARK Flexibility Score: inf
ROOT
ATOM      1  C   UNL     1      19.843 -15.430  14.012  1.00  0.00     0.000 C 
ENDROOT
BRANCH   1   2
ATOM      2  C   UNL     1      19.268 -16.214  15.205  1.00  0.00     0.006 C 
BRANCH   2   3
ATOM      3  C   UNL     1      17.737 -16.311  15.150  1.00  0.00     0.053 C 
BRANCH   3   4
ATOM      4  C   UNL     1      17.108 -15.870  16.436  1.00  0.00     0.041 C 
ATOM      5  O   UNL     1      16.090 -16.464  16.881  1.00  0.00    -0.550 OA
ATOM      6  O   UNL     1      17.625 -14.781  17.125  1.00  0.00    -0.550 OA
ENDBRANCH   3   4
ENDBRANCH   2   3
ENDBRANCH   1   2
BRANCH   1   7
ATOM      7  C   UNL     1      18.950 -15.512  12.763  1.00  0.00     0.000 C 
BRANCH   7   8
ATOM      8  C   UNL     1      19.273 -16.733  11.885  1.00  0.00    -0.000 C 
BRANCH   8   9
ATOM      9  C   UNL     1      18.729 -16.601  10.451  1.00  0.00    -0.000 C 
BRANCH   9  10
ATOM     10  C   UNL     1      17.725 -17.691  10.034  1.00  0.00    -0.003 C 
ATOM     11  C   UNL     1      16.805 -18.125  11.175  1.00  0.00     0.004 C 
ENDBRANCH   9  10
ENDBRANCH   8   9
ENDBRANCH   7   8
ENDBRANCH   1   7
TORSDOF 7
ENDMDL
MODEL 4
REMARK VINA RESULT:    -2.994      3.385      3.786
REMARK INTER + INTRA:          -4.574
REMARK INTER:                  -4.149
REMARK INTRA:                  -0.425
REMARK UNBOUND:                -0.355
REMARK SMILES CCCCCCCCC(=O)[O-]
REMARK SMILES IDX 6 1 7 2 8 3 9 4 10 5 11 6 5 7 4 8 3 9 2 10 1 11
REMARK H PARENT
REMARK Flexibility Score: inf
ROOT
ATOM      1  C   UNL     1      19.142 -13.480  -1.736  1.00  0.00     0.000 C 
ENDROOT
BRANCH   1   2
ATOM      2  C   UNL     1      19.178 -14.979  -1.387  1.00  0.00     0.006 C 
BRANCH   2   3
ATOM      3  C   UNL     1      19.734 -15.828  -2.538  1.00  0.00     0.053 C 
BRANCH   3   4
ATOM      4  C   UNL     1      21.189 -16.130  -2.352  1.00  0.00     0.041 C 
ATOM      5  O   UNL     1      22.060 -15.278  -2.670  1.00  0.00    -0.550 OA
ATOM      6  O   UNL     1      21.585 -17.367  -1.860  1.00  0.00    -0.550 OA
ENDBRANCH   3   4
ENDBRANCH   2   3
ENDBRANCH   1   2
BRANCH   1   7
ATOM      7  C   UNL     1      20.099 -12.647  -0.869  1.00  0.00     0.000 C 
BRANCH   7   8
ATOM      8  C   UNL     1      21.021 -11.744  -1.708  1.00  0.00    -0.000 C 
BRANCH   8   9
ATOM      9  C   UNL     1      20.711 -10.246  -1.535  1.00  0.00    -0.000 C 
BRANCH   9  10
ATOM     10  C   UNL     1      19.214  -9.890  -1.519  1.00  0.00    -0.003 C 
ATOM     11  C   UNL     1      18.677  -9.502  -2.897  1.00  0.00     0.004 C 
ENDBRANCH   9  10
ENDBRANCH   8   9
ENDBRANCH   7   8
ENDBRANCH   1   7
TORSDOF 7
ENDMDL
MODEL 5
REMARK VINA RESULT:    -2.979     14.635     15.695
REMARK INTER + INTRA:          -4.553
REMARK INTER:                  -4.055
REMARK INTRA:                  -0.498
REMARK UNBOUND:                -0.355
REMARK SMILES CCCCCCCCC(=O)[O-]
REMARK SMILES IDX 6 1 7 2 8 3 9 4 10 5 11 6 5 7 4 8 3 9 2 10 1 11
REMARK H PARENT
REMARK Flexibility Score: inf
ROOT
ATOM      1  C   UNL     1      20.291 -16.421  13.011  1.00  0.00     0.000 C 
ENDROOT
BRANCH   1   2
ATOM      2  C   UNL     1      19.634 -17.625  12.313  1.00  0.00     0.006 C 
BRANCH   2   3
ATOM      3  C   UNL     1      19.807 -17.574  10.789  1.00  0.00     0.053 C 
BRANCH   3   4
ATOM      4  C   UNL     1      18.634 -16.926  10.119  1.00  0.00     0.041 C 
ATOM      5  O   UNL     1      17.599 -17.597   9.864  1.00  0.00    -0.550 OA
ATOM      6  O   UNL     1      18.697 -15.590   9.745  1.00  0.00    -0.550 OA
ENDBRANCH   3   4
ENDBRANCH   2   3
ENDBRANCH   1   2
BRANCH   1   7
ATOM      7  C   UNL     1      19.262 -15.461  13.630  1.00  0.00     0.000 C 
BRANCH   7   8
ATOM      8  C   UNL     1      17.858 -16.083  13.728  1.00  0.00    -0.000 C 
BRANCH   8   9
ATOM      9  C   UNL     1      17.517 -16.570  15.148  1.00  0.00    -0.000 C 
BRANCH   9  10
ATOM     10  C   UNL     1      17.976 -15.637  16.283  1.00  0.00    -0.003 C 
ATOM     11  C   UNL     1      16.813 -15.066  17.095  1.00  0.00     0.004 C 
ENDBRANCH   9  10
ENDBRANCH   8   9
ENDBRANCH   7   8
ENDBRANCH   1   7
TORSDOF 7
ENDMDL
MODEL 6
REMARK VINA RESULT:    -2.971     14.423     15.451
REMARK INTER + INTRA:          -4.542
REMARK INTER:                  -4.028
REMARK INTRA:                  -0.513
REMARK UNBOUND:                -0.355
REMARK SMILES CCCCCCCCC(=O)[O-]
REMARK SMILES IDX 6 1 7 2 8 3 9 4 10 5 11 6 5 7 4 8 3 9 2 10 1 11
REMARK H PARENT
REMARK Flexibility Score: inf
ROOT
ATOM      1  C   UNL     1      17.475 -16.999  13.553  1.00  0.00     0.000 C 
ENDROOT
BRANCH   1   2
ATOM      2  C   UNL     1      18.196 -17.598  12.332  1.00  0.00     0.006 C 
BRANCH   2   3
ATOM      3  C   UNL     1      18.929 -16.529  11.511  1.00  0.00     0.053 C 
BRANCH   3   4
ATOM      4  C   UNL     1      18.448 -16.494  10.092  1.00  0.00     0.041 C 
ATOM      5  O   UNL     1      17.836 -17.481   9.605  1.00  0.00    -0.550 OA
ATOM      6  O   UNL     1      18.708 -15.385   9.297  1.00  0.00    -0.550 OA
ENDBRANCH   3   4
ENDBRANCH   2   3
ENDBRANCH   1   2
BRANCH   1   7
ATOM      7  C   UNL     1      18.232 -15.808  14.162  1.00  0.00     0.000 C 
BRANCH   7   8
ATOM      8  C   UNL     1      18.826 -16.130  15.544  1.00  0.00    -0.000 C 
BRANCH   8   9
ATOM      9  C   UNL     1      20.339 -15.861  15.624  1.00  0.00    -0.000 C 
BRANCH   9  10
ATOM     10  C   UNL     1      20.985 -15.384  14.310  1.00  0.00    -0.003 C 
ATOM     11  C   UNL     1      22.396 -14.830  14.504  1.00  0.00     0.004 C 
ENDBRANCH   9  10
ENDBRANCH   8   9
ENDBRANCH   7   8
ENDBRANCH   1   7
TORSDOF 7
ENDMDL
MODEL 7
REMARK VINA RESULT:    -2.924     15.493     16.743
REMARK INTER + INTRA:          -4.477
REMARK INTER:                  -3.929
REMARK INTRA:                  -0.548
REMARK UNBOUND:                -0.355
REMARK SMILES CCCCCCCCC(=O)[O-]
REMARK SMILES IDX 6 1 7 2 8 3 9 4 10 5 11 6 5 7 4 8 3 9 2 10 1 11
REMARK H PARENT
REMARK Flexibility Score: inf
ROOT
ATOM      1  C   UNL     1      18.655 -15.492  13.209  1.00  0.00     0.000 C 
ENDROOT
BRANCH   1   2
ATOM      2  C   UNL     1      19.976 -15.489  13.998  1.00  0.00     0.006 C 
BRANCH   2   3
ATOM      3  C   UNL     1      19.993 -16.555  15.102  1.00  0.00     0.053 C 
BRANCH   3   4
ATOM      4  C   UNL     1      19.948 -15.941  16.467  1.00  0.00     0.041 C 
ATOM      5  O   UNL     1      21.009 -15.776  17.125  1.00  0.00    -0.550 OA
ATOM      6  O   UNL     1      18.728 -15.583  17.028  1.00  0.00    -0.550 OA
ENDBRANCH   3   4
ENDBRANCH   2   3
ENDBRANCH   1   2
BRANCH   1   7
ATOM      7  C   UNL     1      17.705 -16.617  13.648  1.00  0.00     0.000 C 
BRANCH   7   8
ATOM      8  C   UNL     1      17.153 -17.422  12.459  1.00  0.00    -0.000 C 
BRANCH   8   9
ATOM      9  C   UNL     1      18.242 -17.818  11.446  1.00  0.00    -0.000 C 
BRANCH   9  10
ATOM     10  C   UNL     1      17.971 -17.383   9.995  1.00  0.00    -0.003 C 
ATOM     11  C   UNL     1      18.619 -16.045   9.641  1.00  0.00     0.004 C 
ENDBRANCH   9  10
ENDBRANCH   8   9
ENDBRANCH   7   8
ENDBRANCH   1   7
TORSDOF 7
ENDMDL
MODEL 8
REMARK VINA RESULT:    -2.848      3.769      5.758
REMARK INTER + INTRA:          -4.369
REMARK INTER:                  -3.843
REMARK INTRA:                  -0.526
REMARK UNBOUND:                -0.355
REMARK SMILES CCCCCCCCC(=O)[O-]
REMARK SMILES IDX 6 1 7 2 8 3 9 4 10 5 11 6 5 7 4 8 3 9 2 10 1 11
REMARK H PARENT
REMARK Flexibility Score: inf
ROOT
ATOM      1  C   UNL     1      20.438 -10.238  -1.605  1.00  0.00     0.000 C 
ENDROOT
BRANCH   1   2
ATOM      2  C   UNL     1      21.348 -10.144  -2.842  1.00  0.00     0.006 C 
BRANCH   2   3
ATOM      3  C   UNL     1      22.777 -10.617  -2.546  1.00  0.00     0.053 C 
BRANCH   3   4
ATOM      4  C   UNL     1      22.788 -11.858  -1.707  1.00  0.00     0.041 C 
ATOM      5  O   UNL     1      23.124 -11.803  -0.495  1.00  0.00    -0.550 OA
ATOM      6  O   UNL     1      22.460 -13.083  -2.275  1.00  0.00    -0.550 OA
ENDBRANCH   3   4
ENDBRANCH   2   3
ENDBRANCH   1   2
BRANCH   1   7
ATOM      7  C   UNL     1      18.946 -10.125  -1.957  1.00  0.00     0.000 C 
BRANCH   7   8
ATOM      8  C   UNL     1      18.543 -11.043  -3.124  1.00  0.00    -0.000 C 
BRANCH   8   9
ATOM      9  C   UNL     1      17.946 -12.382  -2.656  1.00  0.00    -0.000 C 
BRANCH   9  10
ATOM     10  C   UNL     1      18.893 -13.590  -2.769  1.00  0.00    -0.003 C 
ATOM     11  C   UNL     1      19.325 -14.141  -1.410  1.00  0.00     0.004 C 
ENDBRANCH   9  10
ENDBRANCH   8   9
ENDBRANCH   7   8
ENDBRANCH   1   7
TORSDOF 7
ENDMDL
MODEL 9
REMARK VINA RESULT:    -2.847      2.816      4.855
REMARK INTER + INTRA:          -4.368
REMARK INTER:                  -3.822
REMARK INTRA:                  -0.546
REMARK UNBOUND:                -0.355
REMARK SMILES CCCCCCCCC(=O)[O-]
REMARK SMILES IDX 6 1 7 2 8 3 9 4 10 5 11 6 5 7 4 8 3 9 2 10 1 11
REMARK H PARENT
REMARK Flexibility Score: inf
ROOT
ATOM      1  C   UNL     1      19.430 -13.417  -1.210  1.00  0.00     0.000 C 
ENDROOT
BRANCH   1   2
ATOM      2  C   UNL     1      19.886 -12.867  -2.573  1.00  0.00     0.006 C 
BRANCH   2   3
ATOM      3  C   UNL     1      19.168 -11.560  -2.939  1.00  0.00     0.053 C 
BRANCH   3   4
ATOM      4  C   UNL     1      19.615 -10.422  -2.074  1.00  0.00     0.041 C 
ATOM      5  O   UNL     1      18.775  -9.597  -1.625  1.00  0.00    -0.550 OA
ATOM      6  O   UNL     1      20.964 -10.250  -1.793  1.00  0.00    -0.550 OA
ENDBRANCH   3   4
ENDBRANCH   2   3
ENDBRANCH   1   2
BRANCH   1   7
ATOM      7  C   UNL     1      19.042 -14.903  -1.272  1.00  0.00     0.000 C 
BRANCH   7   8
ATOM      8  C   UNL     1      18.317 -15.271  -2.578  1.00  0.00    -0.000 C 
BRANCH   8   9
ATOM      9  C   UNL     1      16.784 -15.263  -2.435  1.00  0.00    -0.000 C 
BRANCH   9  10
ATOM     10  C   UNL     1      16.090 -13.990  -2.950  1.00  0.00    -0.003 C 
ATOM     11  C   UNL     1      14.572 -14.021  -2.766  1.00  0.00     0.004 C 
ENDBRANCH   9  10
ENDBRANCH   8   9
ENDBRANCH   7   8
ENDBRANCH   1   7
TORSDOF 7
ENDMDL
