MODEL 1
REMARK VINA RESULT:    -4.444      0.000      0.000
REMARK INTER + INTRA:          -5.102
REMARK INTER:                  -5.093
REMARK INTRA:                  -0.008
REMARK UNBOUND:                -0.008
REMARK SMILES CC(C)[C@@H]([NH3+])C(=O)[O-]
REMARK SMILES IDX 4 1 5 2 6 6 7 7 8 8 2 9 1 10 3 11
REMARK H PARENT 5 3 5 4 5 5
REMARK Flexibility Score: inf
ROOT
ATOM      1  C   UNL     1       8.908  25.375  33.660  1.00  0.00     0.230 C 
ENDROOT
BRANCH   1   2
ATOM      2  N   UNL     1      10.251  25.971  33.623  1.00  0.00    -0.350 N 
ATOM      3  H   UNL     1      10.290  26.834  34.214  1.00  0.00     0.345 HD
ATOM      4  H   UNL     1      10.515  26.208  32.640  1.00  0.00     0.345 HD
ATOM      5  H   UNL     1      10.959  25.286  33.975  1.00  0.00     0.345 HD
ENDBRANCH   1   2
BRANCH   1   6
ATOM      6  C   UNL     1       8.681  24.583  32.396  1.00  0.00     0.099 C 
ATOM      7  O   UNL     1       9.605  23.875  31.917  1.00  0.00    -0.544 OA
ATOM      8  O   UNL     1       7.450  24.632  31.751  1.00  0.00    -0.544 OA
ENDBRANCH   1   6
BRANCH   1   9
ATOM      9  C   UNL     1       8.706  24.475  34.917  1.00  0.00     0.047 C 
ATOM     10  C   UNL     1       9.120  25.197  36.211  1.00  0.00     0.014 C 
ATOM     11  C   UNL     1       7.242  24.015  35.045  1.00  0.00     0.014 C 
ENDBRANCH   1   9
TORSDOF 3
ENDMDL
MODEL 2
REMARK VINA RESULT:    -4.411      2.821      3.737
REMARK INTER + INTRA:          -5.064
REMARK INTER:                  -5.202
REMARK INTRA:                   0.138
REMARK UNBOUND:                -0.008
REMARK SMILES CC(C)[C@@H]([NH3+])C(=O)[O-]
REMARK SMILES IDX 4 1 5 2 6 6 7 7 8 8 2 9 1 10 3 11
REMARK H PARENT 5 3 5 4 5 5
REMARK Flexibility Score: inf
ROOT
ATOM      1  C   UNL     1       7.721  24.713  34.500  1.00  0.00     0.230 C 
ENDROOT
BRANCH   1   2
ATOM      2  N   UNL     1       6.654  23.882  35.078  1.00  0.00    -0.350 N 
ATOM      3  H   UNL     1       6.021  24.458  35.681  1.00  0.00     0.345 HD
ATOM      4  H   UNL     1       7.066  23.106  35.644  1.00  0.00     0.345 HD
ATOM      5  H   UNL     1       6.088  23.440  34.316  1.00  0.00     0.345 HD
ENDBRANCH   1   2
BRANCH   1   6
ATOM      6  C   UNL     1       8.818  24.894  35.520  1.00  0.00     0.099 C 
ATOM      7  O   UNL     1       9.472  25.969  35.562  1.00  0.00    -0.544 OA
ATOM      8  O   UNL     1       9.114  23.875  36.417  1.00  0.00    -0.544 OA
ENDBRANCH   1   6
BRANCH   1   9
ATOM      9  C   UNL     1       8.287  24.096  33.185  1.00  0.00     0.047 C 
ATOM     10  C   UNL     1       7.186  23.876  32.134  1.00  0.00     0.014 C 
ATOM     11  C   UNL     1       9.387  24.987  32.580  1.00  0.00     0.014 C 
ENDBRANCH   1   9
TORSDOF 3
ENDMDL
MODEL 3
REMARK VINA RESULT:    -3.780      2.515      3.446
REMARK INTER + INTRA:          -4.340
REMARK INTER:                  -4.745
REMARK INTRA:                   0.404
REMARK UNBOUND:                -0.008
REMARK SMILES CC(C)[C@@H]([NH3+])C(=O)[O-]
REMARK SMILES IDX 4 1 5 2 6 6 7 7 8 8 2 9 1 10 3 11
REMARK H PARENT 5 3 5 4 5 5
REMARK Flexibility Score: inf
ROOT
ATOM      1  C   UNL     1       9.226  24.827  34.516  1.00  0.00     0.230 C 
ENDROOT
BRANCH   1   2
ATOM      2  N   UNL     1       9.837  26.125  34.195  1.00  0.00    -0.350 N 
ATOM      3  H   UNL     1       9.297  26.907  34.632  1.00  0.00     0.345 HD
ATOM      4  H   UNL     1       9.875  26.261  33.159  1.00  0.00     0.345 HD
ATOM      5  H   UNL     1      10.823  26.156  34.545  1.00  0.00     0.345 HD
ENDBRANCH   1   2
BRANCH   1   6
ATOM      6  C   UNL     1       8.454  24.946  35.806  1.00  0.00     0.099 C 
ATOM      7  O   UNL     1       7.197  25.000  35.789  1.00  0.00    -0.544 OA
ATOM      8  O   UNL     1       9.127  24.998  37.022  1.00  0.00    -0.544 OA
ENDBRANCH   1   6
BRANCH   1   9
ATOM      9  C   UNL     1       8.304  24.320  33.366  1.00  0.00     0.047 C 
ATOM     10  C   UNL     1       7.293  25.393  32.927  1.00  0.00     0.014 C 
ATOM     11  C   UNL     1       9.128  23.875  32.144  1.00  0.00     0.014 C 
ENDBRANCH   1   9
TORSDOF 3
ENDMDL
MODEL 4
REMARK VINA RESULT:    -3.089      2.345      3.004
REMARK INTER + INTRA:          -3.549
REMARK INTER:                  -3.669
REMARK INTRA:                   0.120
REMARK UNBOUND:                -0.008
REMARK SMILES CC(C)[C@@H]([NH3+])C(=O)[O-]
REMARK SMILES IDX 4 1 5 2 6 6 7 7 8 8 2 9 1 10 3 11
REMARK H PARENT 5 3 5 4 5 5
REMARK Flexibility Score: inf
ROOT
ATOM      1  C   UNL     1       9.124  24.443  33.727  1.00  0.00     0.230 C 
ENDROOT
BRANCH   1   2
ATOM      2  N   UNL     1       9.889  24.607  32.482  1.00  0.00    -0.350 N 
ATOM      3  H   UNL     1       9.288  24.407  31.649  1.00  0.00     0.345 HD
ATOM      4  H   UNL     1      10.716  23.968  32.479  1.00  0.00     0.345 HD
ATOM      5  H   UNL     1      10.256  25.585  32.410  1.00  0.00     0.345 HD
ENDBRANCH   1   2
BRANCH   1   6
ATOM      6  C   UNL     1       9.566  25.486  34.723  1.00  0.00     0.099 C 
ATOM      7  O   UNL     1      10.265  26.464  34.349  1.00  0.00    -0.544 OA
ATOM      8  O   UNL     1       9.207  25.373  36.061  1.00  0.00    -0.544 OA
ENDBRANCH   1   6
BRANCH   1   9
ATOM      9  C   UNL     1       7.587  24.533  33.480  1.00  0.00     0.047 C 
ATOM     10  C   UNL     1       7.181  23.876  32.150  1.00  0.00     0.014 C 
ATOM     11  C   UNL     1       6.799  23.875  34.627  1.00  0.00     0.014 C 
ENDBRANCH   1   9
TORSDOF 3
ENDMDL
MODEL 5
REMARK VINA RESULT:    -2.297      1.949      2.210
REMARK INTER + INTRA:          -2.641
REMARK INTER:                  -3.450
REMARK INTRA:                   0.809
REMARK UNBOUND:                -0.008
REMARK SMILES CC(C)[C@@H]([NH3+])C(=O)[O-]
REMARK SMILES IDX 4 1 5 2 6 6 7 7 8 8 2 9 1 10 3 11
REMARK H PARENT 5 3 5 4 5 5
REMARK Flexibility Score: inf
ROOT
ATOM      1  C   UNL     1       8.285  24.084  33.494  1.00  0.00     0.230 C 
ENDROOT
BRANCH   1   2
ATOM      2  N   UNL     1       7.134  24.384  32.629  1.00  0.00    -0.350 N 
ATOM      3  H   UNL     1       6.830  25.378  32.747  1.00  0.00     0.345 HD
ATOM      4  H   UNL     1       6.337  23.745  32.853  1.00  0.00     0.345 HD
ATOM      5  H   UNL     1       7.385  24.222  31.626  1.00  0.00     0.345 HD
ENDBRANCH   1   2
BRANCH   1   6
ATOM      6  C   UNL     1       9.322  25.168  33.334  1.00  0.00     0.099 C 
ATOM      7  O   UNL     1       9.362  26.130  34.145  1.00  0.00    -0.544 OA
ATOM      8  O   UNL     1      10.237  25.113  32.290  1.00  0.00    -0.544 OA
ENDBRANCH   1   6
BRANCH   1   9
ATOM      9  C   UNL     1       7.865  23.939  34.989  1.00  0.00     0.047 C 
ATOM     10  C   UNL     1       9.075  24.027  35.935  1.00  0.00     0.014 C 
ATOM     11  C   UNL     1       6.837  25.013  35.387  1.00  0.00     0.014 C 
ENDBRANCH   1   9
TORSDOF 3
ENDMDL
