MODEL 1
REMARK VINA RESULT:    -5.151      0.000      0.000
REMARK INTER + INTRA:          -5.151
REMARK INTER:                  -5.151
REMARK INTRA:                   0.000
REMARK UNBOUND:                 0.000
REMARK SMILES C[C@H]1CCC=C2CC[C@@H]3[C@@H](C3(C)C)[C@@]21C
REMARK SMILES IDX 1 1 2 2 3 3 4 4 5 5 6 6 14 7 10 8 9 9 11 10 12 11 13 12 8 13
REMARK SMILES IDX 7 14 15 15
REMARK H PARENT
REMARK Flexibility Score: inf
ROOT
ATOM      1  C   UNL     1      15.910   6.325  16.680  1.00  0.00     0.008 C 
ATOM      2  C   UNL     1      14.604   5.536  16.935  1.00  0.00    -0.004 C 
ATOM      3  C   UNL     1      14.939   4.212  17.698  1.00  0.00     0.008 C 
ATOM      4  C   UNL     1      13.854   3.735  18.682  1.00  0.00     0.027 C 
ATOM      5  C   UNL     1      12.483   4.155  18.250  1.00  0.00    -0.027 C 
ATOM      6  C   UNL     1      12.259   5.379  17.729  1.00  0.00    -0.068 C 
ATOM      7  C   UNL     1      13.438   6.367  17.607  1.00  0.00    -0.005 C 
ATOM      8  C   UNL     1      13.134   7.627  16.717  1.00  0.00     0.009 C 
ATOM      9  C   UNL     1      11.862   7.706  15.876  1.00  0.00    -0.000 C 
ATOM     10  C   UNL     1      12.039   8.667  17.067  1.00  0.00    -0.028 C 
ATOM     11  C   UNL     1      12.340  10.111  16.637  1.00  0.00     0.012 C 
ATOM     12  C   UNL     1      11.084   8.536  18.265  1.00  0.00     0.012 C 
ATOM     13  C   UNL     1      10.889   6.520  15.922  1.00  0.00     0.009 C 
ATOM     14  C   UNL     1      10.881   5.654  17.177  1.00  0.00     0.031 C 
ATOM     15  C   UNL     1      13.883   6.867  19.019  1.00  0.00     0.017 C 
ENDROOT
TORSDOF 0
ENDMDL
MODEL 2
REMARK VINA RESULT:    -5.030      1.538      2.142
REMARK INTER + INTRA:          -5.030
REMARK INTER:                  -5.030
REMARK INTRA:                   0.000
REMARK UNBOUND:                 0.000
REMARK SMILES C[C@H]1CCC=C2CC[C@@H]3[C@@H](C3(C)C)[C@@]21C
REMARK SMILES IDX 1 1 2 2 3 3 4 4 5 5 6 6 14 7 10 8 9 9 11 10 12 11 13 12 8 13
REMARK SMILES IDX 7 14 15 15
REMARK H PARENT
REMARK Flexibility Score: inf
ROOT
ATOM      1  C   UNL     1      15.006   8.045  16.244  1.00  0.00     0.008 C 
ATOM      2  C   UNL     1      14.470   6.608  16.447  1.00  0.00    -0.004 C 
ATOM      3  C   UNL     1      15.591   5.580  16.079  1.00  0.00     0.008 C 
ATOM      4  C   UNL     1      15.578   4.279  16.904  1.00  0.00     0.027 C 
ATOM      5  C   UNL     1      14.197   3.919  17.358  1.00  0.00    -0.027 C 
ATOM      6  C   UNL     1      13.338   4.863  17.797  1.00  0.00    -0.068 C 
ATOM      7  C   UNL     1      13.806   6.331  17.855  1.00  0.00    -0.005 C 
ATOM      8  C   UNL     1      12.647   7.369  18.082  1.00  0.00     0.009 C 
ATOM      9  C   UNL     1      11.183   6.940  18.006  1.00  0.00    -0.000 C 
ATOM     10  C   UNL     1      11.767   7.391  19.359  1.00  0.00    -0.028 C 
ATOM     11  C   UNL     1      11.275   8.779  19.796  1.00  0.00     0.012 C 
ATOM     12  C   UNL     1      11.877   6.358  20.492  1.00  0.00     0.012 C 
ATOM     13  C   UNL     1      10.875   5.469  17.700  1.00  0.00     0.009 C 
ATOM     14  C   UNL     1      11.921   4.428  18.084  1.00  0.00     0.031 C 
ATOM     15  C   UNL     1      14.861   6.526  18.991  1.00  0.00     0.017 C 
ENDROOT
TORSDOF 0
ENDMDL
MODEL 3
REMARK VINA RESULT:    -4.781      1.608      4.341
REMARK INTER + INTRA:          -4.781
REMARK INTER:                  -4.781
REMARK INTRA:                   0.000
REMARK UNBOUND:                 0.000
REMARK SMILES C[C@H]1CCC=C2CC[C@@H]3[C@@H](C3(C)C)[C@@]21C
REMARK SMILES IDX 1 1 2 2 3 3 4 4 5 5 6 6 14 7 10 8 9 9 11 10 12 11 13 12 8 13
REMARK SMILES IDX 7 14 15 15
REMARK H PARENT
REMARK Flexibility Score: inf
ROOT
ATOM      1  C   UNL     1      12.532   6.148  21.758  1.00  0.00     0.008 C 
ATOM      2  C   UNL     1      11.740   6.799  20.599  1.00  0.00    -0.004 C 
ATOM      3  C   UNL     1      11.290   8.237  21.021  1.00  0.00     0.008 C 
ATOM      4  C   UNL     1      11.231   9.264  19.875  1.00  0.00     0.027 C 
ATOM      5  C   UNL     1      10.920   8.617  18.560  1.00  0.00    -0.027 C 
ATOM      6  C   UNL     1      11.469   7.433  18.216  1.00  0.00    -0.068 C 
ATOM      7  C   UNL     1      12.456   6.757  19.190  1.00  0.00    -0.005 C 
ATOM      8  C   UNL     1      12.790   5.262  18.835  1.00  0.00     0.009 C 
ATOM      9  C   UNL     1      12.003   4.516  17.759  1.00  0.00    -0.000 C 
ATOM     10  C   UNL     1      13.489   4.839  17.517  1.00  0.00    -0.028 C 
ATOM     11  C   UNL     1      14.400   3.606  17.620  1.00  0.00     0.012 C 
ATOM     12  C   UNL     1      13.854   5.819  16.389  1.00  0.00     0.012 C 
ATOM     13  C   UNL     1      10.876   5.266  17.036  1.00  0.00     0.009 C 
ATOM     14  C   UNL     1      10.975   6.785  16.946  1.00  0.00     0.031 C 
ATOM     15  C   UNL     1      13.800   7.552  19.249  1.00  0.00     0.017 C 
ENDROOT
TORSDOF 0
ENDMDL
MODEL 4
REMARK VINA RESULT:    -4.656      1.304      2.748
REMARK INTER + INTRA:          -4.656
REMARK INTER:                  -4.656
REMARK INTRA:                   0.000
REMARK UNBOUND:                 0.000
REMARK SMILES C[C@H]1CCC=C2CC[C@@H]3[C@@H](C3(C)C)[C@@]21C
REMARK SMILES IDX 1 1 2 2 3 3 4 4 5 5 6 6 14 7 10 8 9 9 11 10 12 11 13 12 8 13
REMARK SMILES IDX 7 14 15 15
REMARK H PARENT
REMARK Flexibility Score: inf
ROOT
ATOM      1  C   UNL     1      14.082   5.280  20.935  1.00  0.00     0.008 C 
ATOM      2  C   UNL     1      14.595   4.998  19.503  1.00  0.00    -0.004 C 
ATOM      3  C   UNL     1      15.277   3.590  19.465  1.00  0.00     0.008 C 
ATOM      4  C   UNL     1      15.128   2.830  18.133  1.00  0.00     0.027 C 
ATOM      5  C   UNL     1      15.015   3.762  16.967  1.00  0.00    -0.027 C 
ATOM      6  C   UNL     1      14.283   4.894  17.045  1.00  0.00    -0.068 C 
ATOM      7  C   UNL     1      13.529   5.207  18.354  1.00  0.00    -0.005 C 
ATOM      8  C   UNL     1      12.972   6.675  18.441  1.00  0.00     0.009 C 
ATOM      9  C   UNL     1      13.369   7.728  17.408  1.00  0.00    -0.000 C 
ATOM     10  C   UNL     1      11.910   7.238  17.461  1.00  0.00    -0.028 C 
ATOM     11  C   UNL     1      10.945   8.274  18.058  1.00  0.00     0.012 C 
ATOM     12  C   UNL     1      11.355   6.456  16.259  1.00  0.00     0.012 C 
ATOM     13  C   UNL     1      14.330   7.315  16.286  1.00  0.00     0.009 C 
ATOM     14  C   UNL     1      14.356   5.846  15.876  1.00  0.00     0.031 C 
ATOM     15  C   UNL     1      12.333   4.222  18.548  1.00  0.00     0.017 C 
ENDROOT
TORSDOF 0
ENDMDL
MODEL 5
REMARK VINA RESULT:    -4.618      2.509      4.453
REMARK INTER + INTRA:          -4.618
REMARK INTER:                  -4.618
REMARK INTRA:                   0.000
REMARK UNBOUND:                 0.000
REMARK SMILES C[C@H]1CCC=C2CC[C@@H]3[C@@H](C3(C)C)[C@@]21C
REMARK SMILES IDX 1 1 2 2 3 3 4 4 5 5 6 6 14 7 10 8 9 9 11 10 12 11 13 12 8 13
REMARK SMILES IDX 7 14 15 15
REMARK H PARENT
REMARK Flexibility Score: inf
ROOT
ATOM      1  C   UNL     1      13.634   2.253  21.531  1.00  0.00     0.008 C 
ATOM      2  C   UNL     1      12.779   3.539  21.440  1.00  0.00    -0.004 C 
ATOM      3  C   UNL     1      12.574   4.128  22.876  1.00  0.00     0.008 C 
ATOM      4  C   UNL     1      12.487   5.664  22.944  1.00  0.00     0.027 C 
ATOM      5  C   UNL     1      11.922   6.248  21.686  1.00  0.00    -0.027 C 
ATOM      6  C   UNL     1      12.267   5.765  20.474  1.00  0.00    -0.068 C 
ATOM      7  C   UNL     1      13.286   4.610  20.393  1.00  0.00    -0.005 C 
ATOM      8  C   UNL     1      13.379   3.930  18.978  1.00  0.00     0.009 C 
ATOM      9  C   UNL     1      12.365   4.257  17.882  1.00  0.00    -0.000 C 
ATOM     10  C   UNL     1      13.834   4.687  17.703  1.00  0.00    -0.028 C 
ATOM     11  C   UNL     1      14.589   3.839  16.668  1.00  0.00     0.012 C 
ATOM     12  C   UNL     1      14.160   6.189  17.669  1.00  0.00     0.012 C 
ATOM     13  C   UNL     1      11.253   5.264  18.202  1.00  0.00     0.009 C 
ATOM     14  C   UNL     1      11.528   6.311  19.276  1.00  0.00     0.031 C 
ATOM     15  C   UNL     1      14.713   5.108  20.785  1.00  0.00     0.017 C 
ENDROOT
TORSDOF 0
ENDMDL
MODEL 6
REMARK VINA RESULT:    -4.576      1.409      2.629
REMARK INTER + INTRA:          -4.576
REMARK INTER:                  -4.576
REMARK INTRA:                   0.000
REMARK UNBOUND:                 0.000
REMARK SMILES C[C@H]1CCC=C2CC[C@@H]3[C@@H](C3(C)C)[C@@]21C
REMARK SMILES IDX 1 1 2 2 3 3 4 4 5 5 6 6 14 7 10 8 9 9 11 10 12 11 13 12 8 13
REMARK SMILES IDX 7 14 15 15
REMARK H PARENT
REMARK Flexibility Score: inf
ROOT
ATOM      1  C   UNL     1      14.592   7.375  20.565  1.00  0.00     0.008 C 
ATOM      2  C   UNL     1      14.588   6.031  19.799  1.00  0.00    -0.004 C 
ATOM      3  C   UNL     1      14.493   4.851  20.822  1.00  0.00     0.008 C 
ATOM      4  C   UNL     1      13.719   3.617  20.323  1.00  0.00     0.027 C 
ATOM      5  C   UNL     1      13.814   3.461  18.836  1.00  0.00    -0.027 C 
ATOM      6  C   UNL     1      13.743   4.530  18.015  1.00  0.00    -0.068 C 
ATOM      7  C   UNL     1      13.531   5.929  18.627  1.00  0.00    -0.005 C 
ATOM      8  C   UNL     1      13.771   7.115  17.623  1.00  0.00     0.009 C 
ATOM      9  C   UNL     1      14.388   6.867  16.248  1.00  0.00    -0.000 C 
ATOM     10  C   UNL     1      12.921   7.327  16.344  1.00  0.00    -0.028 C 
ATOM     11  C   UNL     1      12.718   8.791  15.922  1.00  0.00     0.012 C 
ATOM     12  C   UNL     1      11.817   6.363  15.879  1.00  0.00     0.012 C 
ATOM     13  C   UNL     1      14.770   5.429  15.875  1.00  0.00     0.009 C 
ATOM     14  C   UNL     1      14.007   4.293  16.547  1.00  0.00     0.031 C 
ATOM     15  C   UNL     1      12.084   6.064  19.200  1.00  0.00     0.017 C 
ENDROOT
TORSDOF 0
ENDMDL
MODEL 7
REMARK VINA RESULT:    -4.554      1.428      4.229
REMARK INTER + INTRA:          -4.554
REMARK INTER:                  -4.554
REMARK INTRA:                   0.000
REMARK UNBOUND:                 0.000
REMARK SMILES C[C@H]1CCC=C2CC[C@@H]3[C@@H](C3(C)C)[C@@]21C
REMARK SMILES IDX 1 1 2 2 3 3 4 4 5 5 6 6 14 7 10 8 9 9 11 10 12 11 13 12 8 13
REMARK SMILES IDX 7 14 15 15
REMARK H PARENT
REMARK Flexibility Score: inf
ROOT
ATOM      1  C   UNL     1      14.477   8.723  18.947  1.00  0.00     0.008 C 
ATOM      2  C   UNL     1      13.406   7.607  18.966  1.00  0.00    -0.004 C 
ATOM      3  C   UNL     1      11.983   8.255  19.027  1.00  0.00     0.008 C 
ATOM      4  C   UNL     1      10.878   7.471  18.294  1.00  0.00     0.027 C 
ATOM      5  C   UNL     1      11.153   5.999  18.279  1.00  0.00    -0.027 C 
ATOM      6  C   UNL     1      12.399   5.522  18.077  1.00  0.00    -0.068 C 
ATOM      7  C   UNL     1      13.549   6.519  17.827  1.00  0.00    -0.005 C 
ATOM      8  C   UNL     1      14.984   5.883  17.911  1.00  0.00     0.009 C 
ATOM      9  C   UNL     1      15.183   4.460  18.431  1.00  0.00    -0.000 C 
ATOM     10  C   UNL     1      15.475   4.769  16.950  1.00  0.00    -0.028 C 
ATOM     11  C   UNL     1      16.976   4.795  16.623  1.00  0.00     0.012 C 
ATOM     12  C   UNL     1      14.591   4.115  15.875  1.00  0.00     0.012 C 
ATOM     13  C   UNL     1      13.943   3.670  18.870  1.00  0.00     0.009 C 
ATOM     14  C   UNL     1      12.605   4.035  18.236  1.00  0.00     0.031 C 
ATOM     15  C   UNL     1      13.399   7.191  16.425  1.00  0.00     0.017 C 
ENDROOT
TORSDOF 0
ENDMDL
MODEL 8
REMARK VINA RESULT:    -4.471      1.590      4.423
REMARK INTER + INTRA:          -4.471
REMARK INTER:                  -4.471
REMARK INTRA:                   0.000
REMARK UNBOUND:                 0.000
REMARK SMILES C[C@H]1CCC=C2CC[C@@H]3[C@@H](C3(C)C)[C@@]21C
REMARK SMILES IDX 1 1 2 2 3 3 4 4 5 5 6 6 14 7 10 8 9 9 11 10 12 11 13 12 8 13
REMARK SMILES IDX 7 14 15 15
REMARK H PARENT
REMARK Flexibility Score: inf
ROOT
ATOM      1  C   UNL     1      12.140   6.081  20.454  1.00  0.00     0.008 C 
ATOM      2  C   UNL     1      12.112   5.850  18.924  1.00  0.00    -0.004 C 
ATOM      3  C   UNL     1      10.875   6.586  18.311  1.00  0.00     0.008 C 
ATOM      4  C   UNL     1      11.084   7.136  16.887  1.00  0.00     0.027 C 
ATOM      5  C   UNL     1      12.070   6.319  16.111  1.00  0.00    -0.027 C 
ATOM      6  C   UNL     1      13.191   5.840  16.691  1.00  0.00    -0.068 C 
ATOM      7  C   UNL     1      13.466   6.171  18.172  1.00  0.00    -0.005 C 
ATOM      8  C   UNL     1      14.619   5.320  18.820  1.00  0.00     0.009 C 
ATOM      9  C   UNL     1      15.221   4.124  18.084  1.00  0.00    -0.000 C 
ATOM     10  C   UNL     1      16.089   5.373  18.329  1.00  0.00    -0.028 C 
ATOM     11  C   UNL     1      17.155   5.163  19.415  1.00  0.00     0.012 C 
ATOM     12  C   UNL     1      16.557   6.191  17.114  1.00  0.00     0.012 C 
ATOM     13  C   UNL     1      14.666   3.774  16.696  1.00  0.00     0.009 C 
ATOM     14  C   UNL     1      14.043   4.898  15.875  1.00  0.00     0.031 C 
ATOM     15  C   UNL     1      13.826   7.681  18.340  1.00  0.00     0.017 C 
ENDROOT
TORSDOF 0
ENDMDL
