MODEL 1
REMARK VINA RESULT:    -3.630      0.000      0.000
REMARK INTER + INTRA:          -4.816
REMARK INTER:                  -5.115
REMARK INTRA:                   0.299
REMARK UNBOUND:                 0.299
REMARK SMILES CC1=CCC(=C(C)C)C(=O)CC(C)=CCC1
REMARK SMILES IDX 12 1 14 2 13 3 15 4 16 5 2 6 1 7 3 8 11 10 9 11 10 12 5 13
REMARK SMILES IDX 6 14 7 15 8 16 4 17
REMARK H PARENT
REMARK Flexibility Score: 60.00
ROOT
ATOM      1  C   UNL     1      23.380  51.887   0.559  1.00  0.00    -0.070 C 
ATOM      2  C   UNL     1      22.779  51.626   1.743  1.00  0.00    -0.027 C 
ATOM      3  C   UNL     1      24.737  52.541   0.581  1.00  0.00     0.039 C 
ENDROOT
BRANCH   2   4
ATOM      4  C   UNL     1      21.398  51.034   1.908  1.00  0.00     0.032 C 
BRANCH   4   5
ATOM      5  C   UNL     1      21.439  49.499   1.941  1.00  0.00     0.034 C 
BRANCH   5   6
ATOM      6  C   UNL     1      20.331  48.843   1.130  1.00  0.00    -0.077 C 
ATOM      7  C   UNL     1      18.915  48.918   1.640  1.00  0.00     0.039 C 
ATOM      8  C   UNL     1      20.551  48.175  -0.026  1.00  0.00    -0.023 CG0
ATOM      9  G   UNL     1      21.884  48.053  -0.727  1.00  0.00     0.000 G0
ENDBRANCH   5   6
ENDBRANCH   4   5
ENDBRANCH   2   4
BRANCH   1  10
ATOM     10  C   UNL     1      22.749  51.549  -0.778  1.00  0.00     0.111 C 
BRANCH  10  11
ATOM     11  C   UNL     1      23.201  50.200  -1.264  1.00  0.00     0.163 C 
ATOM     12  O   UNL     1      24.434  49.949  -1.333  1.00  0.00    -0.294 OA
BRANCH  11  13
ATOM     13  C   UNL     1      22.223  49.164  -1.687  1.00  0.00    -0.002 C 
ATOM     14  C   UNL     1      21.641  49.231  -2.916  1.00  0.00    -0.069 C 
ATOM     15  C   UNL     1      20.684  48.160  -3.385  1.00  0.00     0.039 C 
ATOM     16  C   UNL     1      21.898  50.401  -3.840  1.00  0.00     0.039 C 
BRANCH  13  17
ATOM     17  C   UNL     1      21.880  48.030  -0.727  1.00  0.00     0.066 CG0
ATOM     18  G   UNL     1      20.544  48.196  -0.043  1.00  0.00     0.000 G0
ENDBRANCH  13  17
ENDBRANCH  11  13
ENDBRANCH  10  11
ENDBRANCH   1  10
TORSDOF 0
ENDMDL
MODEL 2
REMARK VINA RESULT:    -3.422      1.367      3.584
REMARK INTER + INTRA:          -4.523
REMARK INTER:                  -5.165
REMARK INTRA:                   0.642
REMARK UNBOUND:                 0.299
REMARK SMILES CC1=CCC(=C(C)C)C(=O)CC(C)=CCC1
REMARK SMILES IDX 12 1 14 2 13 3 15 4 16 5 2 6 1 7 3 8 11 10 9 11 10 12 5 13
REMARK SMILES IDX 6 14 7 15 8 16 4 17
REMARK H PARENT
REMARK Flexibility Score: 60.00
ROOT
ATOM      1  C   UNL     1      24.383  52.182   0.715  1.00  0.00    -0.070 C 
ATOM      2  C   UNL     1      24.359  52.288  -0.634  1.00  0.00    -0.027 C 
ATOM      3  C   UNL     1      25.616  52.654   1.441  1.00  0.00     0.039 C 
ENDROOT
BRANCH   2   4
ATOM      4  C   UNL     1      23.235  51.811  -1.526  1.00  0.00     0.032 C 
BRANCH   4   5
ATOM      5  C   UNL     1      23.561  50.456  -2.172  1.00  0.00     0.034 C 
BRANCH   5   6
ATOM      6  C   UNL     1      22.351  49.545  -2.319  1.00  0.00    -0.077 C 
ATOM      7  C   UNL     1      21.501  49.659  -3.558  1.00  0.00     0.039 C 
ATOM      8  C   UNL     1      21.982  48.640  -1.382  1.00  0.00    -0.023 CG0
ATOM      9  G   UNL     1      22.743  48.334  -0.113  1.00  0.00     0.000 G0
ENDBRANCH   5   6
ENDBRANCH   4   5
ENDBRANCH   2   4
BRANCH   1  10
ATOM     10  C   UNL     1      23.229  51.614   1.518  1.00  0.00     0.111 C 
BRANCH  10  11
ATOM     11  C   UNL     1      23.352  50.122   1.661  1.00  0.00     0.163 C 
ATOM     12  O   UNL     1      24.339  49.639   2.278  1.00  0.00    -0.294 OA
BRANCH  11  13
ATOM     13  C   UNL     1      22.344  49.205   1.069  1.00  0.00    -0.002 C 
ATOM     14  C   UNL     1      21.083  49.149   1.580  1.00  0.00    -0.069 C 
ATOM     15  C   UNL     1      20.030  48.261   0.960  1.00  0.00     0.039 C 
ATOM     16  C   UNL     1      20.702  49.941   2.811  1.00  0.00     0.039 C 
BRANCH  13  17
ATOM     17  C   UNL     1      22.741  48.329  -0.113  1.00  0.00     0.066 CG0
ATOM     18  G   UNL     1      21.969  48.627  -1.377  1.00  0.00     0.000 G0
ENDBRANCH  13  17
ENDBRANCH  11  13
ENDBRANCH  10  11
ENDBRANCH   1  10
TORSDOF 0
ENDMDL
MODEL 3
REMARK VINA RESULT:    -3.279      2.462      5.332
REMARK INTER + INTRA:          -4.321
REMARK INTER:                  -4.578
REMARK INTRA:                   0.257
REMARK UNBOUND:                 0.299
REMARK SMILES CC1=CCC(=C(C)C)C(=O)CC(C)=CCC1
REMARK SMILES IDX 12 1 14 2 13 3 15 4 16 5 2 6 1 7 3 8 11 10 9 11 10 12 5 13
REMARK SMILES IDX 6 14 7 15 8 16 4 17
REMARK H PARENT
REMARK Flexibility Score: 60.00
ROOT
ATOM      1  C   UNL     1      22.464  50.836  -1.331  1.00  0.00    -0.070 C 
ATOM      2  C   UNL     1      23.455  51.658  -1.748  1.00  0.00    -0.027 C 
ATOM      3  C   UNL     1      21.801  49.949  -2.353  1.00  0.00     0.039 C 
ENDROOT
BRANCH   2   4
ATOM      4  C   UNL     1      24.185  52.655  -0.876  1.00  0.00     0.032 C 
BRANCH   4   5
ATOM      5  C   UNL     1      25.389  52.015  -0.170  1.00  0.00     0.034 C 
BRANCH   5   6
ATOM      6  C   UNL     1      25.471  52.346   1.314  1.00  0.00    -0.077 C 
ATOM      7  C   UNL     1      25.818  53.753   1.727  1.00  0.00     0.039 C 
ATOM      8  C   UNL     1      25.264  51.434   2.292  1.00  0.00    -0.023 CG0
ATOM      9  G   UNL     1      24.841  50.000   2.078  1.00  0.00     0.000 G0
ENDBRANCH   5   6
ENDBRANCH   4   5
ENDBRANCH   2   4
BRANCH   1  10
ATOM     10  C   UNL     1      21.999  50.769   0.111  1.00  0.00     0.111 C 
BRANCH  10  11
ATOM     11  C   UNL     1      22.612  49.596   0.823  1.00  0.00     0.163 C 
ATOM     12  O   UNL     1      22.492  48.442   0.331  1.00  0.00    -0.294 OA
BRANCH  11  13
ATOM     13  C   UNL     1      23.334  49.765   2.110  1.00  0.00    -0.002 C 
ATOM     14  C   UNL     1      22.655  49.723   3.289  1.00  0.00    -0.069 C 
ATOM     15  C   UNL     1      23.379  49.842   4.611  1.00  0.00     0.039 C 
ATOM     16  C   UNL     1      21.148  49.598   3.320  1.00  0.00     0.039 C 
BRANCH  13  17
ATOM     17  C   UNL     1      24.843  49.989   2.091  1.00  0.00     0.066 CG0
ATOM     18  G   UNL     1      25.246  51.430   2.293  1.00  0.00     0.000 G0
ENDBRANCH  13  17
ENDBRANCH  11  13
ENDBRANCH  10  11
ENDBRANCH   1  10
TORSDOF 0
ENDMDL
MODEL 4
REMARK VINA RESULT:    -3.201      1.890      2.643
REMARK INTER + INTRA:          -4.212
REMARK INTER:                  -4.734
REMARK INTRA:                   0.522
REMARK UNBOUND:                 0.299
REMARK SMILES CC1=CCC(=C(C)C)C(=O)CC(C)=CCC1
REMARK SMILES IDX 12 1 14 2 13 3 15 4 16 5 2 6 1 7 3 8 11 10 9 11 10 12 5 13
REMARK SMILES IDX 6 14 7 15 8 16 4 17
REMARK H PARENT
REMARK Flexibility Score: 60.00
ROOT
ATOM      1  C   UNL     1      25.323  52.668   0.394  1.00  0.00    -0.070 C 
ATOM      2  C   UNL     1      25.515  52.438   1.715  1.00  0.00    -0.027 C 
ATOM      3  C   UNL     1      25.565  54.061  -0.125  1.00  0.00     0.039 C 
ENDROOT
BRANCH   2   4
ATOM      4  C   UNL     1      25.263  51.123   2.416  1.00  0.00     0.032 C 
BRANCH   4   5
ATOM      5  C   UNL     1      23.767  50.777   2.451  1.00  0.00     0.034 C 
BRANCH   5   6
ATOM      6  C   UNL     1      23.457  49.364   1.978  1.00  0.00    -0.077 C 
ATOM      7  C   UNL     1      24.121  48.203   2.672  1.00  0.00     0.039 C 
ATOM      8  C   UNL     1      22.623  49.090   0.948  1.00  0.00    -0.023 CG0
ATOM      9  G   UNL     1      21.816  50.111   0.180  1.00  0.00     0.000 G0
ENDBRANCH   5   6
ENDBRANCH   4   5
ENDBRANCH   2   4
BRANCH   1  10
ATOM     10  C   UNL     1      24.881  51.588  -0.575  1.00  0.00     0.111 C 
BRANCH  10  11
ATOM     11  C   UNL     1      23.449  51.784  -0.986  1.00  0.00     0.163 C 
ATOM     12  O   UNL     1      23.028  52.947  -1.227  1.00  0.00    -0.294 OA
BRANCH  11  13
ATOM     13  C   UNL     1      22.512  50.636  -1.091  1.00  0.00    -0.002 C 
ATOM     14  C   UNL     1      22.276  50.050  -2.297  1.00  0.00    -0.069 C 
ATOM     15  C   UNL     1      21.367  48.849  -2.416  1.00  0.00     0.039 C 
ATOM     16  C   UNL     1      22.880  50.605  -3.568  1.00  0.00     0.039 C 
BRANCH  13  17
ATOM     17  C   UNL     1      21.820  50.124   0.168  1.00  0.00     0.066 CG0
ATOM     18  G   UNL     1      22.631  49.108   0.937  1.00  0.00     0.000 G0
ENDBRANCH  13  17
ENDBRANCH  11  13
ENDBRANCH  10  11
ENDBRANCH   1  10
TORSDOF 0
ENDMDL
MODEL 5
REMARK VINA RESULT:    -2.931      2.466      5.340
REMARK INTER + INTRA:          -3.830
REMARK INTER:                  -4.251
REMARK INTRA:                   0.420
REMARK UNBOUND:                 0.299
REMARK SMILES CC1=CCC(=C(C)C)C(=O)CC(C)=CCC1
REMARK SMILES IDX 12 1 14 2 13 3 15 4 16 5 2 6 1 7 3 8 11 10 9 11 10 12 5 13
REMARK SMILES IDX 6 14 7 15 8 16 4 17
REMARK H PARENT
REMARK Flexibility Score: 60.00
ROOT
ATOM      1  C   UNL     1      22.280  49.376  -1.977  1.00  0.00    -0.070 C 
ATOM      2  C   UNL     1      22.592  50.532  -2.608  1.00  0.00    -0.027 C 
ATOM      3  C   UNL     1      21.064  48.619  -2.445  1.00  0.00     0.039 C 
ENDROOT
BRANCH   2   4
ATOM      4  C   UNL     1      23.735  51.448  -2.234  1.00  0.00     0.032 C 
BRANCH   4   5
ATOM      5  C   UNL     1      23.277  52.566  -1.285  1.00  0.00     0.034 C 
BRANCH   5   6
ATOM      6  C   UNL     1      24.277  52.873  -0.179  1.00  0.00    -0.077 C 
ATOM      7  C   UNL     1      25.452  53.765  -0.489  1.00  0.00     0.039 C 
ATOM      8  C   UNL     1      24.178  52.372   1.073  1.00  0.00    -0.023 CG0
ATOM      9  G   UNL     1      23.041  51.522   1.589  1.00  0.00     0.000 G0
ENDBRANCH   5   6
ENDBRANCH   4   5
ENDBRANCH   2   4
BRANCH   1  10
ATOM     10  C   UNL     1      23.098  48.816  -0.830  1.00  0.00     0.111 C 
BRANCH  10  11
ATOM     11  C   UNL     1      22.514  49.216   0.497  1.00  0.00     0.163 C 
ATOM     12  O   UNL     1      21.330  48.888   0.776  1.00  0.00    -0.294 OA
BRANCH  11  13
ATOM     13  C   UNL     1      23.299  50.010   1.477  1.00  0.00    -0.002 C 
ATOM     14  C   UNL     1      24.230  49.404   2.264  1.00  0.00    -0.069 C 
ATOM     15  C   UNL     1      25.074  50.203   3.229  1.00  0.00     0.039 C 
ATOM     16  C   UNL     1      24.425  47.904   2.231  1.00  0.00     0.039 C 
BRANCH  13  17
ATOM     17  C   UNL     1      23.046  51.510   1.590  1.00  0.00     0.066 CG0
ATOM     18  G   UNL     1      24.185  52.358   1.075  1.00  0.00     0.000 G0
ENDBRANCH  13  17
ENDBRANCH  11  13
ENDBRANCH  10  11
ENDBRANCH   1  10
TORSDOF 0
ENDMDL
MODEL 6
REMARK VINA RESULT:    -2.813      5.870      7.902
REMARK INTER + INTRA:          -3.665
REMARK INTER:                  -3.971
REMARK INTRA:                   0.306
REMARK UNBOUND:                 0.299
REMARK SMILES CC1=CCC(=C(C)C)C(=O)CC(C)=CCC1
REMARK SMILES IDX 12 1 14 2 13 3 15 4 16 5 2 6 1 7 3 8 11 10 9 11 10 12 5 13
REMARK SMILES IDX 6 14 7 15 8 16 4 17
REMARK H PARENT
REMARK Flexibility Score: 60.00
ROOT
ATOM      1  C   UNL     1      20.961  55.301  -6.815  1.00  0.00    -0.070 C 
ATOM      2  C   UNL     1      19.777  55.729  -7.313  1.00  0.00    -0.027 C 
ATOM      3  C   UNL     1      22.188  56.132  -7.091  1.00  0.00     0.039 C 
ENDROOT
BRANCH   2   4
ATOM      4  C   UNL     1      18.463  54.993  -7.187  1.00  0.00     0.032 C 
BRANCH   4   5
ATOM      5  C   UNL     1      18.395  53.787  -8.136  1.00  0.00     0.034 C 
BRANCH   5   6
ATOM      6  C   UNL     1      17.844  52.528  -7.482  1.00  0.00    -0.077 C 
ATOM      7  C   UNL     1      16.418  52.526  -6.993  1.00  0.00     0.039 C 
ATOM      8  C   UNL     1      18.575  51.405  -7.297  1.00  0.00    -0.023 CG0
ATOM      9  G   UNL     1      19.992  51.193  -7.779  1.00  0.00     0.000 G0
ENDBRANCH   5   6
ENDBRANCH   4   5
ENDBRANCH   2   4
BRANCH   1  10
ATOM     10  C   UNL     1      21.102  54.033  -5.996  1.00  0.00     0.111 C 
BRANCH  10  11
ATOM     11  C   UNL     1      21.657  52.910  -6.828  1.00  0.00     0.163 C 
ATOM     12  O   UNL     1      22.625  53.134  -7.602  1.00  0.00    -0.294 OA
BRANCH  11  13
ATOM     13  C   UNL     1      21.070  51.546  -6.773  1.00  0.00    -0.002 C 
ATOM     14  C   UNL     1      21.495  50.654  -5.836  1.00  0.00    -0.069 C 
ATOM     15  C   UNL     1      20.874  49.280  -5.731  1.00  0.00     0.039 C 
ATOM     16  C   UNL     1      22.631  50.988  -4.895  1.00  0.00     0.039 C 
BRANCH  13  17
ATOM     17  C   UNL     1      19.990  51.161  -7.778  1.00  0.00     0.066 CG0
ATOM     18  G   UNL     1      18.584  51.425  -7.290  1.00  0.00     0.000 G0
ENDBRANCH  13  17
ENDBRANCH  11  13
ENDBRANCH  10  11
ENDBRANCH   1  10
TORSDOF 0
ENDMDL
MODEL 7
REMARK VINA RESULT:    -2.659      1.496      1.806
REMARK INTER + INTRA:          -3.448
REMARK INTER:                  -4.013
REMARK INTRA:                   0.564
REMARK UNBOUND:                 0.299
REMARK SMILES CC1=CCC(=C(C)C)C(=O)CC(C)=CCC1
REMARK SMILES IDX 12 1 14 2 13 3 15 4 16 5 2 6 1 7 3 8 11 10 9 11 10 12 5 13
REMARK SMILES IDX 6 14 7 15 8 16 4 17
REMARK H PARENT
REMARK Flexibility Score: 60.00
ROOT
ATOM      1  C   UNL     1      23.154  51.347   0.466  1.00  0.00    -0.070 C 
ATOM      2  C   UNL     1      22.057  51.662   1.194  1.00  0.00    -0.027 C 
ATOM      3  C   UNL     1      23.411  52.124  -0.800  1.00  0.00     0.039 C 
ENDROOT
BRANCH   2   4
ATOM      4  C   UNL     1      21.613  50.950   2.452  1.00  0.00     0.032 C 
BRANCH   4   5
ATOM      5  C   UNL     1      20.298  50.186   2.236  1.00  0.00     0.034 C 
BRANCH   5   6
ATOM      6  C   UNL     1      20.470  48.675   2.199  1.00  0.00    -0.077 C 
ATOM      7  C   UNL     1      20.197  47.881   3.451  1.00  0.00     0.039 C 
ATOM      8  C   UNL     1      20.875  47.999   1.099  1.00  0.00    -0.023 CG0
ATOM      9  G   UNL     1      21.128  48.608  -0.260  1.00  0.00     0.000 G0
ENDBRANCH   5   6
ENDBRANCH   4   5
ENDBRANCH   2   4
BRANCH   1  10
ATOM     10  C   UNL     1      24.127  50.256   0.869  1.00  0.00     0.111 C 
BRANCH  10  11
ATOM     11  C   UNL     1      23.615  48.900   0.470  1.00  0.00     0.163 C 
ATOM     12  O   UNL     1      24.048  47.876   1.063  1.00  0.00    -0.294 OA
BRANCH  11  13
ATOM     13  C   UNL     1      22.625  48.741  -0.627  1.00  0.00    -0.002 C 
ATOM     14  C   UNL     1      23.037  48.719  -1.924  1.00  0.00    -0.069 C 
ATOM     15  C   UNL     1      22.052  48.506  -3.051  1.00  0.00     0.039 C 
ATOM     16  C   UNL     1      24.486  48.948  -2.290  1.00  0.00     0.039 C 
BRANCH  13  17
ATOM     17  C   UNL     1      21.147  48.605  -0.279  1.00  0.00     0.066 CG0
ATOM     18  G   UNL     1      20.896  48.015   1.089  1.00  0.00     0.000 G0
ENDBRANCH  13  17
ENDBRANCH  11  13
ENDBRANCH  10  11
ENDBRANCH   1  10
TORSDOF 0
ENDMDL
MODEL 8
REMARK VINA RESULT:    -2.566      7.408      8.317
REMARK INTER + INTRA:          -3.317
REMARK INTER:                  -3.756
REMARK INTRA:                   0.439
REMARK UNBOUND:                 0.299
REMARK SMILES CC1=CCC(=C(C)C)C(=O)CC(C)=CCC1
REMARK SMILES IDX 12 1 14 2 13 3 15 4 16 5 2 6 1 7 3 8 11 10 9 11 10 12 5 13
REMARK SMILES IDX 6 14 7 15 8 16 4 17
REMARK H PARENT
REMARK Flexibility Score: 60.00
ROOT
ATOM      1  C   UNL     1      21.523  54.249  -7.169  1.00  0.00    -0.070 C 
ATOM      2  C   UNL     1      20.699  55.225  -6.722  1.00  0.00    -0.027 C 
ATOM      3  C   UNL     1      22.702  54.650  -8.018  1.00  0.00     0.039 C 
ENDROOT
BRANCH   2   4
ATOM      4  C   UNL     1      19.441  55.001  -5.914  1.00  0.00     0.032 C 
BRANCH   4   5
ATOM      5  C   UNL     1      18.185  55.043  -6.797  1.00  0.00     0.034 C 
BRANCH   5   6
ATOM      6  C   UNL     1      17.164  53.967  -6.457  1.00  0.00    -0.077 C 
ATOM      7  C   UNL     1      16.147  54.245  -5.379  1.00  0.00     0.039 C 
ATOM      8  C   UNL     1      17.128  52.757  -7.061  1.00  0.00    -0.023 CG0
ATOM      9  G   UNL     1      18.015  52.323  -8.204  1.00  0.00     0.000 G0
ENDBRANCH   5   6
ENDBRANCH   4   5
ENDBRANCH   2   4
BRANCH   1  10
ATOM     10  C   UNL     1      21.313  52.781  -6.850  1.00  0.00     0.111 C 
BRANCH  10  11
ATOM     11  C   UNL     1      20.591  52.083  -7.969  1.00  0.00     0.163 C 
ATOM     12  O   UNL     1      21.136  52.005  -9.103  1.00  0.00    -0.294 OA
BRANCH  11  13
ATOM     13  C   UNL     1      19.237  51.504  -7.772  1.00  0.00    -0.002 C 
ATOM     14  C   UNL     1      19.092  50.276  -7.203  1.00  0.00    -0.069 C 
ATOM     15  C   UNL     1      17.722  49.692  -6.947  1.00  0.00     0.039 C 
ATOM     16  C   UNL     1      20.296  49.432  -6.847  1.00  0.00     0.039 C 
BRANCH  13  17
ATOM     17  C   UNL     1      18.016  52.303  -8.214  1.00  0.00     0.066 CG0
ATOM     18  G   UNL     1      17.132  52.745  -7.072  1.00  0.00     0.000 G0
ENDBRANCH  13  17
ENDBRANCH  11  13
ENDBRANCH  10  11
ENDBRANCH   1  10
TORSDOF 0
ENDMDL
MODEL 9
REMARK VINA RESULT:    -2.557      2.352      2.985
REMARK INTER + INTRA:          -3.304
REMARK INTER:                  -3.948
REMARK INTRA:                   0.645
REMARK UNBOUND:                 0.299
REMARK SMILES CC1=CCC(=C(C)C)C(=O)CC(C)=CCC1
REMARK SMILES IDX 12 1 14 2 13 3 15 4 16 5 2 6 1 7 3 8 11 10 9 11 10 12 5 13
REMARK SMILES IDX 6 14 7 15 8 16 4 17
REMARK H PARENT
REMARK Flexibility Score: 60.00
ROOT
ATOM      1  C   UNL     1      24.517  51.655   1.251  1.00  0.00    -0.070 C 
ATOM      2  C   UNL     1      25.292  51.051   2.182  1.00  0.00    -0.027 C 
ATOM      3  C   UNL     1      25.194  52.258   0.047  1.00  0.00     0.039 C 
ENDROOT
BRANCH   2   4
ATOM      4  C   UNL     1      24.792  50.449   3.475  1.00  0.00     0.032 C 
BRANCH   4   5
ATOM      5  C   UNL     1      24.866  48.915   3.453  1.00  0.00     0.034 C 
BRANCH   5   6
ATOM      6  C   UNL     1      23.519  48.244   3.224  1.00  0.00    -0.077 C 
ATOM      7  C   UNL     1      22.678  47.876   4.420  1.00  0.00     0.039 C 
ATOM      8  C   UNL     1      23.037  47.941   1.997  1.00  0.00    -0.023 CG0
ATOM      9  G   UNL     1      23.700  48.292   0.685  1.00  0.00     0.000 G0
ENDBRANCH   5   6
ENDBRANCH   4   5
ENDBRANCH   2   4
BRANCH   1  10
ATOM     10  C   UNL     1      23.008  51.746   1.368  1.00  0.00     0.111 C 
BRANCH  10  11
ATOM     11  C   UNL     1      22.346  50.521   0.802  1.00  0.00     0.163 C 
ATOM     12  O   UNL     1      21.125  50.315   1.032  1.00  0.00    -0.294 OA
BRANCH  11  13
ATOM     13  C   UNL     1      23.111  49.534  -0.005  1.00  0.00    -0.002 C 
ATOM     14  C   UNL     1      23.283  49.727  -1.341  1.00  0.00    -0.069 C 
ATOM     15  C   UNL     1      24.101  48.762  -2.169  1.00  0.00     0.039 C 
ATOM     16  C   UNL     1      22.630  50.889  -2.055  1.00  0.00     0.039 C 
BRANCH  13  17
ATOM     17  C   UNL     1      23.695  48.306   0.684  1.00  0.00     0.066 CG0
ATOM     18  G   UNL     1      23.029  47.971   1.998  1.00  0.00     0.000 G0
ENDBRANCH  13  17
ENDBRANCH  11  13
ENDBRANCH  10  11
ENDBRANCH   1  10
TORSDOF 0
ENDMDL
