MODEL 1
REMARK VINA RESULT:    -3.600      0.000      0.000
REMARK INTER + INTRA:          -4.270
REMARK INTER:                  -4.232
REMARK INTRA:                  -0.038
REMARK UNBOUND:                -0.038
REMARK SMILES CCCCC(=O)[O-]
REMARK SMILES IDX 4 1 5 2 6 3 7 4 3 5 2 6 1 7
REMARK H PARENT
REMARK Flexibility Score: inf
ROOT
ATOM      1  C   UNL     1       5.021  -9.276   3.378  1.00  0.00     0.053 C 
ENDROOT
BRANCH   1   2
ATOM      2  C   UNL     1       3.737  -9.350   2.615  1.00  0.00     0.041 C 
ATOM      3  O   UNL     1       3.070 -10.417   2.598  1.00  0.00    -0.550 OA
ATOM      4  O   UNL     1       3.300  -8.254   1.880  1.00  0.00    -0.550 OA
ENDBRANCH   1   2
BRANCH   1   5
ATOM      5  C   UNL     1       4.825  -9.798   4.807  1.00  0.00     0.006 C 
BRANCH   5   6
ATOM      6  C   UNL     1       5.754  -9.109   5.819  1.00  0.00    -0.003 C 
ATOM      7  C   UNL     1       6.654  -8.056   5.174  1.00  0.00     0.004 C 
ENDBRANCH   5   6
ENDBRANCH   1   5
TORSDOF 3
ENDMDL
MODEL 2
REMARK VINA RESULT:    -3.586      0.089      1.227
REMARK INTER + INTRA:          -4.253
REMARK INTER:                  -4.216
REMARK INTRA:                  -0.037
REMARK UNBOUND:                -0.038
REMARK SMILES CCCCC(=O)[O-]
REMARK SMILES IDX 4 1 5 2 6 3 7 4 3 5 2 6 1 7
REMARK H PARENT
REMARK Flexibility Score: inf
ROOT
ATOM      1  C   UNL     1       4.999  -9.262   3.374  1.00  0.00     0.053 C 
ENDROOT
BRANCH   1   2
ATOM      2  C   UNL     1       3.730  -9.365   2.588  1.00  0.00     0.041 C 
ATOM      3  O   UNL     1       3.309  -8.378   1.931  1.00  0.00    -0.550 OA
ATOM      4  O   UNL     1       2.985 -10.538   2.620  1.00  0.00    -0.550 OA
ENDBRANCH   1   2
BRANCH   1   5
ATOM      5  C   UNL     1       4.789  -9.789   4.800  1.00  0.00     0.006 C 
BRANCH   5   6
ATOM      6  C   UNL     1       5.662  -9.058   5.832  1.00  0.00    -0.003 C 
ATOM      7  C   UNL     1       6.641  -8.076   5.189  1.00  0.00     0.004 C 
ENDBRANCH   5   6
ENDBRANCH   1   5
TORSDOF 3
ENDMDL
MODEL 3
REMARK VINA RESULT:    -3.239      1.116      1.194
REMARK INTER + INTRA:          -3.845
REMARK INTER:                  -3.739
REMARK INTRA:                  -0.106
REMARK UNBOUND:                -0.038
REMARK SMILES CCCCC(=O)[O-]
REMARK SMILES IDX 4 1 5 2 6 3 7 4 3 5 2 6 1 7
REMARK H PARENT
REMARK Flexibility Score: inf
ROOT
ATOM      1  C   UNL     1       4.635 -10.775   4.370  1.00  0.00     0.053 C 
ENDROOT
BRANCH   1   2
ATOM      2  C   UNL     1       4.085 -10.339   3.049  1.00  0.00     0.041 C 
ATOM      3  O   UNL     1       2.896 -10.610   2.736  1.00  0.00    -0.550 OA
ATOM      4  O   UNL     1       4.901  -9.675   2.140  1.00  0.00    -0.550 OA
ENDBRANCH   1   2
BRANCH   1   5
ATOM      5  C   UNL     1       4.603  -9.615   5.372  1.00  0.00     0.006 C 
BRANCH   5   6
ATOM      6  C   UNL     1       6.009  -9.153   5.785  1.00  0.00    -0.003 C 
ATOM      7  C   UNL     1       6.567  -8.065   4.867  1.00  0.00     0.004 C 
ENDBRANCH   5   6
ENDBRANCH   1   5
TORSDOF 3
ENDMDL
MODEL 4
REMARK VINA RESULT:    -3.110      1.464      1.749
REMARK INTER + INTRA:          -3.694
REMARK INTER:                  -3.589
REMARK INTRA:                  -0.105
REMARK UNBOUND:                -0.038
REMARK SMILES CCCCC(=O)[O-]
REMARK SMILES IDX 4 1 5 2 6 3 7 4 3 5 2 6 1 7
REMARK H PARENT
REMARK Flexibility Score: inf
ROOT
ATOM      1  C   UNL     1       4.050 -10.724   3.655  1.00  0.00     0.053 C 
ENDROOT
BRANCH   1   2
ATOM      2  C   UNL     1       4.281  -9.469   2.874  1.00  0.00     0.041 C 
ATOM      3  O   UNL     1       3.450  -9.103   2.002  1.00  0.00    -0.550 OA
ATOM      4  O   UNL     1       5.440  -8.728   3.074  1.00  0.00    -0.550 OA
ENDBRANCH   1   2
BRANCH   1   5
ATOM      5  C   UNL     1       4.074 -10.429   5.160  1.00  0.00     0.006 C 
BRANCH   5   6
ATOM      6  C   UNL     1       5.344 -10.959   5.844  1.00  0.00    -0.003 C 
ATOM      7  C   UNL     1       6.243  -9.841   6.371  1.00  0.00     0.004 C 
ENDBRANCH   5   6
ENDBRANCH   1   5
TORSDOF 3
ENDMDL
MODEL 5
REMARK VINA RESULT:    -3.098     20.500     20.881
REMARK INTER + INTRA:          -3.680
REMARK INTER:                  -3.643
REMARK INTRA:                  -0.037
REMARK UNBOUND:                -0.038
REMARK SMILES CCCCC(=O)[O-]
REMARK SMILES IDX 4 1 5 2 6 3 7 4 3 5 2 6 1 7
REMARK H PARENT
REMARK Flexibility Score: inf
ROOT
ATOM      1  C   UNL     1      -7.354   3.406  -8.586  1.00  0.00     0.053 C 
ENDROOT
BRANCH   1   2
ATOM      2  C   UNL     1      -6.224   2.561  -9.082  1.00  0.00     0.041 C 
ATOM      3  O   UNL     1      -6.436   1.382  -9.471  1.00  0.00    -0.550 OA
ATOM      4  O   UNL     1      -4.926   3.058  -9.070  1.00  0.00    -0.550 OA
ENDBRANCH   1   2
BRANCH   1   5
ATOM      5  C   UNL     1      -8.569   2.531  -8.251  1.00  0.00     0.006 C 
BRANCH   5   6
ATOM      6  C   UNL     1      -8.979   2.635  -6.773  1.00  0.00    -0.003 C 
ATOM      7  C   UNL     1     -10.125   1.692  -6.409  1.00  0.00     0.004 C 
ENDBRANCH   5   6
ENDBRANCH   1   5
TORSDOF 3
ENDMDL
MODEL 6
REMARK VINA RESULT:    -3.097     13.165     13.813
REMARK INTER + INTRA:          -3.678
REMARK INTER:                  -3.654
REMARK INTRA:                  -0.024
REMARK UNBOUND:                -0.038
REMARK SMILES CCCCC(=O)[O-]
REMARK SMILES IDX 4 1 5 2 6 3 7 4 3 5 2 6 1 7
REMARK H PARENT
REMARK Flexibility Score: inf
ROOT
ATOM      1  C   UNL     1      -6.480  -9.465  -5.262  1.00  0.00     0.053 C 
ENDROOT
BRANCH   1   2
ATOM      2  C   UNL     1      -6.719  -9.252  -3.801  1.00  0.00     0.041 C 
ATOM      3  O   UNL     1      -5.854  -9.611  -2.959  1.00  0.00    -0.550 OA
ATOM      4  O   UNL     1      -7.918  -8.702  -3.364  1.00  0.00    -0.550 OA
ENDBRANCH   1   2
BRANCH   1   5
ATOM      5  C   UNL     1      -5.033  -9.910  -5.509  1.00  0.00     0.006 C 
BRANCH   5   6
ATOM      6  C   UNL     1      -4.528  -9.522  -6.908  1.00  0.00    -0.003 C 
ATOM      7  C   UNL     1      -3.144  -8.875  -6.879  1.00  0.00     0.004 C 
ENDBRANCH   5   6
ENDBRANCH   1   5
TORSDOF 3
ENDMDL
MODEL 7
REMARK VINA RESULT:    -3.066     20.509     21.347
REMARK INTER + INTRA:          -3.641
REMARK INTER:                  -3.572
REMARK INTRA:                  -0.069
REMARK UNBOUND:                -0.038
REMARK SMILES CCCCC(=O)[O-]
REMARK SMILES IDX 4 1 5 2 6 3 7 4 3 5 2 6 1 7
REMARK H PARENT
REMARK Flexibility Score: inf
ROOT
ATOM      1  C   UNL     1      -5.207   4.130  -9.857  1.00  0.00     0.053 C 
ENDROOT
BRANCH   1   2
ATOM      2  C   UNL     1      -4.999   5.420  -9.128  1.00  0.00     0.041 C 
ATOM      3  O   UNL     1      -5.033   5.450  -7.870  1.00  0.00    -0.550 OA
ATOM      4  O   UNL     1      -4.815   6.599  -9.840  1.00  0.00    -0.550 OA
ENDBRANCH   1   2
BRANCH   1   5
ATOM      5  C   UNL     1      -5.268   2.960  -8.867  1.00  0.00     0.006 C 
BRANCH   5   6
ATOM      6  C   UNL     1      -6.449   2.015  -9.143  1.00  0.00    -0.003 C 
ATOM      7  C   UNL     1      -7.709   2.402  -8.370  1.00  0.00     0.004 C 
ENDBRANCH   5   6
ENDBRANCH   1   5
TORSDOF 3
ENDMDL
MODEL 8
REMARK VINA RESULT:    -3.057     14.719     15.997
REMARK INTER + INTRA:          -3.632
REMARK INTER:                  -3.615
REMARK INTRA:                  -0.016
REMARK UNBOUND:                -0.038
REMARK SMILES CCCCC(=O)[O-]
REMARK SMILES IDX 4 1 5 2 6 3 7 4 3 5 2 6 1 7
REMARK H PARENT
REMARK Flexibility Score: inf
ROOT
ATOM      1  C   UNL     1      -6.839  -6.832  -7.850  1.00  0.00     0.053 C 
ENDROOT
BRANCH   1   2
ATOM      2  C   UNL     1      -7.141  -5.376  -8.020  1.00  0.00     0.041 C 
ATOM      3  O   UNL     1      -6.416  -4.661  -8.760  1.00  0.00    -0.550 OA
ATOM      4  O   UNL     1      -8.194  -4.798  -7.321  1.00  0.00    -0.550 OA
ENDBRANCH   1   2
BRANCH   1   5
ATOM      5  C   UNL     1      -5.509  -7.019  -7.110  1.00  0.00     0.006 C 
BRANCH   5   6
ATOM      6  C   UNL     1      -5.183  -8.499  -6.850  1.00  0.00    -0.003 C 
ATOM      7  C   UNL     1      -3.685  -8.795  -6.913  1.00  0.00     0.004 C 
ENDBRANCH   5   6
ENDBRANCH   1   5
TORSDOF 3
ENDMDL
MODEL 9
REMARK VINA RESULT:    -3.009     20.428     21.055
REMARK INTER + INTRA:          -3.574
REMARK INTER:                  -3.484
REMARK INTRA:                  -0.091
REMARK UNBOUND:                -0.038
REMARK SMILES CCCCC(=O)[O-]
REMARK SMILES IDX 4 1 5 2 6 3 7 4 3 5 2 6 1 7
REMARK H PARENT
REMARK Flexibility Score: inf
ROOT
ATOM      1  C   UNL     1      -6.218   2.147  -8.941  1.00  0.00     0.053 C 
ENDROOT
BRANCH   1   2
ATOM      2  C   UNL     1      -7.702   2.229  -8.771  1.00  0.00     0.041 C 
ATOM      3  O   UNL     1      -8.198   2.496  -7.645  1.00  0.00    -0.550 OA
ATOM      4  O   UNL     1      -8.541   1.963  -9.847  1.00  0.00    -0.550 OA
ENDBRANCH   1   2
BRANCH   1   5
ATOM      5  C   UNL     1      -5.701   3.363  -9.720  1.00  0.00     0.006 C 
BRANCH   5   6
ATOM      6  C   UNL     1      -4.889   4.325  -8.838  1.00  0.00    -0.003 C 
ATOM      7  C   UNL     1      -5.744   5.441  -8.239  1.00  0.00     0.004 C 
ENDBRANCH   5   6
ENDBRANCH   1   5
TORSDOF 3
ENDMDL
