MODEL 1
REMARK VINA RESULT:    -3.323      0.000      0.000
REMARK INTER + INTRA:          -5.540
REMARK INTER:                  -5.071
REMARK INTRA:                  -0.469
REMARK UNBOUND:                -0.469
REMARK SMILES O=C([O-])CCCCCCCCC(=O)[O-]
REMARK SMILES IDX 7 1 6 2 5 3 4 4 2 5 1 6 3 7 8 8 9 9 10 10 11 11 12 12 13 13
REMARK SMILES IDX 14 14
REMARK H PARENT
REMARK Flexibility Score: inf
ROOT
ATOM      1  C   UNL     1       8.091 -21.471  13.710  1.00  0.00     0.000 C 
ENDROOT
BRANCH   1   2
ATOM      2  C   UNL     1       8.870 -22.684  14.239  1.00  0.00     0.000 C 
BRANCH   2   3
ATOM      3  C   UNL     1       8.334 -23.124  15.610  1.00  0.00     0.006 C 
BRANCH   3   4
ATOM      4  C   UNL     1       6.890 -22.663  15.846  1.00  0.00     0.053 C 
BRANCH   4   5
ATOM      5  C   UNL     1       6.733 -21.976  17.167  1.00  0.00     0.041 C 
ATOM      6  O   UNL     1       7.740 -21.515  17.765  1.00  0.00    -0.550 OA
ATOM      7  O   UNL     1       5.478 -21.874  17.755  1.00  0.00    -0.550 OA
ENDBRANCH   4   5
ENDBRANCH   3   4
ENDBRANCH   2   3
ENDBRANCH   1   2
BRANCH   1   8
ATOM      8  C   UNL     1       8.806 -20.138  13.988  1.00  0.00     0.000 C 
BRANCH   8   9
ATOM      9  C   UNL     1       9.124 -19.357  12.701  1.00  0.00     0.000 C 
BRANCH   9  10
ATOM     10  C   UNL     1       8.422 -19.945  11.467  1.00  0.00     0.006 C 
BRANCH  10  11
ATOM     11  C   UNL     1       7.244 -19.086  10.989  1.00  0.00     0.053 C 
BRANCH  11  12
ATOM     12  C   UNL     1       6.802 -19.517   9.627  1.00  0.00     0.041 C 
ATOM     13  O   UNL     1       6.993 -20.703   9.245  1.00  0.00    -0.550 OA
ATOM     14  O   UNL     1       6.135 -18.626   8.796  1.00  0.00    -0.550 OA
ENDBRANCH  11  12
ENDBRANCH  10  11
ENDBRANCH   9  10
ENDBRANCH   8   9
ENDBRANCH   1   8
TORSDOF 9
ENDMDL
MODEL 2
REMARK VINA RESULT:    -3.274      1.238      6.449
REMARK INTER + INTRA:          -5.465
REMARK INTER:                  -4.931
REMARK INTRA:                  -0.534
REMARK UNBOUND:                -0.469
REMARK SMILES O=C([O-])CCCCCCCCC(=O)[O-]
REMARK SMILES IDX 7 1 6 2 5 3 4 4 2 5 1 6 3 7 8 8 9 9 10 10 11 11 12 12 13 13
REMARK SMILES IDX 14 14
REMARK H PARENT
REMARK Flexibility Score: inf
ROOT
ATOM      1  C   UNL     1       8.916 -19.337  13.056  1.00  0.00     0.000 C 
ENDROOT
BRANCH   1   2
ATOM      2  C   UNL     1       8.651 -20.011  11.702  1.00  0.00     0.000 C 
BRANCH   2   3
ATOM      3  C   UNL     1       7.319 -19.532  11.103  1.00  0.00     0.006 C 
BRANCH   3   4
ATOM      4  C   UNL     1       7.186 -19.891   9.618  1.00  0.00     0.053 C 
BRANCH   4   5
ATOM      5  C   UNL     1       7.522 -21.327   9.360  1.00  0.00     0.041 C 
ATOM      6  O   UNL     1       8.475 -21.627   8.594  1.00  0.00    -0.550 OA
ATOM      7  O   UNL     1       6.759 -22.336   9.937  1.00  0.00    -0.550 OA
ENDBRANCH   4   5
ENDBRANCH   3   4
ENDBRANCH   2   3
ENDBRANCH   1   2
BRANCH   1   8
ATOM      8  C   UNL     1       9.100 -20.351  14.198  1.00  0.00     0.000 C 
BRANCH   8   9
ATOM      9  C   UNL     1       8.767 -21.791  13.771  1.00  0.00     0.000 C 
BRANCH   9  10
ATOM     10  C   UNL     1       8.318 -22.666  14.951  1.00  0.00     0.006 C 
BRANCH  10  11
ATOM     11  C   UNL     1       6.872 -22.384  15.381  1.00  0.00     0.053 C 
BRANCH  11  12
ATOM     12  C   UNL     1       6.828 -21.950  16.811  1.00  0.00     0.041 C 
ATOM     13  O   UNL     1       5.735 -21.938  17.437  1.00  0.00    -0.550 OA
ATOM     14  O   UNL     1       8.002 -21.606  17.471  1.00  0.00    -0.550 OA
ENDBRANCH  11  12
ENDBRANCH  10  11
ENDBRANCH   9  10
ENDBRANCH   8   9
ENDBRANCH   1   8
TORSDOF 9
ENDMDL
MODEL 3
REMARK VINA RESULT:    -3.221      1.364      1.885
REMARK INTER + INTRA:          -5.384
REMARK INTER:                  -4.757
REMARK INTRA:                  -0.627
REMARK UNBOUND:                -0.469
REMARK SMILES O=C([O-])CCCCCCCCC(=O)[O-]
REMARK SMILES IDX 7 1 6 2 5 3 4 4 2 5 1 6 3 7 8 8 9 9 10 10 11 11 12 12 13 13
REMARK SMILES IDX 14 14
REMARK H PARENT
REMARK Flexibility Score: inf
ROOT
ATOM      1  C   UNL     1       7.146 -22.000  12.638  1.00  0.00     0.000 C 
ENDROOT
BRANCH   1   2
ATOM      2  C   UNL     1       8.204 -21.348  13.542  1.00  0.00     0.000 C 
BRANCH   2   3
ATOM      3  C   UNL     1       8.378 -22.146  14.843  1.00  0.00     0.006 C 
BRANCH   3   4
ATOM      4  C   UNL     1       7.034 -22.542  15.468  1.00  0.00     0.053 C 
BRANCH   4   5
ATOM      5  C   UNL     1       6.869 -21.971  16.843  1.00  0.00     0.041 C 
ATOM      6  O   UNL     1       7.873 -21.568  17.486  1.00  0.00    -0.550 OA
ATOM      7  O   UNL     1       5.609 -21.918  17.428  1.00  0.00    -0.550 OA
ENDBRANCH   4   5
ENDBRANCH   3   4
ENDBRANCH   2   3
ENDBRANCH   1   2
BRANCH   1   8
ATOM      8  C   UNL     1       7.724 -22.472  11.293  1.00  0.00     0.000 C 
BRANCH   8   9
ATOM      9  C   UNL     1       9.052 -21.777  10.943  1.00  0.00     0.000 C 
BRANCH   9  10
ATOM     10  C   UNL     1       8.895 -20.736   9.824  1.00  0.00     0.006 C 
BRANCH  10  11
ATOM     11  C   UNL     1       7.447 -20.609   9.331  1.00  0.00     0.053 C 
BRANCH  11  12
ATOM     12  C   UNL     1       6.865 -19.298   9.753  1.00  0.00     0.041 C 
ATOM     13  O   UNL     1       6.167 -18.626   8.948  1.00  0.00    -0.550 OA
ATOM     14  O   UNL     1       7.051 -18.838  11.051  1.00  0.00    -0.550 OA
ENDBRANCH  11  12
ENDBRANCH  10  11
ENDBRANCH   9  10
ENDBRANCH   8   9
ENDBRANCH   1   8
TORSDOF 9
ENDMDL
MODEL 4
REMARK VINA RESULT:    -2.895     17.065     19.421
REMARK INTER + INTRA:          -4.888
REMARK INTER:                  -4.387
REMARK INTRA:                  -0.501
REMARK UNBOUND:                -0.469
REMARK SMILES O=C([O-])CCCCCCCCC(=O)[O-]
REMARK SMILES IDX 7 1 6 2 5 3 4 4 2 5 1 6 3 7 8 8 9 9 10 10 11 11 12 12 13 13
REMARK SMILES IDX 14 14
REMARK H PARENT
REMARK Flexibility Score: inf
ROOT
ATOM      1  C   UNL     1     -10.481 -18.748  19.567  1.00  0.00     0.000 C 
ENDROOT
BRANCH   1   2
ATOM      2  C   UNL     1     -11.123 -18.804  18.173  1.00  0.00     0.000 C 
BRANCH   2   3
ATOM      3  C   UNL     1     -10.859 -20.161  17.502  1.00  0.00     0.006 C 
BRANCH   3   4
ATOM      4  C   UNL     1     -10.499 -20.017  16.018  1.00  0.00     0.053 C 
BRANCH   4   5
ATOM      5  C   UNL     1      -9.274 -20.802  15.664  1.00  0.00     0.041 C 
ATOM      6  O   UNL     1      -8.846 -20.809  14.480  1.00  0.00    -0.550 OA
ATOM      7  O   UNL     1      -8.624 -21.554  16.635  1.00  0.00    -0.550 OA
ENDBRANCH   4   5
ENDBRANCH   3   4
ENDBRANCH   2   3
ENDBRANCH   1   2
BRANCH   1   8
ATOM      8  C   UNL     1     -10.111 -20.140  20.107  1.00  0.00     0.000 C 
BRANCH   8   9
ATOM      9  C   UNL     1     -11.118 -20.657  21.150  1.00  0.00     0.000 C 
BRANCH   9  10
ATOM     10  C   UNL     1     -10.564 -20.599  22.582  1.00  0.00     0.006 C 
BRANCH  10  11
ATOM     11  C   UNL     1      -9.031 -20.555  22.623  1.00  0.00     0.053 C 
BRANCH  11  12
ATOM     12  C   UNL     1      -8.477 -21.919  22.886  1.00  0.00     0.041 C 
ATOM     13  O   UNL     1      -8.694 -22.489  23.989  1.00  0.00    -0.550 OA
ATOM     14  O   UNL     1      -7.764 -22.585  21.897  1.00  0.00    -0.550 OA
ENDBRANCH  11  12
ENDBRANCH  10  11
ENDBRANCH   9  10
ENDBRANCH   8   9
ENDBRANCH   1   8
TORSDOF 9
ENDMDL
MODEL 5
REMARK VINA RESULT:    -2.816     15.612     18.319
REMARK INTER + INTRA:          -4.766
REMARK INTER:                  -3.782
REMARK INTRA:                  -0.984
REMARK UNBOUND:                -0.469
REMARK SMILES O=C([O-])CCCCCCCCC(=O)[O-]
REMARK SMILES IDX 7 1 6 2 5 3 4 4 2 5 1 6 3 7 8 8 9 9 10 10 11 11 12 12 13 13
REMARK SMILES IDX 14 14
REMARK H PARENT
REMARK Flexibility Score: inf
ROOT
ATOM      1  C   UNL     1     -10.141 -20.799  17.800  1.00  0.00     0.000 C 
ENDROOT
BRANCH   1   2
ATOM      2  C   UNL     1     -10.354 -22.313  17.951  1.00  0.00     0.000 C 
BRANCH   2   3
ATOM      3  C   UNL     1      -9.010 -23.043  18.098  1.00  0.00     0.006 C 
BRANCH   3   4
ATOM      4  C   UNL     1      -7.818 -22.077  18.082  1.00  0.00     0.053 C 
BRANCH   4   5
ATOM      5  C   UNL     1      -6.791 -22.478  17.068  1.00  0.00     0.041 C 
ATOM      6  O   UNL     1      -7.070 -22.459  15.841  1.00  0.00    -0.550 OA
ATOM      7  O   UNL     1      -5.535 -22.907  17.482  1.00  0.00    -0.550 OA
ENDBRANCH   4   5
ENDBRANCH   3   4
ENDBRANCH   2   3
ENDBRANCH   1   2
BRANCH   1   8
ATOM      8  C   UNL     1     -10.819 -19.990  18.918  1.00  0.00     0.000 C 
BRANCH   8   9
ATOM      9  C   UNL     1      -9.891 -19.754  20.123  1.00  0.00     0.000 C 
BRANCH   9  10
ATOM     10  C   UNL     1     -10.462 -20.332  21.427  1.00  0.00     0.006 C 
BRANCH  10  11
ATOM     11  C   UNL     1     -10.131 -21.819  21.612  1.00  0.00     0.053 C 
BRANCH  11  12
ATOM     12  C   UNL     1      -8.729 -21.983  22.109  1.00  0.00     0.041 C 
ATOM     13  O   UNL     1      -7.951 -22.802  21.551  1.00  0.00    -0.550 OA
ATOM     14  O   UNL     1      -8.264 -21.196  23.155  1.00  0.00    -0.550 OA
ENDBRANCH  11  12
ENDBRANCH  10  11
ENDBRANCH   9  10
ENDBRANCH   8   9
ENDBRANCH   1   8
TORSDOF 9
ENDMDL
MODEL 6
REMARK VINA RESULT:    -2.782     16.960     19.135
REMARK INTER + INTRA:          -4.715
REMARK INTER:                  -4.177
REMARK INTRA:                  -0.537
REMARK UNBOUND:                -0.469
REMARK SMILES O=C([O-])CCCCCCCCC(=O)[O-]
REMARK SMILES IDX 7 1 6 2 5 3 4 4 2 5 1 6 3 7 8 8 9 9 10 10 11 11 12 12 13 13
REMARK SMILES IDX 14 14
REMARK H PARENT
REMARK Flexibility Score: inf
ROOT
ATOM      1  C   UNL     1      -8.454 -21.687  18.850  1.00  0.00     0.000 C 
ENDROOT
BRANCH   1   2
ATOM      2  C   UNL     1      -9.885 -21.135  18.770  1.00  0.00     0.000 C 
BRANCH   2   3
ATOM      3  C   UNL     1     -10.558 -21.545  17.451  1.00  0.00     0.006 C 
BRANCH   3   4
ATOM      4  C   UNL     1     -10.749 -20.356  16.500  1.00  0.00     0.053 C 
BRANCH   4   5
ATOM      5  C   UNL     1      -9.902 -20.485  15.272  1.00  0.00     0.041 C 
ATOM      6  O   UNL     1     -10.365 -20.164  14.146  1.00  0.00    -0.550 OA
ATOM      7  O   UNL     1      -8.612 -20.993  15.366  1.00  0.00    -0.550 OA
ENDBRANCH   4   5
ENDBRANCH   3   4
ENDBRANCH   2   3
ENDBRANCH   1   2
BRANCH   1   8
ATOM      8  C   UNL     1      -8.375 -23.024  19.607  1.00  0.00     0.000 C 
BRANCH   8   9
ATOM      9  C   UNL     1      -7.611 -22.906  20.937  1.00  0.00     0.000 C 
BRANCH   9  10
ATOM     10  C   UNL     1      -8.518 -23.122  22.158  1.00  0.00     0.006 C 
BRANCH  10  11
ATOM     11  C   UNL     1      -8.527 -21.919  23.111  1.00  0.00     0.053 C 
BRANCH  11  12
ATOM     12  C   UNL     1      -9.842 -21.209  23.041  1.00  0.00     0.041 C 
ATOM     13  O   UNL     1     -10.790 -21.556  23.793  1.00  0.00    -0.550 OA
ATOM     14  O   UNL     1     -10.006 -20.130  22.181  1.00  0.00    -0.550 OA
ENDBRANCH  11  12
ENDBRANCH  10  11
ENDBRANCH   9  10
ENDBRANCH   8   9
ENDBRANCH   1   8
TORSDOF 9
ENDMDL
MODEL 7
REMARK VINA RESULT:    -2.781      2.063      3.152
REMARK INTER + INTRA:          -4.714
REMARK INTER:                  -4.247
REMARK INTRA:                  -0.467
REMARK UNBOUND:                -0.469
REMARK SMILES O=C([O-])CCCCCCCCC(=O)[O-]
REMARK SMILES IDX 7 1 6 2 5 3 4 4 2 5 1 6 3 7 8 8 9 9 10 10 11 11 12 12 13 13
REMARK SMILES IDX 14 14
REMARK H PARENT
REMARK Flexibility Score: inf
ROOT
ATOM      1  C   UNL     1       7.728 -22.528  16.526  1.00  0.00     0.000 C 
ENDROOT
BRANCH   1   2
ATOM      2  C   UNL     1       6.873 -21.447  17.205  1.00  0.00     0.000 C 
BRANCH   2   3
ATOM      3  C   UNL     1       5.431 -21.938  17.409  1.00  0.00     0.006 C 
BRANCH   3   4
ATOM      4  C   UNL     1       4.913 -22.740  16.209  1.00  0.00     0.053 C 
BRANCH   4   5
ATOM      5  C   UNL     1       3.463 -22.474  15.945  1.00  0.00     0.041 C 
ATOM      6  O   UNL     1       2.815 -21.698  16.694  1.00  0.00    -0.550 OA
ATOM      7  O   UNL     1       2.818 -23.113  14.892  1.00  0.00    -0.550 OA
ENDBRANCH   4   5
ENDBRANCH   3   4
ENDBRANCH   2   3
ENDBRANCH   1   2
BRANCH   1   8
ATOM      8  C   UNL     1       8.677 -21.952  15.463  1.00  0.00     0.000 C 
BRANCH   8   9
ATOM      9  C   UNL     1       8.222 -22.271  14.028  1.00  0.00     0.000 C 
BRANCH   9  10
ATOM     10  C   UNL     1       8.271 -21.042  13.107  1.00  0.00     0.006 C 
BRANCH  10  11
ATOM     11  C   UNL     1       7.256 -21.121  11.959  1.00  0.00     0.053 C 
BRANCH  11  12
ATOM     12  C   UNL     1       7.511 -20.035  10.962  1.00  0.00     0.041 C 
ATOM     13  O   UNL     1       6.751 -19.031  10.911  1.00  0.00    -0.550 OA
ATOM     14  O   UNL     1       8.616 -20.104  10.123  1.00  0.00    -0.550 OA
ENDBRANCH  11  12
ENDBRANCH  10  11
ENDBRANCH   9  10
ENDBRANCH   8   9
ENDBRANCH   1   8
TORSDOF 9
ENDMDL
MODEL 8
REMARK VINA RESULT:    -2.756     16.722     17.890
REMARK INTER + INTRA:          -4.674
REMARK INTER:                  -4.229
REMARK INTRA:                  -0.446
REMARK UNBOUND:                -0.469
REMARK SMILES O=C([O-])CCCCCCCCC(=O)[O-]
REMARK SMILES IDX 7 1 6 2 5 3 4 4 2 5 1 6 3 7 8 8 9 9 10 10 11 11 12 12 13 13
REMARK SMILES IDX 14 14
REMARK H PARENT
REMARK Flexibility Score: inf
ROOT
ATOM      1  C   UNL     1      -8.213 -22.539  18.579  1.00  0.00     0.000 C 
ENDROOT
BRANCH   1   2
ATOM      2  C   UNL     1      -7.594 -23.023  19.899  1.00  0.00     0.000 C 
BRANCH   2   3
ATOM      3  C   UNL     1      -8.632 -23.004  21.031  1.00  0.00     0.006 C 
BRANCH   3   4
ATOM      4  C   UNL     1      -8.064 -22.423  22.332  1.00  0.00     0.053 C 
BRANCH   4   5
ATOM      5  C   UNL     1      -9.055 -21.539  23.026  1.00  0.00     0.041 C 
ATOM      6  O   UNL     1      -9.916 -22.037  23.798  1.00  0.00    -0.550 OA
ATOM      7  O   UNL     1      -9.049 -20.169  22.793  1.00  0.00    -0.550 OA
ENDBRANCH   4   5
ENDBRANCH   3   4
ENDBRANCH   2   3
ENDBRANCH   1   2
BRANCH   1   8
ATOM      8  C   UNL     1      -9.176 -21.356  18.774  1.00  0.00     0.000 C 
BRANCH   8   9
ATOM      9  C   UNL     1     -10.645 -21.741  18.522  1.00  0.00     0.000 C 
BRANCH   9  10
ATOM     10  C   UNL     1     -11.097 -21.430  17.086  1.00  0.00     0.006 C 
BRANCH  10  11
ATOM     11  C   UNL     1     -10.420 -20.179  16.510  1.00  0.00     0.053 C 
BRANCH  11  12
ATOM     12  C   UNL     1      -9.811 -20.483  15.178  1.00  0.00     0.041 C 
ATOM     13  O   UNL     1     -10.489 -20.345  14.125  1.00  0.00    -0.550 OA
ATOM     14  O   UNL     1      -8.479 -20.870  15.093  1.00  0.00    -0.550 OA
ENDBRANCH  11  12
ENDBRANCH  10  11
ENDBRANCH   9  10
ENDBRANCH   8   9
ENDBRANCH   1   8
TORSDOF 9
ENDMDL
