MODEL 1
REMARK VINA RESULT:    -2.737      0.000      0.000
REMARK INTER + INTRA:          -2.737
REMARK INTER:                  -2.737
REMARK INTRA:                   0.000
REMARK UNBOUND:                 0.000
REMARK SMILES CC(=O)[O-]
REMARK SMILES IDX 1 1 2 2 3 3 4 4
REMARK H PARENT
REMARK Flexibility Score: inf
ROOT
ATOM      1  C   UNL     1      45.860  36.123  48.538  1.00  0.00     0.063 C 
ATOM      2  C   UNL     1      45.901  36.685  49.919  1.00  0.00     0.038 C 
ATOM      3  O   UNL     1      45.846  35.919  50.915  1.00  0.00    -0.550 OA
ATOM      4  O   UNL     1      45.944  38.061  50.109  1.00  0.00    -0.550 OA
ENDROOT
TORSDOF 0
ENDMDL
MODEL 2
REMARK VINA RESULT:    -2.672     11.155     11.547
REMARK INTER + INTRA:          -2.672
REMARK INTER:                  -2.672
REMARK INTRA:                   0.000
REMARK UNBOUND:                 0.000
REMARK SMILES CC(=O)[O-]
REMARK SMILES IDX 1 1 2 2 3 3 4 4
REMARK H PARENT
REMARK Flexibility Score: inf
ROOT
ATOM      1  C   UNL     1      37.377  37.180  41.745  1.00  0.00     0.063 C 
ATOM      2  C   UNL     1      37.351  38.517  42.404  1.00  0.00     0.038 C 
ATOM      3  O   UNL     1      36.260  39.004  42.803  1.00  0.00    -0.550 OA
ATOM      4  O   UNL     1      38.521  39.255  42.530  1.00  0.00    -0.550 OA
ENDROOT
TORSDOF 0
ENDMDL
MODEL 3
REMARK VINA RESULT:    -2.649     11.134     11.502
REMARK INTER + INTRA:          -2.649
REMARK INTER:                  -2.649
REMARK INTRA:                   0.000
REMARK UNBOUND:                 0.000
REMARK SMILES CC(=O)[O-]
REMARK SMILES IDX 1 1 2 2 3 3 4 4
REMARK H PARENT
REMARK Flexibility Score: inf
ROOT
ATOM      1  C   UNL     1      37.414  37.178  41.734  1.00  0.00     0.063 C 
ATOM      2  C   UNL     1      37.412  38.486  42.449  1.00  0.00     0.038 C 
ATOM      3  O   UNL     1      38.464  39.176  42.510  1.00  0.00    -0.550 OA
ATOM      4  O   UNL     1      36.264  38.923  43.099  1.00  0.00    -0.550 OA
ENDROOT
TORSDOF 0
ENDMDL
MODEL 4
REMARK VINA RESULT:    -2.460      2.552      3.002
REMARK INTER + INTRA:          -2.460
REMARK INTER:                  -2.460
REMARK INTRA:                   0.000
REMARK UNBOUND:                 0.000
REMARK SMILES CC(=O)[O-]
REMARK SMILES IDX 1 1 2 2 3 3 4 4
REMARK H PARENT
REMARK Flexibility Score: inf
ROOT
ATOM      1  C   UNL     1      45.963  36.498  49.356  1.00  0.00     0.063 C 
ATOM      2  C   UNL     1      45.722  35.758  48.084  1.00  0.00     0.038 C 
ATOM      3  O   UNL     1      46.520  35.885  47.119  1.00  0.00    -0.550 OA
ATOM      4  O   UNL     1      44.587  34.969  47.942  1.00  0.00    -0.550 OA
ENDROOT
TORSDOF 0
ENDMDL
MODEL 5
REMARK VINA RESULT:    -2.207     10.182     10.592
REMARK INTER + INTRA:          -2.207
REMARK INTER:                  -2.207
REMARK INTRA:                   0.000
REMARK UNBOUND:                 0.000
REMARK SMILES CC(=O)[O-]
REMARK SMILES IDX 1 1 2 2 3 3 4 4
REMARK H PARENT
REMARK Flexibility Score: inf
ROOT
ATOM      1  C   UNL     1      38.206  34.978  41.448  1.00  0.00     0.063 C 
ATOM      2  C   UNL     1      38.989  36.099  42.042  1.00  0.00     0.038 C 
ATOM      3  O   UNL     1      38.502  37.259  42.084  1.00  0.00    -0.550 OA
ATOM      4  O   UNL     1      40.282  35.878  42.501  1.00  0.00    -0.550 OA
ENDROOT
TORSDOF 0
ENDMDL
MODEL 6
REMARK VINA RESULT:    -2.167     20.349     20.787
REMARK INTER + INTRA:          -2.167
REMARK INTER:                  -2.167
REMARK INTRA:                   0.000
REMARK UNBOUND:                 0.000
REMARK SMILES CC(=O)[O-]
REMARK SMILES IDX 1 1 2 2 3 3 4 4
REMARK H PARENT
REMARK Flexibility Score: inf
ROOT
ATOM      1  C   UNL     1      49.818  47.365  32.674  1.00  0.00     0.063 C 
ATOM      2  C   UNL     1      48.395  47.284  32.237  1.00  0.00     0.038 C 
ATOM      3  O   UNL     1      48.115  46.990  31.045  1.00  0.00    -0.550 OA
ATOM      4  O   UNL     1      47.374  47.585  33.131  1.00  0.00    -0.550 OA
ENDROOT
TORSDOF 0
ENDMDL
MODEL 7
REMARK VINA RESULT:    -2.135      8.236      8.625
REMARK INTER + INTRA:          -2.135
REMARK INTER:                  -2.135
REMARK INTRA:                   0.000
REMARK UNBOUND:                 0.000
REMARK SMILES CC(=O)[O-]
REMARK SMILES IDX 1 1 2 2 3 3 4 4
REMARK H PARENT
REMARK Flexibility Score: inf
ROOT
ATOM      1  C   UNL     1      44.355  41.447  43.452  1.00  0.00     0.063 C 
ATOM      2  C   UNL     1      43.475  42.472  44.084  1.00  0.00     0.038 C 
ATOM      3  O   UNL     1      43.917  43.197  45.014  1.00  0.00    -0.550 OA
ATOM      4  O   UNL     1      42.149  42.592  43.686  1.00  0.00    -0.550 OA
ENDROOT
TORSDOF 0
ENDMDL
MODEL 8
REMARK VINA RESULT:    -2.121     20.245     20.706
REMARK INTER + INTRA:          -2.121
REMARK INTER:                  -2.121
REMARK INTRA:                   0.000
REMARK UNBOUND:                 0.000
REMARK SMILES CC(=O)[O-]
REMARK SMILES IDX 1 1 2 2 3 3 4 4
REMARK H PARENT
REMARK Flexibility Score: inf
ROOT
ATOM      1  C   UNL     1      49.708  47.370  32.866  1.00  0.00     0.063 C 
ATOM      2  C   UNL     1      48.304  47.327  32.364  1.00  0.00     0.038 C 
ATOM      3  O   UNL     1      47.345  47.554  33.147  1.00  0.00    -0.550 OA
ATOM      4  O   UNL     1      48.048  46.981  31.043  1.00  0.00    -0.550 OA
ENDROOT
TORSDOF 0
ENDMDL
MODEL 9
REMARK VINA RESULT:    -2.115      8.506      8.910
REMARK INTER + INTRA:          -2.115
REMARK INTER:                  -2.115
REMARK INTRA:                   0.000
REMARK UNBOUND:                 0.000
REMARK SMILES CC(=O)[O-]
REMARK SMILES IDX 1 1 2 2 3 3 4 4
REMARK H PARENT
REMARK Flexibility Score: inf
ROOT
ATOM      1  C   UNL     1      43.952  43.595  44.736  1.00  0.00     0.063 C 
ATOM      2  C   UNL     1      43.321  42.495  43.951  1.00  0.00     0.038 C 
ATOM      3  O   UNL     1      42.089  42.524  43.698  1.00  0.00    -0.550 OA
ATOM      4  O   UNL     1      44.082  41.406  43.543  1.00  0.00    -0.550 OA
ENDROOT
TORSDOF 0
ENDMDL
