MODEL 1
REMARK VINA RESULT:    -4.998      0.000      0.000
REMARK INTER + INTRA:          -5.493
REMARK INTER:                  -5.436
REMARK INTRA:                  -0.057
REMARK UNBOUND:                -0.057
REMARK SMILES COc1cc2ccc(=O)oc2cc1O
REMARK SMILES IDX 3 1 13 2 12 3 11 4 5 5 4 6 6 7 7 8 8 9 9 10 10 11 2 12 1 13
REMARK SMILES IDX 14 14
REMARK H PARENT 14 15
REMARK Flexibility Score: inf
ROOT
ATOM      1  C   UNL     1     -15.160 -19.607  20.978  1.00  0.00     0.161 A 
ATOM      2  C   UNL     1     -14.720 -18.275  20.902  1.00  0.00     0.161 A 
ATOM      3  C   UNL     1     -15.365 -17.364  20.053  1.00  0.00     0.098 A 
ATOM      4  C   UNL     1     -16.449 -17.773  19.275  1.00  0.00     0.142 A 
ATOM      5  C   UNL     1     -16.898 -19.109  19.345  1.00  0.00     0.022 A 
ATOM      6  C   UNL     1     -16.255 -20.020  20.193  1.00  0.00     0.062 A 
ATOM      7  C   UNL     1     -17.987 -19.488  18.554  1.00  0.00     0.019 A 
ATOM      8  C   UNL     1     -18.594 -18.544  17.725  1.00  0.00     0.094 A 
ATOM      9  C   UNL     1     -18.095 -17.238  17.709  1.00  0.00     0.336 A 
ATOM     10  O   UNL     1     -18.628 -16.370  16.967  1.00  0.00    -0.246 OA
ATOM     11  O   UNL     1     -17.058 -16.904  18.471  1.00  0.00    -0.423 OA
ENDROOT
BRANCH   1  12
ATOM     12  O   UNL     1     -14.484 -20.484  21.841  1.00  0.00    -0.493 OA
ATOM     13  C   UNL     1     -14.893 -20.780  23.173  1.00  0.00     0.278 C 
ENDBRANCH   1  12
BRANCH   2  14
ATOM     14  O   UNL     1     -13.637 -17.865  21.678  1.00  0.00    -0.504 OA
ATOM     15  H   UNL     1     -13.586 -16.929  22.065  1.00  0.00     0.293 HD
ENDBRANCH   2  14
TORSDOF 2
ENDMDL
MODEL 2
REMARK VINA RESULT:    -4.843     13.430     15.372
REMARK INTER + INTRA:          -5.324
REMARK INTER:                  -5.264
REMARK INTRA:                  -0.060
REMARK UNBOUND:                -0.057
REMARK SMILES COc1cc2ccc(=O)oc2cc1O
REMARK SMILES IDX 3 1 13 2 12 3 11 4 5 5 4 6 6 7 7 8 8 9 9 10 10 11 2 12 1 13
REMARK SMILES IDX 14 14
REMARK H PARENT 14 15
REMARK Flexibility Score: inf
ROOT
ATOM      1  C   UNL     1      -8.731  -9.334  30.838  1.00  0.00     0.161 A 
ATOM      2  C   UNL     1      -9.822  -9.011  30.015  1.00  0.00     0.161 A 
ATOM      3  C   UNL     1      -9.782  -9.294  28.642  1.00  0.00     0.098 A 
ATOM      4  C   UNL     1      -8.657  -9.901  28.081  1.00  0.00     0.142 A 
ATOM      5  C   UNL     1      -7.556 -10.230  28.900  1.00  0.00     0.022 A 
ATOM      6  C   UNL     1      -7.594  -9.947  30.272  1.00  0.00     0.062 A 
ATOM      7  C   UNL     1      -6.444 -10.837  28.308  1.00  0.00     0.019 A 
ATOM      8  C   UNL     1      -6.453 -11.098  26.939  1.00  0.00     0.094 A 
ATOM      9  C   UNL     1      -7.580 -10.745  26.190  1.00  0.00     0.336 A 
ATOM     10  O   UNL     1      -7.609 -10.971  24.951  1.00  0.00    -0.246 OA
ATOM     11  O   UNL     1      -8.625 -10.168  26.777  1.00  0.00    -0.423 OA
ENDROOT
BRANCH   1  12
ATOM     12  O   UNL     1      -8.814  -9.031  32.206  1.00  0.00    -0.493 OA
ATOM     13  C   UNL     1      -8.273  -7.860  32.807  1.00  0.00     0.278 C 
ENDBRANCH   1  12
BRANCH   2  14
ATOM     14  O   UNL     1     -10.946  -8.404  30.573  1.00  0.00    -0.504 OA
ATOM     15  H   UNL     1     -11.123  -7.412  30.462  1.00  0.00     0.293 HD
ENDBRANCH   2  14
TORSDOF 2
ENDMDL
MODEL 3
REMARK VINA RESULT:    -4.813      7.701      9.034
REMARK INTER + INTRA:          -5.291
REMARK INTER:                  -5.226
REMARK INTRA:                  -0.065
REMARK UNBOUND:                -0.057
REMARK SMILES COc1cc2ccc(=O)oc2cc1O
REMARK SMILES IDX 3 1 13 2 12 3 11 4 5 5 4 6 6 7 7 8 8 9 9 10 10 11 2 12 1 13
REMARK SMILES IDX 14 14
REMARK H PARENT 14 15
REMARK Flexibility Score: inf
ROOT
ATOM      1  C   UNL     1      -8.911 -12.683  22.189  1.00  0.00     0.161 A 
ATOM      2  C   UNL     1     -10.311 -12.757  22.249  1.00  0.00     0.161 A 
ATOM      3  C   UNL     1     -11.049 -13.163  21.128  1.00  0.00     0.098 A 
ATOM      4  C   UNL     1     -10.396 -13.497  19.940  1.00  0.00     0.142 A 
ATOM      5  C   UNL     1      -8.988 -13.426  19.870  1.00  0.00     0.022 A 
ATOM      6  C   UNL     1      -8.251 -13.019  20.990  1.00  0.00     0.062 A 
ATOM      7  C   UNL     1      -8.363 -13.766  18.666  1.00  0.00     0.019 A 
ATOM      8  C   UNL     1      -9.141 -14.164  17.578  1.00  0.00     0.094 A 
ATOM      9  C   UNL     1     -10.532 -14.213  17.722  1.00  0.00     0.336 A 
ATOM     10  O   UNL     1     -11.252 -14.569  16.752  1.00  0.00    -0.246 OA
ATOM     11  O   UNL     1     -11.100 -13.883  18.878  1.00  0.00    -0.423 OA
ENDROOT
BRANCH   1  12
ATOM     12  O   UNL     1      -8.214 -12.270  23.336  1.00  0.00    -0.493 OA
ATOM     13  C   UNL     1      -7.583 -11.003  23.483  1.00  0.00     0.278 C 
ENDBRANCH   1  12
BRANCH   2  14
ATOM     14  O   UNL     1     -10.966 -12.424  23.435  1.00  0.00    -0.504 OA
ATOM     15  H   UNL     1     -11.937 -12.668  23.591  1.00  0.00     0.293 HD
ENDBRANCH   2  14
TORSDOF 2
ENDMDL
MODEL 4
REMARK VINA RESULT:    -4.812     14.124     16.155
REMARK INTER + INTRA:          -5.291
REMARK INTER:                  -5.226
REMARK INTRA:                  -0.065
REMARK UNBOUND:                -0.057
REMARK SMILES COc1cc2ccc(=O)oc2cc1O
REMARK SMILES IDX 3 1 13 2 12 3 11 4 5 5 4 6 6 7 7 8 8 9 9 10 10 11 2 12 1 13
REMARK SMILES IDX 14 14
REMARK H PARENT 14 15
REMARK Flexibility Score: inf
ROOT
ATOM      1  C   UNL     1      -8.246  -9.532  29.467  1.00  0.00     0.161 A 
ATOM      2  C   UNL     1      -8.423 -10.178  28.234  1.00  0.00     0.161 A 
ATOM      3  C   UNL     1      -7.490 -11.127  27.791  1.00  0.00     0.098 A 
ATOM      4  C   UNL     1      -6.376 -11.438  28.574  1.00  0.00     0.142 A 
ATOM      5  C   UNL     1      -6.191 -10.794  29.815  1.00  0.00     0.022 A 
ATOM      6  C   UNL     1      -7.122  -9.844  30.258  1.00  0.00     0.062 A 
ATOM      7  C   UNL     1      -5.065 -11.126  30.576  1.00  0.00     0.019 A 
ATOM      8  C   UNL     1      -4.167 -12.076  30.092  1.00  0.00     0.094 A 
ATOM      9  C   UNL     1      -4.417 -12.675  28.852  1.00  0.00     0.336 A 
ATOM     10  O   UNL     1      -3.618 -13.535  28.397  1.00  0.00    -0.246 OA
ATOM     11  O   UNL     1      -5.495 -12.340  28.149  1.00  0.00    -0.423 OA
ENDROOT
BRANCH   1  12
ATOM     12  O   UNL     1      -9.204  -8.588  29.869  1.00  0.00    -0.493 OA
ATOM     13  C   UNL     1     -10.147  -8.792  30.916  1.00  0.00     0.278 C 
ENDBRANCH   1  12
BRANCH   2  14
ATOM     14  O   UNL     1      -9.534  -9.869  27.450  1.00  0.00    -0.504 OA
ATOM     15  H   UNL     1     -10.450  -9.727  27.861  1.00  0.00     0.293 HD
ENDBRANCH   2  14
TORSDOF 2
ENDMDL
MODEL 5
REMARK VINA RESULT:    -4.738      6.834      9.006
REMARK INTER + INTRA:          -5.210
REMARK INTER:                  -5.144
REMARK INTRA:                  -0.065
REMARK UNBOUND:                -0.057
REMARK SMILES COc1cc2ccc(=O)oc2cc1O
REMARK SMILES IDX 3 1 13 2 12 3 11 4 5 5 4 6 6 7 7 8 8 9 9 10 10 11 2 12 1 13
REMARK SMILES IDX 14 14
REMARK H PARENT 14 15
REMARK Flexibility Score: inf
ROOT
ATOM      1  C   UNL     1     -10.325 -13.192  21.114  1.00  0.00     0.161 A 
ATOM      2  C   UNL     1      -9.369 -12.986  22.121  1.00  0.00     0.161 A 
ATOM      3  C   UNL     1      -8.917 -14.062  22.898  1.00  0.00     0.098 A 
ATOM      4  C   UNL     1      -9.413 -15.348  22.677  1.00  0.00     0.142 A 
ATOM      5  C   UNL     1     -10.374 -15.564  21.666  1.00  0.00     0.022 A 
ATOM      6  C   UNL     1     -10.827 -14.490  20.890  1.00  0.00     0.062 A 
ATOM      7  C   UNL     1     -10.852 -16.864  21.469  1.00  0.00     0.019 A 
ATOM      8  C   UNL     1     -10.370 -17.900  22.269  1.00  0.00     0.094 A 
ATOM      9  C   UNL     1      -9.417 -17.610  23.251  1.00  0.00     0.336 A 
ATOM     10  O   UNL     1      -8.970 -18.532  23.983  1.00  0.00    -0.246 OA
ATOM     11  O   UNL     1      -8.980 -16.366  23.418  1.00  0.00    -0.423 OA
ENDROOT
BRANCH   1  12
ATOM     12  O   UNL     1     -10.750 -12.086  20.361  1.00  0.00    -0.493 OA
ATOM     13  C   UNL     1     -10.349 -11.820  19.021  1.00  0.00     0.278 C 
ENDBRANCH   1  12
BRANCH   2  14
ATOM     14  O   UNL     1      -8.873 -11.702  22.344  1.00  0.00    -0.504 OA
ATOM     15  H   UNL     1      -9.062 -11.203  23.206  1.00  0.00     0.293 HD
ENDBRANCH   2  14
TORSDOF 2
ENDMDL
MODEL 6
REMARK VINA RESULT:    -4.730      1.383      5.363
REMARK INTER + INTRA:          -5.201
REMARK INTER:                  -5.138
REMARK INTRA:                  -0.063
REMARK UNBOUND:                -0.057
REMARK SMILES COc1cc2ccc(=O)oc2cc1O
REMARK SMILES IDX 3 1 13 2 12 3 11 4 5 5 4 6 6 7 7 8 8 9 9 10 10 11 2 12 1 13
REMARK SMILES IDX 14 14
REMARK H PARENT 14 15
REMARK Flexibility Score: inf
ROOT
ATOM      1  C   UNL     1     -16.906 -17.380  18.180  1.00  0.00     0.161 A 
ATOM      2  C   UNL     1     -17.705 -18.525  18.333  1.00  0.00     0.161 A 
ATOM      3  C   UNL     1     -17.425 -19.453  19.346  1.00  0.00     0.098 A 
ATOM      4  C   UNL     1     -16.349 -19.248  20.211  1.00  0.00     0.142 A 
ATOM      5  C   UNL     1     -15.541 -18.100  20.065  1.00  0.00     0.022 A 
ATOM      6  C   UNL     1     -15.819 -17.172  19.053  1.00  0.00     0.062 A 
ATOM      7  C   UNL     1     -14.471 -17.922  20.947  1.00  0.00     0.019 A 
ATOM      8  C   UNL     1     -14.234 -18.875  21.939  1.00  0.00     0.094 A 
ATOM      9  C   UNL     1     -15.078 -19.987  22.024  1.00  0.00     0.336 A 
ATOM     10  O   UNL     1     -14.881 -20.859  22.911  1.00  0.00    -0.246 OA
ATOM     11  O   UNL     1     -16.088 -20.132  21.172  1.00  0.00    -0.423 OA
ENDROOT
BRANCH   1  12
ATOM     12  O   UNL     1     -17.223 -16.479  17.151  1.00  0.00    -0.493 OA
ATOM     13  C   UNL     1     -16.575 -16.441  15.884  1.00  0.00     0.278 C 
ENDBRANCH   1  12
BRANCH   2  14
ATOM     14  O   UNL     1     -18.779 -18.732  17.469  1.00  0.00    -0.504 OA
ATOM     15  H   UNL     1     -18.947 -18.124  16.675  1.00  0.00     0.293 HD
ENDBRANCH   2  14
TORSDOF 2
ENDMDL
MODEL 7
REMARK VINA RESULT:    -4.647      1.600      5.065
REMARK INTER + INTRA:          -5.112
REMARK INTER:                  -5.046
REMARK INTRA:                  -0.065
REMARK UNBOUND:                -0.057
REMARK SMILES COc1cc2ccc(=O)oc2cc1O
REMARK SMILES IDX 3 1 13 2 12 3 11 4 5 5 4 6 6 7 7 8 8 9 9 10 10 11 2 12 1 13
REMARK SMILES IDX 14 14
REMARK H PARENT 14 15
REMARK Flexibility Score: inf
ROOT
ATOM      1  C   UNL     1     -17.747 -17.903  16.775  1.00  0.00     0.161 A 
ATOM      2  C   UNL     1     -16.867 -16.817  16.903  1.00  0.00     0.161 A 
ATOM      3  C   UNL     1     -16.037 -16.707  18.028  1.00  0.00     0.098 A 
ATOM      4  C   UNL     1     -16.079 -17.677  19.032  1.00  0.00     0.142 A 
ATOM      5  C   UNL     1     -16.960 -18.772  18.911  1.00  0.00     0.022 A 
ATOM      6  C   UNL     1     -17.790 -18.883  17.787  1.00  0.00     0.062 A 
ATOM      7  C   UNL     1     -16.979 -19.727  19.932  1.00  0.00     0.019 A 
ATOM      8  C   UNL     1     -16.134 -19.573  21.031  1.00  0.00     0.094 A 
ATOM      9  C   UNL     1     -15.286 -18.461  21.082  1.00  0.00     0.336 A 
ATOM     10  O   UNL     1     -14.515 -18.303  22.065  1.00  0.00    -0.246 OA
ATOM     11  O   UNL     1     -15.288 -17.568  20.097  1.00  0.00    -0.423 OA
ENDROOT
BRANCH   1  12
ATOM     12  O   UNL     1     -18.560 -17.971  15.633  1.00  0.00    -0.493 OA
ATOM     13  C   UNL     1     -18.303 -18.807  14.509  1.00  0.00     0.278 C 
ENDBRANCH   1  12
BRANCH   2  14
ATOM     14  O   UNL     1     -16.824 -15.846  15.903  1.00  0.00    -0.504 OA
ATOM     15  H   UNL     1     -16.586 -16.082  14.946  1.00  0.00     0.293 HD
ENDBRANCH   2  14
TORSDOF 2
ENDMDL
MODEL 8
REMARK VINA RESULT:    -4.610      5.609      8.105
REMARK INTER + INTRA:          -5.070
REMARK INTER:                  -5.015
REMARK INTRA:                  -0.056
REMARK UNBOUND:                -0.057
REMARK SMILES COc1cc2ccc(=O)oc2cc1O
REMARK SMILES IDX 3 1 13 2 12 3 11 4 5 5 4 6 6 7 7 8 8 9 9 10 10 11 2 12 1 13
REMARK SMILES IDX 14 14
REMARK H PARENT 14 15
REMARK Flexibility Score: inf
ROOT
ATOM      1  C   UNL     1     -12.306 -15.823  20.355  1.00  0.00     0.161 A 
ATOM      2  C   UNL     1     -12.507 -14.478  20.004  1.00  0.00     0.161 A 
ATOM      3  C   UNL     1     -11.599 -13.494  20.420  1.00  0.00     0.098 A 
ATOM      4  C   UNL     1     -10.486 -13.843  21.188  1.00  0.00     0.142 A 
ATOM      5  C   UNL     1     -10.276 -15.191  21.545  1.00  0.00     0.022 A 
ATOM      6  C   UNL     1     -11.184 -16.175  21.130  1.00  0.00     0.062 A 
ATOM      7  C   UNL     1      -9.152 -15.509  22.314  1.00  0.00     0.019 A 
ATOM      8  C   UNL     1      -8.279 -14.494  22.703  1.00  0.00     0.094 A 
ATOM      9  C   UNL     1      -8.551 -13.179  22.311  1.00  0.00     0.336 A 
ATOM     10  O   UNL     1      -7.775 -12.248  22.652  1.00  0.00    -0.246 OA
ATOM     11  O   UNL     1      -9.627 -12.904  21.579  1.00  0.00    -0.423 OA
ENDROOT
BRANCH   1  12
ATOM     12  O   UNL     1     -13.242 -16.773  19.917  1.00  0.00    -0.493 OA
ATOM     13  C   UNL     1     -13.879 -17.726  20.762  1.00  0.00     0.278 C 
ENDBRANCH   1  12
BRANCH   2  14
ATOM     14  O   UNL     1     -13.619 -14.127  19.238  1.00  0.00    -0.504 OA
ATOM     15  H   UNL     1     -14.213 -14.831  18.813  1.00  0.00     0.293 HD
ENDBRANCH   2  14
TORSDOF 2
ENDMDL
MODEL 9
REMARK VINA RESULT:    -4.594      1.841      2.992
REMARK INTER + INTRA:          -5.053
REMARK INTER:                  -5.008
REMARK INTRA:                  -0.045
REMARK UNBOUND:                -0.057
REMARK SMILES COc1cc2ccc(=O)oc2cc1O
REMARK SMILES IDX 3 1 13 2 12 3 11 4 5 5 4 6 6 7 7 8 8 9 9 10 10 11 2 12 1 13
REMARK SMILES IDX 14 14
REMARK H PARENT 14 15
REMARK Flexibility Score: inf
ROOT
ATOM      1  C   UNL     1     -13.205 -18.122  21.513  1.00  0.00     0.161 A 
ATOM      2  C   UNL     1     -14.376 -18.827  21.835  1.00  0.00     0.161 A 
ATOM      3  C   UNL     1     -15.518 -18.710  21.029  1.00  0.00     0.098 A 
ATOM      4  C   UNL     1     -15.500 -17.890  19.899  1.00  0.00     0.142 A 
ATOM      5  C   UNL     1     -14.328 -17.178  19.567  1.00  0.00     0.022 A 
ATOM      6  C   UNL     1     -13.187 -17.294  20.372  1.00  0.00     0.062 A 
ATOM      7  C   UNL     1     -14.342 -16.365  18.429  1.00  0.00     0.019 A 
ATOM      8  C   UNL     1     -15.502 -16.282  17.660  1.00  0.00     0.094 A 
ATOM      9  C   UNL     1     -16.627 -17.018  18.050  1.00  0.00     0.336 A 
ATOM     10  O   UNL     1     -17.685 -16.956  17.369  1.00  0.00    -0.246 OA
ATOM     11  O   UNL     1     -16.587 -17.783  19.137  1.00  0.00    -0.423 OA
ENDROOT
BRANCH   1  12
ATOM     12  O   UNL     1     -12.087 -18.269  22.349  1.00  0.00    -0.493 OA
ATOM     13  C   UNL     1     -10.790 -17.758  22.058  1.00  0.00     0.278 C 
ENDBRANCH   1  12
BRANCH   2  14
ATOM     14  O   UNL     1     -14.396 -19.646  22.963  1.00  0.00    -0.504 OA
ATOM     15  H   UNL     1     -15.000 -20.458  23.018  1.00  0.00     0.293 HD
ENDBRANCH   2  14
TORSDOF 2
ENDMDL
