MODEL 1
REMARK VINA RESULT:    -3.503      0.000      0.000
REMARK INTER + INTRA:          -4.248
REMARK INTER:                  -4.015
REMARK INTRA:                  -0.233
REMARK UNBOUND:                -0.233
REMARK SMILES COC(=O)c1ccccc1O
REMARK SMILES IDX 5 1 6 2 7 3 8 4 9 5 10 6 3 7 4 8 2 9 1 10 11 11
REMARK H PARENT 11 12
REMARK Flexibility Score: inf
ROOT
ATOM      1  C   UNL     1     141.826 146.993 141.879  1.00  0.00     0.101 A 
ATOM      2  C   UNL     1     140.530 147.538 141.830  1.00  0.00     0.019 A 
ATOM      3  C   UNL     1     140.286 148.737 141.154  1.00  0.00     0.001 A 
ATOM      4  C   UNL     1     141.332 149.406 140.519  1.00  0.00     0.004 A 
ATOM      5  C   UNL     1     142.620 148.868 140.540  1.00  0.00     0.047 A 
ATOM      6  C   UNL     1     142.876 147.656 141.195  1.00  0.00     0.130 A 
ENDROOT
BRANCH   1   7
ATOM      7  C   UNL     1     142.049 145.767 142.676  1.00  0.00     0.341 C 
ATOM      8  O   UNL     1     142.396 144.700 142.098  1.00  0.00    -0.246 OA
BRANCH   7   9
ATOM      9  O   UNL     1     141.822 145.774 144.056  1.00  0.00    -0.465 OA
ATOM     10  C   UNL     1     142.628 145.041 144.971  1.00  0.00     0.282 C 
ENDBRANCH   7   9
ENDBRANCH   1   7
BRANCH   6  11
ATOM     11  O   UNL     1     144.168 147.132 141.113  1.00  0.00    -0.507 OA
ATOM     12  H   UNL     1     144.992 147.634 141.414  1.00  0.00     0.293 HD
ENDBRANCH   6  11
TORSDOF 3
ENDMDL
MODEL 2
REMARK VINA RESULT:    -3.501      8.439      9.406
REMARK INTER + INTRA:          -4.246
REMARK INTER:                  -4.007
REMARK INTRA:                  -0.239
REMARK UNBOUND:                -0.233
REMARK SMILES COC(=O)c1ccccc1O
REMARK SMILES IDX 5 1 6 2 7 3 8 4 9 5 10 6 3 7 4 8 2 9 1 10 11 11
REMARK H PARENT 11 12
REMARK Flexibility Score: inf
ROOT
ATOM      1  C   UNL     1     134.568 141.822 141.840  1.00  0.00     0.101 A 
ATOM      2  C   UNL     1     133.982 140.543 141.789  1.00  0.00     0.019 A 
ATOM      3  C   UNL     1     132.779 140.338 141.109  1.00  0.00     0.001 A 
ATOM      4  C   UNL     1     132.145 141.405 140.473  1.00  0.00     0.004 A 
ATOM      5  C   UNL     1     132.723 142.675 140.496  1.00  0.00     0.047 A 
ATOM      6  C   UNL     1     133.940 142.893 141.155  1.00  0.00     0.130 A 
ENDROOT
BRANCH   1   7
ATOM      7  C   UNL     1     135.797 142.007 142.641  1.00  0.00     0.341 C 
ATOM      8  O   UNL     1     136.871 142.340 142.070  1.00  0.00    -0.246 OA
BRANCH   7   9
ATOM      9  O   UNL     1     135.784 141.757 144.018  1.00  0.00    -0.465 OA
ATOM     10  C   UNL     1     136.502 142.557 144.950  1.00  0.00     0.282 C 
ENDBRANCH   7   9
ENDBRANCH   1   7
BRANCH   6  11
ATOM     11  O   UNL     1     134.504 144.168 141.077  1.00  0.00    -0.507 OA
ATOM     12  H   UNL     1     134.851 144.570 140.217  1.00  0.00     0.293 HD
ENDBRANCH   6  11
TORSDOF 3
ENDMDL
MODEL 3
REMARK VINA RESULT:    -3.487     11.372     13.245
REMARK INTER + INTRA:          -4.229
REMARK INTER:                  -3.996
REMARK INTRA:                  -0.233
REMARK UNBOUND:                -0.233
REMARK SMILES COC(=O)c1ccccc1O
REMARK SMILES IDX 5 1 6 2 7 3 8 4 9 5 10 6 3 7 4 8 2 9 1 10 11 11
REMARK H PARENT 11 12
REMARK Flexibility Score: inf
ROOT
ATOM      1  C   UNL     1     139.784 134.635 141.882  1.00  0.00     0.101 A 
ATOM      2  C   UNL     1     141.077 134.084 141.827  1.00  0.00     0.019 A 
ATOM      3  C   UNL     1     141.315 132.892 141.138  1.00  0.00     0.001 A 
ATOM      4  C   UNL     1     140.266 132.235 140.496  1.00  0.00     0.004 A 
ATOM      5  C   UNL     1     138.981 132.779 140.523  1.00  0.00     0.047 A 
ATOM      6  C   UNL     1     138.730 133.985 141.191  1.00  0.00     0.130 A 
ENDROOT
BRANCH   1   7
ATOM      7  C   UNL     1     139.565 135.853 142.693  1.00  0.00     0.341 C 
ATOM      8  O   UNL     1     139.225 136.928 142.127  1.00  0.00    -0.246 OA
BRANCH   7   9
ATOM      9  O   UNL     1     139.791 135.829 144.073  1.00  0.00    -0.465 OA
ATOM     10  C   UNL     1     138.998 136.569 144.994  1.00  0.00     0.282 C 
ENDBRANCH   7   9
ENDBRANCH   1   7
BRANCH   6  11
ATOM     11  O   UNL     1     137.440 134.515 141.116  1.00  0.00    -0.507 OA
ATOM     12  H   UNL     1     137.136 135.133 140.377  1.00  0.00     0.293 HD
ENDBRANCH   6  11
TORSDOF 3
ENDMDL
MODEL 4
REMARK VINA RESULT:    -3.476      8.451      9.431
REMARK INTER + INTRA:          -4.216
REMARK INTER:                  -3.979
REMARK INTRA:                  -0.237
REMARK UNBOUND:                -0.233
REMARK SMILES COC(=O)c1ccccc1O
REMARK SMILES IDX 5 1 6 2 7 3 8 4 9 5 10 6 3 7 4 8 2 9 1 10 11 11
REMARK H PARENT 11 12
REMARK Flexibility Score: inf
ROOT
ATOM      1  C   UNL     1     147.021 139.752 141.855  1.00  0.00     0.101 A 
ATOM      2  C   UNL     1     147.614 141.027 141.807  1.00  0.00     0.019 A 
ATOM      3  C   UNL     1     148.815 141.229 141.123  1.00  0.00     0.001 A 
ATOM      4  C   UNL     1     149.440 140.162 140.479  1.00  0.00     0.004 A 
ATOM      5  C   UNL     1     148.855 138.895 140.499  1.00  0.00     0.047 A 
ATOM      6  C   UNL     1     147.640 138.680 141.162  1.00  0.00     0.130 A 
ENDROOT
BRANCH   1   7
ATOM      7  C   UNL     1     145.794 139.570 142.661  1.00  0.00     0.341 C 
ATOM      8  O   UNL     1     144.715 139.247 142.093  1.00  0.00    -0.246 OA
BRANCH   7   9
ATOM      9  O   UNL     1     145.816 139.810 144.039  1.00  0.00    -0.465 OA
ATOM     10  C   UNL     1     145.098 139.009 144.969  1.00  0.00     0.282 C 
ENDBRANCH   7   9
ENDBRANCH   1   7
BRANCH   6  11
ATOM     11  O   UNL     1     147.068 137.409 141.080  1.00  0.00    -0.507 OA
ATOM     12  H   UNL     1     146.228 137.144 141.575  1.00  0.00     0.293 HD
ENDBRANCH   6  11
TORSDOF 3
ENDMDL
MODEL 5
REMARK VINA RESULT:    -3.196      9.441     10.808
REMARK INTER + INTRA:          -3.896
REMARK INTER:                  -3.547
REMARK INTRA:                  -0.349
REMARK UNBOUND:                -0.233
REMARK SMILES COC(=O)c1ccccc1O
REMARK SMILES IDX 5 1 6 2 7 3 8 4 9 5 10 6 3 7 4 8 2 9 1 10 11 11
REMARK H PARENT 11 12
REMARK Flexibility Score: inf
ROOT
ATOM      1  C   UNL     1     148.867 139.265 140.885  1.00  0.00     0.101 A 
ATOM      2  C   UNL     1     149.194 140.632 140.816  1.00  0.00     0.019 A 
ATOM      3  C   UNL     1     148.193 141.606 140.843  1.00  0.00     0.001 A 
ATOM      4  C   UNL     1     146.854 141.229 140.940  1.00  0.00     0.004 A 
ATOM      5  C   UNL     1     146.513 139.878 141.030  1.00  0.00     0.047 A 
ATOM      6  C   UNL     1     147.507 138.890 141.025  1.00  0.00     0.130 A 
ENDROOT
BRANCH   1   7
ATOM      7  C   UNL     1     149.954 138.269 140.768  1.00  0.00     0.341 C 
ATOM      8  O   UNL     1     151.064 138.486 141.329  1.00  0.00    -0.246 OA
BRANCH   7   9
ATOM      9  O   UNL     1     149.775 137.120 139.991  1.00  0.00    -0.465 OA
ATOM     10  C   UNL     1     149.741 137.152 138.569  1.00  0.00     0.282 C 
ENDBRANCH   7   9
ENDBRANCH   1   7
BRANCH   6  11
ATOM     11  O   UNL     1     147.107 137.563 141.197  1.00  0.00    -0.507 OA
ATOM     12  H   UNL     1     147.009 136.909 140.433  1.00  0.00     0.293 HD
ENDBRANCH   6  11
TORSDOF 3
ENDMDL
MODEL 6
REMARK VINA RESULT:    -3.182      2.118      4.198
REMARK INTER + INTRA:          -3.880
REMARK INTER:                  -3.530
REMARK INTRA:                  -0.350
REMARK UNBOUND:                -0.233
REMARK SMILES COC(=O)c1ccccc1O
REMARK SMILES IDX 5 1 6 2 7 3 8 4 9 5 10 6 3 7 4 8 2 9 1 10 11 11
REMARK H PARENT 11 12
REMARK Flexibility Score: inf
ROOT
ATOM      1  C   UNL     1     142.352 148.811 140.867  1.00  0.00     0.101 A 
ATOM      2  C   UNL     1     140.982 149.130 140.829  1.00  0.00     0.019 A 
ATOM      3  C   UNL     1     140.015 148.124 140.885  1.00  0.00     0.001 A 
ATOM      4  C   UNL     1     140.401 146.787 140.979  1.00  0.00     0.004 A 
ATOM      5  C   UNL     1     141.755 146.455 141.038  1.00  0.00     0.047 A 
ATOM      6  C   UNL     1     142.738 147.454 141.005  1.00  0.00     0.130 A 
ENDROOT
BRANCH   1   7
ATOM      7  C   UNL     1     143.339 149.903 140.721  1.00  0.00     0.341 C 
ATOM      8  O   UNL     1     143.117 151.022 141.260  1.00  0.00    -0.246 OA
BRANCH   7   9
ATOM      9  O   UNL     1     144.485 149.716 139.941  1.00  0.00    -0.465 OA
ATOM     10  C   UNL     1     144.453 149.708 138.519  1.00  0.00     0.282 C 
ENDBRANCH   7   9
ENDBRANCH   1   7
BRANCH   6  11
ATOM     11  O   UNL     1     144.071 147.062 141.147  1.00  0.00    -0.507 OA
ATOM     12  H   UNL     1     144.672 146.842 140.365  1.00  0.00     0.293 HD
ENDBRANCH   6  11
TORSDOF 3
ENDMDL
MODEL 7
REMARK VINA RESULT:    -3.071      1.515      2.153
REMARK INTER + INTRA:          -3.753
REMARK INTER:                  -3.456
REMARK INTRA:                  -0.297
REMARK UNBOUND:                -0.233
REMARK SMILES COC(=O)c1ccccc1O
REMARK SMILES IDX 5 1 6 2 7 3 8 4 9 5 10 6 3 7 4 8 2 9 1 10 11 11
REMARK H PARENT 11 12
REMARK Flexibility Score: inf
ROOT
ATOM      1  C   UNL     1     141.704 147.290 141.743  1.00  0.00     0.101 A 
ATOM      2  C   UNL     1     143.000 147.838 141.792  1.00  0.00     0.019 A 
ATOM      3  C   UNL     1     143.320 148.976 141.049  1.00  0.00     0.001 A 
ATOM      4  C   UNL     1     142.353 149.583 140.248  1.00  0.00     0.004 A 
ATOM      5  C   UNL     1     141.058 149.065 140.204  1.00  0.00     0.047 A 
ATOM      6  C   UNL     1     140.714 147.936 140.960  1.00  0.00     0.130 A 
ENDROOT
BRANCH   1   7
ATOM      7  C   UNL     1     141.436 146.036 142.481  1.00  0.00     0.341 C 
ATOM      8  O   UNL     1     140.811 145.098 141.914  1.00  0.00    -0.246 OA
BRANCH   7   9
ATOM      9  O   UNL     1     141.822 145.911 143.820  1.00  0.00    -0.465 OA
ATOM     10  C   UNL     1     142.447 144.741 144.333  1.00  0.00     0.282 C 
ENDBRANCH   7   9
ENDBRANCH   1   7
BRANCH   6  11
ATOM     11  O   UNL     1     139.384 147.513 140.933  1.00  0.00    -0.507 OA
ATOM     12  H   UNL     1     138.722 147.805 140.227  1.00  0.00     0.293 HD
ENDBRANCH   6  11
TORSDOF 3
ENDMDL
MODEL 8
REMARK VINA RESULT:    -3.067      8.680      9.705
REMARK INTER + INTRA:          -3.749
REMARK INTER:                  -3.459
REMARK INTRA:                  -0.290
REMARK UNBOUND:                -0.233
REMARK SMILES COC(=O)c1ccccc1O
REMARK SMILES IDX 5 1 6 2 7 3 8 4 9 5 10 6 3 7 4 8 2 9 1 10 11 11
REMARK H PARENT 11 12
REMARK Flexibility Score: inf
ROOT
ATOM      1  C   UNL     1     134.277 141.754 141.665  1.00  0.00     0.101 A 
ATOM      2  C   UNL     1     133.649 143.012 141.730  1.00  0.00     0.019 A 
ATOM      3  C   UNL     1     132.517 143.283 140.957  1.00  0.00     0.001 A 
ATOM      4  C   UNL     1     131.997 142.304 140.111  1.00  0.00     0.004 A 
ATOM      5  C   UNL     1     132.596 141.044 140.051  1.00  0.00     0.047 A 
ATOM      6  C   UNL     1     133.719 140.749 140.835  1.00  0.00     0.130 A 
ENDROOT
BRANCH   1   7
ATOM      7  C   UNL     1     135.520 141.542 142.438  1.00  0.00     0.341 C 
ATOM      8  O   UNL     1     136.488 140.930 141.909  1.00  0.00    -0.246 OA
BRANCH   7   9
ATOM      9  O   UNL     1     135.602 141.966 143.769  1.00  0.00    -0.465 OA
ATOM     10  C   UNL     1     136.830 142.345 144.379  1.00  0.00     0.282 C 
ENDBRANCH   7   9
ENDBRANCH   1   7
BRANCH   6  11
ATOM     11  O   UNL     1     134.223 139.448 140.788  1.00  0.00    -0.507 OA
ATOM     12  H   UNL     1     133.645 138.633 140.636  1.00  0.00     0.293 HD
ENDBRANCH   6  11
TORSDOF 3
ENDMDL
MODEL 9
REMARK VINA RESULT:    -3.036      8.208      9.211
REMARK INTER + INTRA:          -3.712
REMARK INTER:                  -3.365
REMARK INTRA:                  -0.347
REMARK UNBOUND:                -0.233
REMARK SMILES COC(=O)c1ccccc1O
REMARK SMILES IDX 5 1 6 2 7 3 8 4 9 5 10 6 3 7 4 8 2 9 1 10 11 11
REMARK H PARENT 11 12
REMARK Flexibility Score: inf
ROOT
ATOM      1  C   UNL     1     135.693 141.734 142.635  1.00  0.00     0.101 A 
ATOM      2  C   UNL     1     135.807 142.127 143.981  1.00  0.00     0.019 A 
ATOM      3  C   UNL     1     136.923 141.763 144.737  1.00  0.00     0.001 A 
ATOM      4  C   UNL     1     137.940 141.003 144.161  1.00  0.00     0.004 A 
ATOM      5  C   UNL     1     137.853 140.623 142.821  1.00  0.00     0.047 A 
ATOM      6  C   UNL     1     136.750 140.998 142.043  1.00  0.00     0.130 A 
ENDROOT
BRANCH   1   7
ATOM      7  C   UNL     1     134.455 142.072 141.900  1.00  0.00     0.341 C 
ATOM      8  O   UNL     1     133.864 143.161 142.137  1.00  0.00    -0.246 OA
BRANCH   7   9
ATOM      9  O   UNL     1     133.908 141.163 140.988  1.00  0.00    -0.465 OA
ATOM     10  C   UNL     1     133.195 140.001 141.394  1.00  0.00     0.282 C 
ENDBRANCH   7   9
ENDBRANCH   1   7
BRANCH   6  11
ATOM     11  O   UNL     1     136.759 140.652 140.690  1.00  0.00    -0.507 OA
ATOM     12  H   UNL     1     136.851 139.702 140.359  1.00  0.00     0.293 HD
ENDBRANCH   6  11
TORSDOF 3
ENDMDL
