MODEL 1
REMARK VINA RESULT:    -4.892      0.000      0.000
REMARK INTER + INTRA:          -8.006
REMARK INTER:                  -7.179
REMARK INTRA:                  -0.826
REMARK UNBOUND:                -0.826
REMARK SMILES CCCOC(=O)c1ccccc1C(=O)OCCC
REMARK SMILES IDX 7 1 8 2 9 3 10 4 11 5 12 6 5 7 6 8 4 9 3 10 2 11 1 12 13 13
REMARK SMILES IDX 14 14 15 15 16 16 17 17 18 18
REMARK H PARENT
REMARK Flexibility Score: inf
ROOT
ATOM      1  C   UNL     1      12.672 -13.218 -44.684  1.00  0.00     0.074 A 
ATOM      2  C   UNL     1      13.814 -13.929 -45.093  1.00  0.00     0.016 A 
ATOM      3  C   UNL     1      15.073 -13.608 -44.584  1.00  0.00     0.001 A 
ATOM      4  C   UNL     1      15.211 -12.575 -43.660  1.00  0.00     0.001 A 
ATOM      5  C   UNL     1      14.087 -11.873 -43.223  1.00  0.00     0.016 A 
ATOM      6  C   UNL     1      12.806 -12.194 -43.705  1.00  0.00     0.074 A 
ENDROOT
BRANCH   1   7
ATOM      7  C   UNL     1      11.387 -13.536 -45.346  1.00  0.00     0.339 C 
ATOM      8  O   UNL     1      10.655 -14.462 -44.901  1.00  0.00    -0.246 OA
BRANCH   7   9
ATOM      9  O   UNL     1      10.962 -12.761 -46.432  1.00  0.00    -0.462 OA
BRANCH   9  10
ATOM     10  C   UNL     1       9.602 -12.384 -46.642  1.00  0.00     0.233 C 
BRANCH  10  11
ATOM     11  C   UNL     1       9.159 -11.368 -45.586  1.00  0.00     0.038 C 
ATOM     12  C   UNL     1       7.791 -10.781 -45.924  1.00  0.00     0.007 C 
ENDBRANCH  10  11
ENDBRANCH   9  10
ENDBRANCH   7   9
ENDBRANCH   1   7
BRANCH   6  13
ATOM     13  C   UNL     1      11.646 -11.487 -43.115  1.00  0.00     0.339 C 
ATOM     14  O   UNL     1      10.771 -12.127 -42.469  1.00  0.00    -0.246 OA
BRANCH  13  15
ATOM     15  O   UNL     1      11.561 -10.092 -43.225  1.00  0.00    -0.462 OA
BRANCH  15  16
ATOM     16  C   UNL     1      11.975  -9.359 -44.377  1.00  0.00     0.233 C 
BRANCH  16  17
ATOM     17  C   UNL     1      11.043  -8.171 -44.642  1.00  0.00     0.038 C 
ATOM     18  C   UNL     1      10.001  -7.986 -43.541  1.00  0.00     0.007 C 
ENDBRANCH  16  17
ENDBRANCH  15  16
ENDBRANCH  13  15
ENDBRANCH   6  13
TORSDOF 8
ENDMDL
MODEL 2
REMARK VINA RESULT:    -4.881      0.410      3.426
REMARK INTER + INTRA:          -7.990
REMARK INTER:                  -7.013
REMARK INTRA:                  -0.977
REMARK UNBOUND:                -0.826
REMARK SMILES CCCOC(=O)c1ccccc1C(=O)OCCC
REMARK SMILES IDX 7 1 8 2 9 3 10 4 11 5 12 6 5 7 6 8 4 9 3 10 2 11 1 12 13 13
REMARK SMILES IDX 14 14 15 15 16 16 17 17 18 18
REMARK H PARENT
REMARK Flexibility Score: inf
ROOT
ATOM      1  C   UNL     1      12.770 -12.269 -43.817  1.00  0.00     0.074 A 
ATOM      2  C   UNL     1      14.004 -11.840 -43.296  1.00  0.00     0.016 A 
ATOM      3  C   UNL     1      15.203 -12.379 -43.766  1.00  0.00     0.001 A 
ATOM      4  C   UNL     1      15.188 -13.351 -44.762  1.00  0.00     0.001 A 
ATOM      5  C   UNL     1      13.976 -13.773 -45.310  1.00  0.00     0.016 A 
ATOM      6  C   UNL     1      12.758 -13.228 -44.867  1.00  0.00     0.074 A 
ENDROOT
BRANCH   1   7
ATOM      7  C   UNL     1      11.536 -11.738 -43.196  1.00  0.00     0.339 C 
ATOM      8  O   UNL     1      10.804 -12.490 -42.497  1.00  0.00    -0.246 OA
BRANCH   7   9
ATOM      9  O   UNL     1      11.222 -10.381 -43.340  1.00  0.00    -0.462 OA
BRANCH   9  10
ATOM     10  C   UNL     1      11.269  -9.694 -44.589  1.00  0.00     0.233 C 
BRANCH  10  11
ATOM     11  C   UNL     1      11.111  -8.186 -44.376  1.00  0.00     0.038 C 
ATOM     12  C   UNL     1       9.830  -7.867 -43.609  1.00  0.00     0.007 C 
ENDBRANCH  10  11
ENDBRANCH   9  10
ENDBRANCH   7   9
ENDBRANCH   1   7
BRANCH   6  13
ATOM     13  C   UNL     1      11.519 -13.638 -45.570  1.00  0.00     0.339 C 
ATOM     14  O   UNL     1      11.017 -14.776 -45.362  1.00  0.00    -0.246 OA
BRANCH  13  15
ATOM     15  O   UNL     1      10.874 -12.726 -46.417  1.00  0.00    -0.462 OA
BRANCH  15  16
ATOM     16  C   UNL     1       9.474 -12.749 -46.691  1.00  0.00     0.233 C 
BRANCH  16  17
ATOM     17  C   UNL     1       8.676 -12.105 -45.551  1.00  0.00     0.038 C 
ATOM     18  C   UNL     1       7.948 -10.836 -45.988  1.00  0.00     0.007 C 
ENDBRANCH  16  17
ENDBRANCH  15  16
ENDBRANCH  13  15
ENDBRANCH   6  13
TORSDOF 8
ENDMDL
MODEL 3
REMARK VINA RESULT:    -4.873      1.120      4.984
REMARK INTER + INTRA:          -7.979
REMARK INTER:                  -6.953
REMARK INTRA:                  -1.026
REMARK UNBOUND:                -0.826
REMARK SMILES CCCOC(=O)c1ccccc1C(=O)OCCC
REMARK SMILES IDX 7 1 8 2 9 3 10 4 11 5 12 6 5 7 6 8 4 9 3 10 2 11 1 12 13 13
REMARK SMILES IDX 14 14 15 15 16 16 17 17 18 18
REMARK H PARENT
REMARK Flexibility Score: inf
ROOT
ATOM      1  C   UNL     1       9.767 -11.659 -44.938  1.00  0.00     0.074 A 
ATOM      2  C   UNL     1       8.747 -10.835 -45.446  1.00  0.00     0.016 A 
ATOM      3  C   UNL     1       7.819 -11.332 -46.362  1.00  0.00     0.001 A 
ATOM      4  C   UNL     1       7.895 -12.656 -46.785  1.00  0.00     0.001 A 
ATOM      5  C   UNL     1       8.885 -13.498 -46.275  1.00  0.00     0.016 A 
ATOM      6  C   UNL     1       9.816 -13.025 -45.334  1.00  0.00     0.074 A 
ENDROOT
BRANCH   1   7
ATOM      7  C   UNL     1      10.782 -11.039 -44.057  1.00  0.00     0.339 C 
ATOM      8  O   UNL     1      10.817 -11.326 -42.830  1.00  0.00    -0.246 OA
BRANCH   7   9
ATOM      9  O   UNL     1      11.740 -10.180 -44.609  1.00  0.00    -0.462 OA
BRANCH   9  10
ATOM     10  C   UNL     1      11.914  -8.827 -44.191  1.00  0.00     0.233 C 
BRANCH  10  11
ATOM     11  C   UNL     1      10.598  -8.055 -44.317  1.00  0.00     0.038 C 
ATOM     12  C   UNL     1      10.016  -7.728 -42.944  1.00  0.00     0.007 C 
ENDBRANCH  10  11
ENDBRANCH   9  10
ENDBRANCH   7   9
ENDBRANCH   1   7
BRANCH   6  13
ATOM     13  C   UNL     1      10.767 -13.999 -44.750  1.00  0.00     0.339 C 
ATOM     14  O   UNL     1      10.465 -14.633 -43.701  1.00  0.00    -0.246 OA
BRANCH  13  15
ATOM     15  O   UNL     1      11.977 -14.261 -45.408  1.00  0.00    -0.462 OA
BRANCH  15  16
ATOM     16  C   UNL     1      13.135 -13.433 -45.301  1.00  0.00     0.233 C 
BRANCH  16  17
ATOM     17  C   UNL     1      13.682 -13.430 -43.870  1.00  0.00     0.038 C 
ATOM     18  C   UNL     1      14.395 -12.127 -43.516  1.00  0.00     0.007 C 
ENDBRANCH  16  17
ENDBRANCH  15  16
ENDBRANCH  13  15
ENDBRANCH   6  13
TORSDOF 8
ENDMDL
MODEL 4
REMARK VINA RESULT:    -4.856      1.790      4.860
REMARK INTER + INTRA:          -7.953
REMARK INTER:                  -7.334
REMARK INTRA:                  -0.620
REMARK UNBOUND:                -0.826
REMARK SMILES CCCOC(=O)c1ccccc1C(=O)OCCC
REMARK SMILES IDX 7 1 8 2 9 3 10 4 11 5 12 6 5 7 6 8 4 9 3 10 2 11 1 12 13 13
REMARK SMILES IDX 14 14 15 15 16 16 17 17 18 18
REMARK H PARENT
REMARK Flexibility Score: inf
ROOT
ATOM      1  C   UNL     1      10.024 -11.763 -44.695  1.00  0.00     0.074 A 
ATOM      2  C   UNL     1       9.440 -12.913 -45.255  1.00  0.00     0.016 A 
ATOM      3  C   UNL     1       8.348 -12.810 -46.118  1.00  0.00     0.001 A 
ATOM      4  C   UNL     1       7.823 -11.560 -46.435  1.00  0.00     0.001 A 
ATOM      5  C   UNL     1       8.403 -10.404 -45.909  1.00  0.00     0.016 A 
ATOM      6  C   UNL     1       9.518 -10.483 -45.055  1.00  0.00     0.074 A 
ENDROOT
BRANCH   1   7
ATOM      7  C   UNL     1      11.106 -11.950 -43.703  1.00  0.00     0.339 C 
ATOM      8  O   UNL     1      10.827 -12.128 -42.486  1.00  0.00    -0.246 OA
BRANCH   7   9
ATOM      9  O   UNL     1      12.437 -11.990 -44.135  1.00  0.00    -0.462 OA
BRANCH   9  10
ATOM     10  C   UNL     1      13.551 -11.796 -43.265  1.00  0.00     0.233 C 
BRANCH  10  11
ATOM     11  C   UNL     1      14.820 -11.516 -44.075  1.00  0.00     0.038 C 
ATOM     12  C   UNL     1      16.073 -11.741 -43.233  1.00  0.00     0.007 C 
ENDBRANCH  10  11
ENDBRANCH   9  10
ENDBRANCH   7   9
ENDBRANCH   1   7
BRANCH   6  13
ATOM     13  C   UNL     1      10.152  -9.215 -44.625  1.00  0.00     0.339 C 
ATOM     14  O   UNL     1      11.298  -8.901 -45.049  1.00  0.00    -0.246 OA
BRANCH  13  15
ATOM     15  O   UNL     1       9.442  -8.337 -43.795  1.00  0.00    -0.462 OA
BRANCH  15  16
ATOM     16  C   UNL     1      10.021  -7.645 -42.689  1.00  0.00     0.233 C 
BRANCH  16  17
ATOM     17  C   UNL     1      10.712  -8.619 -41.728  1.00  0.00     0.038 C 
ATOM     18  C   UNL     1      10.082  -8.618 -40.337  1.00  0.00     0.007 C 
ENDBRANCH  16  17
ENDBRANCH  15  16
ENDBRANCH  13  15
ENDBRANCH   6  13
TORSDOF 8
ENDMDL
MODEL 5
REMARK VINA RESULT:    -4.738      2.121      5.344
REMARK INTER + INTRA:          -7.780
REMARK INTER:                  -6.500
REMARK INTRA:                  -1.280
REMARK UNBOUND:                -0.826
REMARK SMILES CCCOC(=O)c1ccccc1C(=O)OCCC
REMARK SMILES IDX 7 1 8 2 9 3 10 4 11 5 12 6 5 7 6 8 4 9 3 10 2 11 1 12 13 13
REMARK SMILES IDX 14 14 15 15 16 16 17 17 18 18
REMARK H PARENT
REMARK Flexibility Score: inf
ROOT
ATOM      1  C   UNL     1       9.735 -11.636 -45.072  1.00  0.00     0.074 A 
ATOM      2  C   UNL     1       8.614 -10.820 -45.310  1.00  0.00     0.016 A 
ATOM      3  C   UNL     1       7.638 -11.199 -46.232  1.00  0.00     0.001 A 
ATOM      4  C   UNL     1       7.764 -12.398 -46.929  1.00  0.00     0.001 A 
ATOM      5  C   UNL     1       8.855 -13.234 -46.691  1.00  0.00     0.016 A 
ATOM      6  C   UNL     1       9.840 -12.883 -45.750  1.00  0.00     0.074 A 
ENDROOT
BRANCH   1   7
ATOM      7  C   UNL     1      10.785 -11.122 -44.166  1.00  0.00     0.339 C 
ATOM      8  O   UNL     1      10.797 -11.459 -42.951  1.00  0.00    -0.246 OA
BRANCH   7   9
ATOM      9  O   UNL     1      11.800 -10.307 -44.681  1.00  0.00    -0.462 OA
BRANCH   9  10
ATOM     10  C   UNL     1      12.032  -8.969 -44.243  1.00  0.00     0.233 C 
BRANCH  10  11
ATOM     11  C   UNL     1      10.884  -8.056 -44.683  1.00  0.00     0.038 C 
ATOM     12  C   UNL     1       9.984  -7.693 -43.505  1.00  0.00     0.007 C 
ENDBRANCH  10  11
ENDBRANCH   9  10
ENDBRANCH   7   9
ENDBRANCH   1   7
BRANCH   6  13
ATOM     13  C   UNL     1      10.909 -13.868 -45.464  1.00  0.00     0.339 C 
ATOM     14  O   UNL     1      12.081 -13.676 -45.891  1.00  0.00    -0.246 OA
BRANCH  13  15
ATOM     15  O   UNL     1      10.623 -14.981 -44.662  1.00  0.00    -0.462 OA
BRANCH  15  16
ATOM     16  C   UNL     1      10.776 -14.998 -43.243  1.00  0.00     0.233 C 
BRANCH  16  17
ATOM     17  C   UNL     1       9.452 -14.680 -42.540  1.00  0.00     0.038 C 
ATOM     18  C   UNL     1       8.237 -15.167 -43.326  1.00  0.00     0.007 C 
ENDBRANCH  16  17
ENDBRANCH  15  16
ENDBRANCH  13  15
ENDBRANCH   6  13
TORSDOF 8
ENDMDL
MODEL 6
REMARK VINA RESULT:    -4.636      1.297      4.148
REMARK INTER + INTRA:          -7.631
REMARK INTER:                  -6.711
REMARK INTRA:                  -0.920
REMARK UNBOUND:                -0.826
REMARK SMILES CCCOC(=O)c1ccccc1C(=O)OCCC
REMARK SMILES IDX 7 1 8 2 9 3 10 4 11 5 12 6 5 7 6 8 4 9 3 10 2 11 1 12 13 13
REMARK SMILES IDX 14 14 15 15 16 16 17 17 18 18
REMARK H PARENT
REMARK Flexibility Score: inf
ROOT
ATOM      1  C   UNL     1       9.564 -13.108 -45.340  1.00  0.00     0.074 A 
ATOM      2  C   UNL     1       8.599 -13.480 -46.294  1.00  0.00     0.016 A 
ATOM      3  C   UNL     1       7.721 -12.536 -46.826  1.00  0.00     0.001 A 
ATOM      4  C   UNL     1       7.791 -11.207 -46.415  1.00  0.00     0.001 A 
ATOM      5  C   UNL     1       8.757 -10.811 -45.489  1.00  0.00     0.016 A 
ATOM      6  C   UNL     1       9.667 -11.741 -44.956  1.00  0.00     0.074 A 
ENDROOT
BRANCH   1   7
ATOM      7  C   UNL     1      10.388 -14.178 -44.736  1.00  0.00     0.339 C 
ATOM      8  O   UNL     1      10.040 -14.708 -43.647  1.00  0.00    -0.246 OA
BRANCH   7   9
ATOM      9  O   UNL     1      11.523 -14.639 -45.415  1.00  0.00    -0.462 OA
BRANCH   9  10
ATOM     10  C   UNL     1      12.336 -13.806 -46.240  1.00  0.00     0.233 C 
BRANCH  10  11
ATOM     11  C   UNL     1      13.816 -13.999 -45.900  1.00  0.00     0.038 C 
ATOM     12  C   UNL     1      14.279 -12.988 -44.855  1.00  0.00     0.007 C 
ENDBRANCH  10  11
ENDBRANCH   9  10
ENDBRANCH   7   9
ENDBRANCH   1   7
BRANCH   6  13
ATOM     13  C   UNL     1      10.736 -11.233 -44.066  1.00  0.00     0.339 C 
ATOM     14  O   UNL     1      10.740 -11.534 -42.840  1.00  0.00    -0.246 OA
BRANCH  13  15
ATOM     15  O   UNL     1      11.780 -10.470 -44.608  1.00  0.00    -0.462 OA
BRANCH  15  16
ATOM     16  C   UNL     1      12.075  -9.132 -44.210  1.00  0.00     0.233 C 
BRANCH  16  17
ATOM     17  C   UNL     1      10.991  -8.160 -44.689  1.00  0.00     0.038 C 
ATOM     18  C   UNL     1      10.018  -7.772 -43.577  1.00  0.00     0.007 C 
ENDBRANCH  16  17
ENDBRANCH  15  16
ENDBRANCH  13  15
ENDBRANCH   6  13
TORSDOF 8
ENDMDL
MODEL 7
REMARK VINA RESULT:    -4.630      1.721      4.009
REMARK INTER + INTRA:          -7.621
REMARK INTER:                  -6.758
REMARK INTRA:                  -0.863
REMARK UNBOUND:                -0.826
REMARK SMILES CCCOC(=O)c1ccccc1C(=O)OCCC
REMARK SMILES IDX 7 1 8 2 9 3 10 4 11 5 12 6 5 7 6 8 4 9 3 10 2 11 1 12 13 13
REMARK SMILES IDX 14 14 15 15 16 16 17 17 18 18
REMARK H PARENT
REMARK Flexibility Score: inf
ROOT
ATOM      1  C   UNL     1      10.177 -11.085 -44.655  1.00  0.00     0.074 A 
ATOM      2  C   UNL     1       9.867  -9.769 -45.041  1.00  0.00     0.016 A 
ATOM      3  C   UNL     1      10.191  -8.689 -44.218  1.00  0.00     0.001 A 
ATOM      4  C   UNL     1      10.828  -8.907 -43.000  1.00  0.00     0.001 A 
ATOM      5  C   UNL     1      11.166 -10.203 -42.609  1.00  0.00     0.016 A 
ATOM      6  C   UNL     1      10.870 -11.304 -43.432  1.00  0.00     0.074 A 
ENDROOT
BRANCH   1   7
ATOM      7  C   UNL     1       9.706 -12.188 -45.522  1.00  0.00     0.339 C 
ATOM      8  O   UNL     1      10.487 -12.713 -46.362  1.00  0.00    -0.246 OA
BRANCH   7   9
ATOM      9  O   UNL     1       8.407 -12.684 -45.360  1.00  0.00    -0.462 OA
BRANCH   9  10
ATOM     10  C   UNL     1       7.462 -12.772 -46.425  1.00  0.00     0.233 C 
BRANCH  10  11
ATOM     11  C   UNL     1       7.408 -14.199 -46.977  1.00  0.00     0.038 C 
ATOM     12  C   UNL     1       7.887 -14.248 -48.426  1.00  0.00     0.007 C 
ENDBRANCH  10  11
ENDBRANCH   9  10
ENDBRANCH   7   9
ENDBRANCH   1   7
BRANCH   6  13
ATOM     13  C   UNL     1      11.357 -12.637 -43.010  1.00  0.00     0.339 C 
ATOM     14  O   UNL     1      10.557 -13.482 -42.522  1.00  0.00    -0.246 OA
BRANCH  13  15
ATOM     15  O   UNL     1      12.702 -12.976 -43.217  1.00  0.00    -0.462 OA
BRANCH  15  16
ATOM     16  C   UNL     1      13.445 -12.608 -44.378  1.00  0.00     0.233 C 
BRANCH  16  17
ATOM     17  C   UNL     1      14.452 -11.497 -44.061  1.00  0.00     0.038 C 
ATOM     18  C   UNL     1      15.479 -11.917 -43.012  1.00  0.00     0.007 C 
ENDBRANCH  16  17
ENDBRANCH  15  16
ENDBRANCH  13  15
ENDBRANCH   6  13
TORSDOF 8
ENDMDL
MODEL 8
REMARK VINA RESULT:    -4.578      1.560      4.350
REMARK INTER + INTRA:          -7.546
REMARK INTER:                  -6.748
REMARK INTRA:                  -0.798
REMARK UNBOUND:                -0.826
REMARK SMILES CCCOC(=O)c1ccccc1C(=O)OCCC
REMARK SMILES IDX 7 1 8 2 9 3 10 4 11 5 12 6 5 7 6 8 4 9 3 10 2 11 1 12 13 13
REMARK SMILES IDX 14 14 15 15 16 16 17 17 18 18
REMARK H PARENT
REMARK Flexibility Score: inf
ROOT
ATOM      1  C   UNL     1      10.297 -11.020 -44.543  1.00  0.00     0.074 A 
ATOM      2  C   UNL     1       9.551  -9.891 -44.927  1.00  0.00     0.016 A 
ATOM      3  C   UNL     1       9.644  -8.698 -44.209  1.00  0.00     0.001 A 
ATOM      4  C   UNL     1      10.481  -8.613 -43.100  1.00  0.00     0.001 A 
ATOM      5  C   UNL     1      11.248  -9.714 -42.716  1.00  0.00     0.016 A 
ATOM      6  C   UNL     1      11.187 -10.920 -43.438  1.00  0.00     0.074 A 
ENDROOT
BRANCH   1   7
ATOM      7  C   UNL     1      10.067 -12.283 -45.279  1.00  0.00     0.339 C 
ATOM      8  O   UNL     1       9.116 -13.044 -44.953  1.00  0.00    -0.246 OA
BRANCH   7   9
ATOM      9  O   UNL     1      10.875 -12.596 -46.379  1.00  0.00    -0.462 OA
BRANCH   9  10
ATOM     10  C   UNL     1      11.262 -13.927 -46.715  1.00  0.00     0.233 C 
BRANCH  10  11
ATOM     11  C   UNL     1      12.530 -14.324 -45.954  1.00  0.00     0.038 C 
ATOM     12  C   UNL     1      13.779 -14.075 -46.795  1.00  0.00     0.007 C 
ENDBRANCH  10  11
ENDBRANCH   9  10
ENDBRANCH   7   9
ENDBRANCH   1   7
BRANCH   6  13
ATOM     13  C   UNL     1      12.111 -12.010 -43.046  1.00  0.00     0.339 C 
ATOM     14  O   UNL     1      11.658 -13.142 -42.722  1.00  0.00    -0.246 OA
BRANCH  13  15
ATOM     15  O   UNL     1      13.495 -11.793 -43.100  1.00  0.00    -0.462 OA
BRANCH  15  16
ATOM     16  C   UNL     1      14.185 -11.353 -44.269  1.00  0.00     0.233 C 
BRANCH  16  17
ATOM     17  C   UNL     1      15.667 -11.741 -44.215  1.00  0.00     0.038 C 
ATOM     18  C   UNL     1      16.220 -11.754 -42.792  1.00  0.00     0.007 C 
ENDBRANCH  16  17
ENDBRANCH  15  16
ENDBRANCH  13  15
ENDBRANCH   6  13
TORSDOF 8
ENDMDL
MODEL 9
REMARK VINA RESULT:    -4.573      1.551      2.303
REMARK INTER + INTRA:          -7.538
REMARK INTER:                  -6.555
REMARK INTRA:                  -0.983
REMARK UNBOUND:                -0.826
REMARK SMILES CCCOC(=O)c1ccccc1C(=O)OCCC
REMARK SMILES IDX 7 1 8 2 9 3 10 4 11 5 12 6 5 7 6 8 4 9 3 10 2 11 1 12 13 13
REMARK SMILES IDX 14 14 15 15 16 16 17 17 18 18
REMARK H PARENT
REMARK Flexibility Score: inf
ROOT
ATOM      1  C   UNL     1      12.987 -13.338 -44.852  1.00  0.00     0.074 A 
ATOM      2  C   UNL     1      14.291 -13.641 -45.282  1.00  0.00     0.016 A 
ATOM      3  C   UNL     1      15.399 -13.046 -44.677  1.00  0.00     0.001 A 
ATOM      4  C   UNL     1      15.222 -12.141 -43.634  1.00  0.00     0.001 A 
ATOM      5  C   UNL     1      13.938 -11.844 -43.175  1.00  0.00     0.016 A 
ATOM      6  C   UNL     1      12.809 -12.449 -43.756  1.00  0.00     0.074 A 
ENDROOT
BRANCH   1   7
ATOM      7  C   UNL     1      11.857 -13.918 -45.611  1.00  0.00     0.339 C 
ATOM      8  O   UNL     1      11.304 -14.979 -45.213  1.00  0.00    -0.246 OA
BRANCH   7   9
ATOM      9  O   UNL     1      11.368 -13.247 -46.738  1.00  0.00    -0.462 OA
BRANCH   9  10
ATOM     10  C   UNL     1      11.206 -13.868 -48.012  1.00  0.00     0.233 C 
BRANCH  10  11
ATOM     11  C   UNL     1      12.481 -14.619 -48.407  1.00  0.00     0.038 C 
ATOM     12  C   UNL     1      13.454 -13.704 -49.146  1.00  0.00     0.007 C 
ENDBRANCH  10  11
ENDBRANCH   9  10
ENDBRANCH   7   9
ENDBRANCH   1   7
BRANCH   6  13
ATOM     13  C   UNL     1      11.486 -12.176 -43.147  1.00  0.00     0.339 C 
ATOM     14  O   UNL     1      10.918 -13.053 -42.440  1.00  0.00    -0.246 OA
BRANCH  13  15
ATOM     15  O   UNL     1      10.901 -10.913 -43.308  1.00  0.00    -0.462 OA
BRANCH  15  16
ATOM     16  C   UNL     1      10.749 -10.263 -44.570  1.00  0.00     0.233 C 
BRANCH  16  17
ATOM     17  C   UNL     1      11.186  -8.796 -44.493  1.00  0.00     0.038 C 
ATOM     18  C   UNL     1      10.158  -7.912 -43.791  1.00  0.00     0.007 C 
ENDBRANCH  16  17
ENDBRANCH  15  16
ENDBRANCH  13  15
ENDBRANCH   6  13
TORSDOF 8
ENDMDL
