MODEL 1
REMARK VINA RESULT:    -3.535      0.000      0.000
REMARK INTER + INTRA:          -5.732
REMARK INTER:                  -5.394
REMARK INTRA:                  -0.337
REMARK UNBOUND:                -0.337
REMARK SMILES CC1=CCC[C@@H](C)C(=O)C[C@@H](C(C)C)C(=O)C1
REMARK SMILES IDX 8 1 9 2 6 3 7 4 5 5 4 6 3 7 2 8 1 9 10 11 11 12 15 13 16 14
REMARK SMILES IDX 17 15 12 17 13 18 14 19
REMARK H PARENT
REMARK Flexibility Score: 70.00
ROOT
ATOM      1  C   UNL     1      26.242  44.690 142.218  1.00  0.00     0.136 C 
ATOM      2  O   UNL     1      27.212  45.340 141.850  1.00  0.00    -0.299 OA
ENDROOT
BRANCH   1   3
ATOM      3  C   UNL     1      24.919  44.834 141.461  1.00  0.00     0.053 C 
ATOM      4  C   UNL     1      23.768  45.260 142.387  1.00  0.00     0.016 C 
BRANCH   3   5
ATOM      5  C   UNL     1      24.526  43.535 140.701  1.00  0.00     0.015 C 
BRANCH   5   6
ATOM      6  C   UNL     1      23.410  42.683 141.341  1.00  0.00     0.028 C 
BRANCH   6   7
ATOM      7  C   UNL     1      23.619  41.185 141.453  1.00  0.00    -0.028 C 
ATOM      8  C   UNL     1      24.216  40.505 142.464  1.00  0.00    -0.070 CG0
ATOM      9  C   UNL     1      24.141  38.997 142.427  1.00  0.00     0.039 C 
ATOM     10  G   UNL     1      25.041  41.147 143.567  1.00  0.00     0.000 G0
ENDBRANCH   6   7
ENDBRANCH   5   6
ENDBRANCH   3   5
ENDBRANCH   1   3
BRANCH   1  11
ATOM     11  C   UNL     1      26.451  43.700 143.359  1.00  0.00     0.087 C 
BRANCH  11  12
ATOM     12  C   UNL     1      27.292  42.450 142.991  1.00  0.00     0.066 C 
BRANCH  12  13
ATOM     13  C   UNL     1      26.540  41.153 143.241  1.00  0.00     0.140 C 
ATOM     14  O   UNL     1      27.179  40.110 143.245  1.00  0.00    -0.299 OA
BRANCH  13  15
ATOM     15  C   UNL     1      25.060  41.118 143.590  1.00  0.00     0.106 CG0
ATOM     16  G   UNL     1      24.242  40.509 142.463  1.00  0.00     0.000 G0
ENDBRANCH  13  15
ENDBRANCH  12  13
BRANCH  12  17
ATOM     17  C   UNL     1      28.675  42.424 143.721  1.00  0.00    -0.006 C 
ATOM     18  C   UNL     1      28.892  43.659 144.614  1.00  0.00     0.008 C 
ATOM     19  C   UNL     1      29.838  42.333 142.715  1.00  0.00     0.008 C 
ENDBRANCH  12  17
ENDBRANCH  11  12
ENDBRANCH   1  11
TORSDOF 1
ENDMDL
MODEL 2
REMARK VINA RESULT:    -3.472     11.222     12.709
REMARK INTER + INTRA:          -5.636
REMARK INTER:                  -5.238
REMARK INTRA:                  -0.398
REMARK UNBOUND:                -0.337
REMARK SMILES CC1=CCC[C@@H](C)C(=O)C[C@@H](C(C)C)C(=O)C1
REMARK SMILES IDX 8 1 9 2 6 3 7 4 5 5 4 6 3 7 2 8 1 9 10 11 11 12 15 13 16 14
REMARK SMILES IDX 17 15 12 17 13 18 14 19
REMARK H PARENT
REMARK Flexibility Score: 70.00
ROOT
ATOM      1  C   UNL     1      28.712  29.946 140.656  1.00  0.00     0.136 C 
ATOM      2  O   UNL     1      29.769  29.346 140.798  1.00  0.00    -0.299 OA
ENDROOT
BRANCH   1   3
ATOM      3  C   UNL     1      28.270  30.941 141.733  1.00  0.00     0.053 C 
ATOM      4  C   UNL     1      29.281  32.087 141.908  1.00  0.00     0.016 C 
BRANCH   3   5
ATOM      5  C   UNL     1      28.013  30.255 143.105  1.00  0.00     0.015 C 
BRANCH   5   6
ATOM      6  C   UNL     1      26.546  29.888 143.418  1.00  0.00     0.028 C 
BRANCH   6   7
ATOM      7  C   UNL     1      25.446  30.764 142.850  1.00  0.00    -0.028 C 
ATOM      8  C   UNL     1      24.730  30.564 141.715  1.00  0.00    -0.070 CG0
ATOM      9  C   UNL     1      23.563  31.486 141.457  1.00  0.00     0.039 C 
ATOM     10  G   UNL     1      25.085  29.552 140.638  1.00  0.00     0.000 G0
ENDBRANCH   6   7
ENDBRANCH   5   6
ENDBRANCH   3   5
ENDBRANCH   1   3
BRANCH   1  11
ATOM     11  C   UNL     1      27.948  29.727 139.354  1.00  0.00     0.087 C 
BRANCH  11  12
ATOM     12  C   UNL     1      26.849  30.781 139.059  1.00  0.00     0.066 C 
BRANCH  12  13
ATOM     13  C   UNL     1      25.449  30.245 139.319  1.00  0.00     0.140 C 
ATOM     14  O   UNL     1      24.635  30.303 138.409  1.00  0.00    -0.299 OA
BRANCH  13  15
ATOM     15  C   UNL     1      25.066  29.550 140.616  1.00  0.00     0.106 CG0
ATOM     16  G   UNL     1      24.708  30.556 141.697  1.00  0.00     0.000 G0
ENDBRANCH  13  15
ENDBRANCH  12  13
BRANCH  12  17
ATOM     17  C   UNL     1      26.947  31.358 137.609  1.00  0.00    -0.006 C 
ATOM     18  C   UNL     1      28.071  30.699 136.789  1.00  0.00     0.008 C 
ATOM     19  C   UNL     1      27.178  32.881 137.627  1.00  0.00     0.008 C 
ENDBRANCH  12  17
ENDBRANCH  11  12
ENDBRANCH   1  11
TORSDOF 1
ENDMDL
MODEL 3
REMARK VINA RESULT:    -3.223     11.180     12.494
REMARK INTER + INTRA:          -5.257
REMARK INTER:                  -4.964
REMARK INTRA:                  -0.293
REMARK UNBOUND:                -0.337
REMARK SMILES CC1=CCC[C@@H](C)C(=O)C[C@@H](C(C)C)C(=O)C1
REMARK SMILES IDX 8 1 9 2 6 3 7 4 5 5 4 6 3 7 2 8 1 9 10 11 11 12 15 13 16 14
REMARK SMILES IDX 17 15 12 17 13 18 14 19
REMARK H PARENT
REMARK Flexibility Score: 70.00
ROOT
ATOM      1  C   UNL     1      28.621  30.089 141.958  1.00  0.00     0.136 C 
ATOM      2  O   UNL     1      29.102  29.493 142.913  1.00  0.00    -0.299 OA
ENDROOT
BRANCH   1   3
ATOM      3  C   UNL     1      29.083  29.725 140.544  1.00  0.00     0.053 C 
ATOM      4  C   UNL     1      29.821  30.889 139.861  1.00  0.00     0.016 C 
BRANCH   3   5
ATOM      5  C   UNL     1      27.911  29.245 139.642  1.00  0.00     0.015 C 
BRANCH   5   6
ATOM      6  C   UNL     1      27.362  30.277 138.633  1.00  0.00     0.028 C 
BRANCH   6   7
ATOM      7  C   UNL     1      25.862  30.369 138.438  1.00  0.00    -0.028 C 
ATOM      8  C   UNL     1      24.981  31.134 139.130  1.00  0.00    -0.070 CG0
ATOM      9  C   UNL     1      23.558  31.186 138.626  1.00  0.00     0.039 C 
ATOM     10  G   UNL     1      25.299  31.852 140.431  1.00  0.00     0.000 G0
ENDBRANCH   6   7
ENDBRANCH   5   6
ENDBRANCH   3   5
ENDBRANCH   1   3
BRANCH   1  11
ATOM     11  C   UNL     1      27.514  31.098 142.243  1.00  0.00     0.087 C 
BRANCH  11  12
ATOM     12  C   UNL     1      26.134  30.473 142.578  1.00  0.00     0.066 C 
BRANCH  12  13
ATOM     13  C   UNL     1      25.033  30.973 141.656  1.00  0.00     0.140 C 
ATOM     14  O   UNL     1      23.874  30.733 141.963  1.00  0.00    -0.299 OA
BRANCH  13  15
ATOM     15  C   UNL     1      25.315  31.844 140.440  1.00  0.00     0.106 CG0
ATOM     16  G   UNL     1      24.986  31.112 139.150  1.00  0.00     0.000 G0
ENDBRANCH  13  15
ENDBRANCH  12  13
BRANCH  12  17
ATOM     17  C   UNL     1      25.728  30.687 144.072  1.00  0.00    -0.006 C 
ATOM     18  C   UNL     1      26.714  31.598 144.825  1.00  0.00     0.008 C 
ATOM     19  C   UNL     1      25.624  29.345 144.822  1.00  0.00     0.008 C 
ENDBRANCH  12  17
ENDBRANCH  11  12
ENDBRANCH   1  11
TORSDOF 1
ENDMDL
MODEL 4
REMARK VINA RESULT:    -3.124      8.890     12.158
REMARK INTER + INTRA:          -5.106
REMARK INTER:                  -4.623
REMARK INTRA:                  -0.483
REMARK UNBOUND:                -0.337
REMARK SMILES CC1=CCC[C@@H](C)C(=O)C[C@@H](C(C)C)C(=O)C1
REMARK SMILES IDX 8 1 9 2 6 3 7 4 5 5 4 6 3 7 2 8 1 9 10 11 11 12 15 13 16 14
REMARK SMILES IDX 17 15 12 17 13 18 14 19
REMARK H PARENT
REMARK Flexibility Score: 70.00
ROOT
ATOM      1  C   UNL     1      27.892  29.797 139.631  1.00  0.00     0.136 C 
ATOM      2  O   UNL     1      28.604  28.803 139.568  1.00  0.00    -0.299 OA
ENDROOT
BRANCH   1   3
ATOM      3  C   UNL     1      28.397  31.113 139.033  1.00  0.00     0.053 C 
ATOM      4  C   UNL     1      28.672  30.993 137.524  1.00  0.00     0.016 C 
BRANCH   3   5
ATOM      5  C   UNL     1      29.668  31.644 139.756  1.00  0.00     0.015 C 
BRANCH   5   6
ATOM      6  C   UNL     1      29.425  32.508 141.012  1.00  0.00     0.028 C 
BRANCH   6   7
ATOM      7  C   UNL     1      28.272  33.492 141.000  1.00  0.00    -0.028 C 
ATOM      8  C   UNL     1      27.098  33.401 141.674  1.00  0.00    -0.070 CG0
ATOM      9  C   UNL     1      26.181  34.601 141.638  1.00  0.00     0.039 C 
ATOM     10  G   UNL     1      26.596  32.146 142.367  1.00  0.00     0.000 G0
ENDBRANCH   6   7
ENDBRANCH   5   6
ENDBRANCH   3   5
ENDBRANCH   1   3
BRANCH   1  11
ATOM     11  C   UNL     1      26.497  29.627 140.222  1.00  0.00     0.087 C 
BRANCH  11  12
ATOM     12  C   UNL     1      25.619  30.905 140.199  1.00  0.00     0.066 C 
BRANCH  12  13
ATOM     13  C   UNL     1      25.436  31.507 141.583  1.00  0.00     0.140 C 
ATOM     14  O   UNL     1      24.342  31.394 142.118  1.00  0.00    -0.299 OA
BRANCH  13  15
ATOM     15  C   UNL     1      26.581  32.137 142.361  1.00  0.00     0.106 CG0
ATOM     16  G   UNL     1      27.084  33.397 141.677  1.00  0.00     0.000 G0
ENDBRANCH  13  15
ENDBRANCH  12  13
BRANCH  12  17
ATOM     17  C   UNL     1      24.230  30.664 139.525  1.00  0.00    -0.006 C 
ATOM     18  C   UNL     1      24.128  29.276 138.866  1.00  0.00     0.008 C 
ATOM     19  C   UNL     1      23.929  31.738 138.462  1.00  0.00     0.008 C 
ENDBRANCH  12  17
ENDBRANCH  11  12
ENDBRANCH   1  11
TORSDOF 1
ENDMDL
MODEL 5
REMARK VINA RESULT:    -3.043      8.949     11.908
REMARK INTER + INTRA:          -4.981
REMARK INTER:                  -5.031
REMARK INTRA:                   0.049
REMARK UNBOUND:                -0.337
REMARK SMILES CC1=CCC[C@@H](C)C(=O)C[C@@H](C(C)C)C(=O)C1
REMARK SMILES IDX 8 1 9 2 6 3 7 4 5 5 4 6 3 7 2 8 1 9 10 11 11 12 15 13 16 14
REMARK SMILES IDX 17 15 12 17 13 18 14 19
REMARK H PARENT
REMARK Flexibility Score: 70.00
ROOT
ATOM      1  C   UNL     1      26.853  30.032 139.900  1.00  0.00     0.136 C 
ATOM      2  O   UNL     1      27.437  30.102 140.973  1.00  0.00    -0.299 OA
ENDROOT
BRANCH   1   3
ATOM      3  C   UNL     1      25.339  29.806 139.890  1.00  0.00     0.053 C 
ATOM      4  C   UNL     1      24.965  28.382 140.334  1.00  0.00     0.016 C 
BRANCH   3   5
ATOM      5  C   UNL     1      24.703  30.106 138.503  1.00  0.00     0.015 C 
BRANCH   5   6
ATOM      6  C   UNL     1      23.976  31.461 138.366  1.00  0.00     0.028 C 
BRANCH   6   7
ATOM      7  C   UNL     1      24.225  32.524 139.417  1.00  0.00    -0.028 C 
ATOM      8  C   UNL     1      25.230  33.435 139.452  1.00  0.00    -0.070 CG0
ATOM      9  C   UNL     1      25.160  34.508 140.513  1.00  0.00     0.039 C 
ATOM     10  G   UNL     1      26.469  33.388 138.573  1.00  0.00     0.000 G0
ENDBRANCH   6   7
ENDBRANCH   5   6
ENDBRANCH   3   5
ENDBRANCH   1   3
BRANCH   1  11
ATOM     11  C   UNL     1      27.672  30.275 138.637  1.00  0.00     0.087 C 
BRANCH  11  12
ATOM     12  C   UNL     1      28.450  31.616 138.611  1.00  0.00     0.066 C 
BRANCH  12  13
ATOM     13  C   UNL     1      27.661  32.753 139.242  1.00  0.00     0.140 C 
ATOM     14  O   UNL     1      28.065  33.214 140.300  1.00  0.00    -0.299 OA
BRANCH  13  15
ATOM     15  C   UNL     1      26.468  33.403 138.557  1.00  0.00     0.106 CG0
ATOM     16  G   UNL     1      25.255  33.428 139.471  1.00  0.00     0.000 G0
ENDBRANCH  13  15
ENDBRANCH  12  13
BRANCH  12  17
ATOM     17  C   UNL     1      28.914  32.012 137.172  1.00  0.00    -0.006 C 
ATOM     18  C   UNL     1      28.699  30.878 136.153  1.00  0.00     0.008 C 
ATOM     19  C   UNL     1      30.400  32.416 137.154  1.00  0.00     0.008 C 
ENDBRANCH  12  17
ENDBRANCH  11  12
ENDBRANCH   1  11
TORSDOF 1
ENDMDL
MODEL 6
REMARK VINA RESULT:    -3.034     10.763     12.617
REMARK INTER + INTRA:          -4.968
REMARK INTER:                  -5.134
REMARK INTRA:                   0.166
REMARK UNBOUND:                -0.337
REMARK SMILES CC1=CCC[C@@H](C)C(=O)C[C@@H](C(C)C)C(=O)C1
REMARK SMILES IDX 8 1 9 2 6 3 7 4 5 5 4 6 3 7 2 8 1 9 10 11 11 12 15 13 16 14
REMARK SMILES IDX 17 15 12 17 13 18 14 19
REMARK H PARENT
REMARK Flexibility Score: 70.00
ROOT
ATOM      1  C   UNL     1      27.996  30.872 137.810  1.00  0.00     0.136 C 
ATOM      2  O   UNL     1      28.678  30.728 136.804  1.00  0.00    -0.299 OA
ENDROOT
BRANCH   1   3
ATOM      3  C   UNL     1      28.665  31.356 139.099  1.00  0.00     0.053 C 
ATOM      4  C   UNL     1      29.767  32.394 138.823  1.00  0.00     0.016 C 
BRANCH   3   5
ATOM      5  C   UNL     1      29.248  30.186 139.941  1.00  0.00     0.015 C 
BRANCH   5   6
ATOM      6  C   UNL     1      28.336  29.630 141.056  1.00  0.00     0.028 C 
BRANCH   6   7
ATOM      7  C   UNL     1      27.338  30.567 141.707  1.00  0.00    -0.028 C 
ATOM      8  C   UNL     1      25.988  30.433 141.760  1.00  0.00    -0.070 CG0
ATOM      9  C   UNL     1      25.226  31.410 142.623  1.00  0.00     0.039 C 
ATOM     10  G   UNL     1      25.186  29.444 140.931  1.00  0.00     0.000 G0
ENDBRANCH   6   7
ENDBRANCH   5   6
ENDBRANCH   3   5
ENDBRANCH   1   3
BRANCH   1  11
ATOM     11  C   UNL     1      26.493  30.648 137.679  1.00  0.00     0.087 C 
BRANCH  11  12
ATOM     12  C   UNL     1      25.657  31.115 138.899  1.00  0.00     0.066 C 
BRANCH  12  13
ATOM     13  C   UNL     1      24.873  29.976 139.533  1.00  0.00     0.140 C 
ATOM     14  O   UNL     1      24.027  29.413 138.853  1.00  0.00    -0.299 OA
BRANCH  13  15
ATOM     15  C   UNL     1      25.178  29.448 140.927  1.00  0.00     0.106 CG0
ATOM     16  G   UNL     1      25.981  30.454 141.734  1.00  0.00     0.000 G0
ENDBRANCH  13  15
ENDBRANCH  12  13
BRANCH  12  17
ATOM     17  C   UNL     1      24.701  32.301 138.549  1.00  0.00    -0.006 C 
ATOM     18  C   UNL     1      25.465  33.606 138.260  1.00  0.00     0.008 C 
ATOM     19  C   UNL     1      23.693  32.561 139.685  1.00  0.00     0.008 C 
ENDBRANCH  12  17
ENDBRANCH  11  12
ENDBRANCH   1  11
TORSDOF 1
ENDMDL
MODEL 7
REMARK VINA RESULT:    -2.899     13.374     15.655
REMARK INTER + INTRA:          -4.762
REMARK INTER:                  -4.559
REMARK INTRA:                  -0.203
REMARK UNBOUND:                -0.337
REMARK SMILES CC1=CCC[C@@H](C)C(=O)C[C@@H](C(C)C)C(=O)C1
REMARK SMILES IDX 8 1 9 2 6 3 7 4 5 5 4 6 3 7 2 8 1 9 10 11 11 12 15 13 16 14
REMARK SMILES IDX 17 15 12 17 13 18 14 19
REMARK H PARENT
REMARK Flexibility Score: 70.00
ROOT
ATOM      1  C   UNL     1      34.633  33.637 133.176  1.00  0.00     0.136 C 
ATOM      2  O   UNL     1      33.638  34.124 132.657  1.00  0.00    -0.299 OA
ENDROOT
BRANCH   1   3
ATOM      3  C   UNL     1      35.885  33.416 132.322  1.00  0.00     0.053 C 
ATOM      4  C   UNL     1      35.538  32.919 130.908  1.00  0.00     0.016 C 
BRANCH   3   5
ATOM      5  C   UNL     1      36.892  32.436 132.989  1.00  0.00     0.015 C 
BRANCH   5   6
ATOM      6  C   UNL     1      38.087  33.083 133.721  1.00  0.00     0.028 C 
BRANCH   6   7
ATOM      7  C   UNL     1      38.045  34.573 133.996  1.00  0.00    -0.028 C 
ATOM      8  C   UNL     1      37.594  35.197 135.114  1.00  0.00    -0.070 CG0
ATOM      9  C   UNL     1      37.823  36.686 135.220  1.00  0.00     0.039 C 
ATOM     10  G   UNL     1      36.783  34.525 136.209  1.00  0.00     0.000 G0
ENDBRANCH   6   7
ENDBRANCH   5   6
ENDBRANCH   3   5
ENDBRANCH   1   3
BRANCH   1  11
ATOM     11  C   UNL     1      34.586  33.372 134.677  1.00  0.00     0.087 C 
BRANCH  11  12
ATOM     12  C   UNL     1      34.216  34.603 135.545  1.00  0.00     0.066 C 
BRANCH  12  13
ATOM     13  C   UNL     1      35.402  35.129 136.338  1.00  0.00     0.140 C 
ATOM     14  O   UNL     1      35.197  36.011 137.160  1.00  0.00    -0.299 OA
BRANCH  13  15
ATOM     15  C   UNL     1      36.795  34.528 136.225  1.00  0.00     0.106 CG0
ATOM     16  G   UNL     1      37.599  35.201 135.125  1.00  0.00     0.000 G0
ENDBRANCH  13  15
ENDBRANCH  12  13
BRANCH  12  17
ATOM     17  C   UNL     1      33.009  34.322 136.498  1.00  0.00    -0.006 C 
ATOM     18  C   UNL     1      32.697  32.820 136.624  1.00  0.00     0.008 C 
ATOM     19  C   UNL     1      31.738  35.051 136.022  1.00  0.00     0.008 C 
ENDBRANCH  12  17
ENDBRANCH  11  12
ENDBRANCH   1  11
TORSDOF 1
ENDMDL
MODEL 8
REMARK VINA RESULT:    -2.815     15.142     17.475
REMARK INTER + INTRA:          -4.634
REMARK INTER:                  -4.151
REMARK INTRA:                  -0.483
REMARK UNBOUND:                -0.337
REMARK SMILES CC1=CCC[C@@H](C)C(=O)C[C@@H](C(C)C)C(=O)C1
REMARK SMILES IDX 8 1 9 2 6 3 7 4 5 5 4 6 3 7 2 8 1 9 10 11 11 12 15 13 16 14
REMARK SMILES IDX 17 15 12 17 13 18 14 19
REMARK H PARENT
REMARK Flexibility Score: 70.00
ROOT
ATOM      1  C   UNL     1      37.574  34.271 136.118  1.00  0.00     0.136 C 
ATOM      2  O   UNL     1      37.069  34.106 137.220  1.00  0.00    -0.299 OA
ENDROOT
BRANCH   1   3
ATOM      3  C   UNL     1      36.662  34.458 134.902  1.00  0.00     0.053 C 
ATOM      4  C   UNL     1      35.300  35.057 135.290  1.00  0.00     0.016 C 
BRANCH   3   5
ATOM      5  C   UNL     1      36.448  33.135 134.113  1.00  0.00     0.015 C 
BRANCH   5   6
ATOM      6  C   UNL     1      37.474  32.832 133.000  1.00  0.00     0.028 C 
BRANCH   6   7
ATOM      7  C   UNL     1      38.031  33.990 132.196  1.00  0.00    -0.028 C 
ATOM      8  C   UNL     1      39.305  34.457 132.188  1.00  0.00    -0.070 CG0
ATOM      9  C   UNL     1      39.653  35.511 131.164  1.00  0.00     0.039 C 
ATOM     10  G   UNL     1      40.370  34.074 133.202  1.00  0.00     0.000 G0
ENDBRANCH   6   7
ENDBRANCH   5   6
ENDBRANCH   3   5
ENDBRANCH   1   3
BRANCH   1  11
ATOM     11  C   UNL     1      39.094  34.375 136.049  1.00  0.00     0.087 C 
BRANCH  11  12
ATOM     12  C   UNL     1      39.628  35.595 135.253  1.00  0.00     0.066 C 
BRANCH  12  13
ATOM     13  C   UNL     1      40.640  35.195 134.191  1.00  0.00     0.140 C 
ATOM     14  O   UNL     1      41.732  35.744 134.203  1.00  0.00    -0.299 OA
BRANCH  13  15
ATOM     15  C   UNL     1      40.385  34.072 133.197  1.00  0.00     0.106 CG0
ATOM     16  G   UNL     1      39.305  34.454 132.198  1.00  0.00     0.000 G0
ENDBRANCH  13  15
ENDBRANCH  12  13
BRANCH  12  17
ATOM     17  C   UNL     1      40.226  36.700 136.183  1.00  0.00    -0.006 C 
ATOM     18  C   UNL     1      40.440  36.203 137.624  1.00  0.00     0.008 C 
ATOM     19  C   UNL     1      39.325  37.949 136.220  1.00  0.00     0.008 C 
ENDBRANCH  12  17
ENDBRANCH  11  12
ENDBRANCH   1  11
TORSDOF 1
ENDMDL
MODEL 9
REMARK VINA RESULT:    -2.801      2.474      4.735
REMARK INTER + INTRA:          -4.612
REMARK INTER:                  -4.174
REMARK INTRA:                  -0.438
REMARK UNBOUND:                -0.337
REMARK SMILES CC1=CCC[C@@H](C)C(=O)C[C@@H](C(C)C)C(=O)C1
REMARK SMILES IDX 8 1 9 2 6 3 7 4 5 5 4 6 3 7 2 8 1 9 10 11 11 12 15 13 16 14
REMARK SMILES IDX 17 15 12 17 13 18 14 19
REMARK H PARENT
REMARK Flexibility Score: 70.00
ROOT
ATOM      1  C   UNL     1      26.042  43.105 142.948  1.00  0.00     0.136 C 
ATOM      2  O   UNL     1      25.129  42.805 143.706  1.00  0.00    -0.299 OA
ENDROOT
BRANCH   1   3
ATOM      3  C   UNL     1      26.984  44.249 143.335  1.00  0.00     0.053 C 
ATOM      4  C   UNL     1      27.492  45.019 142.104  1.00  0.00     0.016 C 
BRANCH   3   5
ATOM      5  C   UNL     1      28.193  43.762 144.183  1.00  0.00     0.015 C 
BRANCH   5   6
ATOM      6  C   UNL     1      29.458  43.359 143.397  1.00  0.00     0.028 C 
BRANCH   6   7
ATOM      7  C   UNL     1      29.925  41.919 143.470  1.00  0.00    -0.028 C 
ATOM      8  C   UNL     1      29.900  40.988 142.482  1.00  0.00    -0.070 CG0
ATOM      9  C   UNL     1      30.589  39.672 142.750  1.00  0.00     0.039 C 
ATOM     10  G   UNL     1      29.138  41.137 141.176  1.00  0.00     0.000 G0
ENDBRANCH   6   7
ENDBRANCH   5   6
ENDBRANCH   3   5
ENDBRANCH   1   3
BRANCH   1  11
ATOM     11  C   UNL     1      26.237  42.244 141.705  1.00  0.00     0.087 C 
BRANCH  11  12
ATOM     12  C   UNL     1      26.626  40.770 141.987  1.00  0.00     0.066 C 
BRANCH  12  13
ATOM     13  C   UNL     1      27.844  40.330 141.190  1.00  0.00     0.140 C 
ATOM     14  O   UNL     1      27.735  39.344 140.474  1.00  0.00    -0.299 OA
BRANCH  13  15
ATOM     15  C   UNL     1      29.139  41.126 141.166  1.00  0.00     0.106 CG0
ATOM     16  G   UNL     1      29.892  40.994 142.480  1.00  0.00     0.000 G0
ENDBRANCH  13  15
ENDBRANCH  12  13
BRANCH  12  17
ATOM     17  C   UNL     1      25.438  39.782 141.751  1.00  0.00    -0.006 C 
ATOM     18  C   UNL     1      24.199  40.482 141.164  1.00  0.00     0.008 C 
ATOM     19  C   UNL     1      25.031  39.072 143.057  1.00  0.00     0.008 C 
ENDBRANCH  12  17
ENDBRANCH  11  12
ENDBRANCH   1  11
TORSDOF 1
ENDMDL
