MODEL 1
REMARK VINA RESULT:    15.301      0.000      0.000
REMARK INTER + INTRA:          18.399
REMARK INTER:                  18.879
REMARK INTRA:                  -0.480
REMARK UNBOUND:                -0.480
REMARK SMILES CC(C)=CCC[C@@H](C)c1ccc(C)cc1
REMARK SMILES IDX 6 1 7 2 8 3 9 4 13 5 12 6 11 7 14 8 10 9 15 10 5 11 4 12
REMARK SMILES IDX 2 13 1 14 3 15
REMARK H PARENT
REMARK Flexibility Score: inf
ROOT
ATOM      1  C   UNL     1      18.662 -35.201 -28.325  1.00  0.00     0.012 C 
ENDROOT
BRANCH   1   2
ATOM      2  C   UNL     1      18.095 -33.760 -28.345  1.00  0.00     0.016 C 
ATOM      3  C   UNL     1      18.465 -33.014 -29.637  1.00  0.00     0.013 C 
BRANCH   2   4
ATOM      4  C   UNL     1      16.588 -33.777 -28.167  1.00  0.00    -0.045 A 
ATOM      5  C   UNL     1      12.302 -33.792 -27.631  1.00  0.00     0.044 C 
ATOM      6  C   UNL     1      13.785 -33.787 -27.847  1.00  0.00    -0.051 A 
ATOM      7  C   UNL     1      14.485 -32.574 -27.919  1.00  0.00     0.004 A 
ATOM      8  C   UNL     1      14.494 -34.996 -27.911  1.00  0.00     0.004 A 
ATOM      9  C   UNL     1      15.874 -32.568 -28.084  1.00  0.00     0.004 A 
ATOM     10  C   UNL     1      15.882 -34.992 -28.077  1.00  0.00     0.004 A 
ENDBRANCH   2   4
ENDBRANCH   1   2
BRANCH   1  11
ATOM     11  C   UNL     1      20.169 -35.265 -28.031  1.00  0.00     0.028 C 
BRANCH  11  12
ATOM     12  C   UNL     1      20.444 -35.974 -26.725  1.00  0.00    -0.028 C 
ATOM     13  C   UNL     1      21.381 -36.931 -26.542  1.00  0.00    -0.080 C 
ATOM     14  C   UNL     1      21.541 -37.523 -25.166  1.00  0.00     0.039 C 
ATOM     15  C   UNL     1      22.262 -37.417 -27.667  1.00  0.00     0.039 C 
ENDBRANCH  11  12
ENDBRANCH   1  11
TORSDOF 4
ENDMDL
MODEL 2
REMARK VINA RESULT:    16.781     14.203     16.094
REMARK INTER + INTRA:          20.225
REMARK INTER:                  20.815
REMARK INTRA:                  -0.590
REMARK UNBOUND:                -0.480
REMARK SMILES CC(C)=CCC[C@@H](C)c1ccc(C)cc1
REMARK SMILES IDX 6 1 7 2 8 3 9 4 13 5 12 6 11 7 14 8 10 9 15 10 5 11 4 12
REMARK SMILES IDX 2 13 1 14 3 15
REMARK H PARENT
REMARK Flexibility Score: inf
ROOT
ATOM      1  C   UNL     1      19.673 -23.706 -17.398  1.00  0.00     0.012 C 
ENDROOT
BRANCH   1   2
ATOM      2  C   UNL     1      20.483 -24.463 -18.479  1.00  0.00     0.016 C 
ATOM      3  C   UNL     1      20.739 -23.595 -19.722  1.00  0.00     0.013 C 
BRANCH   2   4
ATOM      4  C   UNL     1      21.801 -24.958 -17.909  1.00  0.00    -0.045 A 
ATOM      5  C   UNL     1      25.565 -26.326 -16.294  1.00  0.00     0.044 C 
ATOM      6  C   UNL     1      24.244 -25.863 -16.830  1.00  0.00    -0.051 A 
ATOM      7  C   UNL     1      23.778 -24.572 -16.543  1.00  0.00     0.004 A 
ATOM      8  C   UNL     1      23.495 -26.692 -17.679  1.00  0.00     0.004 A 
ATOM      9  C   UNL     1      22.564 -24.125 -17.072  1.00  0.00     0.004 A 
ATOM     10  C   UNL     1      22.281 -26.247 -18.208  1.00  0.00     0.004 A 
ENDBRANCH   2   4
ENDBRANCH   1   2
BRANCH   1  11
ATOM     11  C   UNL     1      18.971 -24.634 -16.394  1.00  0.00     0.028 C 
BRANCH  11  12
ATOM     12  C   UNL     1      17.586 -25.009 -16.871  1.00  0.00    -0.028 C 
ATOM     13  C   UNL     1      16.486 -24.232 -16.752  1.00  0.00    -0.080 C 
ATOM     14  C   UNL     1      15.182 -24.748 -17.302  1.00  0.00     0.039 C 
ATOM     15  C   UNL     1      16.528 -22.875 -16.092  1.00  0.00     0.039 C 
ENDBRANCH  11  12
ENDBRANCH   1  11
TORSDOF 4
ENDMDL
MODEL 3
REMARK VINA RESULT:    17.063     14.212     16.175
REMARK INTER + INTRA:          20.573
REMARK INTER:                  20.668
REMARK INTRA:                  -0.095
REMARK UNBOUND:                -0.480
REMARK SMILES CC(C)=CCC[C@@H](C)c1ccc(C)cc1
REMARK SMILES IDX 6 1 7 2 8 3 9 4 13 5 12 6 11 7 14 8 10 9 15 10 5 11 4 12
REMARK SMILES IDX 2 13 1 14 3 15
REMARK H PARENT
REMARK Flexibility Score: inf
ROOT
ATOM      1  C   UNL     1      20.613 -24.359 -18.512  1.00  0.00     0.012 C 
ENDROOT
BRANCH   1   2
ATOM      2  C   UNL     1      21.272 -25.756 -18.632  1.00  0.00     0.016 C 
ATOM      3  C   UNL     1      21.595 -26.117 -20.090  1.00  0.00     0.013 C 
BRANCH   2   4
ATOM      4  C   UNL     1      22.530 -25.826 -17.786  1.00  0.00    -0.045 A 
ATOM      5  C   UNL     1      26.102 -26.067 -15.369  1.00  0.00     0.044 C 
ATOM      6  C   UNL     1      24.879 -25.971 -16.231  1.00  0.00    -0.051 A 
ATOM      7  C   UNL     1      24.491 -27.055 -17.031  1.00  0.00     0.004 A 
ATOM      8  C   UNL     1      24.075 -24.822 -16.192  1.00  0.00     0.004 A 
ATOM      9  C   UNL     1      23.330 -26.982 -17.807  1.00  0.00     0.004 A 
ATOM     10  C   UNL     1      22.915 -24.746 -16.968  1.00  0.00     0.004 A 
ENDBRANCH   2   4
ENDBRANCH   1   2
BRANCH   1  11
ATOM     11  C   UNL     1      19.952 -24.106 -17.147  1.00  0.00     0.028 C 
BRANCH  11  12
ATOM     12  C   UNL     1      18.635 -23.380 -17.302  1.00  0.00    -0.028 C 
ATOM     13  C   UNL     1      17.481 -23.725 -16.688  1.00  0.00    -0.080 C 
ATOM     14  C   UNL     1      16.259 -22.879 -16.934  1.00  0.00     0.039 C 
ATOM     15  C   UNL     1      17.384 -24.921 -15.772  1.00  0.00     0.039 C 
ENDBRANCH  11  12
ENDBRANCH   1  11
TORSDOF 4
ENDMDL
MODEL 4
REMARK VINA RESULT:    17.390      0.880      6.421
REMARK INTER + INTRA:          20.977
REMARK INTER:                  20.615
REMARK INTRA:                   0.362
REMARK UNBOUND:                -0.480
REMARK SMILES CC(C)=CCC[C@@H](C)c1ccc(C)cc1
REMARK SMILES IDX 6 1 7 2 8 3 9 4 13 5 12 6 11 7 14 8 10 9 15 10 5 11 4 12
REMARK SMILES IDX 2 13 1 14 3 15
REMARK H PARENT
REMARK Flexibility Score: inf
ROOT
ATOM      1  C   UNL     1      17.072 -34.352 -27.955  1.00  0.00     0.012 C 
ENDROOT
BRANCH   1   2
ATOM      2  C   UNL     1      18.469 -34.607 -28.572  1.00  0.00     0.016 C 
ATOM      3  C   UNL     1      19.163 -33.300 -28.988  1.00  0.00     0.013 C 
BRANCH   2   4
ATOM      4  C   UNL     1      19.348 -35.378 -27.603  1.00  0.00    -0.045 A 
ATOM      5  C   UNL     1      21.839 -37.541 -24.816  1.00  0.00     0.044 C 
ATOM      6  C   UNL     1      20.959 -36.817 -25.790  1.00  0.00    -0.051 A 
ATOM      7  C   UNL     1      19.775 -36.205 -25.353  1.00  0.00     0.004 A 
ATOM      8  C   UNL     1      21.347 -36.686 -27.131  1.00  0.00     0.004 A 
ATOM      9  C   UNL     1      18.972 -35.497 -26.253  1.00  0.00     0.004 A 
ATOM     10  C   UNL     1      20.546 -35.980 -28.032  1.00  0.00     0.004 A 
ENDBRANCH   2   4
ENDBRANCH   1   2
BRANCH   1  11
ATOM     11  C   UNL     1      16.466 -32.995 -28.346  1.00  0.00     0.028 C 
BRANCH  11  12
ATOM     12  C   UNL     1      15.025 -32.888 -27.898  1.00  0.00    -0.028 C 
ATOM     13  C   UNL     1      14.164 -33.926 -27.798  1.00  0.00    -0.080 C 
ATOM     14  C   UNL     1      12.765 -33.650 -27.313  1.00  0.00     0.039 C 
ATOM     15  C   UNL     1      14.562 -35.337 -28.154  1.00  0.00     0.039 C 
ENDBRANCH  11  12
ENDBRANCH   1  11
TORSDOF 4
ENDMDL
MODEL 5
REMARK VINA RESULT:    17.686     13.331     15.100
REMARK INTER + INTRA:          21.342
REMARK INTER:                  21.799
REMARK INTRA:                  -0.457
REMARK UNBOUND:                -0.480
REMARK SMILES CC(C)=CCC[C@@H](C)c1ccc(C)cc1
REMARK SMILES IDX 6 1 7 2 8 3 9 4 13 5 12 6 11 7 14 8 10 9 15 10 5 11 4 12
REMARK SMILES IDX 2 13 1 14 3 15
REMARK H PARENT
REMARK Flexibility Score: inf
ROOT
ATOM      1  C   UNL     1      20.558 -24.299 -20.095  1.00  0.00     0.012 C 
ENDROOT
BRANCH   1   2
ATOM      2  C   UNL     1      20.727 -23.909 -18.606  1.00  0.00     0.016 C 
ATOM      3  C   UNL     1      19.457 -24.194 -17.788  1.00  0.00     0.013 C 
BRANCH   2   4
ATOM      4  C   UNL     1      21.913 -24.635 -17.996  1.00  0.00    -0.045 A 
ATOM      5  C   UNL     1      25.311 -26.662 -16.263  1.00  0.00     0.044 C 
ATOM      6  C   UNL     1      24.113 -25.970 -16.842  1.00  0.00    -0.051 A 
ATOM      7  C   UNL     1      23.806 -24.655 -16.465  1.00  0.00     0.004 A 
ATOM      8  C   UNL     1      23.331 -26.607 -17.817  1.00  0.00     0.004 A 
ATOM      9  C   UNL     1      22.712 -23.994 -17.032  1.00  0.00     0.004 A 
ATOM     10  C   UNL     1      22.236 -25.950 -18.384  1.00  0.00     0.004 A 
ENDBRANCH   2   4
ENDBRANCH   1   2
BRANCH   1  11
ATOM     11  C   UNL     1      20.004 -23.161 -20.968  1.00  0.00     0.028 C 
BRANCH  11  12
ATOM     12  C   UNL     1      20.917 -22.875 -22.139  1.00  0.00    -0.028 C 
ATOM     13  C   UNL     1      20.932 -23.568 -23.300  1.00  0.00    -0.080 C 
ATOM     14  C   UNL     1      21.892 -23.137 -24.378  1.00  0.00     0.039 C 
ATOM     15  C   UNL     1      20.023 -24.747 -23.544  1.00  0.00     0.039 C 
ENDBRANCH  11  12
ENDBRANCH   1  11
TORSDOF 4
ENDMDL
MODEL 6
REMARK VINA RESULT:    17.928     11.785     13.222
REMARK INTER + INTRA:          21.640
REMARK INTER:                  22.214
REMARK INTRA:                  -0.574
REMARK UNBOUND:                -0.480
REMARK SMILES CC(C)=CCC[C@@H](C)c1ccc(C)cc1
REMARK SMILES IDX 6 1 7 2 8 3 9 4 13 5 12 6 11 7 14 8 10 9 15 10 5 11 4 12
REMARK SMILES IDX 2 13 1 14 3 15
REMARK H PARENT
REMARK Flexibility Score: inf
ROOT
ATOM      1  C   UNL     1      21.513 -22.907 -24.244  1.00  0.00     0.012 C 
ENDROOT
BRANCH   1   2
ATOM      2  C   UNL     1      20.362 -23.744 -23.634  1.00  0.00     0.016 C 
ATOM      3  C   UNL     1      20.242 -25.127 -24.295  1.00  0.00     0.013 C 
BRANCH   2   4
ATOM      4  C   UNL     1      20.549 -23.896 -22.136  1.00  0.00    -0.045 A 
ATOM      5  C   UNL     1      21.070 -24.371 -17.875  1.00  0.00     0.044 C 
ATOM      6  C   UNL     1      20.917 -24.194 -19.355  1.00  0.00    -0.051 A 
ATOM      7  C   UNL     1      21.293 -25.221 -20.233  1.00  0.00     0.004 A 
ATOM      8  C   UNL     1      20.334 -23.027 -19.871  1.00  0.00     0.004 A 
ATOM      9  C   UNL     1      21.116 -25.072 -21.612  1.00  0.00     0.004 A 
ATOM     10  C   UNL     1      20.158 -22.875 -21.249  1.00  0.00     0.004 A 
ENDBRANCH   2   4
ENDBRANCH   1   2
BRANCH   1  11
ATOM     11  C   UNL     1      22.760 -23.737 -24.589  1.00  0.00     0.028 C 
BRANCH  11  12
ATOM     12  C   UNL     1      23.152 -23.561 -26.039  1.00  0.00    -0.028 C 
ATOM     13  C   UNL     1      24.260 -24.081 -26.613  1.00  0.00    -0.080 C 
ATOM     14  C   UNL     1      24.492 -23.829 -28.080  1.00  0.00     0.039 C 
ATOM     15  C   UNL     1      25.260 -24.900 -25.833  1.00  0.00     0.039 C 
ENDBRANCH  11  12
ENDBRANCH   1  11
TORSDOF 4
ENDMDL
MODEL 7
REMARK VINA RESULT:    18.008     14.210     14.895
REMARK INTER + INTRA:          21.739
REMARK INTER:                  22.228
REMARK INTRA:                  -0.490
REMARK UNBOUND:                -0.480
REMARK SMILES CC(C)=CCC[C@@H](C)c1ccc(C)cc1
REMARK SMILES IDX 6 1 7 2 8 3 9 4 13 5 12 6 11 7 14 8 10 9 15 10 5 11 4 12
REMARK SMILES IDX 2 13 1 14 3 15
REMARK H PARENT
REMARK Flexibility Score: inf
ROOT
ATOM      1  C   UNL     1      21.161 -24.828 -17.981  1.00  0.00     0.012 C 
ENDROOT
BRANCH   1   2
ATOM      2  C   UNL     1      20.395 -23.547 -18.394  1.00  0.00     0.016 C 
ATOM      3  C   UNL     1      20.425 -23.322 -19.914  1.00  0.00     0.013 C 
BRANCH   2   4
ATOM      4  C   UNL     1      18.959 -23.603 -17.904  1.00  0.00    -0.045 A 
ATOM      5  C   UNL     1      14.880 -23.804 -16.500  1.00  0.00     0.044 C 
ATOM      6  C   UNL     1      16.301 -23.710 -16.968  1.00  0.00    -0.051 A 
ATOM      7  C   UNL     1      17.306 -24.449 -16.329  1.00  0.00     0.004 A 
ATOM      8  C   UNL     1      16.625 -22.935 -18.092  1.00  0.00     0.004 A 
ATOM      9  C   UNL     1      18.626 -24.392 -16.788  1.00  0.00     0.004 A 
ATOM     10  C   UNL     1      17.943 -22.876 -18.552  1.00  0.00     0.004 A 
ENDBRANCH   2   4
ENDBRANCH   1   2
BRANCH   1  11
ATOM     11  C   UNL     1      22.682 -24.725 -18.180  1.00  0.00     0.028 C 
BRANCH  11  12
ATOM     12  C   UNL     1      23.419 -24.927 -16.875  1.00  0.00    -0.028 C 
ATOM     13  C   UNL     1      24.419 -25.816 -16.677  1.00  0.00    -0.080 C 
ATOM     14  C   UNL     1      25.065 -25.876 -15.317  1.00  0.00     0.039 C 
ATOM     15  C   UNL     1      24.901 -26.740 -17.769  1.00  0.00     0.039 C 
ENDBRANCH  11  12
ENDBRANCH   1  11
TORSDOF 4
ENDMDL
