MODEL 1
REMARK VINA RESULT:    -4.224      0.000      0.000
REMARK INTER + INTRA:          -7.139
REMARK INTER:                  -5.212
REMARK INTRA:                  -1.928
REMARK UNBOUND:                -1.928
REMARK SMILES C=C(CCC=C(C)C)[C@@H]1CC=C(C)CC1
REMARK SMILES IDX 3 1 2 2 1 3 9 4 13 5 12 6 11 7 14 8 10 9 15 10 4 11 5 12
REMARK SMILES IDX 6 13 7 14 8 15
REMARK H PARENT
REMARK Flexibility Score: inf
ROOT
ATOM      1  C   UNL     1     140.855 135.641 134.290  1.00  0.00     0.035 C 
ENDROOT
BRANCH   1   2
ATOM      2  C   UNL     1     140.081 136.930 134.085  1.00  0.00    -0.074 C 
ATOM      3  C   UNL     1     139.130 136.958 133.134  1.00  0.00     0.008 C 
BRANCH   2   4
ATOM      4  C   UNL     1     140.284 138.173 134.956  1.00  0.00     0.018 C 
ATOM      5  C   UNL     1     137.825 137.335 138.530  1.00  0.00     0.039 C 
ATOM      6  C   UNL     1     138.682 137.719 137.355  1.00  0.00    -0.077 C 
ATOM      7  C   UNL     1     140.017 137.543 137.432  1.00  0.00    -0.027 C 
ATOM      8  C   UNL     1     138.013 138.173 136.076  1.00  0.00     0.031 C 
ATOM      9  C   UNL     1     140.969 137.911 136.317  1.00  0.00     0.035 C 
ATOM     10  C   UNL     1     138.969 138.940 135.159  1.00  0.00     0.013 C 
ENDBRANCH   2   4
ENDBRANCH   1   2
BRANCH   1  11
ATOM     11  C   UNL     1     139.909 134.446 134.463  1.00  0.00     0.032 C 
BRANCH  11  12
ATOM     12  C   UNL     1     139.791 134.065 135.917  1.00  0.00    -0.028 C 
ATOM     13  C   UNL     1     138.643 134.111 136.628  1.00  0.00    -0.080 C 
ATOM     14  C   UNL     1     138.686 133.739 138.088  1.00  0.00     0.039 C 
ATOM     15  C   UNL     1     137.326 134.505 135.999  1.00  0.00     0.039 C 
ENDBRANCH  11  12
ENDBRANCH   1  11
TORSDOF 4
ENDMDL
MODEL 2
REMARK VINA RESULT:    -4.203      3.121      5.071
REMARK INTER + INTRA:          -7.113
REMARK INTER:                  -5.220
REMARK INTRA:                  -1.894
REMARK UNBOUND:                -1.928
REMARK SMILES C=C(CCC=C(C)C)[C@@H]1CC=C(C)CC1
REMARK SMILES IDX 3 1 2 2 1 3 9 4 13 5 12 6 11 7 14 8 10 9 15 10 4 11 5 12
REMARK SMILES IDX 6 13 7 14 8 15
REMARK H PARENT
REMARK Flexibility Score: inf
ROOT
ATOM      1  C   UNL     1     135.651 131.868 134.169  1.00  0.00     0.035 C 
ENDROOT
BRANCH   1   2
ATOM      2  C   UNL     1     136.973 132.605 134.056  1.00  0.00    -0.074 C 
ATOM      3  C   UNL     1     137.056 133.637 133.198  1.00  0.00     0.008 C 
BRANCH   2   4
ATOM      4  C   UNL     1     138.191 132.271 134.922  1.00  0.00     0.018 C 
ATOM      5  C   UNL     1     137.570 134.714 138.551  1.00  0.00     0.039 C 
ATOM      6  C   UNL     1     137.877 133.853 137.357  1.00  0.00    -0.077 C 
ATOM      7  C   UNL     1     137.582 132.538 137.404  1.00  0.00    -0.027 C 
ATOM      8  C   UNL     1     138.392 134.508 136.093  1.00  0.00     0.031 C 
ATOM      9  C   UNL     1     137.865 131.582 136.268  1.00  0.00     0.035 C 
ATOM     10  C   UNL     1     139.073 133.507 135.155  1.00  0.00     0.013 C 
ENDBRANCH   2   4
ENDBRANCH   1   2
BRANCH   1  11
ATOM     11  C   UNL     1     134.490 132.843 134.403  1.00  0.00     0.032 C 
BRANCH  11  12
ATOM     12  C   UNL     1     134.129 132.902 135.866  1.00  0.00    -0.028 C 
ATOM     13  C   UNL     1     134.252 134.002 136.641  1.00  0.00    -0.080 C 
ATOM     14  C   UNL     1     133.889 133.898 138.100  1.00  0.00     0.039 C 
ATOM     15  C   UNL     1     134.722 135.326 136.082  1.00  0.00     0.039 C 
ENDBRANCH  11  12
ENDBRANCH   1  11
TORSDOF 4
ENDMDL
MODEL 3
REMARK VINA RESULT:    -4.193      4.627      7.200
REMARK INTER + INTRA:          -7.101
REMARK INTER:                  -5.226
REMARK INTRA:                  -1.875
REMARK UNBOUND:                -1.928
REMARK SMILES C=C(CCC=C(C)C)[C@@H]1CC=C(C)CC1
REMARK SMILES IDX 3 1 2 2 1 3 9 4 13 5 12 6 11 7 14 8 10 9 15 10 4 11 5 12
REMARK SMILES IDX 6 13 7 14 8 15
REMARK H PARENT
REMARK Flexibility Score: inf
ROOT
ATOM      1  C   UNL     1     131.889 136.819 134.164  1.00  0.00     0.035 C 
ENDROOT
BRANCH   1   2
ATOM      2  C   UNL     1     132.613 135.486 134.107  1.00  0.00    -0.074 C 
ATOM      3  C   UNL     1     133.650 135.361 133.259  1.00  0.00     0.008 C 
BRANCH   2   4
ATOM      4  C   UNL     1     132.263 134.306 135.017  1.00  0.00     0.018 C 
ATOM      5  C   UNL     1     134.745 135.005 138.605  1.00  0.00     0.039 C 
ATOM      6  C   UNL     1     133.870 134.673 137.428  1.00  0.00    -0.077 C 
ATOM      7  C   UNL     1     132.561 134.995 137.474  1.00  0.00    -0.027 C 
ATOM      8  C   UNL     1     134.504 134.102 136.179  1.00  0.00     0.031 C 
ATOM      9  C   UNL     1     131.591 134.691 136.355  1.00  0.00     0.035 C 
ATOM     10  C   UNL     1     133.484 133.409 135.271  1.00  0.00     0.013 C 
ENDBRANCH   2   4
ENDBRANCH   1   2
BRANCH   1  11
ATOM     11  C   UNL     1     132.874 137.979 134.353  1.00  0.00     0.032 C 
BRANCH  11  12
ATOM     12  C   UNL     1     132.931 138.400 135.800  1.00  0.00    -0.028 C 
ATOM     13  C   UNL     1     134.024 138.287 136.587  1.00  0.00    -0.080 C 
ATOM     14  C   UNL     1     133.920 138.712 138.028  1.00  0.00     0.039 C 
ATOM     15  C   UNL     1     135.341 137.768 136.057  1.00  0.00     0.039 C 
ENDBRANCH  11  12
ENDBRANCH   1  11
TORSDOF 4
ENDMDL
MODEL 4
REMARK VINA RESULT:    -4.180      3.132      5.084
REMARK INTER + INTRA:          -7.086
REMARK INTER:                  -5.164
REMARK INTRA:                  -1.921
REMARK UNBOUND:                -1.928
REMARK SMILES C=C(CCC=C(C)C)[C@@H]1CC=C(C)CC1
REMARK SMILES IDX 3 1 2 2 1 3 9 4 13 5 12 6 11 7 14 8 10 9 15 10 4 11 5 12
REMARK SMILES IDX 6 13 7 14 8 15
REMARK H PARENT
REMARK Flexibility Score: inf
ROOT
ATOM      1  C   UNL     1     136.967 140.845 134.305  1.00  0.00     0.035 C 
ENDROOT
BRANCH   1   2
ATOM      2  C   UNL     1     135.653 140.108 134.119  1.00  0.00    -0.074 C 
ATOM      3  C   UNL     1     135.582 139.163 133.164  1.00  0.00     0.008 C 
BRANCH   2   4
ATOM      4  C   UNL     1     134.431 140.341 135.012  1.00  0.00     0.018 C 
ATOM      5  C   UNL     1     135.230 137.791 138.531  1.00  0.00     0.039 C 
ATOM      6  C   UNL     1     134.861 138.681 137.376  1.00  0.00    -0.077 C 
ATOM      7  C   UNL     1     135.087 140.008 137.473  1.00  0.00    -0.027 C 
ATOM      8  C   UNL     1     134.364 138.052 136.093  1.00  0.00     0.031 C 
ATOM      9  C   UNL     1     134.738 140.992 136.380  1.00  0.00     0.035 C 
ATOM     10  C   UNL     1     133.619 139.051 135.204  1.00  0.00     0.013 C 
ENDBRANCH   2   4
ENDBRANCH   1   2
BRANCH   1  11
ATOM     11  C   UNL     1     138.137 139.865 134.451  1.00  0.00     0.032 C 
BRANCH  11  12
ATOM     12  C   UNL     1     138.515 139.696 135.901  1.00  0.00    -0.028 C 
ATOM     13  C   UNL     1     138.462 138.526 136.574  1.00  0.00    -0.080 C 
ATOM     14  C   UNL     1     138.832 138.518 138.034  1.00  0.00     0.039 C 
ATOM     15  C   UNL     1     138.064 137.233 135.900  1.00  0.00     0.039 C 
ENDBRANCH  11  12
ENDBRANCH   1  11
TORSDOF 4
ENDMDL
MODEL 5
REMARK VINA RESULT:    -4.134      1.363      2.452
REMARK INTER + INTRA:          -7.028
REMARK INTER:                  -5.153
REMARK INTRA:                  -1.875
REMARK UNBOUND:                -1.928
REMARK SMILES C=C(CCC=C(C)C)[C@@H]1CC=C(C)CC1
REMARK SMILES IDX 3 1 2 2 1 3 9 4 13 5 12 6 11 7 14 8 10 9 15 10 4 11 5 12
REMARK SMILES IDX 6 13 7 14 8 15
REMARK H PARENT
REMARK Flexibility Score: inf
ROOT
ATOM      1  C   UNL     1     140.868 137.510 135.879  1.00  0.00     0.035 C 
ENDROOT
BRANCH   1   2
ATOM      2  C   UNL     1     139.832 138.537 136.298  1.00  0.00    -0.074 C 
ATOM      3  C   UNL     1     139.410 139.428 135.382  1.00  0.00     0.008 C 
BRANCH   2   4
ATOM      4  C   UNL     1     139.196 138.562 137.691  1.00  0.00     0.018 C 
ATOM      5  C   UNL     1     137.109 134.675 137.934  1.00  0.00     0.039 C 
ATOM      6  C   UNL     1     137.776 136.022 137.948  1.00  0.00    -0.077 C 
ATOM      7  C   UNL     1     138.963 136.160 138.573  1.00  0.00    -0.027 C 
ATOM      8  C   UNL     1     137.160 137.154 137.155  1.00  0.00     0.031 C 
ATOM      9  C   UNL     1     139.709 137.472 138.661  1.00  0.00     0.035 C 
ATOM     10  C   UNL     1     137.662 138.527 137.611  1.00  0.00     0.013 C 
ENDBRANCH   2   4
ENDBRANCH   1   2
BRANCH   1  11
ATOM     11  C   UNL     1     140.355 136.645 134.721  1.00  0.00     0.032 C 
BRANCH  11  12
ATOM     12  C   UNL     1     140.317 135.191 135.117  1.00  0.00    -0.028 C 
ATOM     13  C   UNL     1     139.250 134.380 134.947  1.00  0.00    -0.080 C 
ATOM     14  C   UNL     1     139.345 132.956 135.431  1.00  0.00     0.039 C 
ATOM     15  C   UNL     1     137.983 134.855 134.274  1.00  0.00     0.039 C 
ENDBRANCH  11  12
ENDBRANCH   1  11
TORSDOF 4
ENDMDL
MODEL 6
REMARK VINA RESULT:    -4.129      3.046      4.754
REMARK INTER + INTRA:          -7.022
REMARK INTER:                  -5.143
REMARK INTRA:                  -1.880
REMARK UNBOUND:                -1.928
REMARK SMILES C=C(CCC=C(C)C)[C@@H]1CC=C(C)CC1
REMARK SMILES IDX 3 1 2 2 1 3 9 4 13 5 12 6 11 7 14 8 10 9 15 10 4 11 5 12
REMARK SMILES IDX 6 13 7 14 8 15
REMARK H PARENT
REMARK Flexibility Score: inf
ROOT
ATOM      1  C   UNL     1     137.852 131.851 136.180  1.00  0.00     0.035 C 
ENDROOT
BRANCH   1   2
ATOM      2  C   UNL     1     138.764 132.965 136.659  1.00  0.00    -0.074 C 
ATOM      3  C   UNL     1     139.692 133.439 135.809  1.00  0.00     0.008 C 
BRANCH   2   4
ATOM      4  C   UNL     1     138.630 133.619 138.037  1.00  0.00     0.018 C 
ATOM      5  C   UNL     1     134.571 135.365 137.953  1.00  0.00     0.039 C 
ATOM      6  C   UNL     1     135.966 134.817 138.079  1.00  0.00    -0.077 C 
ATOM      7  C   UNL     1     136.158 133.655 138.736  1.00  0.00    -0.027 C 
ATOM      8  C   UNL     1     137.097 135.519 137.359  1.00  0.00     0.031 C 
ATOM      9  C   UNL     1     137.518 133.028 138.935  1.00  0.00     0.035 C 
ATOM     10  C   UNL     1     138.470 135.143 137.925  1.00  0.00     0.013 C 
ENDBRANCH   2   4
ENDBRANCH   1   2
BRANCH   1  11
ATOM     11  C   UNL     1     137.076 132.269 134.925  1.00  0.00     0.032 C 
BRANCH  11  12
ATOM     12  C   UNL     1     135.590 132.239 135.181  1.00  0.00    -0.028 C 
ATOM     13  C   UNL     1     134.750 133.268 134.930  1.00  0.00    -0.080 C 
ATOM     14  C   UNL     1     133.293 133.106 135.276  1.00  0.00     0.039 C 
ATOM     15  C   UNL     1     135.228 134.555 134.299  1.00  0.00     0.039 C 
ENDBRANCH  11  12
ENDBRANCH   1  11
TORSDOF 4
ENDMDL
MODEL 7
REMARK VINA RESULT:    -4.128      3.094      5.857
REMARK INTER + INTRA:          -7.021
REMARK INTER:                  -5.140
REMARK INTRA:                  -1.880
REMARK UNBOUND:                -1.928
REMARK SMILES C=C(CCC=C(C)C)[C@@H]1CC=C(C)CC1
REMARK SMILES IDX 3 1 2 2 1 3 9 4 13 5 12 6 11 7 14 8 10 9 15 10 4 11 5 12
REMARK SMILES IDX 6 13 7 14 8 15
REMARK H PARENT
REMARK Flexibility Score: inf
ROOT
ATOM      1  C   UNL     1     134.851 140.836 136.194  1.00  0.00     0.035 C 
ENDROOT
BRANCH   1   2
ATOM      2  C   UNL     1     133.915 139.741 136.673  1.00  0.00    -0.074 C 
ATOM      3  C   UNL     1     132.988 139.275 135.817  1.00  0.00     0.008 C 
BRANCH   2   4
ATOM      4  C   UNL     1     134.024 139.097 138.058  1.00  0.00     0.018 C 
ATOM      5  C   UNL     1     137.978 137.127 137.966  1.00  0.00     0.039 C 
ATOM      6  C   UNL     1     136.617 137.753 138.095  1.00  0.00    -0.077 C 
ATOM      7  C   UNL     1     136.495 138.932 138.740  1.00  0.00    -0.027 C 
ATOM      8  C   UNL     1     135.442 137.107 137.392  1.00  0.00     0.031 C 
ATOM      9  C   UNL     1     135.173 139.637 138.940  1.00  0.00     0.035 C 
ATOM     10  C   UNL     1     134.097 137.565 137.963  1.00  0.00     0.013 C 
ENDBRANCH   2   4
ENDBRANCH   1   2
BRANCH   1  11
ATOM     11  C   UNL     1     135.643 140.389 134.960  1.00  0.00     0.032 C 
BRANCH  11  12
ATOM     12  C   UNL     1     137.124 140.391 135.246  1.00  0.00    -0.028 C 
ATOM     13  C   UNL     1     137.947 139.343 135.023  1.00  0.00    -0.080 C 
ATOM     14  C   UNL     1     139.400 139.478 135.398  1.00  0.00     0.039 C 
ATOM     15  C   UNL     1     137.456 138.059 134.395  1.00  0.00     0.039 C 
ENDBRANCH  11  12
ENDBRANCH   1  11
TORSDOF 4
ENDMDL
MODEL 8
REMARK VINA RESULT:    -4.108      4.542      7.033
REMARK INTER + INTRA:          -6.997
REMARK INTER:                  -5.111
REMARK INTRA:                  -1.886
REMARK UNBOUND:                -1.928
REMARK SMILES C=C(CCC=C(C)C)[C@@H]1CC=C(C)CC1
REMARK SMILES IDX 3 1 2 2 1 3 9 4 13 5 12 6 11 7 14 8 10 9 15 10 4 11 5 12
REMARK SMILES IDX 6 13 7 14 8 15
REMARK H PARENT
REMARK Flexibility Score: inf
ROOT
ATOM      1  C   UNL     1     131.855 134.811 136.147  1.00  0.00     0.035 C 
ENDROOT
BRANCH   1   2
ATOM      2  C   UNL     1     132.966 133.909 136.652  1.00  0.00    -0.074 C 
ATOM      3  C   UNL     1     133.469 132.987 135.813  1.00  0.00     0.008 C 
BRANCH   2   4
ATOM      4  C   UNL     1     133.585 134.048 138.046  1.00  0.00     0.018 C 
ATOM      5  C   UNL     1     135.429 138.063 137.954  1.00  0.00     0.039 C 
ATOM      6  C   UNL     1     134.845 136.683 138.083  1.00  0.00    -0.077 C 
ATOM      7  C   UNL     1     133.661 136.529 138.711  1.00  0.00    -0.027 C 
ATOM      8  C   UNL     1     135.539 135.525 137.399  1.00  0.00     0.031 C 
ATOM      9  C   UNL     1     132.996 135.186 138.911  1.00  0.00     0.035 C 
ATOM     10  C   UNL     1     135.115 134.170 137.973  1.00  0.00     0.013 C 
ENDBRANCH   2   4
ENDBRANCH   1   2
BRANCH   1  11
ATOM     11  C   UNL     1     132.295 135.590 134.901  1.00  0.00     0.032 C 
BRANCH  11  12
ATOM     12  C   UNL     1     132.272 137.075 135.163  1.00  0.00    -0.028 C 
ATOM     13  C   UNL     1     133.313 137.907 134.938  1.00  0.00    -0.080 C 
ATOM     14  C   UNL     1     133.156 139.364 135.288  1.00  0.00     0.039 C 
ATOM     15  C   UNL     1     134.609 137.421 134.332  1.00  0.00     0.039 C 
ENDBRANCH  11  12
ENDBRANCH   1  11
TORSDOF 4
ENDMDL
MODEL 9
REMARK VINA RESULT:    -4.101      4.999      7.584
REMARK INTER + INTRA:          -6.987
REMARK INTER:                  -5.902
REMARK INTRA:                  -1.085
REMARK UNBOUND:                -1.928
REMARK SMILES C=C(CCC=C(C)C)[C@@H]1CC=C(C)CC1
REMARK SMILES IDX 3 1 2 2 1 3 9 4 13 5 12 6 11 7 14 8 10 9 15 10 4 11 5 12
REMARK SMILES IDX 6 13 7 14 8 15
REMARK H PARENT
REMARK Flexibility Score: inf
ROOT
ATOM      1  C   UNL     1     134.444 136.796 138.339  1.00  0.00     0.035 C 
ENDROOT
BRANCH   1   2
ATOM      2  C   UNL     1     133.406 135.789 137.876  1.00  0.00    -0.074 C 
ATOM      3  C   UNL     1     132.889 134.944 138.786  1.00  0.00     0.008 C 
BRANCH   2   4
ATOM      4  C   UNL     1     132.875 135.739 136.441  1.00  0.00     0.018 C 
ATOM      5  C   UNL     1     134.849 132.169 134.742  1.00  0.00     0.039 C 
ATOM      6  C   UNL     1     134.136 133.403 135.222  1.00  0.00    -0.077 C 
ATOM      7  C   UNL     1     132.850 133.305 135.618  1.00  0.00    -0.027 C 
ATOM      8  C   UNL     1     134.915 134.692 135.365  1.00  0.00     0.031 C 
ATOM      9  C   UNL     1     132.037 134.485 136.100  1.00  0.00     0.035 C 
ATOM     10  C   UNL     1     134.004 135.922 135.415  1.00  0.00     0.013 C 
ENDBRANCH   2   4
ENDBRANCH   1   2
BRANCH   1  11
ATOM     11  C   UNL     1     133.803 138.160 138.629  1.00  0.00     0.032 C 
BRANCH  11  12
ATOM     12  C   UNL     1     134.543 139.260 137.911  1.00  0.00    -0.028 C 
ATOM     13  C   UNL     1     134.149 139.810 136.742  1.00  0.00    -0.080 C 
ATOM     14  C   UNL     1     135.014 140.876 136.121  1.00  0.00     0.039 C 
ATOM     15  C   UNL     1     132.865 139.401 136.057  1.00  0.00     0.039 C 
ENDBRANCH  11  12
ENDBRANCH   1  11
TORSDOF 4
ENDMDL
