MODEL 1
REMARK VINA RESULT:    -5.874      0.000      0.000
REMARK INTER + INTRA:         -10.506
REMARK INTER:                  -8.622
REMARK INTRA:                  -1.884
REMARK UNBOUND:                -1.884
REMARK SMILES O=c1c(O[C@@H]2O[C@@H](CO)[C@@H](O)[C@H](O)[C@H]2O)c(-c2ccc(O)c(O)c2)oc2cc(O)cc(O)c12
REMARK SMILES IDX 4 1 3 2 16 3 25 4 2 5 26 6 1 7 33 8 27 9 31 10 28 11 30 12
REMARK SMILES IDX 17 13 18 14 19 15 20 16 24 17 22 18 21 19 23 21 32 23 29 25
REMARK SMILES IDX 5 27 14 28 6 29 12 30 7 31 10 32 15 33 13 35 8 37 9 38 11 40
REMARK H PARENT 21 20 23 22 32 24 29 26 15 34 13 36 9 39 11 41
REMARK Flexibility Score: inf
ROOT
ATOM      1  O   UNL     1      10.703   6.743  25.626  1.00  0.00    -0.454 OA
ENDROOT
BRANCH   1   2
ATOM      2  C   UNL     1      11.904   5.925  25.765  1.00  0.00     0.214 A 
ATOM      3  C   UNL     1      12.901   5.777  24.727  1.00  0.00     0.180 A 
ATOM      4  O   UNL     1      13.707   4.733  24.699  1.00  0.00    -0.452 OA
ATOM      5  C   UNL     1      12.223   5.214  26.945  1.00  0.00     0.239 A 
ATOM      6  C   UNL     1      13.836   3.901  25.701  1.00  0.00     0.146 A 
ATOM      7  O   UNL     1      11.731   5.574  28.046  1.00  0.00    -0.285 OA
ATOM      8  C   UNL     1      13.214   4.183  26.939  1.00  0.00     0.111 A 
ATOM      9  C   UNL     1      14.702   2.826  25.554  1.00  0.00     0.094 A 
ATOM     10  C   UNL     1      13.756   3.545  28.096  1.00  0.00     0.134 A 
ATOM     11  C   UNL     1      15.163   2.118  26.674  1.00  0.00     0.123 A 
ATOM     12  C   UNL     1      14.664   2.472  27.933  1.00  0.00     0.093 A 
BRANCH   3  13
ATOM     13  C   UNL     1      13.357   6.865  23.773  1.00  0.00     0.025 A 
ATOM     14  C   UNL     1      13.690   8.117  24.253  1.00  0.00     0.016 A 
ATOM     15  C   UNL     1      13.122   9.293  23.672  1.00  0.00     0.051 A 
ATOM     16  C   UNL     1      12.233   9.098  22.566  1.00  0.00     0.157 A 
ATOM     17  C   UNL     1      12.997   6.785  22.444  1.00  0.00     0.062 A 
ATOM     18  C   UNL     1      12.030   7.767  22.041  1.00  0.00     0.158 A 
BRANCH  16  19
ATOM     19  O   UNL     1      11.472  10.125  22.014  1.00  0.00    -0.504 OA
ATOM     20  H   UNL     1      10.712   9.924  21.336  1.00  0.00     0.293 HD
ENDBRANCH  16  19
BRANCH  18  21
ATOM     21  O   UNL     1      11.086   7.429  21.077  1.00  0.00    -0.504 OA
ATOM     22  H   UNL     1      10.088   7.491  21.300  1.00  0.00     0.293 HD
ENDBRANCH  18  21
ENDBRANCH   3  13
BRANCH  10  23
ATOM     23  O   UNL     1      13.564   4.087  29.360  1.00  0.00    -0.507 OA
ATOM     24  H   UNL     1      13.744   3.516  30.177  1.00  0.00     0.293 HD
ENDBRANCH  10  23
BRANCH  11  25
ATOM     25  O   UNL     1      15.948   1.001  26.538  1.00  0.00    -0.508 OA
ATOM     26  H   UNL     1      15.670   0.276  25.877  1.00  0.00     0.293 HD
ENDBRANCH  11  25
ENDBRANCH   1   2
BRANCH   1  27
ATOM     27  C   UNL     1       9.508   6.765  24.749  1.00  0.00     0.339 C 
ATOM     28  C   UNL     1       9.449   5.419  23.871  1.00  0.00     0.214 C 
ATOM     29  O   UNL     1       8.288   6.861  25.450  1.00  0.00    -0.332 OA
ATOM     30  C   UNL     1       8.258   4.461  24.213  1.00  0.00     0.180 C 
ATOM     31  C   UNL     1       8.113   5.843  26.429  1.00  0.00     0.179 C 
ATOM     32  C   UNL     1       7.665   4.515  25.712  1.00  0.00     0.177 C 
BRANCH  28  33
ATOM     33  O   UNL     1       9.202   5.769  22.491  1.00  0.00    -0.384 OA
ATOM     34  H   UNL     1       8.213   5.954  22.454  1.00  0.00     0.211 HD
ENDBRANCH  28  33
BRANCH  30  35
ATOM     35  O   UNL     1       8.786   3.170  23.879  1.00  0.00    -0.387 OA
ATOM     36  H   UNL     1       8.828   2.628  24.729  1.00  0.00     0.211 HD
ENDBRANCH  30  35
BRANCH  31  37
ATOM     37  C   UNL     1       7.109   6.561  27.489  1.00  0.00     0.191 C 
BRANCH  37  38
ATOM     38  O   UNL     1       6.680   7.833  26.963  1.00  0.00    -0.394 OA
ATOM     39  H   UNL     1       6.046   7.815  26.128  1.00  0.00     0.210 HD
ENDBRANCH  37  38
ENDBRANCH  31  37
BRANCH  32  40
ATOM     40  O   UNL     1       6.248   4.462  25.720  1.00  0.00    -0.387 OA
ATOM     41  H   UNL     1       5.870   5.271  26.252  1.00  0.00     0.211 HD
ENDBRANCH  32  40
ENDBRANCH   1  27
TORSDOF 12
ENDMDL
MODEL 2
REMARK VINA RESULT:    -5.774      1.967      5.480
REMARK INTER + INTRA:         -10.358
REMARK INTER:                  -8.369
REMARK INTRA:                  -1.989
REMARK UNBOUND:                -1.884
REMARK SMILES O=c1c(O[C@@H]2O[C@@H](CO)[C@@H](O)[C@H](O)[C@H]2O)c(-c2ccc(O)c(O)c2)oc2cc(O)cc(O)c12
REMARK SMILES IDX 4 1 3 2 16 3 25 4 2 5 26 6 1 7 33 8 27 9 31 10 28 11 30 12
REMARK SMILES IDX 17 13 18 14 19 15 20 16 24 17 22 18 21 19 23 21 32 23 29 25
REMARK SMILES IDX 5 27 14 28 6 29 12 30 7 31 10 32 15 33 13 35 8 37 9 38 11 40
REMARK H PARENT 21 20 23 22 32 24 29 26 15 34 13 36 9 39 11 41
REMARK Flexibility Score: inf
ROOT
ATOM      1  O   UNL     1      12.798   6.828  24.992  1.00  0.00    -0.454 OA
ENDROOT
BRANCH   1   2
ATOM      2  C   UNL     1      13.022   5.863  26.063  1.00  0.00     0.214 A 
ATOM      3  C   UNL     1      11.958   5.240  26.820  1.00  0.00     0.180 A 
ATOM      4  O   UNL     1      12.177   4.741  28.021  1.00  0.00    -0.452 OA
ATOM      5  C   UNL     1      14.308   5.421  26.449  1.00  0.00     0.239 A 
ATOM      6  C   UNL     1      13.376   4.553  28.511  1.00  0.00     0.146 A 
ATOM      7  O   UNL     1      15.270   5.504  25.641  1.00  0.00    -0.285 OA
ATOM      8  C   UNL     1      14.513   4.740  27.691  1.00  0.00     0.111 A 
ATOM      9  C   UNL     1      13.487   4.037  29.795  1.00  0.00     0.094 A 
ATOM     10  C   UNL     1      15.714   4.079  28.089  1.00  0.00     0.134 A 
ATOM     11  C   UNL     1      14.694   3.478  30.242  1.00  0.00     0.123 A 
ATOM     12  C   UNL     1      15.803   3.528  29.389  1.00  0.00     0.093 A 
BRANCH   3  13
ATOM     13  C   UNL     1      10.613   4.808  26.268  1.00  0.00     0.025 A 
ATOM     14  C   UNL     1      10.535   3.781  25.348  1.00  0.00     0.016 A 
ATOM     15  C   UNL     1       9.809   3.952  24.128  1.00  0.00     0.051 A 
ATOM     16  C   UNL     1       9.156   5.213  23.941  1.00  0.00     0.157 A 
ATOM     17  C   UNL     1       9.560   5.699  26.297  1.00  0.00     0.062 A 
ATOM     18  C   UNL     1       9.179   6.192  25.002  1.00  0.00     0.158 A 
BRANCH  16  19
ATOM     19  O   UNL     1       8.564   5.590  22.738  1.00  0.00    -0.504 OA
ATOM     20  H   UNL     1       8.495   6.589  22.464  1.00  0.00     0.293 HD
ENDBRANCH  16  19
BRANCH  18  21
ATOM     21  O   UNL     1       8.716   7.499  24.888  1.00  0.00    -0.504 OA
ATOM     22  H   UNL     1       8.918   8.037  24.040  1.00  0.00     0.293 HD
ENDBRANCH  18  21
ENDBRANCH   3  13
BRANCH  10  23
ATOM     23  O   UNL     1      16.708   3.797  27.160  1.00  0.00    -0.507 OA
ATOM     24  H   UNL     1      16.725   4.305  26.285  1.00  0.00     0.293 HD
ENDBRANCH  10  23
BRANCH  11  25
ATOM     25  O   UNL     1      14.844   3.045  31.534  1.00  0.00    -0.508 OA
ATOM     26  H   UNL     1      15.696   3.282  32.043  1.00  0.00     0.293 HD
ENDBRANCH  11  25
ENDBRANCH   1   2
BRANCH   1  27
ATOM     27  C   UNL     1      12.901   6.844  23.513  1.00  0.00     0.339 C 
ATOM     28  C   UNL     1      11.772   7.809  22.897  1.00  0.00     0.214 C 
ATOM     29  O   UNL     1      14.147   7.298  23.032  1.00  0.00    -0.332 OA
ATOM     30  C   UNL     1      12.318   9.103  22.203  1.00  0.00     0.180 C 
ATOM     31  C   UNL     1      14.513   8.582  23.526  1.00  0.00     0.179 C 
ATOM     32  C   UNL     1      13.733   9.683  22.716  1.00  0.00     0.177 C 
BRANCH  28  33
ATOM     33  O   UNL     1      11.100   7.118  21.820  1.00  0.00    -0.384 OA
ATOM     34  H   UNL     1      10.125   7.154  22.070  1.00  0.00     0.211 HD
ENDBRANCH  28  33
BRANCH  30  35
ATOM     35  O   UNL     1      11.244  10.036  22.387  1.00  0.00    -0.387 OA
ATOM     36  H   UNL     1      10.961   9.989  23.354  1.00  0.00     0.211 HD
ENDBRANCH  30  35
BRANCH  31  37
ATOM     37  C   UNL     1      16.137   8.525  23.446  1.00  0.00     0.191 C 
BRANCH  37  38
ATOM     38  O   UNL     1      16.684   9.815  23.790  1.00  0.00    -0.394 OA
ATOM     39  H   UNL     1      16.315  10.274  24.657  1.00  0.00     0.210 HD
ENDBRANCH  37  38
ENDBRANCH  31  37
BRANCH  32  40
ATOM     40  O   UNL     1      14.552  10.106  21.639  1.00  0.00    -0.387 OA
ATOM     41  H   UNL     1      15.433   9.555  21.631  1.00  0.00     0.211 HD
ENDBRANCH  32  40
ENDBRANCH   1  27
TORSDOF 12
ENDMDL
MODEL 3
REMARK VINA RESULT:    -5.514      8.411     11.947
REMARK INTER + INTRA:          -9.978
REMARK INTER:                  -8.576
REMARK INTRA:                  -1.402
REMARK UNBOUND:                -1.884
REMARK SMILES O=c1c(O[C@@H]2O[C@@H](CO)[C@@H](O)[C@H](O)[C@H]2O)c(-c2ccc(O)c(O)c2)oc2cc(O)cc(O)c12
REMARK SMILES IDX 4 1 3 2 16 3 25 4 2 5 26 6 1 7 33 8 27 9 31 10 28 11 30 12
REMARK SMILES IDX 17 13 18 14 19 15 20 16 24 17 22 18 21 19 23 21 32 23 29 25
REMARK SMILES IDX 5 27 14 28 6 29 12 30 7 31 10 32 15 33 13 35 8 37 9 38 11 40
REMARK H PARENT 21 20 23 22 32 24 29 26 15 34 13 36 9 39 11 41
REMARK Flexibility Score: inf
ROOT
ATOM      1  O   UNL     1      15.016  -4.268  24.761  1.00  0.00    -0.454 OA
ENDROOT
BRANCH   1   2
ATOM      2  C   UNL     1      14.063  -3.695  23.815  1.00  0.00     0.214 A 
ATOM      3  C   UNL     1      14.143  -2.340  23.315  1.00  0.00     0.180 A 
ATOM      4  O   UNL     1      13.078  -1.724  22.839  1.00  0.00    -0.452 OA
ATOM      5  C   UNL     1      12.978  -4.421  23.274  1.00  0.00     0.239 A 
ATOM      6  C   UNL     1      11.958  -2.341  22.562  1.00  0.00     0.146 A 
ATOM      7  O   UNL     1      13.017  -5.679  23.246  1.00  0.00    -0.285 OA
ATOM      8  C   UNL     1      11.895  -3.753  22.620  1.00  0.00     0.111 A 
ATOM      9  C   UNL     1      10.895  -1.589  22.081  1.00  0.00     0.094 A 
ATOM     10  C   UNL     1      10.859  -4.387  21.869  1.00  0.00     0.134 A 
ATOM     11  C   UNL     1       9.814  -2.207  21.432  1.00  0.00     0.123 A 
ATOM     12  C   UNL     1       9.799  -3.604  21.356  1.00  0.00     0.093 A 
BRANCH   3  13
ATOM     13  C   UNL     1      15.420  -1.589  22.985  1.00  0.00     0.025 A 
ATOM     14  C   UNL     1      15.583  -1.004  21.745  1.00  0.00     0.016 A 
ATOM     15  C   UNL     1      16.761  -1.249  20.975  1.00  0.00     0.051 A 
ATOM     16  C   UNL     1      17.754  -2.093  21.570  1.00  0.00     0.157 A 
ATOM     17  C   UNL     1      16.569  -1.879  23.691  1.00  0.00     0.062 A 
ATOM     18  C   UNL     1      17.567  -2.567  22.921  1.00  0.00     0.158 A 
BRANCH  16  19
ATOM     19  O   UNL     1      18.867  -2.562  20.877  1.00  0.00    -0.504 OA
ATOM     20  H   UNL     1      18.760  -3.171  20.042  1.00  0.00     0.293 HD
ENDBRANCH  16  19
BRANCH  18  21
ATOM     21  O   UNL     1      18.378  -3.506  23.553  1.00  0.00    -0.504 OA
ATOM     22  H   UNL     1      19.307  -3.711  23.173  1.00  0.00     0.293 HD
ENDBRANCH  18  21
ENDBRANCH   3  13
BRANCH  10  23
ATOM     23  O   UNL     1      10.984  -5.711  21.469  1.00  0.00    -0.507 OA
ATOM     24  H   UNL     1      10.464  -6.428  21.962  1.00  0.00     0.293 HD
ENDBRANCH  10  23
BRANCH  11  25
ATOM     25  O   UNL     1       8.718  -1.487  21.032  1.00  0.00    -0.508 OA
ATOM     26  H   UNL     1       8.403  -1.558  20.065  1.00  0.00     0.293 HD
ENDBRANCH  11  25
ENDBRANCH   1   2
BRANCH   1  27
ATOM     27  C   UNL     1      14.962  -4.885  26.107  1.00  0.00     0.339 C 
ATOM     28  C   UNL     1      15.141  -6.478  25.985  1.00  0.00     0.214 C 
ATOM     29  O   UNL     1      15.960  -4.419  26.989  1.00  0.00    -0.332 OA
ATOM     30  C   UNL     1      16.467  -7.042  26.598  1.00  0.00     0.180 C 
ATOM     31  C   UNL     1      17.281  -4.560  26.478  1.00  0.00     0.179 C 
ATOM     32  C   UNL     1      17.741  -6.054  26.653  1.00  0.00     0.177 C 
BRANCH  28  33
ATOM     33  O   UNL     1      14.115  -7.127  26.770  1.00  0.00    -0.384 OA
ATOM     34  H   UNL     1      13.814  -7.900  26.198  1.00  0.00     0.211 HD
ENDBRANCH  28  33
BRANCH  30  35
ATOM     35  O   UNL     1      16.713  -8.209  25.800  1.00  0.00    -0.387 OA
ATOM     36  H   UNL     1      17.208  -8.874  26.376  1.00  0.00     0.211 HD
ENDBRANCH  30  35
BRANCH  31  37
ATOM     37  C   UNL     1      18.076  -3.377  27.263  1.00  0.00     0.191 C 
BRANCH  37  38
ATOM     38  O   UNL     1      18.764  -2.541  26.310  1.00  0.00    -0.394 OA
ATOM     39  H   UNL     1      18.173  -1.978  25.653  1.00  0.00     0.210 HD
ENDBRANCH  37  38
ENDBRANCH  31  37
BRANCH  32  40
ATOM     40  O   UNL     1      18.440  -6.163  27.882  1.00  0.00    -0.387 OA
ATOM     41  H   UNL     1      18.538  -5.223  28.313  1.00  0.00     0.211 HD
ENDBRANCH  32  40
ENDBRANCH   1  27
TORSDOF 12
ENDMDL
MODEL 4
REMARK VINA RESULT:    -5.422      6.873     10.107
REMARK INTER + INTRA:          -9.842
REMARK INTER:                  -7.701
REMARK INTRA:                  -2.141
REMARK UNBOUND:                -1.884
REMARK SMILES O=c1c(O[C@@H]2O[C@@H](CO)[C@@H](O)[C@H](O)[C@H]2O)c(-c2ccc(O)c(O)c2)oc2cc(O)cc(O)c12
REMARK SMILES IDX 4 1 3 2 16 3 25 4 2 5 26 6 1 7 33 8 27 9 31 10 28 11 30 12
REMARK SMILES IDX 17 13 18 14 19 15 20 16 24 17 22 18 21 19 23 21 32 23 29 25
REMARK SMILES IDX 5 27 14 28 6 29 12 30 7 31 10 32 15 33 13 35 8 37 9 38 11 40
REMARK H PARENT 21 20 23 22 32 24 29 26 15 34 13 36 9 39 11 41
REMARK Flexibility Score: inf
ROOT
ATOM      1  O   UNL     1      12.751  -2.166  24.191  1.00  0.00    -0.454 OA
ENDROOT
BRANCH   1   2
ATOM      2  C   UNL     1      13.436  -3.454  24.154  1.00  0.00     0.214 A 
ATOM      3  C   UNL     1      12.763  -4.716  23.940  1.00  0.00     0.180 A 
ATOM      4  O   UNL     1      13.301  -5.853  24.340  1.00  0.00    -0.452 OA
ATOM      5  C   UNL     1      14.835  -3.591  24.300  1.00  0.00     0.239 A 
ATOM      6  C   UNL     1      14.546  -5.959  24.726  1.00  0.00     0.146 A 
ATOM      7  O   UNL     1      15.590  -2.615  24.051  1.00  0.00    -0.285 OA
ATOM      8  C   UNL     1      15.427  -4.862  24.583  1.00  0.00     0.111 A 
ATOM      9  C   UNL     1      15.001  -7.203  25.143  1.00  0.00     0.094 A 
ATOM     10  C   UNL     1      16.825  -5.154  24.552  1.00  0.00     0.134 A 
ATOM     11  C   UNL     1      16.376  -7.475  25.221  1.00  0.00     0.123 A 
ATOM     12  C   UNL     1      17.272  -6.436  24.947  1.00  0.00     0.093 A 
BRANCH   3  13
ATOM     13  C   UNL     1      11.584  -4.948  23.013  1.00  0.00     0.025 A 
ATOM     14  C   UNL     1      11.719  -4.748  21.653  1.00  0.00     0.016 A 
ATOM     15  C   UNL     1      10.782  -3.935  20.942  1.00  0.00     0.051 A 
ATOM     16  C   UNL     1       9.703  -3.382  21.704  1.00  0.00     0.157 A 
ATOM     17  C   UNL     1      10.305  -4.886  23.526  1.00  0.00     0.062 A 
ATOM     18  C   UNL     1       9.559  -3.737  23.096  1.00  0.00     0.158 A 
BRANCH  16  19
ATOM     19  O   UNL     1       8.819  -2.435  21.192  1.00  0.00    -0.504 OA
ATOM     20  H   UNL     1       8.008  -2.103  21.748  1.00  0.00     0.293 HD
ENDBRANCH  16  19
BRANCH  18  21
ATOM     21  O   UNL     1       8.650  -3.156  23.975  1.00  0.00    -0.504 OA
ATOM     22  H   UNL     1       8.850  -2.234  24.375  1.00  0.00     0.293 HD
ENDBRANCH  18  21
ENDBRANCH   3  13
BRANCH  10  23
ATOM     23  O   UNL     1      17.719  -4.274  23.955  1.00  0.00    -0.507 OA
ATOM     24  H   UNL     1      17.810  -4.270  22.946  1.00  0.00     0.293 HD
ENDBRANCH  10  23
BRANCH  11  25
ATOM     25  O   UNL     1      16.839  -8.668  25.714  1.00  0.00    -0.508 OA
ATOM     26  H   UNL     1      16.560  -8.960  26.650  1.00  0.00     0.293 HD
ENDBRANCH  11  25
ENDBRANCH   1   2
BRANCH   1  27
ATOM     27  C   UNL     1      12.016  -1.306  23.233  1.00  0.00     0.339 C 
ATOM     28  C   UNL     1      11.040  -0.308  24.032  1.00  0.00     0.214 C 
ATOM     29  O   UNL     1      12.853  -0.511  22.422  1.00  0.00    -0.332 OA
ATOM     30  C   UNL     1      11.429   1.206  23.943  1.00  0.00     0.180 C 
ATOM     31  C   UNL     1      13.756   0.303  23.162  1.00  0.00     0.179 C 
ATOM     32  C   UNL     1      12.983   1.563  23.702  1.00  0.00     0.177 C 
BRANCH  28  33
ATOM     33  O   UNL     1       9.729  -0.346  23.423  1.00  0.00    -0.384 OA
ATOM     34  H   UNL     1       9.213  -1.006  23.983  1.00  0.00     0.211 HD
ENDBRANCH  28  33
BRANCH  30  35
ATOM     35  O   UNL     1      10.931   1.733  25.181  1.00  0.00    -0.387 OA
ATOM     36  H   UNL     1      11.299   2.667  25.285  1.00  0.00     0.211 HD
ENDBRANCH  30  35
BRANCH  31  37
ATOM     37  C   UNL     1      14.977   0.501  22.106  1.00  0.00     0.191 C 
BRANCH  37  38
ATOM     38  O   UNL     1      15.593  -0.774  21.834  1.00  0.00    -0.394 OA
ATOM     39  H   UNL     1      16.141  -1.216  22.612  1.00  0.00     0.210 HD
ENDBRANCH  37  38
ENDBRANCH  31  37
BRANCH  32  40
ATOM     40  O   UNL     1      13.143   2.617  22.767  1.00  0.00    -0.387 OA
ATOM     41  H   UNL     1      13.902   2.379  22.097  1.00  0.00     0.211 HD
ENDBRANCH  32  40
ENDBRANCH   1  27
TORSDOF 12
ENDMDL
MODEL 5
REMARK VINA RESULT:    -5.335      2.763      6.385
REMARK INTER + INTRA:          -9.715
REMARK INTER:                  -8.326
REMARK INTRA:                  -1.389
REMARK UNBOUND:                -1.884
REMARK SMILES O=c1c(O[C@@H]2O[C@@H](CO)[C@@H](O)[C@H](O)[C@H]2O)c(-c2ccc(O)c(O)c2)oc2cc(O)cc(O)c12
REMARK SMILES IDX 4 1 3 2 16 3 25 4 2 5 26 6 1 7 33 8 27 9 31 10 28 11 30 12
REMARK SMILES IDX 17 13 18 14 19 15 20 16 24 17 22 18 21 19 23 21 32 23 29 25
REMARK SMILES IDX 5 27 14 28 6 29 12 30 7 31 10 32 15 33 13 35 8 37 9 38 11 40
REMARK H PARENT 21 20 23 22 32 24 29 26 15 34 13 36 9 39 11 41
REMARK Flexibility Score: inf
ROOT
ATOM      1  O   UNL     1      12.734   3.271  23.363  1.00  0.00    -0.454 OA
ENDROOT
BRANCH   1   2
ATOM      2  C   UNL     1      11.614   4.145  23.700  1.00  0.00     0.214 A 
ATOM      3  C   UNL     1      11.582   5.560  23.404  1.00  0.00     0.180 A 
ATOM      4  O   UNL     1      10.802   6.381  24.083  1.00  0.00    -0.452 OA
ATOM      5  C   UNL     1      10.435   3.683  24.329  1.00  0.00     0.239 A 
ATOM      6  C   UNL     1       9.851   5.970  24.880  1.00  0.00     0.146 A 
ATOM      7  O   UNL     1      10.116   2.468  24.250  1.00  0.00    -0.285 OA
ATOM      8  C   UNL     1       9.514   4.597  24.931  1.00  0.00     0.111 A 
ATOM      9  C   UNL     1       9.103   6.924  25.557  1.00  0.00     0.094 A 
ATOM     10  C   UNL     1       8.210   4.268  25.411  1.00  0.00     0.134 A 
ATOM     11  C   UNL     1       7.865   6.592  26.129  1.00  0.00     0.123 A 
ATOM     12  C   UNL     1       7.444   5.258  26.069  1.00  0.00     0.093 A 
BRANCH   3  13
ATOM     13  C   UNL     1      12.146   6.221  22.161  1.00  0.00     0.025 A 
ATOM     14  C   UNL     1      13.480   6.068  21.836  1.00  0.00     0.016 A 
ATOM     15  C   UNL     1      14.292   7.208  21.543  1.00  0.00     0.051 A 
ATOM     16  C   UNL     1      13.642   8.484  21.574  1.00  0.00     0.157 A 
ATOM     17  C   UNL     1      11.500   7.319  21.633  1.00  0.00     0.062 A 
ATOM     18  C   UNL     1      12.217   8.553  21.800  1.00  0.00     0.158 A 
BRANCH  16  19
ATOM     19  O   UNL     1      14.333   9.690  21.485  1.00  0.00    -0.504 OA
ATOM     20  H   UNL     1      13.898  10.526  21.049  1.00  0.00     0.293 HD
ENDBRANCH  16  19
BRANCH  18  21
ATOM     21  O   UNL     1      11.500   9.728  22.000  1.00  0.00    -0.504 OA
ATOM     22  H   UNL     1      11.977  10.632  21.930  1.00  0.00     0.293 HD
ENDBRANCH  18  21
ENDBRANCH   3  13
BRANCH  10  23
ATOM     23  O   UNL     1       7.611   3.063  25.065  1.00  0.00    -0.507 OA
ATOM     24  H   UNL     1       7.479   2.354  25.776  1.00  0.00     0.293 HD
ENDBRANCH  10  23
BRANCH  11  25
ATOM     25  O   UNL     1       7.158   7.500  26.875  1.00  0.00    -0.508 OA
ATOM     26  H   UNL     1       7.419   8.485  26.836  1.00  0.00     0.293 HD
ENDBRANCH  11  25
ENDBRANCH   1   2
BRANCH   1  27
ATOM     27  C   UNL     1      13.197   2.521  22.171  1.00  0.00     0.339 C 
ATOM     28  C   UNL     1      14.792   2.327  22.234  1.00  0.00     0.214 C 
ATOM     29  O   UNL     1      12.625   1.237  22.048  1.00  0.00    -0.332 OA
ATOM     30  C   UNL     1      15.269   0.848  22.426  1.00  0.00     0.180 C 
ATOM     31  C   UNL     1      12.808   0.420  23.198  1.00  0.00     0.179 C 
ATOM     32  C   UNL     1      14.269  -0.165  23.183  1.00  0.00     0.177 C 
BRANCH  28  33
ATOM     33  O   UNL     1      15.359   2.691  20.955  1.00  0.00    -0.384 OA
ATOM     34  H   UNL     1      15.709   1.823  20.582  1.00  0.00     0.211 HD
ENDBRANCH  28  33
BRANCH  30  35
ATOM     35  O   UNL     1      16.516   1.007  23.119  1.00  0.00    -0.387 OA
ATOM     36  H   UNL     1      16.317   1.013  24.108  1.00  0.00     0.211 HD
ENDBRANCH  30  35
BRANCH  31  37
ATOM     37  C   UNL     1      11.536  -0.591  23.102  1.00  0.00     0.191 C 
BRANCH  37  38
ATOM     38  O   UNL     1      11.280  -0.914  21.720  1.00  0.00    -0.394 OA
ATOM     39  H   UNL     1      11.305  -0.124  21.032  1.00  0.00     0.210 HD
ENDBRANCH  37  38
ENDBRANCH  31  37
BRANCH  32  40
ATOM     40  O   UNL     1      14.232  -1.437  22.555  1.00  0.00    -0.387 OA
ATOM     41  H   UNL     1      13.247  -1.699  22.353  1.00  0.00     0.211 HD
ENDBRANCH  32  40
ENDBRANCH   1  27
TORSDOF 12
ENDMDL
MODEL 6
REMARK VINA RESULT:    -5.304      9.576     12.256
REMARK INTER + INTRA:          -9.669
REMARK INTER:                  -7.987
REMARK INTRA:                  -1.682
REMARK UNBOUND:                -1.884
REMARK SMILES O=c1c(O[C@@H]2O[C@@H](CO)[C@@H](O)[C@H](O)[C@H]2O)c(-c2ccc(O)c(O)c2)oc2cc(O)cc(O)c12
REMARK SMILES IDX 4 1 3 2 16 3 25 4 2 5 26 6 1 7 33 8 27 9 31 10 28 11 30 12
REMARK SMILES IDX 17 13 18 14 19 15 20 16 24 17 22 18 21 19 23 21 32 23 29 25
REMARK SMILES IDX 5 27 14 28 6 29 12 30 7 31 10 32 15 33 13 35 8 37 9 38 11 40
REMARK H PARENT 21 20 23 22 32 24 29 26 15 34 13 36 9 39 11 41
REMARK Flexibility Score: inf
ROOT
ATOM      1  O   UNL     1      12.655   6.848  37.223  1.00  0.00    -0.454 OA
ENDROOT
BRANCH   1   2
ATOM      2  C   UNL     1      13.529   6.189  36.258  1.00  0.00     0.214 A 
ATOM      3  C   UNL     1      13.050   5.490  35.086  1.00  0.00     0.180 A 
ATOM      4  O   UNL     1      13.782   4.562  34.498  1.00  0.00    -0.452 OA
ATOM      5  C   UNL     1      14.939   6.192  36.363  1.00  0.00     0.239 A 
ATOM      6  C   UNL     1      15.049   4.374  34.764  1.00  0.00     0.146 A 
ATOM      7  O   UNL     1      15.517   7.090  37.031  1.00  0.00    -0.285 OA
ATOM      8  C   UNL     1      15.738   5.281  35.602  1.00  0.00     0.111 A 
ATOM      9  C   UNL     1      15.716   3.356  34.096  1.00  0.00     0.094 A 
ATOM     10  C   UNL     1      17.160   5.327  35.477  1.00  0.00     0.134 A 
ATOM     11  C   UNL     1      17.119   3.326  34.052  1.00  0.00     0.123 A 
ATOM     12  C   UNL     1      17.825   4.301  34.765  1.00  0.00     0.093 A 
BRANCH   3  13
ATOM     13  C   UNL     1      11.870   5.903  34.227  1.00  0.00     0.025 A 
ATOM     14  C   UNL     1      11.728   7.217  33.825  1.00  0.00     0.016 A 
ATOM     15  C   UNL     1      10.492   7.907  34.022  1.00  0.00     0.051 A 
ATOM     16  C   UNL     1       9.425   7.158  34.617  1.00  0.00     0.157 A 
ATOM     17  C   UNL     1      10.728   5.131  34.241  1.00  0.00     0.062 A 
ATOM     18  C   UNL     1       9.611   5.754  34.896  1.00  0.00     0.158 A 
BRANCH  16  19
ATOM     19  O   UNL     1       8.229   7.739  35.030  1.00  0.00    -0.504 OA
ATOM     20  H   UNL     1       8.084   8.765  34.975  1.00  0.00     0.293 HD
ENDBRANCH  16  19
BRANCH  18  21
ATOM     21  O   UNL     1       8.715   4.959  35.603  1.00  0.00    -0.504 OA
ATOM     22  H   UNL     1       7.934   4.515  35.112  1.00  0.00     0.293 HD
ENDBRANCH  18  21
ENDBRANCH   3  13
BRANCH  10  23
ATOM     23  O   UNL     1      17.869   6.457  35.865  1.00  0.00    -0.507 OA
ATOM     24  H   UNL     1      18.113   6.577  36.840  1.00  0.00     0.293 HD
ENDBRANCH  10  23
BRANCH  11  25
ATOM     25  O   UNL     1      17.791   2.280  33.472  1.00  0.00    -0.508 OA
ATOM     26  H   UNL     1      18.286   2.434  32.594  1.00  0.00     0.293 HD
ENDBRANCH  11  25
ENDBRANCH   1   2
BRANCH   1  27
ATOM     27  C   UNL     1      12.451   6.818  38.691  1.00  0.00     0.339 C 
ATOM     28  C   UNL     1      13.437   7.871  39.402  1.00  0.00     0.214 C 
ATOM     29  O   UNL     1      11.137   7.142  39.091  1.00  0.00    -0.332 OA
ATOM     30  C   UNL     1      12.724   9.090  40.078  1.00  0.00     0.180 C 
ATOM     31  C   UNL     1      10.684   8.397  38.595  1.00  0.00     0.179 C 
ATOM     32  C   UNL     1      11.299   9.546  39.477  1.00  0.00     0.177 C 
BRANCH  28  33
ATOM     33  O   UNL     1      14.097   7.220  40.511  1.00  0.00    -0.384 OA
ATOM     34  H   UNL     1      13.470   6.476  40.773  1.00  0.00     0.211 HD
ENDBRANCH  28  33
BRANCH  30  35
ATOM     35  O   UNL     1      13.713  10.125  39.987  1.00  0.00    -0.387 OA
ATOM     36  H   UNL     1      14.398   9.833  39.305  1.00  0.00     0.211 HD
ENDBRANCH  30  35
BRANCH  31  37
ATOM     37  C   UNL     1       9.071   8.185  38.560  1.00  0.00     0.191 C 
BRANCH  37  38
ATOM     38  O   UNL     1       8.766   6.887  38.012  1.00  0.00    -0.394 OA
ATOM     39  H   UNL     1       9.479   6.457  37.375  1.00  0.00     0.210 HD
ENDBRANCH  37  38
ENDBRANCH  31  37
BRANCH  32  40
ATOM     40  O   UNL     1      10.371   9.864  40.502  1.00  0.00    -0.387 OA
ATOM     41  H   UNL     1      10.848  10.406  41.249  1.00  0.00     0.211 HD
ENDBRANCH  32  40
ENDBRANCH   1  27
TORSDOF 12
ENDMDL
MODEL 7
REMARK VINA RESULT:    -5.272      9.188     12.833
REMARK INTER + INTRA:          -9.622
REMARK INTER:                  -7.538
REMARK INTRA:                  -2.084
REMARK UNBOUND:                -1.884
REMARK SMILES O=c1c(O[C@@H]2O[C@@H](CO)[C@@H](O)[C@H](O)[C@H]2O)c(-c2ccc(O)c(O)c2)oc2cc(O)cc(O)c12
REMARK SMILES IDX 4 1 3 2 16 3 25 4 2 5 26 6 1 7 33 8 27 9 31 10 28 11 30 12
REMARK SMILES IDX 17 13 18 14 19 15 20 16 24 17 22 18 21 19 23 21 32 23 29 25
REMARK SMILES IDX 5 27 14 28 6 29 12 30 7 31 10 32 15 33 13 35 8 37 9 38 11 40
REMARK H PARENT 21 20 23 22 32 24 29 26 15 34 13 36 9 39 11 41
REMARK Flexibility Score: inf
ROOT
ATOM      1  O   UNL     1      12.647   6.088  37.270  1.00  0.00    -0.454 OA
ENDROOT
BRANCH   1   2
ATOM      2  C   UNL     1      12.505   5.210  36.113  1.00  0.00     0.214 A 
ATOM      3  C   UNL     1      13.581   4.910  35.195  1.00  0.00     0.180 A 
ATOM      4  O   UNL     1      13.335   4.500  33.966  1.00  0.00    -0.452 OA
ATOM      5  C   UNL     1      11.300   4.544  35.790  1.00  0.00     0.239 A 
ATOM      6  C   UNL     1      12.153   4.109  33.564  1.00  0.00     0.146 A 
ATOM      7  O   UNL     1      10.439   4.338  36.685  1.00  0.00    -0.285 OA
ATOM      8  C   UNL     1      11.101   3.965  34.498  1.00  0.00     0.111 A 
ATOM      9  C   UNL     1      12.006   3.714  32.241  1.00  0.00     0.094 A 
ATOM     10  C   UNL     1      10.022   3.105  34.129  1.00  0.00     0.134 A 
ATOM     11  C   UNL     1      10.895   2.957  31.838  1.00  0.00     0.123 A 
ATOM     12  C   UNL     1       9.902   2.682  32.785  1.00  0.00     0.093 A 
BRANCH   3  13
ATOM     13  C   UNL     1      15.040   4.723  35.568  1.00  0.00     0.025 A 
ATOM     14  C   UNL     1      15.495   3.493  36.002  1.00  0.00     0.016 A 
ATOM     15  C   UNL     1      16.252   3.382  37.210  1.00  0.00     0.051 A 
ATOM     16  C   UNL     1      16.530   4.602  37.908  1.00  0.00     0.157 A 
ATOM     17  C   UNL     1      15.785   5.825  35.933  1.00  0.00     0.062 A 
ATOM     18  C   UNL     1      16.127   5.862  37.328  1.00  0.00     0.158 A 
BRANCH  16  19
ATOM     19  O   UNL     1      17.098   4.637  39.179  1.00  0.00    -0.504 OA
ATOM     20  H   UNL     1      17.661   5.451  39.492  1.00  0.00     0.293 HD
ENDBRANCH  16  19
BRANCH  18  21
ATOM     21  O   UNL     1      16.204   7.093  37.970  1.00  0.00    -0.504 OA
ATOM     22  H   UNL     1      16.986   7.723  37.768  1.00  0.00     0.293 HD
ENDBRANCH  18  21
ENDBRANCH   3  13
BRANCH  10  23
ATOM     23  O   UNL     1       9.216   2.524  35.101  1.00  0.00    -0.507 OA
ATOM     24  H   UNL     1       8.291   2.901  35.267  1.00  0.00     0.293 HD
ENDBRANCH  10  23
BRANCH  11  25
ATOM     25  O   UNL     1      10.693   2.635  30.520  1.00  0.00    -0.508 OA
ATOM     26  H   UNL     1      10.884   3.334  29.803  1.00  0.00     0.293 HD
ENDBRANCH  11  25
ENDBRANCH   1   2
BRANCH   1  27
ATOM     27  C   UNL     1      12.822   7.540  37.508  1.00  0.00     0.339 C 
ATOM     28  C   UNL     1      11.399   8.285  37.416  1.00  0.00     0.214 C 
ATOM     29  O   UNL     1      13.373   7.850  38.769  1.00  0.00    -0.332 OA
ATOM     30  C   UNL     1      10.880   8.884  38.766  1.00  0.00     0.180 C 
ATOM     31  C   UNL     1      12.646   7.295  39.860  1.00  0.00     0.179 C 
ATOM     32  C   UNL     1      11.376   8.185  40.132  1.00  0.00     0.177 C 
BRANCH  28  33
ATOM     33  O   UNL     1      11.532   9.449  36.570  1.00  0.00    -0.384 OA
ATOM     34  H   UNL     1      10.585   9.762  36.426  1.00  0.00     0.211 HD
ENDBRANCH  28  33
BRANCH  30  35
ATOM     35  O   UNL     1       9.455   8.829  38.609  1.00  0.00    -0.387 OA
ATOM     36  H   UNL     1       9.245   8.058  37.992  1.00  0.00     0.211 HD
ENDBRANCH  30  35
BRANCH  31  37
ATOM     37  C   UNL     1      13.796   7.165  41.004  1.00  0.00     0.191 C 
BRANCH  37  38
ATOM     38  O   UNL     1      14.881   6.355  40.508  1.00  0.00    -0.394 OA
ATOM     39  H   UNL     1      14.968   6.258  39.468  1.00  0.00     0.210 HD
ENDBRANCH  37  38
ENDBRANCH  31  37
BRANCH  32  40
ATOM     40  O   UNL     1      11.708   9.142  41.125  1.00  0.00    -0.387 OA
ATOM     41  H   UNL     1      11.876   8.662  42.031  1.00  0.00     0.211 HD
ENDBRANCH  32  40
ENDBRANCH   1  27
TORSDOF 12
ENDMDL
MODEL 8
REMARK VINA RESULT:    -5.120     10.089     13.897
REMARK INTER + INTRA:          -9.399
REMARK INTER:                  -7.464
REMARK INTRA:                  -1.935
REMARK UNBOUND:                -1.884
REMARK SMILES O=c1c(O[C@@H]2O[C@@H](CO)[C@@H](O)[C@H](O)[C@H]2O)c(-c2ccc(O)c(O)c2)oc2cc(O)cc(O)c12
REMARK SMILES IDX 4 1 3 2 16 3 25 4 2 5 26 6 1 7 33 8 27 9 31 10 28 11 30 12
REMARK SMILES IDX 17 13 18 14 19 15 20 16 24 17 22 18 21 19 23 21 32 23 29 25
REMARK SMILES IDX 5 27 14 28 6 29 12 30 7 31 10 32 15 33 13 35 8 37 9 38 11 40
REMARK H PARENT 21 20 23 22 32 24 29 26 15 34 13 36 9 39 11 41
REMARK Flexibility Score: inf
ROOT
ATOM      1  O   UNL     1      14.319   6.464  36.576  1.00  0.00    -0.454 OA
ENDROOT
BRANCH   1   2
ATOM      2  C   UNL     1      13.138   5.607  36.592  1.00  0.00     0.214 A 
ATOM      3  C   UNL     1      12.207   5.541  37.697  1.00  0.00     0.180 A 
ATOM      4  O   UNL     1      11.437   4.486  37.879  1.00  0.00    -0.452 OA
ATOM      5  C   UNL     1      12.774   4.770  35.512  1.00  0.00     0.239 A 
ATOM      6  C   UNL     1      11.276   3.552  36.977  1.00  0.00     0.146 A 
ATOM      7  O   UNL     1      13.191   5.027  34.352  1.00  0.00    -0.285 OA
ATOM      8  C   UNL     1      11.818   3.720  35.681  1.00  0.00     0.111 A 
ATOM      9  C   UNL     1      10.454   2.476  37.284  1.00  0.00     0.094 A 
ATOM     10  C   UNL     1      11.231   2.953  34.630  1.00  0.00     0.134 A 
ATOM     11  C   UNL     1       9.952   1.645  36.270  1.00  0.00     0.123 A 
ATOM     12  C   UNL     1      10.368   1.880  34.955  1.00  0.00     0.093 A 
BRANCH   3  13
ATOM     13  C   UNL     1      11.772   6.710  38.562  1.00  0.00     0.025 A 
ATOM     14  C   UNL     1      11.416   7.911  37.981  1.00  0.00     0.016 A 
ATOM     15  C   UNL     1      11.993   9.138  38.434  1.00  0.00     0.051 A 
ATOM     16  C   UNL     1      12.916   9.048  39.526  1.00  0.00     0.157 A 
ATOM     17  C   UNL     1      12.172   6.753  39.881  1.00  0.00     0.062 A 
ATOM     18  C   UNL     1      13.144   7.772  40.163  1.00  0.00     0.158 A 
BRANCH  16  19
ATOM     19  O   UNL     1      13.686  10.124  39.959  1.00  0.00    -0.504 OA
ATOM     20  H   UNL     1      14.621  10.313  39.549  1.00  0.00     0.293 HD
ENDBRANCH  16  19
BRANCH  18  21
ATOM     21  O   UNL     1      14.119   7.527  41.125  1.00  0.00    -0.504 OA
ATOM     22  H   UNL     1      15.108   7.536  40.859  1.00  0.00     0.293 HD
ENDBRANCH  18  21
ENDBRANCH   3  13
BRANCH  10  23
ATOM     23  O   UNL     1      11.334   3.367  33.308  1.00  0.00    -0.507 OA
ATOM     24  H   UNL     1      12.226   3.701  32.963  1.00  0.00     0.293 HD
ENDBRANCH  10  23
BRANCH  11  25
ATOM     25  O   UNL     1       9.212   0.529  36.566  1.00  0.00    -0.508 OA
ATOM     26  H   UNL     1       9.082  -0.185  35.850  1.00  0.00     0.293 HD
ENDBRANCH  11  25
ENDBRANCH   1   2
BRANCH   1  27
ATOM     27  C   UNL     1      15.511   6.676  37.430  1.00  0.00     0.339 C 
ATOM     28  C   UNL     1      15.682   5.440  38.445  1.00  0.00     0.214 C 
ATOM     29  O   UNL     1      16.717   6.793  36.708  1.00  0.00    -0.332 OA
ATOM     30  C   UNL     1      16.946   4.550  38.191  1.00  0.00     0.180 C 
ATOM     31  C   UNL     1      16.970   5.694  35.840  1.00  0.00     0.179 C 
ATOM     32  C   UNL     1      17.527   4.491  36.688  1.00  0.00     0.177 C 
BRANCH  28  33
ATOM     33  O   UNL     1      15.906   5.954  39.777  1.00  0.00    -0.384 OA
ATOM     34  H   UNL     1      16.768   6.470  39.704  1.00  0.00     0.211 HD
ENDBRANCH  28  33
BRANCH  30  35
ATOM     35  O   UNL     1      16.526   3.263  38.667  1.00  0.00    -0.387 OA
ATOM     36  H   UNL     1      15.553   3.150  38.422  1.00  0.00     0.211 HD
ENDBRANCH  30  35
BRANCH  31  37
ATOM     37  C   UNL     1      17.907   6.373  34.696  1.00  0.00     0.191 C 
BRANCH  37  38
ATOM     38  O   UNL     1      18.788   7.340  35.305  1.00  0.00    -0.394 OA
ATOM     39  H   UNL     1      19.565   6.969  35.902  1.00  0.00     0.210 HD
ENDBRANCH  37  38
ENDBRANCH  31  37
BRANCH  32  40
ATOM     40  O   UNL     1      18.943   4.551  36.667  1.00  0.00    -0.387 OA
ATOM     41  H   UNL     1      19.330   3.611  36.450  1.00  0.00     0.211 HD
ENDBRANCH  32  40
ENDBRANCH   1  27
TORSDOF 12
ENDMDL
