MODEL 1
REMARK VINA RESULT:    -4.234      0.000      0.000
REMARK INTER + INTRA:          -5.451
REMARK INTER:                  -5.348
REMARK INTRA:                  -0.104
REMARK UNBOUND:                -0.104
REMARK SMILES CCCCCCO
REMARK SMILES IDX 4 1 3 2 2 3 1 4 5 5 6 6 7 7
REMARK H PARENT 7 8
REMARK Flexibility Score: inf
ROOT
ATOM      1  C   UNL     1      18.990  -4.235  17.227  1.00  0.00     0.002 C 
ENDROOT
BRANCH   1   2
ATOM      2  C   UNL     1      18.927  -3.443  15.911  1.00  0.00    -0.000 C 
BRANCH   2   3
ATOM      3  C   UNL     1      20.318  -3.118  15.348  1.00  0.00    -0.003 C 
ATOM      4  C   UNL     1      20.518  -3.752  13.975  1.00  0.00     0.004 C 
ENDBRANCH   2   3
ENDBRANCH   1   2
BRANCH   1   5
ATOM      5  C   UNL     1      20.032  -5.362  17.189  1.00  0.00     0.028 C 
BRANCH   5   6
ATOM      6  C   UNL     1      19.388  -6.693  16.789  1.00  0.00     0.156 C 
BRANCH   6   7
ATOM      7  O   UNL     1      19.182  -7.491  17.922  1.00  0.00    -0.396 OA
ATOM      8  H   UNL     1      18.527  -7.010  18.492  1.00  0.00     0.210 HD
ENDBRANCH   6   7
ENDBRANCH   5   6
ENDBRANCH   1   5
TORSDOF 5
ENDMDL
MODEL 2
REMARK VINA RESULT:    -4.155      2.618      3.598
REMARK INTER + INTRA:          -5.351
REMARK INTER:                  -5.251
REMARK INTRA:                  -0.100
REMARK UNBOUND:                -0.104
REMARK SMILES CCCCCCO
REMARK SMILES IDX 4 1 3 2 2 3 1 4 5 5 6 6 7 7
REMARK H PARENT 7 8
REMARK Flexibility Score: inf
ROOT
ATOM      1  C   UNL     1      20.541  -3.850  14.091  1.00  0.00     0.002 C 
ENDROOT
BRANCH   1   2
ATOM      2  C   UNL     1      19.954  -3.035  15.255  1.00  0.00    -0.000 C 
BRANCH   2   3
ATOM      3  C   UNL     1      18.631  -3.616  15.775  1.00  0.00    -0.003 C 
ATOM      4  C   UNL     1      18.746  -4.010  17.245  1.00  0.00     0.004 C 
ENDBRANCH   2   3
ENDBRANCH   1   2
BRANCH   1   5
ATOM      5  C   UNL     1      20.991  -5.254  14.520  1.00  0.00     0.028 C 
BRANCH   5   6
ATOM      6  C   UNL     1      22.472  -5.261  14.912  1.00  0.00     0.156 C 
BRANCH   6   7
ATOM      7  O   UNL     1      23.253  -5.732  13.848  1.00  0.00    -0.396 OA
ATOM      8  H   UNL     1      23.539  -4.934  13.331  1.00  0.00     0.210 HD
ENDBRANCH   6   7
ENDBRANCH   5   6
ENDBRANCH   1   5
TORSDOF 5
ENDMDL
MODEL 3
REMARK VINA RESULT:    -4.149      1.286      1.326
REMARK INTER + INTRA:          -5.344
REMARK INTER:                  -5.127
REMARK INTRA:                  -0.216
REMARK UNBOUND:                -0.104
REMARK SMILES CCCCCCO
REMARK SMILES IDX 4 1 3 2 2 3 1 4 5 5 6 6 7 7
REMARK H PARENT 7 8
REMARK Flexibility Score: inf
ROOT
ATOM      1  C   UNL     1      19.128  -4.484  17.207  1.00  0.00     0.002 C 
ENDROOT
BRANCH   1   2
ATOM      2  C   UNL     1      18.857  -3.586  15.990  1.00  0.00    -0.000 C 
BRANCH   2   3
ATOM      3  C   UNL     1      20.146  -3.043  15.356  1.00  0.00    -0.003 C 
ATOM      4  C   UNL     1      20.513  -3.828  14.101  1.00  0.00     0.004 C 
ENDBRANCH   2   3
ENDBRANCH   1   2
BRANCH   1   5
ATOM      5  C   UNL     1      19.266  -5.966  16.829  1.00  0.00     0.028 C 
BRANCH   5   6
ATOM      6  C   UNL     1      20.719  -6.433  16.956  1.00  0.00     0.156 C 
BRANCH   6   7
ATOM      7  O   UNL     1      21.462  -5.507  17.701  1.00  0.00    -0.396 OA
ATOM      8  H   UNL     1      20.876  -4.717  17.837  1.00  0.00     0.210 HD
ENDBRANCH   6   7
ENDBRANCH   5   6
ENDBRANCH   1   5
TORSDOF 5
ENDMDL
MODEL 4
REMARK VINA RESULT:    -4.078      1.993      3.489
REMARK INTER + INTRA:          -5.255
REMARK INTER:                  -5.074
REMARK INTRA:                  -0.181
REMARK UNBOUND:                -0.104
REMARK SMILES CCCCCCO
REMARK SMILES IDX 4 1 3 2 2 3 1 4 5 5 6 6 7 7
REMARK H PARENT 7 8
REMARK Flexibility Score: inf
ROOT
ATOM      1  C   UNL     1      18.874  -3.535  15.909  1.00  0.00     0.002 C 
ENDROOT
BRANCH   1   2
ATOM      2  C   UNL     1      18.986  -4.235  17.273  1.00  0.00    -0.000 C 
BRANCH   2   3
ATOM      3  C   UNL     1      20.037  -5.354  17.279  1.00  0.00    -0.003 C 
ATOM      4  C   UNL     1      19.418  -6.690  16.876  1.00  0.00     0.004 C 
ENDBRANCH   2   3
ENDBRANCH   1   2
BRANCH   1   5
ATOM      5  C   UNL     1      20.244  -3.180  15.312  1.00  0.00     0.028 C 
BRANCH   5   6
ATOM      6  C   UNL     1      20.432  -3.838  13.941  1.00  0.00     0.156 C 
BRANCH   6   7
ATOM      7  O   UNL     1      21.449  -4.800  14.002  1.00  0.00    -0.396 OA
ATOM      8  H   UNL     1      22.259  -4.336  14.341  1.00  0.00     0.210 HD
ENDBRANCH   6   7
ENDBRANCH   5   6
ENDBRANCH   1   5
TORSDOF 5
ENDMDL
MODEL 5
REMARK VINA RESULT:    -4.051      1.685      2.593
REMARK INTER + INTRA:          -5.221
REMARK INTER:                  -4.991
REMARK INTRA:                  -0.230
REMARK UNBOUND:                -0.104
REMARK SMILES CCCCCCO
REMARK SMILES IDX 4 1 3 2 2 3 1 4 5 5 6 6 7 7
REMARK H PARENT 7 8
REMARK Flexibility Score: inf
ROOT
ATOM      1  C   UNL     1      19.280  -4.909  14.905  1.00  0.00     0.002 C 
ENDROOT
BRANCH   1   2
ATOM      2  C   UNL     1      20.538  -4.314  14.251  1.00  0.00    -0.000 C 
BRANCH   2   3
ATOM      3  C   UNL     1      21.827  -5.015  14.702  1.00  0.00    -0.003 C 
ATOM      4  C   UNL     1      22.356  -4.410  15.999  1.00  0.00     0.004 C 
ENDBRANCH   2   3
ENDBRANCH   1   2
BRANCH   1   5
ATOM      5  C   UNL     1      18.468  -3.864  15.683  1.00  0.00     0.028 C 
BRANCH   5   6
ATOM      6  C   UNL     1      18.829  -3.884  17.172  1.00  0.00     0.156 C 
BRANCH   6   7
ATOM      7  O   UNL     1      19.234  -5.169  17.555  1.00  0.00    -0.396 OA
ATOM      8  H   UNL     1      20.170  -5.088  17.877  1.00  0.00     0.210 HD
ENDBRANCH   6   7
ENDBRANCH   5   6
ENDBRANCH   1   5
TORSDOF 5
ENDMDL
MODEL 6
REMARK VINA RESULT:    -4.048      2.456      3.136
REMARK INTER + INTRA:          -5.217
REMARK INTER:                  -4.994
REMARK INTRA:                  -0.223
REMARK UNBOUND:                -0.104
REMARK SMILES CCCCCCO
REMARK SMILES IDX 4 1 3 2 2 3 1 4 5 5 6 6 7 7
REMARK H PARENT 7 8
REMARK Flexibility Score: inf
ROOT
ATOM      1  C   UNL     1      21.003  -5.360  17.173  1.00  0.00     0.002 C 
ENDROOT
BRANCH   1   2
ATOM      2  C   UNL     1      19.488  -5.351  16.915  1.00  0.00    -0.000 C 
BRANCH   2   3
ATOM      3  C   UNL     1      18.921  -3.931  16.773  1.00  0.00    -0.003 C 
ATOM      4  C   UNL     1      18.224  -3.749  15.428  1.00  0.00     0.004 C 
ENDBRANCH   2   3
ENDBRANCH   1   2
BRANCH   1   5
ATOM      5  C   UNL     1      21.780  -4.499  16.168  1.00  0.00     0.028 C 
BRANCH   5   6
ATOM      6  C   UNL     1      21.991  -5.249  14.849  1.00  0.00     0.156 C 
BRANCH   6   7
ATOM      7  O   UNL     1      21.243  -4.651  13.826  1.00  0.00    -0.396 OA
ATOM      8  H   UNL     1      20.301  -4.626  14.141  1.00  0.00     0.210 HD
ENDBRANCH   6   7
ENDBRANCH   5   6
ENDBRANCH   1   5
TORSDOF 5
ENDMDL
MODEL 7
REMARK VINA RESULT:    -4.028      1.559      2.651
REMARK INTER + INTRA:          -5.191
REMARK INTER:                  -5.043
REMARK INTRA:                  -0.148
REMARK UNBOUND:                -0.104
REMARK SMILES CCCCCCO
REMARK SMILES IDX 4 1 3 2 2 3 1 4 5 5 6 6 7 7
REMARK H PARENT 7 8
REMARK Flexibility Score: inf
ROOT
ATOM      1  C   UNL     1      20.670  -4.323  14.205  1.00  0.00     0.002 C 
ENDROOT
BRANCH   1   2
ATOM      2  C   UNL     1      20.162  -3.225  15.153  1.00  0.00    -0.000 C 
BRANCH   2   3
ATOM      3  C   UNL     1      18.762  -3.523  15.708  1.00  0.00    -0.003 C 
ATOM      4  C   UNL     1      18.836  -4.019  17.149  1.00  0.00     0.004 C 
ENDBRANCH   2   3
ENDBRANCH   1   2
BRANCH   1   5
ATOM      5  C   UNL     1      21.571  -5.345  14.913  1.00  0.00     0.028 C 
BRANCH   5   6
ATOM      6  C   UNL     1      20.788  -6.611  15.274  1.00  0.00     0.156 C 
BRANCH   6   7
ATOM      7  O   UNL     1      21.421  -7.289  16.324  1.00  0.00    -0.396 OA
ATOM      8  H   UNL     1      21.307  -6.727  17.134  1.00  0.00     0.210 HD
ENDBRANCH   6   7
ENDBRANCH   5   6
ENDBRANCH   1   5
TORSDOF 5
ENDMDL
MODEL 8
REMARK VINA RESULT:    -3.903      1.466      2.124
REMARK INTER + INTRA:          -5.033
REMARK INTER:                  -4.808
REMARK INTRA:                  -0.225
REMARK UNBOUND:                -0.104
REMARK SMILES CCCCCCO
REMARK SMILES IDX 4 1 3 2 2 3 1 4 5 5 6 6 7 7
REMARK H PARENT 7 8
REMARK Flexibility Score: inf
ROOT
ATOM      1  C   UNL     1      21.687  -5.131  16.208  1.00  0.00     0.002 C 
ENDROOT
BRANCH   1   2
ATOM      2  C   UNL     1      21.478  -5.017  14.690  1.00  0.00    -0.000 C 
BRANCH   2   3
ATOM      3  C   UNL     1      20.544  -3.860  14.307  1.00  0.00    -0.003 C 
ATOM      4  C   UNL     1      20.419  -2.854  15.448  1.00  0.00     0.004 C 
ENDBRANCH   2   3
ENDBRANCH   1   2
BRANCH   1   5
ATOM      5  C   UNL     1      21.259  -6.497  16.764  1.00  0.00     0.028 C 
BRANCH   5   6
ATOM      6  C   UNL     1      19.738  -6.568  16.936  1.00  0.00     0.156 C 
BRANCH   6   7
ATOM      7  O   UNL     1      19.282  -5.465  17.669  1.00  0.00    -0.396 OA
ATOM      8  H   UNL     1      18.856  -5.827  18.491  1.00  0.00     0.210 HD
ENDBRANCH   6   7
ENDBRANCH   5   6
ENDBRANCH   1   5
TORSDOF 5
ENDMDL
MODEL 9
REMARK VINA RESULT:    -3.888      1.928      2.530
REMARK INTER + INTRA:          -5.015
REMARK INTER:                  -4.861
REMARK INTRA:                  -0.154
REMARK UNBOUND:                -0.104
REMARK SMILES CCCCCCO
REMARK SMILES IDX 4 1 3 2 2 3 1 4 5 5 6 6 7 7
REMARK H PARENT 7 8
REMARK Flexibility Score: inf
ROOT
ATOM      1  C   UNL     1      19.347  -6.172  16.141  1.00  0.00     0.002 C 
ENDROOT
BRANCH   1   2
ATOM      2  C   UNL     1      19.466  -5.093  17.229  1.00  0.00    -0.000 C 
BRANCH   2   3
ATOM      3  C   UNL     1      18.791  -3.773  16.830  1.00  0.00    -0.003 C 
ATOM      4  C   UNL     1      18.322  -3.813  15.378  1.00  0.00     0.004 C 
ENDBRANCH   2   3
ENDBRANCH   1   2
BRANCH   1   5
ATOM      5  C   UNL     1      20.684  -6.870  15.852  1.00  0.00     0.028 C 
BRANCH   5   6
ATOM      6  C   UNL     1      21.834  -6.189  16.601  1.00  0.00     0.156 C 
BRANCH   6   7
ATOM      7  O   UNL     1      22.632  -7.148  17.237  1.00  0.00    -0.396 OA
ATOM      8  H   UNL     1      23.529  -7.098  16.814  1.00  0.00     0.210 HD
ENDBRANCH   6   7
ENDBRANCH   5   6
ENDBRANCH   1   5
TORSDOF 5
ENDMDL
