MODEL 1
REMARK VINA RESULT:    -5.643      0.000      0.000
REMARK INTER + INTRA:         -10.516
REMARK INTER:                  -9.766
REMARK INTRA:                  -0.750
REMARK UNBOUND:                -0.750
REMARK SMILES CCCCCCCCCCCCCCO
REMARK SMILES IDX 8 1 7 2 6 3 5 4 4 5 3 6 2 7 1 8 9 9 10 10 11 11 12 12 13 13
REMARK SMILES IDX 14 14 15 15
REMARK H PARENT 15 16
REMARK Flexibility Score: inf
ROOT
ATOM      1  C   UNL     1     -11.507  -0.242 -10.295  1.00  0.00     0.000 C 
ENDROOT
BRANCH   1   2
ATOM      2  C   UNL     1     -10.495  -1.278  -9.766  1.00  0.00    -0.000 C 
BRANCH   2   3
ATOM      3  C   UNL     1     -11.063  -2.690  -9.533  1.00  0.00    -0.000 C 
BRANCH   3   4
ATOM      4  C   UNL     1      -9.970  -3.733  -9.251  1.00  0.00    -0.000 C 
BRANCH   4   5
ATOM      5  C   UNL     1      -9.279  -3.513  -7.896  1.00  0.00    -0.000 C 
BRANCH   5   6
ATOM      6  C   UNL     1     -10.068  -4.111  -6.722  1.00  0.00    -0.000 C 
BRANCH   6   7
ATOM      7  C   UNL     1     -10.734  -5.432  -7.126  1.00  0.00    -0.003 C 
ATOM      8  C   UNL     1      -9.942  -6.630  -6.612  1.00  0.00     0.004 C 
ENDBRANCH   6   7
ENDBRANCH   5   6
ENDBRANCH   4   5
ENDBRANCH   3   4
ENDBRANCH   2   3
ENDBRANCH   1   2
BRANCH   1   9
ATOM      9  C   UNL     1     -12.845  -0.824 -10.784  1.00  0.00     0.000 C 
BRANCH   9  10
ATOM     10  C   UNL     1     -14.020   0.149 -10.607  1.00  0.00     0.000 C 
BRANCH  10  11
ATOM     11  C   UNL     1     -13.892   0.927  -9.289  1.00  0.00     0.000 C 
BRANCH  11  12
ATOM     12  C   UNL     1     -13.854   2.451  -9.495  1.00  0.00     0.002 C 
BRANCH  12  13
ATOM     13  C   UNL     1     -12.470   3.103  -9.303  1.00  0.00     0.028 C 
BRANCH  13  14
ATOM     14  C   UNL     1     -12.457   4.225  -8.258  1.00  0.00     0.156 C 
BRANCH  14  15
ATOM     15  O   UNL     1     -13.747   4.743  -8.085  1.00  0.00    -0.396 OA
ATOM     16  H   UNL     1     -13.731   5.658  -8.468  1.00  0.00     0.210 HD
ENDBRANCH  14  15
ENDBRANCH  13  14
ENDBRANCH  12  13
ENDBRANCH  11  12
ENDBRANCH  10  11
ENDBRANCH   9  10
ENDBRANCH   1   9
TORSDOF 13
ENDMDL
MODEL 2
REMARK VINA RESULT:    -5.571      1.032      1.396
REMARK INTER + INTRA:         -10.393
REMARK INTER:                  -9.798
REMARK INTRA:                  -0.595
REMARK UNBOUND:                -0.750
REMARK SMILES CCCCCCCCCCCCCCO
REMARK SMILES IDX 8 1 7 2 6 3 5 4 4 5 3 6 2 7 1 8 9 9 10 10 11 11 12 12 13 13
REMARK SMILES IDX 14 14 15 15
REMARK H PARENT 15 16
REMARK Flexibility Score: inf
ROOT
ATOM      1  C   UNL     1     -12.219  -2.229 -10.128  1.00  0.00     0.000 C 
ENDROOT
BRANCH   1   2
ATOM      2  C   UNL     1     -10.779  -2.150  -9.585  1.00  0.00    -0.000 C 
BRANCH   2   3
ATOM      3  C   UNL     1     -10.149  -3.500  -9.195  1.00  0.00    -0.000 C 
BRANCH   3   4
ATOM      4  C   UNL     1     -11.190  -4.620  -9.036  1.00  0.00    -0.000 C 
BRANCH   4   5
ATOM      5  C   UNL     1     -10.806  -5.632  -7.945  1.00  0.00    -0.000 C 
BRANCH   5   6
ATOM      6  C   UNL     1     -10.296  -4.958  -6.662  1.00  0.00    -0.000 C 
BRANCH   6   7
ATOM      7  C   UNL     1     -11.110  -5.411  -5.444  1.00  0.00    -0.003 C 
ATOM      8  C   UNL     1     -12.348  -6.195  -5.867  1.00  0.00     0.004 C 
ENDBRANCH   6   7
ENDBRANCH   5   6
ENDBRANCH   4   5
ENDBRANCH   3   4
ENDBRANCH   2   3
ENDBRANCH   1   2
BRANCH   1   9
ATOM      9  C   UNL     1     -12.715  -0.966 -10.854  1.00  0.00     0.000 C 
BRANCH   9  10
ATOM     10  C   UNL     1     -12.640   0.293  -9.978  1.00  0.00     0.000 C 
BRANCH  10  11
ATOM     11  C   UNL     1     -14.012   0.978  -9.886  1.00  0.00     0.000 C 
BRANCH  11  12
ATOM     12  C   UNL     1     -13.933   2.398  -9.297  1.00  0.00     0.002 C 
BRANCH  12  13
ATOM     13  C   UNL     1     -12.525   3.025  -9.287  1.00  0.00     0.028 C 
BRANCH  13  14
ATOM     14  C   UNL     1     -12.418   4.283  -8.416  1.00  0.00     0.156 C 
BRANCH  14  15
ATOM     15  O   UNL     1     -13.687   4.677  -7.973  1.00  0.00    -0.396 OA
ATOM     16  H   UNL     1     -13.716   5.664  -8.061  1.00  0.00     0.210 HD
ENDBRANCH  14  15
ENDBRANCH  13  14
ENDBRANCH  12  13
ENDBRANCH  11  12
ENDBRANCH  10  11
ENDBRANCH   9  10
ENDBRANCH   1   9
TORSDOF 13
ENDMDL
MODEL 3
REMARK VINA RESULT:    -5.300      2.878      7.438
REMARK INTER + INTRA:          -9.924
REMARK INTER:                  -9.158
REMARK INTRA:                  -0.766
REMARK UNBOUND:                -0.750
REMARK SMILES CCCCCCCCCCCCCCO
REMARK SMILES IDX 8 1 7 2 6 3 5 4 4 5 3 6 2 7 1 8 9 9 10 10 11 11 12 12 13 13
REMARK SMILES IDX 14 14 15 15
REMARK H PARENT 15 16
REMARK Flexibility Score: inf
ROOT
ATOM      1  C   UNL     1     -10.567  -0.904  -9.390  1.00  0.00     0.000 C 
ENDROOT
BRANCH   1   2
ATOM      2  C   UNL     1     -11.453  -0.244 -10.464  1.00  0.00    -0.000 C 
BRANCH   2   3
ATOM      3  C   UNL     1     -12.771  -0.979 -10.771  1.00  0.00    -0.000 C 
BRANCH   3   4
ATOM      4  C   UNL     1     -14.007  -0.080 -10.609  1.00  0.00    -0.000 C 
BRANCH   4   5
ATOM      5  C   UNL     1     -13.922   0.822  -9.367  1.00  0.00    -0.000 C 
BRANCH   5   6
ATOM      6  C   UNL     1     -13.990   2.317  -9.713  1.00  0.00    -0.000 C 
BRANCH   6   7
ATOM      7  C   UNL     1     -12.699   3.034  -9.300  1.00  0.00    -0.003 C 
ATOM      8  C   UNL     1     -12.991   4.204  -8.366  1.00  0.00     0.004 C 
ENDBRANCH   6   7
ENDBRANCH   5   6
ENDBRANCH   4   5
ENDBRANCH   3   4
ENDBRANCH   2   3
ENDBRANCH   1   2
BRANCH   1   9
ATOM      9  C   UNL     1     -10.637  -2.441  -9.337  1.00  0.00     0.000 C 
BRANCH   9  10
ATOM     10  C   UNL     1      -9.292  -3.111  -9.652  1.00  0.00     0.000 C 
BRANCH  10  11
ATOM     11  C   UNL     1      -8.708  -3.781  -8.400  1.00  0.00     0.000 C 
BRANCH  11  12
ATOM     12  C   UNL     1      -9.761  -4.023  -7.304  1.00  0.00     0.002 C 
BRANCH  12  13
ATOM     13  C   UNL     1      -9.917  -5.490  -6.859  1.00  0.00     0.028 C 
BRANCH  13  14
ATOM     14  C   UNL     1     -11.347  -5.859  -6.446  1.00  0.00     0.156 C 
BRANCH  14  15
ATOM     15  O   UNL     1     -11.569  -5.517  -5.105  1.00  0.00    -0.396 OA
ATOM     16  H   UNL     1     -10.913  -6.039  -4.575  1.00  0.00     0.210 HD
ENDBRANCH  14  15
ENDBRANCH  13  14
ENDBRANCH  12  13
ENDBRANCH  11  12
ENDBRANCH  10  11
ENDBRANCH   9  10
ENDBRANCH   1   9
TORSDOF 13
ENDMDL
MODEL 4
REMARK VINA RESULT:    -5.286      3.220      7.674
REMARK INTER + INTRA:          -9.900
REMARK INTER:                  -9.178
REMARK INTRA:                  -0.721
REMARK UNBOUND:                -0.750
REMARK SMILES CCCCCCCCCCCCCCO
REMARK SMILES IDX 8 1 7 2 6 3 5 4 4 5 3 6 2 7 1 8 9 9 10 10 11 11 12 12 13 13
REMARK SMILES IDX 14 14 15 15
REMARK H PARENT 15 16
REMARK Flexibility Score: inf
ROOT
ATOM      1  C   UNL     1     -10.587  -1.076  -9.605  1.00  0.00     0.000 C 
ENDROOT
BRANCH   1   2
ATOM      2  C   UNL     1     -11.545  -0.214 -10.452  1.00  0.00    -0.000 C 
BRANCH   2   3
ATOM      3  C   UNL     1     -12.888  -0.879 -10.804  1.00  0.00    -0.000 C 
BRANCH   3   4
ATOM      4  C   UNL     1     -14.097   0.022 -10.502  1.00  0.00    -0.000 C 
BRANCH   4   5
ATOM      5  C   UNL     1     -13.830   1.000  -9.346  1.00  0.00    -0.000 C 
BRANCH   5   6
ATOM      6  C   UNL     1     -13.824   2.468  -9.799  1.00  0.00    -0.000 C 
BRANCH   6   7
ATOM      7  C   UNL     1     -12.564   3.189  -9.304  1.00  0.00    -0.003 C 
ATOM      8  C   UNL     1     -12.911   4.269  -8.284  1.00  0.00     0.004 C 
ENDBRANCH   6   7
ENDBRANCH   5   6
ENDBRANCH   4   5
ENDBRANCH   3   4
ENDBRANCH   2   3
ENDBRANCH   1   2
BRANCH   1   9
ATOM      9  C   UNL     1     -10.857  -2.591  -9.651  1.00  0.00     0.000 C 
BRANCH   9  10
ATOM     10  C   UNL     1      -9.742  -3.415  -8.991  1.00  0.00     0.000 C 
BRANCH  10  11
ATOM     11  C   UNL     1      -9.873  -3.386  -7.461  1.00  0.00     0.000 C 
BRANCH  11  12
ATOM     12  C   UNL     1     -10.067  -4.786  -6.850  1.00  0.00     0.002 C 
BRANCH  12  13
ATOM     13  C   UNL     1     -11.171  -5.638  -7.506  1.00  0.00     0.028 C 
BRANCH  13  14
ATOM     14  C   UNL     1     -10.676  -6.992  -8.028  1.00  0.00     0.156 C 
BRANCH  14  15
ATOM     15  O   UNL     1      -9.682  -6.805  -8.997  1.00  0.00    -0.396 OA
ATOM     16  H   UNL     1      -9.026  -7.537  -8.865  1.00  0.00     0.210 HD
ENDBRANCH  14  15
ENDBRANCH  13  14
ENDBRANCH  12  13
ENDBRANCH  11  12
ENDBRANCH  10  11
ENDBRANCH   9  10
ENDBRANCH   1   9
TORSDOF 13
ENDMDL
MODEL 5
REMARK VINA RESULT:    -5.219      1.253      2.191
REMARK INTER + INTRA:          -9.783
REMARK INTER:                  -9.011
REMARK INTRA:                  -0.772
REMARK UNBOUND:                -0.750
REMARK SMILES CCCCCCCCCCCCCCO
REMARK SMILES IDX 8 1 7 2 6 3 5 4 4 5 3 6 2 7 1 8 9 9 10 10 11 11 12 12 13 13
REMARK SMILES IDX 14 14 15 15
REMARK H PARENT 15 16
REMARK Flexibility Score: inf
ROOT
ATOM      1  C   UNL     1     -13.836  -1.656 -10.568  1.00  0.00     0.000 C 
ENDROOT
BRANCH   1   2
ATOM      2  C   UNL     1     -13.725  -3.111 -10.069  1.00  0.00    -0.000 C 
BRANCH   2   3
ATOM      3  C   UNL     1     -12.324  -3.536  -9.592  1.00  0.00    -0.000 C 
BRANCH   3   4
ATOM      4  C   UNL     1     -12.277  -4.994  -9.105  1.00  0.00    -0.000 C 
BRANCH   4   5
ATOM      5  C   UNL     1     -10.889  -5.396  -8.582  1.00  0.00    -0.000 C 
BRANCH   5   6
ATOM      6  C   UNL     1      -9.792  -4.395  -8.977  1.00  0.00    -0.000 C 
BRANCH   6   7
ATOM      7  C   UNL     1      -9.208  -3.705  -7.738  1.00  0.00    -0.003 C 
ATOM      8  C   UNL     1      -9.657  -2.249  -7.654  1.00  0.00     0.004 C 
ENDBRANCH   6   7
ENDBRANCH   5   6
ENDBRANCH   4   5
ENDBRANCH   3   4
ENDBRANCH   2   3
ENDBRANCH   1   2
BRANCH   1   9
ATOM      9  C   UNL     1     -12.496  -0.920 -10.740  1.00  0.00     0.000 C 
BRANCH   9  10
ATOM     10  C   UNL     1     -12.444   0.411  -9.975  1.00  0.00     0.000 C 
BRANCH  10  11
ATOM     11  C   UNL     1     -13.860   0.939  -9.700  1.00  0.00     0.000 C 
BRANCH  11  12
ATOM     12  C   UNL     1     -13.883   2.440  -9.359  1.00  0.00     0.002 C 
BRANCH  12  13
ATOM     13  C   UNL     1     -12.498   3.095  -9.193  1.00  0.00     0.028 C 
BRANCH  13  14
ATOM     14  C   UNL     1     -12.548   4.489  -8.558  1.00  0.00     0.156 C 
BRANCH  14  15
ATOM     15  O   UNL     1     -13.747   4.659  -7.854  1.00  0.00    -0.396 OA
ATOM     16  H   UNL     1     -14.206   5.432  -8.273  1.00  0.00     0.210 HD
ENDBRANCH  14  15
ENDBRANCH  13  14
ENDBRANCH  12  13
ENDBRANCH  11  12
ENDBRANCH  10  11
ENDBRANCH   9  10
ENDBRANCH   1   9
TORSDOF 13
ENDMDL
MODEL 6
REMARK VINA RESULT:    -4.989     16.275     18.231
REMARK INTER + INTRA:          -9.385
REMARK INTER:                  -8.378
REMARK INTRA:                  -1.007
REMARK UNBOUND:                -0.750
REMARK SMILES CCCCCCCCCCCCCCO
REMARK SMILES IDX 8 1 7 2 6 3 5 4 4 5 3 6 2 7 1 8 9 9 10 10 11 11 12 12 13 13
REMARK SMILES IDX 14 14 15 15
REMARK H PARENT 15 16
REMARK Flexibility Score: inf
ROOT
ATOM      1  C   UNL     1      -9.102   6.067   6.585  1.00  0.00     0.000 C 
ENDROOT
BRANCH   1   2
ATOM      2  C   UNL     1      -9.500   6.588   7.980  1.00  0.00    -0.000 C 
BRANCH   2   3
ATOM      3  C   UNL     1     -10.640   5.815   8.669  1.00  0.00    -0.000 C 
BRANCH   3   4
ATOM      4  C   UNL     1     -10.644   4.319   8.316  1.00  0.00    -0.000 C 
BRANCH   4   5
ATOM      5  C   UNL     1     -11.850   3.920   7.450  1.00  0.00    -0.000 C 
BRANCH   5   6
ATOM      6  C   UNL     1     -12.625   5.135   6.915  1.00  0.00    -0.000 C 
BRANCH   6   7
ATOM      7  C   UNL     1     -12.576   5.185   5.384  1.00  0.00    -0.003 C 
ATOM      8  C   UNL     1     -13.182   6.481   4.854  1.00  0.00     0.004 C 
ENDBRANCH   6   7
ENDBRANCH   5   6
ENDBRANCH   4   5
ENDBRANCH   3   4
ENDBRANCH   2   3
ENDBRANCH   1   2
BRANCH   1   9
ATOM      9  C   UNL     1      -9.171   7.108   5.454  1.00  0.00     0.000 C 
BRANCH   9  10
ATOM     10  C   UNL     1      -8.805   8.524   5.922  1.00  0.00     0.000 C 
BRANCH  10  11
ATOM     11  C   UNL     1      -8.080   9.298   4.811  1.00  0.00     0.000 C 
BRANCH  11  12
ATOM     12  C   UNL     1      -7.208  10.445   5.352  1.00  0.00     0.002 C 
BRANCH  12  13
ATOM     13  C   UNL     1      -6.165  10.031   6.409  1.00  0.00     0.028 C 
BRANCH  13  14
ATOM     14  C   UNL     1      -4.860  10.830   6.332  1.00  0.00     0.156 C 
BRANCH  14  15
ATOM     15  O   UNL     1      -3.780  10.039   6.745  1.00  0.00    -0.396 OA
ATOM     16  H   UNL     1      -3.475   9.546   5.940  1.00  0.00     0.210 HD
ENDBRANCH  14  15
ENDBRANCH  13  14
ENDBRANCH  12  13
ENDBRANCH  11  12
ENDBRANCH  10  11
ENDBRANCH   9  10
ENDBRANCH   1   9
TORSDOF 13
ENDMDL
MODEL 7
REMARK VINA RESULT:    -4.896     15.337     17.947
REMARK INTER + INTRA:          -9.225
REMARK INTER:                  -8.499
REMARK INTRA:                  -0.726
REMARK UNBOUND:                -0.750
REMARK SMILES CCCCCCCCCCCCCCO
REMARK SMILES IDX 8 1 7 2 6 3 5 4 4 5 3 6 2 7 1 8 9 9 10 10 11 11 12 12 13 13
REMARK SMILES IDX 14 14 15 15
REMARK H PARENT 15 16
REMARK Flexibility Score: inf
ROOT
ATOM      1  C   UNL     1      -9.228   6.075   6.360  1.00  0.00     0.000 C 
ENDROOT
BRANCH   1   2
ATOM      2  C   UNL     1      -9.910   5.456   7.596  1.00  0.00    -0.000 C 
BRANCH   2   3
ATOM      3  C   UNL     1     -11.403   5.796   7.761  1.00  0.00    -0.000 C 
BRANCH   3   4
ATOM      4  C   UNL     1     -12.302   5.018   6.787  1.00  0.00    -0.000 C 
BRANCH   4   5
ATOM      5  C   UNL     1     -12.937   5.923   5.719  1.00  0.00    -0.000 C 
BRANCH   5   6
ATOM      6  C   UNL     1     -12.753   5.380   4.294  1.00  0.00    -0.000 C 
BRANCH   6   7
ATOM      7  C   UNL     1     -13.939   5.765   3.403  1.00  0.00    -0.003 C 
ATOM      8  C   UNL     1     -14.925   6.657   4.151  1.00  0.00     0.004 C 
ENDBRANCH   6   7
ENDBRANCH   5   6
ENDBRANCH   4   5
ENDBRANCH   3   4
ENDBRANCH   2   3
ENDBRANCH   1   2
BRANCH   1   9
ATOM      9  C   UNL     1      -9.591   7.544   6.079  1.00  0.00     0.000 C 
BRANCH   9  10
ATOM     10  C   UNL     1      -8.405   8.500   6.275  1.00  0.00     0.000 C 
BRANCH  10  11
ATOM     11  C   UNL     1      -8.121   9.291   4.989  1.00  0.00     0.000 C 
BRANCH  11  12
ATOM     12  C   UNL     1      -7.098  10.422   5.195  1.00  0.00     0.002 C 
BRANCH  12  13
ATOM     13  C   UNL     1      -6.143  10.230   6.390  1.00  0.00     0.028 C 
BRANCH  13  14
ATOM     14  C   UNL     1      -4.728  10.762   6.139  1.00  0.00     0.156 C 
BRANCH  14  15
ATOM     15  O   UNL     1      -3.794  10.028   6.880  1.00  0.00    -0.396 OA
ATOM     16  H   UNL     1      -3.405  10.660   7.538  1.00  0.00     0.210 HD
ENDBRANCH  14  15
ENDBRANCH  13  14
ENDBRANCH  12  13
ENDBRANCH  11  12
ENDBRANCH  10  11
ENDBRANCH   9  10
ENDBRANCH   1   9
TORSDOF 13
ENDMDL
MODEL 8
REMARK VINA RESULT:    -4.893      3.163      7.248
REMARK INTER + INTRA:          -9.220
REMARK INTER:                  -8.215
REMARK INTRA:                  -1.005
REMARK UNBOUND:                -0.750
REMARK SMILES CCCCCCCCCCCCCCO
REMARK SMILES IDX 8 1 7 2 6 3 5 4 4 5 3 6 2 7 1 8 9 9 10 10 11 11 12 12 13 13
REMARK SMILES IDX 14 14 15 15
REMARK H PARENT 15 16
REMARK Flexibility Score: inf
ROOT
ATOM      1  C   UNL     1      -9.915  -3.657  -7.246  1.00  0.00     0.000 C 
ENDROOT
BRANCH   1   2
ATOM      2  C   UNL     1      -9.491  -2.577  -8.261  1.00  0.00    -0.000 C 
BRANCH   2   3
ATOM      3  C   UNL     1     -10.570  -2.178  -9.285  1.00  0.00    -0.000 C 
BRANCH   3   4
ATOM      4  C   UNL     1     -10.598  -0.666  -9.563  1.00  0.00    -0.000 C 
BRANCH   4   5
ATOM      5  C   UNL     1     -11.765  -0.256 -10.476  1.00  0.00    -0.000 C 
BRANCH   5   6
ATOM      6  C   UNL     1     -12.915  -1.274 -10.463  1.00  0.00    -0.000 C 
BRANCH   6   7
ATOM      7  C   UNL     1     -14.254  -0.584 -10.178  1.00  0.00    -0.003 C 
ATOM      8  C   UNL     1     -14.046   0.844  -9.686  1.00  0.00     0.004 C 
ENDBRANCH   6   7
ENDBRANCH   5   6
ENDBRANCH   4   5
ENDBRANCH   3   4
ENDBRANCH   2   3
ENDBRANCH   1   2
BRANCH   1   9
ATOM      9  C   UNL     1      -9.146  -4.986  -7.345  1.00  0.00     0.000 C 
BRANCH   9  10
ATOM     10  C   UNL     1      -9.960  -6.186  -6.837  1.00  0.00     0.000 C 
BRANCH  10  11
ATOM     11  C   UNL     1     -11.291  -5.724  -6.225  1.00  0.00     0.000 C 
BRANCH  11  12
ATOM     12  C   UNL     1     -12.517  -6.331  -6.930  1.00  0.00     0.002 C 
BRANCH  12  13
ATOM     13  C   UNL     1     -12.878  -5.687  -8.283  1.00  0.00     0.028 C 
BRANCH  13  14
ATOM     14  C   UNL     1     -12.232  -6.380  -9.488  1.00  0.00     0.156 C 
BRANCH  14  15
ATOM     15  O   UNL     1     -11.265  -5.548 -10.066  1.00  0.00    -0.396 OA
ATOM     16  H   UNL     1     -11.724  -4.693 -10.274  1.00  0.00     0.210 HD
ENDBRANCH  14  15
ENDBRANCH  13  14
ENDBRANCH  12  13
ENDBRANCH  11  12
ENDBRANCH  10  11
ENDBRANCH   9  10
ENDBRANCH   1   9
TORSDOF 13
ENDMDL
MODEL 9
REMARK VINA RESULT:    -4.798     15.218     18.011
REMARK INTER + INTRA:          -9.055
REMARK INTER:                  -8.143
REMARK INTRA:                  -0.912
REMARK UNBOUND:                -0.750
REMARK SMILES CCCCCCCCCCCCCCO
REMARK SMILES IDX 8 1 7 2 6 3 5 4 4 5 3 6 2 7 1 8 9 9 10 10 11 11 12 12 13 13
REMARK SMILES IDX 14 14 15 15
REMARK H PARENT 15 16
REMARK Flexibility Score: inf
ROOT
ATOM      1  C   UNL     1      -9.826   6.291   7.822  1.00  0.00     0.000 C 
ENDROOT
BRANCH   1   2
ATOM      2  C   UNL     1      -9.115   6.040   6.477  1.00  0.00    -0.000 C 
BRANCH   2   3
ATOM      3  C   UNL     1      -9.170   7.210   5.477  1.00  0.00    -0.000 C 
BRANCH   3   4
ATOM      4  C   UNL     1      -8.388   8.443   5.958  1.00  0.00    -0.000 C 
BRANCH   4   5
ATOM      5  C   UNL     1      -8.102   9.440   4.824  1.00  0.00    -0.000 C 
BRANCH   5   6
ATOM      6  C   UNL     1      -7.032  10.476   5.200  1.00  0.00    -0.000 C 
BRANCH   6   7
ATOM      7  C   UNL     1      -6.294  10.063   6.479  1.00  0.00    -0.003 C 
ATOM      8  C   UNL     1      -6.130  11.245   7.429  1.00  0.00     0.004 C 
ENDBRANCH   6   7
ENDBRANCH   5   6
ENDBRANCH   4   5
ENDBRANCH   3   4
ENDBRANCH   2   3
ENDBRANCH   1   2
BRANCH   1   9
ATOM      9  C   UNL     1     -10.350   5.030   8.530  1.00  0.00     0.000 C 
BRANCH   9  10
ATOM     10  C   UNL     1     -11.183   4.129   7.606  1.00  0.00     0.000 C 
BRANCH  10  11
ATOM     11  C   UNL     1     -12.481   4.832   7.181  1.00  0.00     0.000 C 
BRANCH  11  12
ATOM     12  C   UNL     1     -12.616   4.966   5.654  1.00  0.00     0.002 C 
BRANCH  12  13
ATOM     13  C   UNL     1     -13.094   6.345   5.158  1.00  0.00     0.028 C 
BRANCH  13  14
ATOM     14  C   UNL     1     -13.693   6.318   3.747  1.00  0.00     0.156 C 
BRANCH  14  15
ATOM     15  O   UNL     1     -13.645   5.020   3.223  1.00  0.00    -0.396 OA
ATOM     16  H   UNL     1     -13.088   4.490   3.850  1.00  0.00     0.210 HD
ENDBRANCH  14  15
ENDBRANCH  13  14
ENDBRANCH  12  13
ENDBRANCH  11  12
ENDBRANCH  10  11
ENDBRANCH   9  10
ENDBRANCH   1   9
TORSDOF 13
ENDMDL
