MODEL 1
REMARK VINA RESULT:    -4.475      0.000      0.000
REMARK INTER + INTRA:          -6.780
REMARK INTER:                  -6.569
REMARK INTRA:                  -0.211
REMARK UNBOUND:                -0.211
REMARK SMILES C=C1C=C[C@H](C(C)C)CCC(C)=CCC1
REMARK SMILES IDX 3 1 4 2 5 3 9 4 10 5 11 6 12 7 13 8 6 10 7 11 8 12 2 13 1 14
REMARK SMILES IDX 15 15 14 16
REMARK H PARENT
REMARK Flexibility Score: 70.00
ROOT
ATOM      1  C   UNL     1      -1.381   0.319  11.838  1.00  0.00    -0.001 C 
ATOM      2  C   UNL     1      -1.160   1.505  11.239  1.00  0.00    -0.023 C 
ENDROOT
BRANCH   2   3
ATOM      3  C   UNL     1      -1.220   2.862  11.917  1.00  0.00     0.014 C 
BRANCH   3   4
ATOM      4  C   UNL     1       0.205   3.378  12.274  1.00  0.00     0.012 C 
BRANCH   4   5
ATOM      5  C   UNL     1       0.500   3.504  13.786  1.00  0.00     0.031 C 
BRANCH   5   6
ATOM      6  C   UNL     1      -0.657   3.989  14.654  1.00  0.00    -0.077 C 
ATOM      7  C   UNL     1      -0.900   5.474  14.773  1.00  0.00     0.039 C 
ATOM      8  C   UNL     1      -1.488   3.163  15.335  1.00  0.00    -0.028 CG0
ATOM      9  G   UNL     1      -1.476   1.656  15.275  1.00  0.00     0.000 G0
ENDBRANCH   5   6
ENDBRANCH   4   5
ENDBRANCH   3   4
BRANCH   3  10
ATOM     10  C   UNL     1      -2.049   3.922  11.122  1.00  0.00    -0.010 C 
ATOM     11  C   UNL     1      -3.162   4.611  11.937  1.00  0.00     0.008 C 
ATOM     12  C   UNL     1      -1.134   4.980  10.484  1.00  0.00     0.008 C 
ENDBRANCH   3  10
ENDBRANCH   2   3
BRANCH   1  13
ATOM     13  C   UNL     1      -1.682   0.089  13.277  1.00  0.00    -0.055 C 
ATOM     14  C   UNL     1      -1.455  -1.128  13.781  1.00  0.00     0.012 C 
BRANCH  13  15
ATOM     15  C   UNL     1      -2.377   1.121  14.139  1.00  0.00     0.039 C 
BRANCH  15  16
ATOM     16  C   UNL     1      -1.480   1.659  15.283  1.00  0.00     0.032 CG0
ATOM     17  G   UNL     1      -1.491   3.166  15.336  1.00  0.00     0.000 G0
ENDBRANCH  15  16
ENDBRANCH  13  15
ENDBRANCH   1  13
TORSDOF 1
ENDMDL
MODEL 2
REMARK VINA RESULT:    -4.159      1.704      3.627
REMARK INTER + INTRA:          -6.316
REMARK INTER:                  -6.335
REMARK INTRA:                   0.020
REMARK UNBOUND:                -0.211
REMARK SMILES C=C1C=C[C@H](C(C)C)CCC(C)=CCC1
REMARK SMILES IDX 3 1 4 2 5 3 9 4 10 5 11 6 12 7 13 8 6 10 7 11 8 12 2 13 1 14
REMARK SMILES IDX 15 15 14 16
REMARK H PARENT
REMARK Flexibility Score: 70.00
ROOT
ATOM      1  C   UNL     1      -2.348   1.482  14.822  1.00  0.00    -0.001 C 
ATOM      2  C   UNL     1      -2.421   2.824  14.905  1.00  0.00    -0.023 C 
ENDROOT
BRANCH   2   3
ATOM      3  C   UNL     1      -1.734   3.805  13.971  1.00  0.00     0.014 C 
BRANCH   3   4
ATOM      4  C   UNL     1      -2.770   4.582  13.108  1.00  0.00     0.012 C 
BRANCH   4   5
ATOM      5  C   UNL     1      -2.747   4.254  11.598  1.00  0.00     0.031 C 
BRANCH   5   6
ATOM      6  C   UNL     1      -1.366   4.088  10.971  1.00  0.00    -0.077 C 
ATOM      7  C   UNL     1      -0.665   5.311  10.432  1.00  0.00     0.039 C 
ATOM      8  C   UNL     1      -0.725   2.900  10.864  1.00  0.00    -0.028 CG0
ATOM      9  G   UNL     1      -1.206   1.584  11.421  1.00  0.00     0.000 G0
ENDBRANCH   5   6
ENDBRANCH   4   5
ENDBRANCH   3   4
BRANCH   3  10
ATOM     10  C   UNL     1      -0.733   4.761  14.697  1.00  0.00    -0.010 C 
ATOM     11  C   UNL     1       0.755   4.465  14.422  1.00  0.00     0.008 C 
ATOM     12  C   UNL     1      -1.042   6.235  14.380  1.00  0.00     0.008 C 
ENDBRANCH   3  10
ENDBRANCH   2   3
BRANCH   1  13
ATOM     13  C   UNL     1      -1.627   0.689  13.789  1.00  0.00    -0.055 C 
ATOM     14  C   UNL     1      -1.773  -0.639  13.798  1.00  0.00     0.012 C 
BRANCH  13  15
ATOM     15  C   UNL     1      -0.621   1.308  12.842  1.00  0.00     0.039 C 
BRANCH  15  16
ATOM     16  C   UNL     1      -1.198   1.568  11.427  1.00  0.00     0.032 CG0
ATOM     17  G   UNL     1      -0.733   2.890  10.871  1.00  0.00     0.000 G0
ENDBRANCH  15  16
ENDBRANCH  13  15
ENDBRANCH   1  13
TORSDOF 1
ENDMDL
MODEL 3
REMARK VINA RESULT:    -4.002      2.175      4.782
REMARK INTER + INTRA:          -6.085
REMARK INTER:                  -5.540
REMARK INTRA:                  -0.545
REMARK UNBOUND:                -0.211
REMARK SMILES C=C1C=C[C@H](C(C)C)CCC(C)=CCC1
REMARK SMILES IDX 3 1 4 2 5 3 9 4 10 5 11 6 12 7 13 8 6 10 7 11 8 12 2 13 1 14
REMARK SMILES IDX 15 15 14 16
REMARK H PARENT
REMARK Flexibility Score: 70.00
ROOT
ATOM      1  C   UNL     1       0.582   4.717  13.666  1.00  0.00    -0.001 C 
ATOM      2  C   UNL     1       0.437   3.614  12.906  1.00  0.00    -0.023 C 
ENDROOT
BRANCH   2   3
ATOM      3  C   UNL     1      -0.851   2.832  12.722  1.00  0.00     0.014 C 
BRANCH   3   4
ATOM      4  C   UNL     1      -1.365   2.929  11.256  1.00  0.00     0.012 C 
BRANCH   4   5
ATOM      5  C   UNL     1      -1.142   4.295  10.569  1.00  0.00     0.031 C 
BRANCH   5   6
ATOM      6  C   UNL     1      -2.264   5.317  10.733  1.00  0.00    -0.077 C 
ATOM      7  C   UNL     1      -3.572   5.076  10.019  1.00  0.00     0.039 C 
ATOM      8  C   UNL     1      -2.158   6.439  11.484  1.00  0.00    -0.028 CG0
ATOM      9  G   UNL     1      -0.980   6.814  12.348  1.00  0.00     0.000 G0
ENDBRANCH   5   6
ENDBRANCH   4   5
ENDBRANCH   3   4
BRANCH   3  10
ATOM     10  C   UNL     1      -0.760   1.353  13.219  1.00  0.00    -0.010 C 
ATOM     11  C   UNL     1      -1.397   1.097  14.600  1.00  0.00     0.008 C 
ATOM     12  C   UNL     1      -1.348   0.380  12.182  1.00  0.00     0.008 C 
ENDBRANCH   3  10
ENDBRANCH   2   3
BRANCH   1  13
ATOM     13  C   UNL     1      -0.482   5.415  14.436  1.00  0.00    -0.055 C 
ATOM     14  C   UNL     1      -0.817   4.927  15.634  1.00  0.00     0.012 C 
BRANCH  13  15
ATOM     15  C   UNL     1      -1.300   6.548  13.853  1.00  0.00     0.039 C 
BRANCH  15  16
ATOM     16  C   UNL     1      -0.982   6.821  12.361  1.00  0.00     0.032 CG0
ATOM     17  G   UNL     1      -2.140   6.451  11.468  1.00  0.00     0.000 G0
ENDBRANCH  15  16
ENDBRANCH  13  15
ENDBRANCH   1  13
TORSDOF 1
ENDMDL
MODEL 4
REMARK VINA RESULT:    -3.915      1.443      3.893
REMARK INTER + INTRA:          -5.956
REMARK INTER:                  -5.508
REMARK INTRA:                  -0.448
REMARK UNBOUND:                -0.211
REMARK SMILES C=C1C=C[C@H](C(C)C)CCC(C)=CCC1
REMARK SMILES IDX 3 1 4 2 5 3 9 4 10 5 11 6 12 7 13 8 6 10 7 11 8 12 2 13 1 14
REMARK SMILES IDX 15 15 14 16
REMARK H PARENT
REMARK Flexibility Score: 70.00
ROOT
ATOM      1  C   UNL     1      -2.135   6.021  13.608  1.00  0.00    -0.001 C 
ATOM      2  C   UNL     1      -2.345   6.031  12.278  1.00  0.00    -0.023 C 
ENDROOT
BRANCH   2   3
ATOM      3  C   UNL     1      -1.496   5.314  11.243  1.00  0.00     0.014 C 
BRANCH   3   4
ATOM      4  C   UNL     1      -1.829   3.794  11.196  1.00  0.00     0.012 C 
BRANCH   4   5
ATOM      5  C   UNL     1      -0.614   2.848  11.328  1.00  0.00     0.031 C 
BRANCH   5   6
ATOM      6  C   UNL     1      -0.792   1.658  12.265  1.00  0.00    -0.077 C 
ATOM      7  C   UNL     1      -1.210   0.331  11.678  1.00  0.00     0.039 C 
ATOM      8  C   UNL     1      -0.598   1.717  13.604  1.00  0.00    -0.028 CG0
ATOM      9  G   UNL     1      -0.090   2.912  14.370  1.00  0.00     0.000 G0
ENDBRANCH   5   6
ENDBRANCH   4   5
ENDBRANCH   3   4
BRANCH   3  10
ATOM     10  C   UNL     1      -1.545   5.974   9.828  1.00  0.00    -0.010 C 
ATOM     11  C   UNL     1      -2.749   6.908   9.594  1.00  0.00     0.008 C 
ATOM     12  C   UNL     1      -0.235   6.718   9.515  1.00  0.00     0.008 C 
ENDBRANCH   3  10
ENDBRANCH   2   3
BRANCH   1  13
ATOM     13  C   UNL     1      -1.070   5.281  14.337  1.00  0.00    -0.055 C 
ATOM     14  C   UNL     1       0.135   5.850  14.443  1.00  0.00     0.012 C 
BRANCH  13  15
ATOM     15  C   UNL     1      -1.250   3.856  14.817  1.00  0.00     0.039 C 
BRANCH  15  16
ATOM     16  C   UNL     1      -0.094   2.919  14.383  1.00  0.00     0.032 CG0
ATOM     17  G   UNL     1      -0.605   1.724  13.616  1.00  0.00     0.000 G0
ENDBRANCH  15  16
ENDBRANCH  13  15
ENDBRANCH   1  13
TORSDOF 1
ENDMDL
MODEL 5
REMARK VINA RESULT:    -3.906      1.392      3.180
REMARK INTER + INTRA:          -5.944
REMARK INTER:                  -5.480
REMARK INTRA:                  -0.465
REMARK UNBOUND:                -0.211
REMARK SMILES C=C1C=C[C@H](C(C)C)CCC(C)=CCC1
REMARK SMILES IDX 3 1 4 2 5 3 9 4 10 5 11 6 12 7 13 8 6 10 7 11 8 12 2 13 1 14
REMARK SMILES IDX 15 15 14 16
REMARK H PARENT
REMARK Flexibility Score: 70.00
ROOT
ATOM      1  C   UNL     1       0.232   3.050  11.709  1.00  0.00    -0.001 C 
ATOM      2  C   UNL     1       0.269   3.929  12.728  1.00  0.00    -0.023 C 
ENDROOT
BRANCH   2   3
ATOM      3  C   UNL     1      -0.917   4.346  13.579  1.00  0.00     0.014 C 
BRANCH   3   4
ATOM      4  C   UNL     1      -0.719   3.932  15.066  1.00  0.00     0.012 C 
BRANCH   4   5
ATOM      5  C   UNL     1      -0.884   2.423  15.357  1.00  0.00     0.031 C 
BRANCH   5   6
ATOM      6  C   UNL     1      -2.144   1.769  14.800  1.00  0.00    -0.077 C 
ATOM      7  C   UNL     1      -3.479   2.145  15.396  1.00  0.00     0.039 C 
ATOM      8  C   UNL     1      -2.141   0.860  13.795  1.00  0.00    -0.028 CG0
ATOM      9  G   UNL     1      -0.933   0.422  13.005  1.00  0.00     0.000 G0
ENDBRANCH   5   6
ENDBRANCH   4   5
ENDBRANCH   3   4
BRANCH   3  10
ATOM     10  C   UNL     1      -1.292   5.856  13.431  1.00  0.00    -0.010 C 
ATOM     11  C   UNL     1      -0.288   6.692  12.612  1.00  0.00     0.008 C 
ATOM     12  C   UNL     1      -2.708   6.025  12.855  1.00  0.00     0.008 C 
ENDBRANCH   3  10
ENDBRANCH   2   3
BRANCH   1  13
ATOM     13  C   UNL     1      -0.951   2.281  11.236  1.00  0.00    -0.055 C 
ATOM     14  C   UNL     1      -1.968   2.959  10.694  1.00  0.00     0.012 C 
BRANCH  13  15
ATOM     15  C   UNL     1      -1.113   0.798  11.490  1.00  0.00     0.039 C 
BRANCH  15  16
ATOM     16  C   UNL     1      -0.950   0.416  12.984  1.00  0.00     0.032 CG0
ATOM     17  G   UNL     1      -2.136   0.860  13.804  1.00  0.00     0.000 G0
ENDBRANCH  15  16
ENDBRANCH  13  15
ENDBRANCH   1  13
TORSDOF 1
ENDMDL
MODEL 6
REMARK VINA RESULT:    -3.886      2.164      4.352
REMARK INTER + INTRA:          -5.915
REMARK INTER:                  -5.335
REMARK INTRA:                  -0.580
REMARK UNBOUND:                -0.211
REMARK SMILES C=C1C=C[C@H](C(C)C)CCC(C)=CCC1
REMARK SMILES IDX 3 1 4 2 5 3 9 4 10 5 11 6 12 7 13 8 6 10 7 11 8 12 2 13 1 14
REMARK SMILES IDX 15 15 14 16
REMARK H PARENT
REMARK Flexibility Score: 70.00
ROOT
ATOM      1  C   UNL     1      -3.124   4.372  12.760  1.00  0.00    -0.001 C 
ATOM      2  C   UNL     1      -2.540   3.645  13.730  1.00  0.00    -0.023 C 
ENDROOT
BRANCH   2   3
ATOM      3  C   UNL     1      -1.123   3.100  13.695  1.00  0.00     0.014 C 
BRANCH   3   4
ATOM      4  C   UNL     1      -0.265   3.683  14.855  1.00  0.00     0.012 C 
BRANCH   4   5
ATOM      5  C   UNL     1      -0.334   5.218  15.019  1.00  0.00     0.031 C 
BRANCH   5   6
ATOM      6  C   UNL     1       0.483   6.034  14.021  1.00  0.00    -0.077 C 
ATOM      7  C   UNL     1       1.988   6.015  14.131  1.00  0.00     0.039 C 
ATOM      8  C   UNL     1      -0.063   6.784  13.034  1.00  0.00    -0.028 CG0
ATOM      9  G   UNL     1      -1.531   6.862  12.695  1.00  0.00     0.000 G0
ENDBRANCH   5   6
ENDBRANCH   4   5
ENDBRANCH   3   4
BRANCH   3  10
ATOM     10  C   UNL     1      -1.054   1.540  13.635  1.00  0.00    -0.010 C 
ATOM     11  C   UNL     1      -2.174   0.816  14.410  1.00  0.00     0.008 C 
ATOM     12  C   UNL     1      -1.014   1.040  12.181  1.00  0.00     0.008 C 
ENDBRANCH   3  10
ENDBRANCH   2   3
BRANCH   1  13
ATOM     13  C   UNL     1      -2.501   4.826  11.487  1.00  0.00    -0.055 C 
ATOM     14  C   UNL     1      -2.383   3.942  10.492  1.00  0.00     0.012 C 
BRANCH  13  15
ATOM     15  C   UNL     1      -1.858   6.189  11.335  1.00  0.00     0.039 C 
BRANCH  15  16
ATOM     16  C   UNL     1      -1.542   6.866  12.693  1.00  0.00     0.032 CG0
ATOM     17  G   UNL     1      -0.076   6.769  13.035  1.00  0.00     0.000 G0
ENDBRANCH  15  16
ENDBRANCH  13  15
ENDBRANCH   1  13
TORSDOF 1
ENDMDL
MODEL 7
REMARK VINA RESULT:    -3.592      2.023      3.033
REMARK INTER + INTRA:          -5.483
REMARK INTER:                  -4.973
REMARK INTRA:                  -0.510
REMARK UNBOUND:                -0.211
REMARK SMILES C=C1C=C[C@H](C(C)C)CCC(C)=CCC1
REMARK SMILES IDX 3 1 4 2 5 3 9 4 10 5 11 6 12 7 13 8 6 10 7 11 8 12 2 13 1 14
REMARK SMILES IDX 15 15 14 16
REMARK H PARENT
REMARK Flexibility Score: 70.00
ROOT
ATOM      1  C   UNL     1      -1.603   2.759  12.807  1.00  0.00    -0.001 C 
ATOM      2  C   UNL     1      -1.950   3.746  11.959  1.00  0.00    -0.023 C 
ENDROOT
BRANCH   2   3
ATOM      3  C   UNL     1      -2.588   5.066  12.353  1.00  0.00     0.014 C 
BRANCH   3   4
ATOM      4  C   UNL     1      -1.531   6.207  12.420  1.00  0.00     0.012 C 
BRANCH   4   5
ATOM      5  C   UNL     1      -0.058   5.744  12.357  1.00  0.00     0.031 C 
BRANCH   5   6
ATOM      6  C   UNL     1       0.781   6.013  13.603  1.00  0.00    -0.077 C 
ATOM      7  C   UNL     1       1.267   7.419  13.859  1.00  0.00     0.039 C 
ATOM      8  C   UNL     1       1.122   5.059  14.502  1.00  0.00    -0.028 CG0
ATOM      9  G   UNL     1       0.662   3.623  14.483  1.00  0.00     0.000 G0
ENDBRANCH   5   6
ENDBRANCH   4   5
ENDBRANCH   3   4
BRANCH   3  10
ATOM     10  C   UNL     1      -3.819   5.453  11.471  1.00  0.00    -0.010 C 
ATOM     11  C   UNL     1      -3.924   4.684  10.138  1.00  0.00     0.008 C 
ATOM     12  C   UNL     1      -5.133   5.317  12.259  1.00  0.00     0.008 C 
ENDBRANCH   3  10
ENDBRANCH   2   3
BRANCH   1  13
ATOM     13  C   UNL     1      -1.730   2.772  14.290  1.00  0.00    -0.055 C 
ATOM     14  C   UNL     1      -2.868   2.324  14.829  1.00  0.00     0.012 C 
BRANCH  13  15
ATOM     15  C   UNL     1      -0.697   3.413  15.191  1.00  0.00     0.039 C 
BRANCH  15  16
ATOM     16  C   UNL     1       0.675   3.611  14.496  1.00  0.00     0.032 CG0
ATOM     17  G   UNL     1       1.096   5.060  14.499  1.00  0.00     0.000 G0
ENDBRANCH  15  16
ENDBRANCH  13  15
ENDBRANCH   1  13
TORSDOF 1
ENDMDL
MODEL 8
REMARK VINA RESULT:    -3.472      1.551      3.915
REMARK INTER + INTRA:          -5.308
REMARK INTER:                  -5.428
REMARK INTRA:                   0.121
REMARK UNBOUND:                -0.211
REMARK SMILES C=C1C=C[C@H](C(C)C)CCC(C)=CCC1
REMARK SMILES IDX 3 1 4 2 5 3 9 4 10 5 11 6 12 7 13 8 6 10 7 11 8 12 2 13 1 14
REMARK SMILES IDX 15 15 14 16
REMARK H PARENT
REMARK Flexibility Score: 70.00
ROOT
ATOM      1  C   UNL     1      -0.233   5.599  12.324  1.00  0.00    -0.001 C 
ATOM      2  C   UNL     1      -0.496   5.372  11.023  1.00  0.00    -0.023 C 
ENDROOT
BRANCH   2   3
ATOM      3  C   UNL     1      -1.812   4.862  10.464  1.00  0.00     0.014 C 
BRANCH   3   4
ATOM      4  C   UNL     1      -2.083   3.395  10.909  1.00  0.00     0.012 C 
BRANCH   4   5
ATOM      5  C   UNL     1      -0.822   2.543  11.173  1.00  0.00     0.031 C 
BRANCH   5   6
ATOM      6  C   UNL     1      -0.894   1.592  12.364  1.00  0.00    -0.077 C 
ATOM      7  C   UNL     1      -1.368   0.178  12.133  1.00  0.00     0.039 C 
ATOM      8  C   UNL     1      -0.559   1.941  13.630  1.00  0.00    -0.028 CG0
ATOM      9  G   UNL     1       0.024   3.266  14.055  1.00  0.00     0.000 G0
ENDBRANCH   5   6
ENDBRANCH   4   5
ENDBRANCH   3   4
BRANCH   3  10
ATOM     10  C   UNL     1      -3.024   5.803  10.761  1.00  0.00    -0.010 C 
ATOM     11  C   UNL     1      -2.885   7.230  10.195  1.00  0.00     0.008 C 
ATOM     12  C   UNL     1      -4.345   5.176  10.283  1.00  0.00     0.008 C 
ENDBRANCH   3  10
ENDBRANCH   2   3
BRANCH   1  13
ATOM     13  C   UNL     1      -1.174   5.441  13.466  1.00  0.00    -0.055 C 
ATOM     14  C   UNL     1      -2.031   6.435  13.719  1.00  0.00     0.012 C 
BRANCH  13  15
ATOM     15  C   UNL     1      -1.091   4.283  14.437  1.00  0.00     0.039 C 
BRANCH  15  16
ATOM     16  C   UNL     1       0.017   3.262  14.070  1.00  0.00     0.032 CG0
ATOM     17  G   UNL     1      -0.567   1.940  13.636  1.00  0.00     0.000 G0
ENDBRANCH  15  16
ENDBRANCH  13  15
ENDBRANCH   1  13
TORSDOF 1
ENDMDL
MODEL 9
REMARK VINA RESULT:    -3.371      1.861      4.317
REMARK INTER + INTRA:          -5.158
REMARK INTER:                  -4.728
REMARK INTRA:                  -0.430
REMARK UNBOUND:                -0.211
REMARK SMILES C=C1C=C[C@H](C(C)C)CCC(C)=CCC1
REMARK SMILES IDX 3 1 4 2 5 3 9 4 10 5 11 6 12 7 13 8 6 10 7 11 8 12 2 13 1 14
REMARK SMILES IDX 15 15 14 16
REMARK H PARENT
REMARK Flexibility Score: 70.00
ROOT
ATOM      1  C   UNL     1      -1.453   7.281  13.234  1.00  0.00    -0.001 C 
ATOM      2  C   UNL     1      -2.529   6.793  12.588  1.00  0.00    -0.023 C 
ENDROOT
BRANCH   2   3
ATOM      3  C   UNL     1      -2.604   5.445  11.892  1.00  0.00     0.014 C 
BRANCH   3   4
ATOM      4  C   UNL     1      -2.776   4.288  12.919  1.00  0.00     0.012 C 
BRANCH   4   5
ATOM      5  C   UNL     1      -1.768   3.125  12.774  1.00  0.00     0.031 C 
BRANCH   5   6
ATOM      6  C   UNL     1      -1.172   2.592  14.073  1.00  0.00    -0.077 C 
ATOM      7  C   UNL     1      -1.802   1.381  14.716  1.00  0.00     0.039 C 
ATOM      8  C   UNL     1      -0.101   3.144  14.694  1.00  0.00    -0.028 CG0
ATOM      9  G   UNL     1       0.727   4.291  14.171  1.00  0.00     0.000 G0
ENDBRANCH   5   6
ENDBRANCH   4   5
ENDBRANCH   3   4
BRANCH   3  10
ATOM     10  C   UNL     1      -3.675   5.389  10.755  1.00  0.00    -0.010 C 
ATOM     11  C   UNL     1      -5.109   5.086  11.234  1.00  0.00     0.008 C 
ATOM     12  C   UNL     1      -3.664   6.678   9.915  1.00  0.00     0.008 C 
ENDBRANCH   3  10
ENDBRANCH   2   3
BRANCH   1  13
ATOM     13  C   UNL     1      -0.147   6.597  13.436  1.00  0.00    -0.055 C 
ATOM     14  C   UNL     1       0.772   6.694  12.471  1.00  0.00     0.012 C 
BRANCH  13  15
ATOM     15  C   UNL     1       0.117   5.675  14.607  1.00  0.00     0.039 C 
BRANCH  15  16
ATOM     16  C   UNL     1       0.723   4.313  14.183  1.00  0.00     0.032 CG0
ATOM     17  G   UNL     1      -0.100   3.155  14.689  1.00  0.00     0.000 G0
ENDBRANCH  15  16
ENDBRANCH  13  15
ENDBRANCH   1  13
TORSDOF 1
ENDMDL
