MODEL 1
REMARK VINA RESULT:    -4.343      0.000      0.000
REMARK INTER + INTRA:         -14.193
REMARK INTER:                  -9.928
REMARK INTRA:                  -4.265
REMARK UNBOUND:                -4.265
REMARK SMILES CCCCCCCCCCCCCCCCCCCCCCCC(=O)[O-]
REMARK SMILES IDX 13 1 14 2 15 3 16 4 17 5 18 6 19 7 20 8 21 9 22 10 23 11
REMARK SMILES IDX 24 12 25 13 26 14 12 15 11 16 10 17 9 18 8 19 7 20 6 21 5 22
REMARK SMILES IDX 4 23 3 24 2 25 1 26
REMARK H PARENT
REMARK Flexibility Score: inf
ROOT
ATOM      1  C   UNL     1     -13.474 -34.194 -27.055  1.00  0.00     0.000 C 
ENDROOT
BRANCH   1   2
ATOM      2  C   UNL     1     -14.414 -34.708 -28.151  1.00  0.00     0.000 C 
BRANCH   2   3
ATOM      3  C   UNL     1     -14.995 -36.080 -27.778  1.00  0.00     0.000 C 
BRANCH   3   4
ATOM      4  C   UNL     1     -14.585 -36.540 -26.368  1.00  0.00     0.000 C 
BRANCH   4   5
ATOM      5  C   UNL     1     -13.766 -37.845 -26.320  1.00  0.00     0.000 C 
BRANCH   5   6
ATOM      6  C   UNL     1     -12.720 -38.001 -27.439  1.00  0.00     0.000 C 
BRANCH   6   7
ATOM      7  C   UNL     1     -11.263 -37.739 -27.008  1.00  0.00     0.000 C 
BRANCH   7   8
ATOM      8  C   UNL     1     -11.072 -37.449 -25.506  1.00  0.00     0.000 C 
BRANCH   8   9
ATOM      9  C   UNL     1     -10.797 -35.973 -25.156  1.00  0.00     0.000 C 
BRANCH   9  10
ATOM     10  C   UNL     1     -11.528 -35.454 -23.900  1.00  0.00     0.006 C 
BRANCH  10  11
ATOM     11  C   UNL     1     -12.049 -36.558 -22.968  1.00  0.00     0.053 C 
BRANCH  11  12
ATOM     12  C   UNL     1     -11.113 -36.817 -21.828  1.00  0.00     0.041 C 
ATOM     13  O   UNL     1     -11.502 -36.662 -20.640  1.00  0.00    -0.550 OA
ATOM     14  O   UNL     1      -9.820 -37.259 -22.076  1.00  0.00    -0.550 OA
ENDBRANCH  11  12
ENDBRANCH  10  11
ENDBRANCH   9  10
ENDBRANCH   8   9
ENDBRANCH   7   8
ENDBRANCH   6   7
ENDBRANCH   5   6
ENDBRANCH   4   5
ENDBRANCH   3   4
ENDBRANCH   2   3
ENDBRANCH   1   2
BRANCH   1  15
ATOM     15  C   UNL     1     -12.031 -34.088 -27.574  1.00  0.00     0.000 C 
BRANCH  15  16
ATOM     16  C   UNL     1     -11.853 -34.678 -28.984  1.00  0.00     0.000 C 
BRANCH  16  17
ATOM     17  C   UNL     1     -10.464 -34.462 -29.616  1.00  0.00     0.000 C 
BRANCH  17  18
ATOM     18  C   UNL     1      -9.470 -35.586 -29.278  1.00  0.00    -0.000 C 
BRANCH  18  19
ATOM     19  C   UNL     1      -9.283 -36.588 -30.432  1.00  0.00    -0.000 C 
BRANCH  19  20
ATOM     20  C   UNL     1      -9.944 -37.963 -30.226  1.00  0.00    -0.000 C 
BRANCH  20  21
ATOM     21  C   UNL     1     -11.330 -38.065 -30.884  1.00  0.00    -0.000 C 
BRANCH  21  22
ATOM     22  C   UNL     1     -11.495 -37.111 -32.081  1.00  0.00    -0.000 C 
BRANCH  22  23
ATOM     23  C   UNL     1     -12.952 -36.840 -32.506  1.00  0.00    -0.000 C 
BRANCH  23  24
ATOM     24  C   UNL     1     -13.835 -36.263 -31.380  1.00  0.00    -0.000 C 
BRANCH  24  25
ATOM     25  C   UNL     1     -15.324 -36.244 -31.759  1.00  0.00    -0.003 C 
ATOM     26  C   UNL     1     -15.912 -34.844 -31.613  1.00  0.00     0.004 C 
ENDBRANCH  24  25
ENDBRANCH  23  24
ENDBRANCH  22  23
ENDBRANCH  21  22
ENDBRANCH  20  21
ENDBRANCH  19  20
ENDBRANCH  18  19
ENDBRANCH  17  18
ENDBRANCH  16  17
ENDBRANCH  15  16
ENDBRANCH   1  15
TORSDOF 22
ENDMDL
MODEL 2
REMARK VINA RESULT:    -3.974     14.742     17.790
REMARK INTER + INTRA:         -13.350
REMARK INTER:                 -10.418
REMARK INTRA:                  -2.932
REMARK UNBOUND:                -4.265
REMARK SMILES CCCCCCCCCCCCCCCCCCCCCCCC(=O)[O-]
REMARK SMILES IDX 13 1 14 2 15 3 16 4 17 5 18 6 19 7 20 8 21 9 22 10 23 11
REMARK SMILES IDX 24 12 25 13 26 14 12 15 11 16 10 17 9 18 8 19 7 20 6 21 5 22
REMARK SMILES IDX 4 23 3 24 2 25 1 26
REMARK H PARENT
REMARK Flexibility Score: inf
ROOT
ATOM      1  C   UNL     1     -18.321 -26.537 -18.220  1.00  0.00     0.000 C 
ENDROOT
BRANCH   1   2
ATOM      2  C   UNL     1     -19.171 -26.004 -19.379  1.00  0.00     0.000 C 
BRANCH   2   3
ATOM      3  C   UNL     1     -20.620 -26.501 -19.271  1.00  0.00     0.000 C 
BRANCH   3   4
ATOM      4  C   UNL     1     -21.620 -25.370 -18.969  1.00  0.00     0.000 C 
BRANCH   4   5
ATOM      5  C   UNL     1     -21.178 -24.386 -17.869  1.00  0.00     0.000 C 
BRANCH   5   6
ATOM      6  C   UNL     1     -21.305 -24.917 -16.428  1.00  0.00     0.000 C 
BRANCH   6   7
ATOM      7  C   UNL     1     -22.575 -25.747 -16.151  1.00  0.00     0.000 C 
BRANCH   7   8
ATOM      8  C   UNL     1     -23.712 -24.979 -15.448  1.00  0.00     0.000 C 
BRANCH   8   9
ATOM      9  C   UNL     1     -24.230 -23.740 -16.207  1.00  0.00     0.000 C 
BRANCH   9  10
ATOM     10  C   UNL     1     -25.003 -24.048 -17.506  1.00  0.00     0.006 C 
BRANCH  10  11
ATOM     11  C   UNL     1     -26.471 -23.597 -17.492  1.00  0.00     0.053 C 
BRANCH  11  12
ATOM     12  C   UNL     1     -27.404 -24.715 -17.843  1.00  0.00     0.041 C 
ATOM     13  O   UNL     1     -28.629 -24.631 -17.564  1.00  0.00    -0.550 OA
ATOM     14  O   UNL     1     -26.926 -25.836 -18.508  1.00  0.00    -0.550 OA
ENDBRANCH  11  12
ENDBRANCH  10  11
ENDBRANCH   9  10
ENDBRANCH   8   9
ENDBRANCH   7   8
ENDBRANCH   6   7
ENDBRANCH   5   6
ENDBRANCH   4   5
ENDBRANCH   3   4
ENDBRANCH   2   3
ENDBRANCH   1   2
BRANCH   1  15
ATOM     15  C   UNL     1     -17.500 -25.409 -17.576  1.00  0.00     0.000 C 
BRANCH  15  16
ATOM     16  C   UNL     1     -17.770 -25.253 -16.068  1.00  0.00     0.000 C 
BRANCH  16  17
ATOM     17  C   UNL     1     -17.764 -26.565 -15.260  1.00  0.00     0.000 C 
BRANCH  17  18
ATOM     18  C   UNL     1     -16.353 -27.147 -15.071  1.00  0.00    -0.000 C 
BRANCH  18  19
ATOM     19  C   UNL     1     -16.219 -28.582 -15.614  1.00  0.00    -0.000 C 
BRANCH  19  20
ATOM     20  C   UNL     1     -15.060 -28.807 -16.603  1.00  0.00    -0.000 C 
BRANCH  20  21
ATOM     21  C   UNL     1     -15.505 -28.726 -18.073  1.00  0.00    -0.000 C 
BRANCH  21  22
ATOM     22  C   UNL     1     -14.790 -27.609 -18.853  1.00  0.00    -0.000 C 
BRANCH  22  23
ATOM     23  C   UNL     1     -14.072 -26.559 -17.982  1.00  0.00    -0.000 C 
BRANCH  23  24
ATOM     24  C   UNL     1     -12.545 -26.505 -18.197  1.00  0.00    -0.000 C 
BRANCH  24  25
ATOM     25  C   UNL     1     -11.784 -27.362 -17.174  1.00  0.00    -0.003 C 
ATOM     26  C   UNL     1     -10.326 -26.925 -17.066  1.00  0.00     0.004 C 
ENDBRANCH  24  25
ENDBRANCH  23  24
ENDBRANCH  22  23
ENDBRANCH  21  22
ENDBRANCH  20  21
ENDBRANCH  19  20
ENDBRANCH  18  19
ENDBRANCH  17  18
ENDBRANCH  16  17
ENDBRANCH  15  16
ENDBRANCH   1  15
TORSDOF 22
ENDMDL
MODEL 3
REMARK VINA RESULT:    -3.898     16.501     19.976
REMARK INTER + INTRA:         -13.176
REMARK INTER:                  -9.844
REMARK INTRA:                  -3.332
REMARK UNBOUND:                -4.265
REMARK SMILES CCCCCCCCCCCCCCCCCCCCCCCC(=O)[O-]
REMARK SMILES IDX 13 1 14 2 15 3 16 4 17 5 18 6 19 7 20 8 21 9 22 10 23 11
REMARK SMILES IDX 24 12 25 13 26 14 12 15 11 16 10 17 9 18 8 19 7 20 6 21 5 22
REMARK SMILES IDX 4 23 3 24 2 25 1 26
REMARK H PARENT
REMARK Flexibility Score: inf
ROOT
ATOM      1  C   UNL     1     -25.097 -22.650 -30.538  1.00  0.00     0.000 C 
ENDROOT
BRANCH   1   2
ATOM      2  C   UNL     1     -26.628 -22.722 -30.488  1.00  0.00     0.000 C 
BRANCH   2   3
ATOM      3  C   UNL     1     -27.191 -23.341 -31.775  1.00  0.00     0.000 C 
BRANCH   3   4
ATOM      4  C   UNL     1     -28.628 -22.883 -32.080  1.00  0.00     0.000 C 
BRANCH   4   5
ATOM      5  C   UNL     1     -28.791 -22.068 -33.378  1.00  0.00     0.000 C 
BRANCH   5   6
ATOM      6  C   UNL     1     -27.473 -21.635 -34.048  1.00  0.00     0.000 C 
BRANCH   6   7
ATOM      7  C   UNL     1     -27.027 -20.193 -33.735  1.00  0.00     0.000 C 
BRANCH   7   8
ATOM      8  C   UNL     1     -27.990 -19.397 -32.832  1.00  0.00     0.000 C 
BRANCH   8   9
ATOM      9  C   UNL     1     -27.480 -19.140 -31.400  1.00  0.00     0.000 C 
BRANCH   9  10
ATOM     10  C   UNL     1     -28.451 -19.558 -30.277  1.00  0.00     0.006 C 
BRANCH  10  11
ATOM     11  C   UNL     1     -28.435 -18.636 -29.048  1.00  0.00     0.053 C 
BRANCH  11  12
ATOM     12  C   UNL     1     -27.775 -19.284 -27.871  1.00  0.00     0.041 C 
ATOM     13  O   UNL     1     -26.995 -20.259 -28.038  1.00  0.00    -0.550 OA
ATOM     14  O   UNL     1     -27.996 -18.792 -26.591  1.00  0.00    -0.550 OA
ENDBRANCH  11  12
ENDBRANCH  10  11
ENDBRANCH   9  10
ENDBRANCH   8   9
ENDBRANCH   7   8
ENDBRANCH   6   7
ENDBRANCH   5   6
ENDBRANCH   4   5
ENDBRANCH   3   4
ENDBRANCH   2   3
ENDBRANCH   1   2
BRANCH   1  15
ATOM     15  C   UNL     1     -24.628 -21.318 -31.142  1.00  0.00     0.000 C 
BRANCH  15  16
ATOM     16  C   UNL     1     -23.864 -21.492 -32.467  1.00  0.00     0.000 C 
BRANCH  16  17
ATOM     17  C   UNL     1     -23.682 -22.949 -32.934  1.00  0.00     0.000 C 
BRANCH  17  18
ATOM     18  C   UNL     1     -22.727 -23.080 -34.132  1.00  0.00    -0.000 C 
BRANCH  18  19
ATOM     19  C   UNL     1     -21.472 -22.197 -33.997  1.00  0.00    -0.000 C 
BRANCH  19  20
ATOM     20  C   UNL     1     -20.186 -22.779 -34.613  1.00  0.00    -0.000 C 
BRANCH  20  21
ATOM     21  C   UNL     1     -20.162 -24.317 -34.605  1.00  0.00    -0.000 C 
BRANCH  21  22
ATOM     22  C   UNL     1     -19.296 -24.895 -33.473  1.00  0.00    -0.000 C 
BRANCH  22  23
ATOM     23  C   UNL     1     -20.060 -25.724 -32.421  1.00  0.00    -0.000 C 
BRANCH  23  24
ATOM     24  C   UNL     1     -21.324 -26.418 -32.970  1.00  0.00    -0.000 C 
BRANCH  24  25
ATOM     25  C   UNL     1     -21.294 -27.938 -32.749  1.00  0.00    -0.003 C 
ATOM     26  C   UNL     1     -19.878 -28.488 -32.889  1.00  0.00     0.004 C 
ENDBRANCH  24  25
ENDBRANCH  23  24
ENDBRANCH  22  23
ENDBRANCH  21  22
ENDBRANCH  20  21
ENDBRANCH  19  20
ENDBRANCH  18  19
ENDBRANCH  17  18
ENDBRANCH  16  17
ENDBRANCH  15  16
ENDBRANCH   1  15
TORSDOF 22
ENDMDL
MODEL 4
REMARK VINA RESULT:    -3.737      4.175      7.542
REMARK INTER + INTRA:         -12.807
REMARK INTER:                  -9.802
REMARK INTRA:                  -3.006
REMARK UNBOUND:                -4.265
REMARK SMILES CCCCCCCCCCCCCCCCCCCCCCCC(=O)[O-]
REMARK SMILES IDX 13 1 14 2 15 3 16 4 17 5 18 6 19 7 20 8 21 9 22 10 23 11
REMARK SMILES IDX 24 12 25 13 26 14 12 15 11 16 10 17 9 18 8 19 7 20 6 21 5 22
REMARK SMILES IDX 4 23 3 24 2 25 1 26
REMARK H PARENT
REMARK Flexibility Score: inf
ROOT
ATOM      1  C   UNL     1     -10.033 -36.987 -26.384  1.00  0.00     0.000 C 
ENDROOT
BRANCH   1   2
ATOM      2  C   UNL     1      -9.992 -37.337 -27.876  1.00  0.00     0.000 C 
BRANCH   2   3
ATOM      3  C   UNL     1      -9.392 -36.184 -28.694  1.00  0.00     0.000 C 
BRANCH   3   4
ATOM      4  C   UNL     1      -8.885 -36.631 -30.076  1.00  0.00     0.000 C 
BRANCH   4   5
ATOM      5  C   UNL     1      -9.889 -36.444 -31.231  1.00  0.00     0.000 C 
BRANCH   5   6
ATOM      6  C   UNL     1     -11.065 -37.439 -31.243  1.00  0.00     0.000 C 
BRANCH   6   7
ATOM      7  C   UNL     1     -12.287 -36.991 -32.068  1.00  0.00     0.000 C 
BRANCH   7   8
ATOM      8  C   UNL     1     -13.647 -37.477 -31.531  1.00  0.00     0.000 C 
BRANCH   8   9
ATOM      9  C   UNL     1     -14.832 -37.307 -32.503  1.00  0.00     0.000 C 
BRANCH   9  10
ATOM     10  C   UNL     1     -15.925 -36.326 -32.034  1.00  0.00     0.006 C 
BRANCH  10  11
ATOM     11  C   UNL     1     -17.293 -36.976 -31.776  1.00  0.00     0.053 C 
BRANCH  11  12
ATOM     12  C   UNL     1     -18.302 -36.586 -32.811  1.00  0.00     0.041 C 
ATOM     13  O   UNL     1     -17.929 -36.248 -33.966  1.00  0.00    -0.550 OA
ATOM     14  O   UNL     1     -19.658 -36.625 -32.511  1.00  0.00    -0.550 OA
ENDBRANCH  11  12
ENDBRANCH  10  11
ENDBRANCH   9  10
ENDBRANCH   8   9
ENDBRANCH   7   8
ENDBRANCH   6   7
ENDBRANCH   5   6
ENDBRANCH   4   5
ENDBRANCH   3   4
ENDBRANCH   2   3
ENDBRANCH   1   2
BRANCH   1  15
ATOM     15  C   UNL     1     -10.261 -35.482 -26.178  1.00  0.00     0.000 C 
BRANCH  15  16
ATOM     16  C   UNL     1     -11.114 -35.165 -24.936  1.00  0.00     0.000 C 
BRANCH  16  17
ATOM     17  C   UNL     1     -10.932 -36.131 -23.749  1.00  0.00     0.000 C 
BRANCH  17  18
ATOM     18  C   UNL     1     -12.264 -36.677 -23.210  1.00  0.00    -0.000 C 
BRANCH  18  19
ATOM     19  C   UNL     1     -12.616 -38.066 -23.775  1.00  0.00    -0.000 C 
BRANCH  19  20
ATOM     20  C   UNL     1     -13.188 -38.071 -25.204  1.00  0.00    -0.000 C 
BRANCH  20  21
ATOM     21  C   UNL     1     -14.266 -36.996 -25.421  1.00  0.00    -0.000 C 
BRANCH  21  22
ATOM     22  C   UNL     1     -14.811 -36.977 -26.860  1.00  0.00    -0.000 C 
BRANCH  22  23
ATOM     23  C   UNL     1     -14.916 -35.579 -27.502  1.00  0.00    -0.000 C 
BRANCH  23  24
ATOM     24  C   UNL     1     -13.566 -34.838 -27.610  1.00  0.00    -0.000 C 
BRANCH  24  25
ATOM     25  C   UNL     1     -12.983 -34.898 -29.030  1.00  0.00    -0.003 C 
ATOM     26  C   UNL     1     -11.768 -33.985 -29.165  1.00  0.00     0.004 C 
ENDBRANCH  24  25
ENDBRANCH  23  24
ENDBRANCH  22  23
ENDBRANCH  21  22
ENDBRANCH  20  21
ENDBRANCH  19  20
ENDBRANCH  18  19
ENDBRANCH  17  18
ENDBRANCH  16  17
ENDBRANCH  15  16
ENDBRANCH   1  15
TORSDOF 22
ENDMDL
MODEL 5
REMARK VINA RESULT:    -3.737     14.822     17.820
REMARK INTER + INTRA:         -12.807
REMARK INTER:                  -8.474
REMARK INTRA:                  -4.334
REMARK UNBOUND:                -4.265
REMARK SMILES CCCCCCCCCCCCCCCCCCCCCCCC(=O)[O-]
REMARK SMILES IDX 13 1 14 2 15 3 16 4 17 5 18 6 19 7 20 8 21 9 22 10 23 11
REMARK SMILES IDX 24 12 25 13 26 14 12 15 11 16 10 17 9 18 8 19 7 20 6 21 5 22
REMARK SMILES IDX 4 23 3 24 2 25 1 26
REMARK H PARENT
REMARK Flexibility Score: inf
ROOT
ATOM      1  C   UNL     1     -18.088 -26.364 -18.801  1.00  0.00     0.000 C 
ENDROOT
BRANCH   1   2
ATOM      2  C   UNL     1     -18.582 -27.641 -18.110  1.00  0.00     0.000 C 
BRANCH   2   3
ATOM      3  C   UNL     1     -18.428 -27.535 -16.586  1.00  0.00     0.000 C 
BRANCH   3   4
ATOM      4  C   UNL     1     -19.712 -27.058 -15.885  1.00  0.00     0.000 C 
BRANCH   4   5
ATOM      5  C   UNL     1     -19.586 -25.717 -15.136  1.00  0.00     0.000 C 
BRANCH   5   6
ATOM      6  C   UNL     1     -19.102 -24.532 -15.993  1.00  0.00     0.000 C 
BRANCH   6   7
ATOM      7  C   UNL     1     -17.847 -23.813 -15.459  1.00  0.00     0.000 C 
BRANCH   7   8
ATOM      8  C   UNL     1     -16.509 -24.363 -15.989  1.00  0.00     0.000 C 
BRANCH   8   9
ATOM      9  C   UNL     1     -15.798 -25.364 -15.056  1.00  0.00     0.000 C 
BRANCH   9  10
ATOM     10  C   UNL     1     -14.948 -26.433 -15.773  1.00  0.00     0.006 C 
BRANCH  10  11
ATOM     11  C   UNL     1     -14.896 -26.283 -17.300  1.00  0.00     0.053 C 
BRANCH  11  12
ATOM     12  C   UNL     1     -14.376 -27.519 -17.967  1.00  0.00     0.041 C 
ATOM     13  O   UNL     1     -13.515 -28.235 -17.392  1.00  0.00    -0.550 OA
ATOM     14  O   UNL     1     -14.866 -27.897 -19.210  1.00  0.00    -0.550 OA
ENDBRANCH  11  12
ENDBRANCH  10  11
ENDBRANCH   9  10
ENDBRANCH   8   9
ENDBRANCH   7   8
ENDBRANCH   6   7
ENDBRANCH   5   6
ENDBRANCH   4   5
ENDBRANCH   3   4
ENDBRANCH   2   3
ENDBRANCH   1   2
BRANCH   1  15
ATOM     15  C   UNL     1     -19.185 -25.760 -19.691  1.00  0.00     0.000 C 
BRANCH  15  16
ATOM     16  C   UNL     1     -20.588 -26.309 -19.374  1.00  0.00     0.000 C 
BRANCH  16  17
ATOM     17  C   UNL     1     -21.546 -25.311 -18.695  1.00  0.00     0.000 C 
BRANCH  17  18
ATOM     18  C   UNL     1     -23.028 -25.623 -18.965  1.00  0.00    -0.000 C 
BRANCH  18  19
ATOM     19  C   UNL     1     -23.908 -25.481 -17.710  1.00  0.00    -0.000 C 
BRANCH  19  20
ATOM     20  C   UNL     1     -23.177 -25.661 -16.366  1.00  0.00    -0.000 C 
BRANCH  20  21
ATOM     21  C   UNL     1     -23.544 -24.580 -15.337  1.00  0.00    -0.000 C 
BRANCH  21  22
ATOM     22  C   UNL     1     -22.551 -23.404 -15.325  1.00  0.00    -0.000 C 
BRANCH  22  23
ATOM     23  C   UNL     1     -22.774 -22.348 -16.426  1.00  0.00    -0.000 C 
BRANCH  23  24
ATOM     24  C   UNL     1     -21.488 -21.947 -17.178  1.00  0.00    -0.000 C 
BRANCH  24  25
ATOM     25  C   UNL     1     -20.990 -20.551 -16.775  1.00  0.00    -0.003 C 
ATOM     26  C   UNL     1     -19.794 -20.644 -15.831  1.00  0.00     0.004 C 
ENDBRANCH  24  25
ENDBRANCH  23  24
ENDBRANCH  22  23
ENDBRANCH  21  22
ENDBRANCH  20  21
ENDBRANCH  19  20
ENDBRANCH  18  19
ENDBRANCH  17  18
ENDBRANCH  16  17
ENDBRANCH  15  16
ENDBRANCH   1  15
TORSDOF 22
ENDMDL
MODEL 6
REMARK VINA RESULT:    -3.727     16.179     20.060
REMARK INTER + INTRA:         -12.785
REMARK INTER:                  -9.465
REMARK INTRA:                  -3.320
REMARK UNBOUND:                -4.265
REMARK SMILES CCCCCCCCCCCCCCCCCCCCCCCC(=O)[O-]
REMARK SMILES IDX 13 1 14 2 15 3 16 4 17 5 18 6 19 7 20 8 21 9 22 10 23 11
REMARK SMILES IDX 24 12 25 13 26 14 12 15 11 16 10 17 9 18 8 19 7 20 6 21 5 22
REMARK SMILES IDX 4 23 3 24 2 25 1 26
REMARK H PARENT
REMARK Flexibility Score: inf
ROOT
ATOM      1  C   UNL     1     -27.548 -21.670 -34.371  1.00  0.00     0.000 C 
ENDROOT
BRANCH   1   2
ATOM      2  C   UNL     1     -26.454 -20.699 -33.910  1.00  0.00     0.000 C 
BRANCH   2   3
ATOM      3  C   UNL     1     -25.057 -21.264 -34.208  1.00  0.00     0.000 C 
BRANCH   3   4
ATOM      4  C   UNL     1     -25.010 -22.801 -34.161  1.00  0.00     0.000 C 
BRANCH   4   5
ATOM      5  C   UNL     1     -23.606 -23.404 -33.963  1.00  0.00     0.000 C 
BRANCH   5   6
ATOM      6  C   UNL     1     -22.506 -22.393 -33.588  1.00  0.00     0.000 C 
BRANCH   6   7
ATOM      7  C   UNL     1     -21.198 -22.527 -34.392  1.00  0.00     0.000 C 
BRANCH   7   8
ATOM      8  C   UNL     1     -20.679 -23.969 -34.553  1.00  0.00     0.000 C 
BRANCH   8   9
ATOM      9  C   UNL     1     -20.002 -24.563 -33.301  1.00  0.00     0.000 C 
BRANCH   9  10
ATOM     10  C   UNL     1     -20.451 -25.992 -32.933  1.00  0.00     0.006 C 
BRANCH  10  11
ATOM     11  C   UNL     1     -19.473 -27.094 -33.368  1.00  0.00     0.053 C 
BRANCH  11  12
ATOM     12  C   UNL     1     -19.959 -28.457 -32.980  1.00  0.00     0.041 C 
ATOM     13  O   UNL     1     -21.191 -28.677 -32.845  1.00  0.00    -0.550 OA
ATOM     14  O   UNL     1     -19.052 -29.493 -32.799  1.00  0.00    -0.550 OA
ENDBRANCH  11  12
ENDBRANCH  10  11
ENDBRANCH   9  10
ENDBRANCH   8   9
ENDBRANCH   7   8
ENDBRANCH   6   7
ENDBRANCH   5   6
ENDBRANCH   4   5
ENDBRANCH   3   4
ENDBRANCH   2   3
ENDBRANCH   1   2
BRANCH   1  15
ATOM     15  C   UNL     1     -28.758 -21.624 -33.426  1.00  0.00     0.000 C 
BRANCH  15  16
ATOM     16  C   UNL     1     -28.409 -22.022 -31.980  1.00  0.00     0.000 C 
BRANCH  16  17
ATOM     17  C   UNL     1     -29.001 -21.111 -30.887  1.00  0.00     0.000 C 
BRANCH  17  18
ATOM     18  C   UNL     1     -28.719 -19.620 -31.131  1.00  0.00    -0.000 C 
BRANCH  18  19
ATOM     19  C   UNL     1     -28.326 -18.865 -29.848  1.00  0.00    -0.000 C 
BRANCH  19  20
ATOM     20  C   UNL     1     -27.535 -19.689 -28.814  1.00  0.00    -0.000 C 
BRANCH  20  21
ATOM     21  C   UNL     1     -26.153 -19.091 -28.504  1.00  0.00    -0.000 C 
BRANCH  21  22
ATOM     22  C   UNL     1     -25.444 -18.542 -29.755  1.00  0.00    -0.000 C 
BRANCH  22  23
ATOM     23  C   UNL     1     -25.001 -19.608 -30.777  1.00  0.00    -0.000 C 
BRANCH  23  24
ATOM     24  C   UNL     1     -24.305 -20.831 -30.143  1.00  0.00    -0.000 C 
BRANCH  24  25
ATOM     25  C   UNL     1     -24.934 -22.157 -30.596  1.00  0.00    -0.003 C 
ATOM     26  C   UNL     1     -25.826 -22.744 -29.505  1.00  0.00     0.004 C 
ENDBRANCH  24  25
ENDBRANCH  23  24
ENDBRANCH  22  23
ENDBRANCH  21  22
ENDBRANCH  20  21
ENDBRANCH  19  20
ENDBRANCH  18  19
ENDBRANCH  17  18
ENDBRANCH  16  17
ENDBRANCH  15  16
ENDBRANCH   1  15
TORSDOF 22
ENDMDL
MODEL 7
REMARK VINA RESULT:    -3.711     15.489     19.427
REMARK INTER + INTRA:         -12.748
REMARK INTER:                  -9.923
REMARK INTRA:                  -2.825
REMARK UNBOUND:                -4.265
REMARK SMILES CCCCCCCCCCCCCCCCCCCCCCCC(=O)[O-]
REMARK SMILES IDX 13 1 14 2 15 3 16 4 17 5 18 6 19 7 20 8 21 9 22 10 23 11
REMARK SMILES IDX 24 12 25 13 26 14 12 15 11 16 10 17 9 18 8 19 7 20 6 21 5 22
REMARK SMILES IDX 4 23 3 24 2 25 1 26
REMARK H PARENT
REMARK Flexibility Score: inf
ROOT
ATOM      1  C   UNL     1     -26.000 -22.350 -33.518  1.00  0.00     0.000 C 
ENDROOT
BRANCH   1   2
ATOM      2  C   UNL     1     -24.706 -22.552 -34.315  1.00  0.00     0.000 C 
BRANCH   2   3
ATOM      3  C   UNL     1     -23.807 -21.310 -34.226  1.00  0.00     0.000 C 
BRANCH   3   4
ATOM      4  C   UNL     1     -22.379 -21.637 -33.753  1.00  0.00     0.000 C 
BRANCH   4   5
ATOM      5  C   UNL     1     -21.534 -22.454 -34.749  1.00  0.00     0.000 C 
BRANCH   5   6
ATOM      6  C   UNL     1     -20.734 -23.615 -34.128  1.00  0.00     0.000 C 
BRANCH   6   7
ATOM      7  C   UNL     1     -21.533 -24.512 -33.163  1.00  0.00     0.000 C 
BRANCH   7   8
ATOM      8  C   UNL     1     -20.776 -25.754 -32.652  1.00  0.00     0.000 C 
BRANCH   8   9
ATOM      9  C   UNL     1     -19.278 -25.801 -33.018  1.00  0.00     0.000 C 
BRANCH   9  10
ATOM     10  C   UNL     1     -18.927 -26.715 -34.210  1.00  0.00     0.006 C 
BRANCH  10  11
ATOM     11  C   UNL     1     -17.973 -27.868 -33.866  1.00  0.00     0.053 C 
BRANCH  11  12
ATOM     12  C   UNL     1     -18.709 -29.146 -33.606  1.00  0.00     0.041 C 
ATOM     13  O   UNL     1     -19.429 -29.266 -32.580  1.00  0.00    -0.550 OA
ATOM     14  O   UNL     1     -18.626 -30.194 -34.514  1.00  0.00    -0.550 OA
ENDBRANCH  11  12
ENDBRANCH  10  11
ENDBRANCH   9  10
ENDBRANCH   8   9
ENDBRANCH   7   8
ENDBRANCH   6   7
ENDBRANCH   5   6
ENDBRANCH   4   5
ENDBRANCH   3   4
ENDBRANCH   2   3
ENDBRANCH   1   2
BRANCH   1  15
ATOM     15  C   UNL     1     -27.014 -21.516 -34.316  1.00  0.00     0.000 C 
BRANCH  15  16
ATOM     16  C   UNL     1     -28.397 -21.445 -33.645  1.00  0.00     0.000 C 
BRANCH  16  17
ATOM     17  C   UNL     1     -28.605 -22.412 -32.462  1.00  0.00     0.000 C 
BRANCH  17  18
ATOM     18  C   UNL     1     -29.125 -21.709 -31.197  1.00  0.00    -0.000 C 
BRANCH  18  19
ATOM     19  C   UNL     1     -28.693 -20.233 -31.111  1.00  0.00    -0.000 C 
BRANCH  19  20
ATOM     20  C   UNL     1     -28.353 -19.727 -29.697  1.00  0.00    -0.000 C 
BRANCH  20  21
ATOM     21  C   UNL     1     -27.904 -20.853 -28.750  1.00  0.00    -0.000 C 
BRANCH  21  22
ATOM     22  C   UNL     1     -26.375 -21.012 -28.694  1.00  0.00    -0.000 C 
BRANCH  22  23
ATOM     23  C   UNL     1     -25.794 -22.091 -29.630  1.00  0.00    -0.000 C 
BRANCH  23  24
ATOM     24  C   UNL     1     -24.440 -21.707 -30.263  1.00  0.00    -0.000 C 
BRANCH  24  25
ATOM     25  C   UNL     1     -24.214 -20.188 -30.277  1.00  0.00    -0.003 C 
ATOM     26  C   UNL     1     -25.034 -19.520 -31.378  1.00  0.00     0.004 C 
ENDBRANCH  24  25
ENDBRANCH  23  24
ENDBRANCH  22  23
ENDBRANCH  21  22
ENDBRANCH  20  21
ENDBRANCH  19  20
ENDBRANCH  18  19
ENDBRANCH  17  18
ENDBRANCH  16  17
ENDBRANCH  15  16
ENDBRANCH   1  15
TORSDOF 22
ENDMDL
MODEL 8
REMARK VINA RESULT:    -3.703     14.130     17.132
REMARK INTER + INTRA:         -12.730
REMARK INTER:                  -8.861
REMARK INTRA:                  -3.869
REMARK UNBOUND:                -4.265
REMARK SMILES CCCCCCCCCCCCCCCCCCCCCCCC(=O)[O-]
REMARK SMILES IDX 13 1 14 2 15 3 16 4 17 5 18 6 19 7 20 8 21 9 22 10 23 11
REMARK SMILES IDX 24 12 25 13 26 14 12 15 11 16 10 17 9 18 8 19 7 20 6 21 5 22
REMARK SMILES IDX 4 23 3 24 2 25 1 26
REMARK H PARENT
REMARK Flexibility Score: inf
ROOT
ATOM      1  C   UNL     1     -19.490 -26.945 -19.567  1.00  0.00     0.000 C 
ENDROOT
BRANCH   1   2
ATOM      2  C   UNL     1     -18.373 -25.940 -19.260  1.00  0.00     0.000 C 
BRANCH   2   3
ATOM      3  C   UNL     1     -17.205 -26.622 -18.533  1.00  0.00     0.000 C 
BRANCH   3   4
ATOM      4  C   UNL     1     -16.761 -25.864 -17.270  1.00  0.00     0.000 C 
BRANCH   4   5
ATOM      5  C   UNL     1     -17.017 -26.602 -15.942  1.00  0.00     0.000 C 
BRANCH   5   6
ATOM      6  C   UNL     1     -17.654 -27.998 -16.083  1.00  0.00     0.000 C 
BRANCH   6   7
ATOM      7  C   UNL     1     -16.988 -29.105 -15.242  1.00  0.00     0.000 C 
BRANCH   7   8
ATOM      8  C   UNL     1     -15.447 -29.098 -15.263  1.00  0.00     0.000 C 
BRANCH   8   9
ATOM      9  C   UNL     1     -14.809 -29.636 -16.560  1.00  0.00     0.000 C 
BRANCH   9  10
ATOM     10  C   UNL     1     -13.409 -29.074 -16.880  1.00  0.00     0.006 C 
BRANCH  10  11
ATOM     11  C   UNL     1     -13.265 -27.562 -16.652  1.00  0.00     0.053 C 
BRANCH  11  12
ATOM     12  C   UNL     1     -12.815 -26.849 -17.890  1.00  0.00     0.041 C 
ATOM     13  O   UNL     1     -13.657 -26.475 -18.749  1.00  0.00    -0.550 OA
ATOM     14  O   UNL     1     -11.468 -26.569 -18.081  1.00  0.00    -0.550 OA
ENDBRANCH  11  12
ENDBRANCH  10  11
ENDBRANCH   9  10
ENDBRANCH   8   9
ENDBRANCH   7   8
ENDBRANCH   6   7
ENDBRANCH   5   6
ENDBRANCH   4   5
ENDBRANCH   3   4
ENDBRANCH   2   3
ENDBRANCH   1   2
BRANCH   1  15
ATOM     15  C   UNL     1     -20.837 -26.458 -19.011  1.00  0.00     0.000 C 
BRANCH  15  16
ATOM     16  C   UNL     1     -20.689 -25.590 -17.748  1.00  0.00     0.000 C 
BRANCH  16  17
ATOM     17  C   UNL     1     -20.942 -26.320 -16.415  1.00  0.00     0.000 C 
BRANCH  17  18
ATOM     18  C   UNL     1     -20.458 -25.522 -15.193  1.00  0.00    -0.000 C 
BRANCH  18  19
ATOM     19  C   UNL     1     -19.930 -24.124 -15.561  1.00  0.00    -0.000 C 
BRANCH  19  20
ATOM     20  C   UNL     1     -20.915 -22.963 -15.327  1.00  0.00    -0.000 C 
BRANCH  20  21
ATOM     21  C   UNL     1     -21.052 -22.040 -16.549  1.00  0.00    -0.000 C 
BRANCH  21  22
ATOM     22  C   UNL     1     -22.335 -22.306 -17.357  1.00  0.00    -0.000 C 
BRANCH  22  23
ATOM     23  C   UNL     1     -23.645 -22.233 -16.548  1.00  0.00    -0.000 C 
BRANCH  23  24
ATOM     24  C   UNL     1     -24.719 -23.242 -17.005  1.00  0.00    -0.000 C 
BRANCH  24  25
ATOM     25  C   UNL     1     -24.248 -24.697 -16.862  1.00  0.00    -0.003 C 
ATOM     26  C   UNL     1     -24.401 -25.457 -18.177  1.00  0.00     0.004 C 
ENDBRANCH  24  25
ENDBRANCH  23  24
ENDBRANCH  22  23
ENDBRANCH  21  22
ENDBRANCH  20  21
ENDBRANCH  19  20
ENDBRANCH  18  19
ENDBRANCH  17  18
ENDBRANCH  16  17
ENDBRANCH  15  16
ENDBRANCH   1  15
TORSDOF 22
ENDMDL
MODEL 9
REMARK VINA RESULT:    -3.600     14.285     17.231
REMARK INTER + INTRA:         -12.495
REMARK INTER:                  -8.971
REMARK INTRA:                  -3.524
REMARK UNBOUND:                -4.265
REMARK SMILES CCCCCCCCCCCCCCCCCCCCCCCC(=O)[O-]
REMARK SMILES IDX 13 1 14 2 15 3 16 4 17 5 18 6 19 7 20 8 21 9 22 10 23 11
REMARK SMILES IDX 24 12 25 13 26 14 12 15 11 16 10 17 9 18 8 19 7 20 6 21 5 22
REMARK SMILES IDX 4 23 3 24 2 25 1 26
REMARK H PARENT
REMARK Flexibility Score: inf
ROOT
ATOM      1  C   UNL     1     -19.946 -26.871 -19.620  1.00  0.00     0.000 C 
ENDROOT
BRANCH   1   2
ATOM      2  C   UNL     1     -18.816 -25.936 -20.067  1.00  0.00     0.000 C 
BRANCH   2   3
ATOM      3  C   UNL     1     -17.575 -26.110 -19.180  1.00  0.00     0.000 C 
BRANCH   3   4
ATOM      4  C   UNL     1     -17.724 -27.252 -18.159  1.00  0.00     0.000 C 
BRANCH   4   5
ATOM      5  C   UNL     1     -17.524 -26.841 -16.687  1.00  0.00     0.000 C 
BRANCH   5   6
ATOM      6  C   UNL     1     -17.069 -25.385 -16.471  1.00  0.00     0.000 C 
BRANCH   6   7
ATOM      7  C   UNL     1     -15.638 -25.226 -15.920  1.00  0.00     0.000 C 
BRANCH   7   8
ATOM      8  C   UNL     1     -14.717 -26.442 -16.143  1.00  0.00     0.000 C 
BRANCH   8   9
ATOM      9  C   UNL     1     -14.160 -26.585 -17.573  1.00  0.00     0.000 C 
BRANCH   9  10
ATOM     10  C   UNL     1     -13.801 -28.026 -17.991  1.00  0.00     0.006 C 
BRANCH  10  11
ATOM     11  C   UNL     1     -13.304 -28.915 -16.842  1.00  0.00     0.053 C 
BRANCH  11  12
ATOM     12  C   UNL     1     -14.342 -29.905 -16.411  1.00  0.00     0.041 C 
ATOM     13  O   UNL     1     -15.516 -29.829 -16.859  1.00  0.00    -0.550 OA
ATOM     14  O   UNL     1     -14.003 -30.933 -15.540  1.00  0.00    -0.550 OA
ENDBRANCH  11  12
ENDBRANCH  10  11
ENDBRANCH   9  10
ENDBRANCH   8   9
ENDBRANCH   7   8
ENDBRANCH   6   7
ENDBRANCH   5   6
ENDBRANCH   4   5
ENDBRANCH   3   4
ENDBRANCH   2   3
ENDBRANCH   1   2
BRANCH   1  15
ATOM     15  C   UNL     1     -20.916 -26.149 -18.673  1.00  0.00     0.000 C 
BRANCH  15  16
ATOM     16  C   UNL     1     -20.940 -24.624 -18.882  1.00  0.00     0.000 C 
BRANCH  16  17
ATOM     17  C   UNL     1     -20.319 -23.793 -17.743  1.00  0.00     0.000 C 
BRANCH  17  18
ATOM     18  C   UNL     1     -20.512 -24.435 -16.359  1.00  0.00    -0.000 C 
BRANCH  18  19
ATOM     19  C   UNL     1     -20.466 -23.410 -15.211  1.00  0.00    -0.000 C 
BRANCH  19  20
ATOM     20  C   UNL     1     -21.158 -22.065 -15.499  1.00  0.00    -0.000 C 
BRANCH  20  21
ATOM     21  C   UNL     1     -22.687 -22.134 -15.346  1.00  0.00    -0.000 C 
BRANCH  21  22
ATOM     22  C   UNL     1     -23.425 -22.115 -16.696  1.00  0.00    -0.000 C 
BRANCH  22  23
ATOM     23  C   UNL     1     -24.489 -23.215 -16.876  1.00  0.00    -0.000 C 
BRANCH  23  24
ATOM     24  C   UNL     1     -24.095 -24.574 -16.260  1.00  0.00    -0.000 C 
BRANCH  24  25
ATOM     25  C   UNL     1     -24.130 -25.712 -17.290  1.00  0.00    -0.003 C 
ATOM     26  C   UNL     1     -24.966 -25.327 -18.508  1.00  0.00     0.004 C 
ENDBRANCH  24  25
ENDBRANCH  23  24
ENDBRANCH  22  23
ENDBRANCH  21  22
ENDBRANCH  20  21
ENDBRANCH  19  20
ENDBRANCH  18  19
ENDBRANCH  17  18
ENDBRANCH  16  17
ENDBRANCH  15  16
ENDBRANCH   1  15
TORSDOF 22
ENDMDL
