MODEL 1
REMARK VINA RESULT:    -4.003      0.000      0.000
REMARK INTER + INTRA:          -9.373
REMARK INTER:                  -7.280
REMARK INTRA:                  -2.094
REMARK UNBOUND:                -2.094
REMARK SMILES CCCCCCCCCCCCCC[C@@H](C)C(=O)[O-]
REMARK SMILES IDX 9 1 10 2 11 3 12 4 13 5 14 6 15 7 16 8 17 9 18 10 19 11 8 12
REMARK SMILES IDX 7 13 6 14 5 15 4 16 3 17 2 18 1 19
REMARK H PARENT
REMARK Flexibility Score: inf
ROOT
ATOM      1  C   UNL     1      30.829   9.327  45.597  1.00  0.00     0.000 C 
ENDROOT
BRANCH   1   2
ATOM      2  C   UNL     1      29.624   9.058  46.517  1.00  0.00     0.000 C 
BRANCH   2   3
ATOM      3  C   UNL     1      29.628   7.689  47.222  1.00  0.00     0.000 C 
BRANCH   3   4
ATOM      4  C   UNL     1      30.099   6.545  46.309  1.00  0.00     0.000 C 
BRANCH   4   5
ATOM      5  C   UNL     1      30.764   5.393  47.085  1.00  0.00     0.001 C 
BRANCH   5   6
ATOM      6  C   UNL     1      31.765   5.822  48.179  1.00  0.00     0.009 C 
BRANCH   6   7
ATOM      7  C   UNL     1      31.438   5.293  49.593  1.00  0.00     0.032 C 
ATOM      8  C   UNL     1      29.937   5.015  49.726  1.00  0.00     0.014 C 
BRANCH   7   9
ATOM      9  C   UNL     1      32.214   4.043  49.906  1.00  0.00     0.044 C 
ATOM     10  O   UNL     1      32.251   3.097  49.075  1.00  0.00    -0.550 OA
ATOM     11  O   UNL     1      32.898   3.923  51.111  1.00  0.00    -0.550 OA
ENDBRANCH   7   9
ENDBRANCH   6   7
ENDBRANCH   5   6
ENDBRANCH   4   5
ENDBRANCH   3   4
ENDBRANCH   2   3
ENDBRANCH   1   2
BRANCH   1  12
ATOM     12  C   UNL     1      31.714  10.483  46.088  1.00  0.00     0.000 C 
BRANCH  12  13
ATOM     13  C   UNL     1      33.197  10.077  46.085  1.00  0.00    -0.000 C 
BRANCH  13  14
ATOM     14  C   UNL     1      33.409   8.600  46.456  1.00  0.00    -0.000 C 
BRANCH  14  15
ATOM     15  C   UNL     1      34.170   7.823  45.367  1.00  0.00    -0.000 C 
BRANCH  15  16
ATOM     16  C   UNL     1      33.376   6.619  44.825  1.00  0.00    -0.000 C 
BRANCH  16  17
ATOM     17  C   UNL     1      32.629   6.871  43.504  1.00  0.00    -0.000 C 
BRANCH  17  18
ATOM     18  C   UNL     1      32.260   5.577  42.766  1.00  0.00    -0.003 C 
ATOM     19  C   UNL     1      33.224   5.307  41.613  1.00  0.00     0.004 C 
ENDBRANCH  17  18
ENDBRANCH  16  17
ENDBRANCH  15  16
ENDBRANCH  14  15
ENDBRANCH  13  14
ENDBRANCH  12  13
ENDBRANCH   1  12
TORSDOF 14
ENDMDL
MODEL 2
REMARK VINA RESULT:    -3.916      6.746      9.012
REMARK INTER + INTRA:          -9.214
REMARK INTER:                  -8.682
REMARK INTRA:                  -0.533
REMARK UNBOUND:                -2.094
REMARK SMILES CCCCCCCCCCCCCC[C@@H](C)C(=O)[O-]
REMARK SMILES IDX 9 1 10 2 11 3 12 4 13 5 14 6 15 7 16 8 17 9 18 10 19 11 8 12
REMARK SMILES IDX 7 13 6 14 5 15 4 16 3 17 2 18 1 19
REMARK H PARENT
REMARK Flexibility Score: inf
ROOT
ATOM      1  C   UNL     1      29.618   6.081  41.422  1.00  0.00     0.000 C 
ENDROOT
BRANCH   1   2
ATOM      2  C   UNL     1      29.131   4.910  40.549  1.00  0.00     0.000 C 
BRANCH   2   3
ATOM      3  C   UNL     1      27.827   4.237  41.018  1.00  0.00     0.000 C 
BRANCH   3   4
ATOM      4  C   UNL     1      27.037   3.595  39.866  1.00  0.00     0.000 C 
BRANCH   4   5
ATOM      5  C   UNL     1      25.529   3.486  40.161  1.00  0.00     0.001 C 
BRANCH   5   6
ATOM      6  C   UNL     1      24.701   2.721  39.106  1.00  0.00     0.009 C 
BRANCH   6   7
ATOM      7  C   UNL     1      23.363   2.153  39.628  1.00  0.00     0.032 C 
ATOM      8  C   UNL     1      22.491   1.680  38.461  1.00  0.00     0.014 C 
BRANCH   7   9
ATOM      9  C   UNL     1      23.586   1.014  40.587  1.00  0.00     0.044 C 
ATOM     10  O   UNL     1      23.976  -0.105  40.159  1.00  0.00    -0.550 OA
ATOM     11  O   UNL     1      23.368   1.188  41.949  1.00  0.00    -0.550 OA
ENDBRANCH   7   9
ENDBRANCH   6   7
ENDBRANCH   5   6
ENDBRANCH   4   5
ENDBRANCH   3   4
ENDBRANCH   2   3
ENDBRANCH   1   2
BRANCH   1  12
ATOM     12  C   UNL     1      29.538   5.783  42.927  1.00  0.00     0.000 C 
BRANCH  12  13
ATOM     13  C   UNL     1      30.800   5.048  43.407  1.00  0.00    -0.000 C 
BRANCH  13  14
ATOM     14  C   UNL     1      31.537   5.802  44.526  1.00  0.00    -0.000 C 
BRANCH  14  15
ATOM     15  C   UNL     1      31.437   5.086  45.884  1.00  0.00    -0.000 C 
BRANCH  15  16
ATOM     16  C   UNL     1      31.586   6.046  47.080  1.00  0.00    -0.000 C 
BRANCH  16  17
ATOM     17  C   UNL     1      30.911   5.577  48.381  1.00  0.00    -0.000 C 
BRANCH  17  18
ATOM     18  C   UNL     1      31.901   4.977  49.388  1.00  0.00    -0.003 C 
ATOM     19  C   UNL     1      32.104   3.484  49.138  1.00  0.00     0.004 C 
ENDBRANCH  17  18
ENDBRANCH  16  17
ENDBRANCH  15  16
ENDBRANCH  14  15
ENDBRANCH  13  14
ENDBRANCH  12  13
ENDBRANCH   1  12
TORSDOF 14
ENDMDL
MODEL 3
REMARK VINA RESULT:    -3.794      7.005      9.034
REMARK INTER + INTRA:          -8.993
REMARK INTER:                  -8.302
REMARK INTRA:                  -0.691
REMARK UNBOUND:                -2.094
REMARK SMILES CCCCCCCCCCCCCC[C@@H](C)C(=O)[O-]
REMARK SMILES IDX 9 1 10 2 11 3 12 4 13 5 14 6 15 7 16 8 17 9 18 10 19 11 8 12
REMARK SMILES IDX 7 13 6 14 5 15 4 16 3 17 2 18 1 19
REMARK H PARENT
REMARK Flexibility Score: inf
ROOT
ATOM      1  C   UNL     1      29.334   6.262  40.896  1.00  0.00     0.000 C 
ENDROOT
BRANCH   1   2
ATOM      2  C   UNL     1      27.937   5.749  41.289  1.00  0.00     0.000 C 
BRANCH   2   3
ATOM      3  C   UNL     1      27.724   4.232  41.130  1.00  0.00     0.000 C 
BRANCH   3   4
ATOM      4  C   UNL     1      26.263   3.805  41.351  1.00  0.00     0.000 C 
BRANCH   4   5
ATOM      5  C   UNL     1      25.397   3.952  40.086  1.00  0.00     0.001 C 
BRANCH   5   6
ATOM      6  C   UNL     1      24.944   2.627  39.436  1.00  0.00     0.009 C 
BRANCH   6   7
ATOM      7  C   UNL     1      23.496   2.207  39.776  1.00  0.00     0.032 C 
ATOM      8  C   UNL     1      22.719   1.884  38.496  1.00  0.00     0.014 C 
BRANCH   7   9
ATOM      9  C   UNL     1      23.471   1.018  40.697  1.00  0.00     0.044 C 
ATOM     10  O   UNL     1      23.110   1.155  41.896  1.00  0.00    -0.550 OA
ATOM     11  O   UNL     1      23.842  -0.240  40.233  1.00  0.00    -0.550 OA
ENDBRANCH   7   9
ENDBRANCH   6   7
ENDBRANCH   5   6
ENDBRANCH   4   5
ENDBRANCH   3   4
ENDBRANCH   2   3
ENDBRANCH   1   2
BRANCH   1  12
ATOM     12  C   UNL     1      30.303   5.133  40.511  1.00  0.00     0.000 C 
BRANCH  12  13
ATOM     13  C   UNL     1      31.750   5.647  40.458  1.00  0.00    -0.000 C 
BRANCH  13  14
ATOM     14  C   UNL     1      32.607   5.130  41.624  1.00  0.00    -0.000 C 
BRANCH  14  15
ATOM     15  C   UNL     1      34.114   5.178  41.315  1.00  0.00    -0.000 C 
BRANCH  15  16
ATOM     16  C   UNL     1      34.449   6.076  40.108  1.00  0.00    -0.000 C 
BRANCH  16  17
ATOM     17  C   UNL     1      35.779   5.753  39.404  1.00  0.00    -0.000 C 
BRANCH  17  18
ATOM     18  C   UNL     1      36.218   4.294  39.591  1.00  0.00    -0.003 C 
ATOM     19  C   UNL     1      36.654   3.676  38.265  1.00  0.00     0.004 C 
ENDBRANCH  17  18
ENDBRANCH  16  17
ENDBRANCH  15  16
ENDBRANCH  14  15
ENDBRANCH  13  14
ENDBRANCH  12  13
ENDBRANCH   1  12
TORSDOF 14
ENDMDL
MODEL 4
REMARK VINA RESULT:    -3.741      7.044      8.967
REMARK INTER + INTRA:          -8.897
REMARK INTER:                  -7.600
REMARK INTRA:                  -1.297
REMARK UNBOUND:                -2.094
REMARK SMILES CCCCCCCCCCCCCC[C@@H](C)C(=O)[O-]
REMARK SMILES IDX 9 1 10 2 11 3 12 4 13 5 14 6 15 7 16 8 17 9 18 10 19 11 8 12
REMARK SMILES IDX 7 13 6 14 5 15 4 16 3 17 2 18 1 19
REMARK H PARENT
REMARK Flexibility Score: inf
ROOT
ATOM      1  C   UNL     1      28.885   6.396  42.402  1.00  0.00     0.000 C 
ENDROOT
BRANCH   1   2
ATOM      2  C   UNL     1      28.816   4.860  42.329  1.00  0.00     0.000 C 
BRANCH   2   3
ATOM      3  C   UNL     1      27.937   4.294  41.198  1.00  0.00     0.000 C 
BRANCH   3   4
ATOM      4  C   UNL     1      26.519   3.926  41.667  1.00  0.00     0.000 C 
BRANCH   4   5
ATOM      5  C   UNL     1      25.452   4.140  40.578  1.00  0.00     0.001 C 
BRANCH   5   6
ATOM      6  C   UNL     1      25.094   2.889  39.746  1.00  0.00     0.009 C 
BRANCH   6   7
ATOM      7  C   UNL     1      24.003   1.993  40.372  1.00  0.00     0.032 C 
ATOM      8  C   UNL     1      22.805   2.838  40.815  1.00  0.00     0.014 C 
BRANCH   7   9
ATOM      9  C   UNL     1      23.544   0.931  39.409  1.00  0.00     0.044 C 
ATOM     10  O   UNL     1      24.045  -0.223  39.456  1.00  0.00    -0.550 OA
ATOM     11  O   UNL     1      22.565   1.216  38.463  1.00  0.00    -0.550 OA
ENDBRANCH   7   9
ENDBRANCH   6   7
ENDBRANCH   5   6
ENDBRANCH   4   5
ENDBRANCH   3   4
ENDBRANCH   2   3
ENDBRANCH   1   2
BRANCH   1  12
ATOM     12  C   UNL     1      28.870   7.066  41.019  1.00  0.00     0.000 C 
BRANCH  12  13
ATOM     13  C   UNL     1      30.295   7.202  40.462  1.00  0.00    -0.000 C 
BRANCH  13  14
ATOM     14  C   UNL     1      30.571   6.241  39.293  1.00  0.00    -0.000 C 
BRANCH  14  15
ATOM     15  C   UNL     1      31.452   5.049  39.706  1.00  0.00    -0.000 C 
BRANCH  15  16
ATOM     16  C   UNL     1      32.257   5.316  40.992  1.00  0.00    -0.000 C 
BRANCH  16  17
ATOM     17  C   UNL     1      33.732   5.697  40.772  1.00  0.00    -0.000 C 
BRANCH  17  18
ATOM     18  C   UNL     1      34.518   4.629  40.000  1.00  0.00    -0.003 C 
ATOM     19  C   UNL     1      35.571   3.970  40.888  1.00  0.00     0.004 C 
ENDBRANCH  17  18
ENDBRANCH  16  17
ENDBRANCH  15  16
ENDBRANCH  14  15
ENDBRANCH  13  14
ENDBRANCH  12  13
ENDBRANCH   1  12
TORSDOF 14
ENDMDL
MODEL 5
REMARK VINA RESULT:    -3.591     12.370     15.002
REMARK INTER + INTRA:          -8.624
REMARK INTER:                  -6.468
REMARK INTRA:                  -2.156
REMARK UNBOUND:                -2.094
REMARK SMILES CCCCCCCCCCCCCC[C@@H](C)C(=O)[O-]
REMARK SMILES IDX 9 1 10 2 11 3 12 4 13 5 14 6 15 7 16 8 17 9 18 10 19 11 8 12
REMARK SMILES IDX 7 13 6 14 5 15 4 16 3 17 2 18 1 19
REMARK H PARENT
REMARK Flexibility Score: inf
ROOT
ATOM      1  C   UNL     1      23.663  -6.607  46.133  1.00  0.00     0.000 C 
ENDROOT
BRANCH   1   2
ATOM      2  C   UNL     1      22.452  -7.075  45.306  1.00  0.00     0.000 C 
BRANCH   2   3
ATOM      3  C   UNL     1      21.390  -5.996  45.024  1.00  0.00     0.000 C 
BRANCH   3   4
ATOM      4  C   UNL     1      20.492  -5.708  46.238  1.00  0.00     0.000 C 
BRANCH   4   5
ATOM      5  C   UNL     1      20.266  -4.203  46.473  1.00  0.00     0.001 C 
BRANCH   5   6
ATOM      6  C   UNL     1      21.004  -3.261  45.498  1.00  0.00     0.009 C 
BRANCH   6   7
ATOM      7  C   UNL     1      20.133  -2.124  44.919  1.00  0.00     0.032 C 
ATOM      8  C   UNL     1      18.735  -2.150  45.545  1.00  0.00     0.014 C 
BRANCH   7   9
ATOM      9  C   UNL     1      20.765  -0.778  45.147  1.00  0.00     0.044 C 
ATOM     10  O   UNL     1      20.789  -0.278  46.302  1.00  0.00    -0.550 OA
ATOM     11  O   UNL     1      21.329  -0.077  44.086  1.00  0.00    -0.550 OA
ENDBRANCH   7   9
ENDBRANCH   6   7
ENDBRANCH   5   6
ENDBRANCH   4   5
ENDBRANCH   3   4
ENDBRANCH   2   3
ENDBRANCH   1   2
BRANCH   1  12
ATOM     12  C   UNL     1      23.609  -7.074  47.596  1.00  0.00     0.000 C 
BRANCH  12  13
ATOM     13  C   UNL     1      23.594  -5.873  48.554  1.00  0.00    -0.000 C 
BRANCH  13  14
ATOM     14  C   UNL     1      23.683  -4.525  47.819  1.00  0.00    -0.000 C 
BRANCH  14  15
ATOM     15  C   UNL     1      23.563  -3.325  48.774  1.00  0.00    -0.000 C 
BRANCH  15  16
ATOM     16  C   UNL     1      23.386  -1.985  48.033  1.00  0.00    -0.000 C 
BRANCH  16  17
ATOM     17  C   UNL     1      24.365  -1.749  46.869  1.00  0.00    -0.000 C 
BRANCH  17  18
ATOM     18  C   UNL     1      25.677  -1.088  47.313  1.00  0.00    -0.003 C 
ATOM     19  C   UNL     1      26.819  -2.101  47.347  1.00  0.00     0.004 C 
ENDBRANCH  17  18
ENDBRANCH  16  17
ENDBRANCH  15  16
ENDBRANCH  14  15
ENDBRANCH  13  14
ENDBRANCH  12  13
ENDBRANCH   1  12
TORSDOF 14
ENDMDL
MODEL 6
REMARK VINA RESULT:    -3.585      4.151      7.529
REMARK INTER + INTRA:          -8.613
REMARK INTER:                  -7.803
REMARK INTRA:                  -0.810
REMARK UNBOUND:                -2.094
REMARK SMILES CCCCCCCCCCCCCC[C@@H](C)C(=O)[O-]
REMARK SMILES IDX 9 1 10 2 11 3 12 4 13 5 14 6 15 7 16 8 17 9 18 10 19 11 8 12
REMARK SMILES IDX 7 13 6 14 5 15 4 16 3 17 2 18 1 19
REMARK H PARENT
REMARK Flexibility Score: inf
ROOT
ATOM      1  C   UNL     1      34.019   8.895  44.270  1.00  0.00     0.000 C 
ENDROOT
BRANCH   1   2
ATOM      2  C   UNL     1      35.074   8.759  43.157  1.00  0.00     0.000 C 
BRANCH   2   3
ATOM      3  C   UNL     1      34.612   7.991  41.904  1.00  0.00     0.000 C 
BRANCH   3   4
ATOM      4  C   UNL     1      33.557   6.916  42.214  1.00  0.00     0.000 C 
BRANCH   4   5
ATOM      5  C   UNL     1      33.365   5.914  41.061  1.00  0.00     0.001 C 
BRANCH   5   6
ATOM      6  C   UNL     1      31.922   5.401  40.862  1.00  0.00     0.009 C 
BRANCH   6   7
ATOM      7  C   UNL     1      31.404   5.488  39.410  1.00  0.00     0.032 C 
ATOM      8  C   UNL     1      30.061   4.763  39.277  1.00  0.00     0.014 C 
BRANCH   7   9
ATOM      9  C   UNL     1      31.254   6.918  38.964  1.00  0.00     0.044 C 
ATOM     10  O   UNL     1      30.459   7.687  39.564  1.00  0.00    -0.550 OA
ATOM     11  O   UNL     1      31.994   7.400  37.890  1.00  0.00    -0.550 OA
ENDBRANCH   7   9
ENDBRANCH   6   7
ENDBRANCH   5   6
ENDBRANCH   4   5
ENDBRANCH   3   4
ENDBRANCH   2   3
ENDBRANCH   1   2
BRANCH   1  12
ATOM     12  C   UNL     1      34.326   8.025  45.499  1.00  0.00     0.000 C 
BRANCH  12  13
ATOM     13  C   UNL     1      33.158   8.057  46.498  1.00  0.00    -0.000 C 
BRANCH  13  14
ATOM     14  C   UNL     1      32.137   6.934  46.253  1.00  0.00    -0.000 C 
BRANCH  14  15
ATOM     15  C   UNL     1      30.819   7.160  47.015  1.00  0.00    -0.000 C 
BRANCH  15  16
ATOM     16  C   UNL     1      30.515   6.041  48.030  1.00  0.00    -0.000 C 
BRANCH  16  17
ATOM     17  C   UNL     1      31.723   5.559  48.852  1.00  0.00    -0.000 C 
BRANCH  17  18
ATOM     18  C   UNL     1      31.430   4.286  49.658  1.00  0.00    -0.003 C 
ATOM     19  C   UNL     1      32.410   3.171  49.301  1.00  0.00     0.004 C 
ENDBRANCH  17  18
ENDBRANCH  16  17
ENDBRANCH  15  16
ENDBRANCH  14  15
ENDBRANCH  13  14
ENDBRANCH  12  13
ENDBRANCH   1  12
TORSDOF 14
ENDMDL
MODEL 7
REMARK VINA RESULT:    -3.580     12.176     13.606
REMARK INTER + INTRA:          -8.603
REMARK INTER:                  -7.271
REMARK INTRA:                  -1.332
REMARK UNBOUND:                -2.094
REMARK SMILES CCCCCCCCCCCCCC[C@@H](C)C(=O)[O-]
REMARK SMILES IDX 9 1 10 2 11 3 12 4 13 5 14 6 15 7 16 8 17 9 18 10 19 11 8 12
REMARK SMILES IDX 7 13 6 14 5 15 4 16 3 17 2 18 1 19
REMARK H PARENT
REMARK Flexibility Score: inf
ROOT
ATOM      1  C   UNL     1      19.747   1.293  43.926  1.00  0.00     0.000 C 
ENDROOT
BRANCH   1   2
ATOM      2  C   UNL     1      18.445   0.539  43.596  1.00  0.00     0.000 C 
BRANCH   2   3
ATOM      3  C   UNL     1      18.498  -0.987  43.803  1.00  0.00     0.000 C 
BRANCH   3   4
ATOM      4  C   UNL     1      17.685  -1.454  45.022  1.00  0.00     0.000 C 
BRANCH   4   5
ATOM      5  C   UNL     1      18.385  -2.573  45.816  1.00  0.00     0.001 C 
BRANCH   5   6
ATOM      6  C   UNL     1      19.832  -2.887  45.383  1.00  0.00     0.009 C 
BRANCH   6   7
ATOM      7  C   UNL     1      20.536  -3.971  46.230  1.00  0.00     0.032 C 
ATOM      8  C   UNL     1      21.270  -4.965  45.325  1.00  0.00     0.014 C 
BRANCH   7   9
ATOM      9  C   UNL     1      21.507  -3.361  47.205  1.00  0.00     0.044 C 
ATOM     10  O   UNL     1      22.747  -3.478  47.019  1.00  0.00    -0.550 OA
ATOM     11  O   UNL     1      21.044  -2.664  48.316  1.00  0.00    -0.550 OA
ENDBRANCH   7   9
ENDBRANCH   6   7
ENDBRANCH   5   6
ENDBRANCH   4   5
ENDBRANCH   3   4
ENDBRANCH   2   3
ENDBRANCH   1   2
BRANCH   1  12
ATOM     12  C   UNL     1      20.983   0.381  43.940  1.00  0.00     0.000 C 
BRANCH  12  13
ATOM     13  C   UNL     1      22.116   0.981  43.094  1.00  0.00    -0.000 C 
BRANCH  13  14
ATOM     14  C   UNL     1      21.859   2.448  42.711  1.00  0.00    -0.000 C 
BRANCH  14  15
ATOM     15  C   UNL     1      22.649   2.879  41.463  1.00  0.00    -0.000 C 
BRANCH  15  16
ATOM     16  C   UNL     1      21.895   2.595  40.150  1.00  0.00    -0.000 C 
BRANCH  16  17
ATOM     17  C   UNL     1      22.713   1.862  39.072  1.00  0.00    -0.000 C 
BRANCH  17  18
ATOM     18  C   UNL     1      23.963   1.171  39.635  1.00  0.00    -0.003 C 
ATOM     19  C   UNL     1      23.760  -0.339  39.734  1.00  0.00     0.004 C 
ENDBRANCH  17  18
ENDBRANCH  16  17
ENDBRANCH  15  16
ENDBRANCH  14  15
ENDBRANCH  13  14
ENDBRANCH  12  13
ENDBRANCH   1  12
TORSDOF 14
ENDMDL
MODEL 8
REMARK VINA RESULT:    -3.576     15.089     17.220
REMARK INTER + INTRA:          -8.596
REMARK INTER:                  -5.745
REMARK INTRA:                  -2.851
REMARK UNBOUND:                -2.094
REMARK SMILES CCCCCCCCCCCCCC[C@@H](C)C(=O)[O-]
REMARK SMILES IDX 9 1 10 2 11 3 12 4 13 5 14 6 15 7 16 8 17 9 18 10 19 11 8 12
REMARK SMILES IDX 7 13 6 14 5 15 4 16 3 17 2 18 1 19
REMARK H PARENT
REMARK Flexibility Score: inf
ROOT
ATOM      1  C   UNL     1      20.223  -1.455  54.937  1.00  0.00     0.000 C 
ENDROOT
BRANCH   1   2
ATOM      2  C   UNL     1      21.524  -0.676  55.203  1.00  0.00     0.000 C 
BRANCH   2   3
ATOM      3  C   UNL     1      22.121  -0.855  56.612  1.00  0.00     0.000 C 
BRANCH   3   4
ATOM      4  C   UNL     1      23.374  -1.747  56.623  1.00  0.00     0.000 C 
BRANCH   4   5
ATOM      5  C   UNL     1      23.783  -2.224  55.218  1.00  0.00     0.001 C 
BRANCH   5   6
ATOM      6  C   UNL     1      24.022  -3.743  55.077  1.00  0.00     0.009 C 
BRANCH   6   7
ATOM      7  C   UNL     1      23.379  -4.382  53.827  1.00  0.00     0.032 C 
ATOM      8  C   UNL     1      22.800  -3.299  52.911  1.00  0.00     0.014 C 
BRANCH   7   9
ATOM      9  C   UNL     1      24.372  -5.214  53.062  1.00  0.00     0.044 C 
ATOM     10  O   UNL     1      24.179  -5.466  51.843  1.00  0.00    -0.550 OA
ATOM     11  O   UNL     1      25.509  -5.708  53.692  1.00  0.00    -0.550 OA
ENDBRANCH   7   9
ENDBRANCH   6   7
ENDBRANCH   5   6
ENDBRANCH   4   5
ENDBRANCH   3   4
ENDBRANCH   2   3
ENDBRANCH   1   2
BRANCH   1  12
ATOM     12  C   UNL     1      19.820  -2.371  56.103  1.00  0.00     0.000 C 
BRANCH  12  13
ATOM     13  C   UNL     1      20.204  -3.831  55.811  1.00  0.00    -0.000 C 
BRANCH  13  14
ATOM     14  C   UNL     1      20.967  -4.488  56.972  1.00  0.00    -0.000 C 
BRANCH  14  15
ATOM     15  C   UNL     1      21.063  -6.017  56.824  1.00  0.00    -0.000 C 
BRANCH  15  16
ATOM     16  C   UNL     1      20.592  -6.515  55.444  1.00  0.00    -0.000 C 
BRANCH  16  17
ATOM     17  C   UNL     1      21.641  -7.304  54.641  1.00  0.00    -0.000 C 
BRANCH  17  18
ATOM     18  C   UNL     1      21.263  -7.474  53.163  1.00  0.00    -0.003 C 
ATOM     19  C   UNL     1      20.450  -6.282  52.663  1.00  0.00     0.004 C 
ENDBRANCH  17  18
ENDBRANCH  16  17
ENDBRANCH  15  16
ENDBRANCH  14  15
ENDBRANCH  13  14
ENDBRANCH  12  13
ENDBRANCH   1  12
TORSDOF 14
ENDMDL
MODEL 9
REMARK VINA RESULT:    -3.560     10.490     12.043
REMARK INTER + INTRA:          -8.568
REMARK INTER:                  -6.162
REMARK INTRA:                  -2.405
REMARK UNBOUND:                -2.094
REMARK SMILES CCCCCCCCCCCCCC[C@@H](C)C(=O)[O-]
REMARK SMILES IDX 9 1 10 2 11 3 12 4 13 5 14 6 15 7 16 8 17 9 18 10 19 11 8 12
REMARK SMILES IDX 7 13 6 14 5 15 4 16 3 17 2 18 1 19
REMARK H PARENT
REMARK Flexibility Score: inf
ROOT
ATOM      1  C   UNL     1      22.303   3.348  42.932  1.00  0.00     0.000 C 
ENDROOT
BRANCH   1   2
ATOM      2  C   UNL     1      23.390   2.761  43.850  1.00  0.00     0.000 C 
BRANCH   2   3
ATOM      3  C   UNL     1      22.899   2.288  45.231  1.00  0.00     0.000 C 
BRANCH   3   4
ATOM      4  C   UNL     1      23.260   0.823  45.527  1.00  0.00     0.000 C 
BRANCH   4   5
ATOM      5  C   UNL     1      22.034  -0.109  45.524  1.00  0.00     0.001 C 
BRANCH   5   6
ATOM      6  C   UNL     1      21.184  -0.082  44.236  1.00  0.00     0.009 C 
BRANCH   6   7
ATOM      7  C   UNL     1      19.678   0.176  44.466  1.00  0.00     0.032 C 
ATOM      8  C   UNL     1      19.197   1.342  43.596  1.00  0.00     0.014 C 
BRANCH   7   9
ATOM      9  C   UNL     1      18.858  -1.050  44.168  1.00  0.00     0.044 C 
ATOM     10  O   UNL     1      18.012  -1.033  43.236  1.00  0.00    -0.550 OA
ATOM     11  O   UNL     1      19.031  -2.210  44.915  1.00  0.00    -0.550 OA
ENDBRANCH   7   9
ENDBRANCH   6   7
ENDBRANCH   5   6
ENDBRANCH   4   5
ENDBRANCH   3   4
ENDBRANCH   2   3
ENDBRANCH   1   2
BRANCH   1  12
ATOM     12  C   UNL     1      22.223   2.645  41.568  1.00  0.00     0.000 C 
BRANCH  12  13
ATOM     13  C   UNL     1      23.096   1.380  41.552  1.00  0.00    -0.000 C 
BRANCH  13  14
ATOM     14  C   UNL     1      23.849   1.195  40.225  1.00  0.00    -0.000 C 
BRANCH  14  15
ATOM     15  C   UNL     1      24.036   2.519  39.463  1.00  0.00    -0.000 C 
BRANCH  15  16
ATOM     16  C   UNL     1      25.466   3.080  39.580  1.00  0.00    -0.000 C 
BRANCH  16  17
ATOM     17  C   UNL     1      25.765   3.839  40.884  1.00  0.00    -0.000 C 
BRANCH  17  18
ATOM     18  C   UNL     1      25.017   5.176  40.986  1.00  0.00    -0.003 C 
ATOM     19  C   UNL     1      25.165   5.785  42.378  1.00  0.00     0.004 C 
ENDBRANCH  17  18
ENDBRANCH  16  17
ENDBRANCH  15  16
ENDBRANCH  14  15
ENDBRANCH  13  14
ENDBRANCH  12  13
ENDBRANCH   1  12
TORSDOF 14
ENDMDL
