MODEL 1
REMARK VINA RESULT:     1.514      0.000      0.000
REMARK INTER + INTRA:           2.322
REMARK INTER:                   2.310
REMARK INTRA:                   0.012
REMARK UNBOUND:                 0.012
REMARK SMILES CCCCCCCCCCC(=O)[O-]
REMARK SMILES IDX 7 1 8 2 9 3 10 4 11 5 12 6 13 7 6 8 5 9 4 10 3 11 2 12 1 13
REMARK H PARENT
REMARK Flexibility Score: inf
ROOT
ATOM      1  C   UNL     1      -3.811  52.199   7.827  1.00  0.00     0.000 C 
ENDROOT
BRANCH   1   2
ATOM      2  C   UNL     1      -2.583  51.337   8.166  1.00  0.00     0.000 C 
BRANCH   2   3
ATOM      3  C   UNL     1      -1.913  51.758   9.484  1.00  0.00     0.006 C 
BRANCH   3   4
ATOM      4  C   UNL     1      -0.980  50.679  10.047  1.00  0.00     0.053 C 
BRANCH   4   5
ATOM      5  C   UNL     1       0.420  50.895   9.565  1.00  0.00     0.041 C 
ATOM      6  O   UNL     1       0.997  51.996   9.767  1.00  0.00    -0.550 OA
ATOM      7  O   UNL     1       1.106  49.864   8.936  1.00  0.00    -0.550 OA
ENDBRANCH   4   5
ENDBRANCH   3   4
ENDBRANCH   2   3
ENDBRANCH   1   2
BRANCH   1   8
ATOM      8  C   UNL     1      -3.927  53.440   8.728  1.00  0.00     0.000 C 
BRANCH   8   9
ATOM      9  C   UNL     1      -4.526  53.117  10.109  1.00  0.00    -0.000 C 
BRANCH   9  10
ATOM     10  C   UNL     1      -6.060  53.215  10.125  1.00  0.00    -0.000 C 
BRANCH  10  11
ATOM     11  C   UNL     1      -6.562  54.655   9.946  1.00  0.00    -0.000 C 
BRANCH  11  12
ATOM     12  C   UNL     1      -8.054  54.677   9.598  1.00  0.00    -0.003 C 
ATOM     13  C   UNL     1      -8.754  53.413  10.092  1.00  0.00     0.004 C 
ENDBRANCH  11  12
ENDBRANCH  10  11
ENDBRANCH   9  10
ENDBRANCH   8   9
ENDBRANCH   1   8
TORSDOF 9
ENDMDL
