MODEL 1
REMARK VINA RESULT:    -3.057      0.000      0.000
REMARK INTER + INTRA:         -14.051
REMARK INTER:                  -8.060
REMARK INTRA:                  -5.991
REMARK UNBOUND:                -5.991
REMARK SMILES CCCCCCCCCCCCCCCCCCCCCCCCCCCCCC(=O)[O-]
REMARK SMILES IDX 16 1 17 2 18 3 19 4 20 5 21 6 22 7 23 8 24 9 25 10 26 11
REMARK SMILES IDX 27 12 28 13 29 14 30 15 31 16 32 17 15 18 14 19 13 20 12 21
REMARK SMILES IDX 11 22 10 23 9 24 8 25 7 26 6 27 5 28 4 29 3 30 2 31 1 32
REMARK H PARENT
REMARK Flexibility Score: inf
ROOT
ATOM      1  C   UNL     1     -48.068 -47.886  70.990  1.00  0.00     0.000 C 
ENDROOT
BRANCH   1   2
ATOM      2  C   UNL     1     -46.956 -46.970  70.439  1.00  0.00     0.000 C 
BRANCH   2   3
ATOM      3  C   UNL     1     -45.762 -46.782  71.399  1.00  0.00     0.000 C 
BRANCH   3   4
ATOM      4  C   UNL     1     -44.491 -46.297  70.678  1.00  0.00     0.000 C 
BRANCH   4   5
ATOM      5  C   UNL     1     -43.819 -47.399  69.838  1.00  0.00     0.000 C 
BRANCH   5   6
ATOM      6  C   UNL     1     -43.732 -48.780  70.515  1.00  0.00     0.000 C 
BRANCH   6   7
ATOM      7  C   UNL     1     -42.287 -49.278  70.682  1.00  0.00     0.000 C 
BRANCH   7   8
ATOM      8  C   UNL     1     -41.281 -48.437  69.879  1.00  0.00     0.000 C 
BRANCH   8   9
ATOM      9  C   UNL     1     -40.368 -47.586  70.780  1.00  0.00     0.000 C 
BRANCH   9  10
ATOM     10  C   UNL     1     -40.331 -48.096  72.230  1.00  0.00     0.000 C 
BRANCH  10  11
ATOM     11  C   UNL     1     -40.594 -46.981  73.256  1.00  0.00     0.000 C 
BRANCH  11  12
ATOM     12  C   UNL     1     -42.009 -46.378  73.112  1.00  0.00     0.000 C 
BRANCH  12  13
ATOM     13  C   UNL     1     -42.004 -44.858  72.854  1.00  0.00     0.006 C 
BRANCH  13  14
ATOM     14  C   UNL     1     -43.188 -44.111  73.487  1.00  0.00     0.053 C 
BRANCH  14  15
ATOM     15  C   UNL     1     -43.100 -44.079  74.983  1.00  0.00     0.041 C 
ATOM     16  O   UNL     1     -41.987 -43.919  75.550  1.00  0.00    -0.550 OA
ATOM     17  O   UNL     1     -44.250 -44.211  75.754  1.00  0.00    -0.550 OA
ENDBRANCH  14  15
ENDBRANCH  13  14
ENDBRANCH  12  13
ENDBRANCH  11  12
ENDBRANCH  10  11
ENDBRANCH   9  10
ENDBRANCH   8   9
ENDBRANCH   7   8
ENDBRANCH   6   7
ENDBRANCH   5   6
ENDBRANCH   4   5
ENDBRANCH   3   4
ENDBRANCH   2   3
ENDBRANCH   1   2
BRANCH   1  18
ATOM     18  C   UNL     1     -48.285 -49.193  70.210  1.00  0.00     0.000 C 
BRANCH  18  19
ATOM     19  C   UNL     1     -47.127 -50.207  70.289  1.00  0.00     0.000 C 
BRANCH  19  20
ATOM     20  C   UNL     1     -46.499 -50.551  68.921  1.00  0.00     0.000 C 
BRANCH  20  21
ATOM     21  C   UNL     1     -46.847 -49.515  67.838  1.00  0.00     0.000 C 
BRANCH  21  22
ATOM     22  C   UNL     1     -45.603 -48.998  67.098  1.00  0.00     0.000 C 
BRANCH  22  23
ATOM     23  C   UNL     1     -44.399 -49.939  67.243  1.00  0.00     0.000 C 
BRANCH  23  24
ATOM     24  C   UNL     1     -43.128 -49.297  66.666  1.00  0.00    -0.000 C 
BRANCH  24  25
ATOM     25  C   UNL     1     -43.340 -47.840  66.216  1.00  0.00    -0.000 C 
BRANCH  25  26
ATOM     26  C   UNL     1     -42.087 -46.949  66.277  1.00  0.00    -0.000 C 
BRANCH  26  27
ATOM     27  C   UNL     1     -42.335 -45.613  66.996  1.00  0.00    -0.000 C 
BRANCH  27  28
ATOM     28  C   UNL     1     -41.260 -45.294  68.051  1.00  0.00    -0.000 C 
BRANCH  28  29
ATOM     29  C   UNL     1     -41.689 -44.298  69.149  1.00  0.00    -0.000 C 
BRANCH  29  30
ATOM     30  C   UNL     1     -41.442 -42.812  68.818  1.00  0.00    -0.000 C 
BRANCH  30  31
ATOM     31  C   UNL     1     -42.599 -41.868  69.186  1.00  0.00    -0.003 C 
ATOM     32  C   UNL     1     -43.917 -42.607  69.420  1.00  0.00     0.004 C 
ENDBRANCH  30  31
ENDBRANCH  29  30
ENDBRANCH  28  29
ENDBRANCH  27  28
ENDBRANCH  26  27
ENDBRANCH  25  26
ENDBRANCH  24  25
ENDBRANCH  23  24
ENDBRANCH  22  23
ENDBRANCH  21  22
ENDBRANCH  20  21
ENDBRANCH  19  20
ENDBRANCH  18  19
ENDBRANCH   1  18
TORSDOF 28
ENDMDL
MODEL 2
REMARK VINA RESULT:    -3.049      2.579      4.987
REMARK INTER + INTRA:         -14.031
REMARK INTER:                  -9.065
REMARK INTRA:                  -4.965
REMARK UNBOUND:                -5.991
REMARK SMILES CCCCCCCCCCCCCCCCCCCCCCCCCCCCCC(=O)[O-]
REMARK SMILES IDX 16 1 17 2 18 3 19 4 20 5 21 6 22 7 23 8 24 9 25 10 26 11
REMARK SMILES IDX 27 12 28 13 29 14 30 15 31 16 32 17 15 18 14 19 13 20 12 21
REMARK SMILES IDX 11 22 10 23 9 24 8 25 7 26 6 27 5 28 4 29 3 30 2 31 1 32
REMARK H PARENT
REMARK Flexibility Score: inf
ROOT
ATOM      1  C   UNL     1     -48.539 -47.998  71.034  1.00  0.00     0.000 C 
ENDROOT
BRANCH   1   2
ATOM      2  C   UNL     1     -47.438 -47.124  70.401  1.00  0.00     0.000 C 
BRANCH   2   3
ATOM      3  C   UNL     1     -46.168 -46.986  71.267  1.00  0.00     0.000 C 
BRANCH   3   4
ATOM      4  C   UNL     1     -45.034 -47.923  70.815  1.00  0.00     0.000 C 
BRANCH   4   5
ATOM      5  C   UNL     1     -43.946 -47.200  70.000  1.00  0.00     0.000 C 
BRANCH   5   6
ATOM      6  C   UNL     1     -42.738 -48.068  69.601  1.00  0.00     0.000 C 
BRANCH   6   7
ATOM      7  C   UNL     1     -41.914 -47.461  68.454  1.00  0.00     0.000 C 
BRANCH   7   8
ATOM      8  C   UNL     1     -42.696 -46.395  67.670  1.00  0.00     0.000 C 
BRANCH   8   9
ATOM      9  C   UNL     1     -41.807 -45.225  67.212  1.00  0.00     0.000 C 
BRANCH   9  10
ATOM     10  C   UNL     1     -41.765 -44.081  68.239  1.00  0.00     0.000 C 
BRANCH  10  11
ATOM     11  C   UNL     1     -43.167 -43.650  68.701  1.00  0.00     0.000 C 
BRANCH  11  12
ATOM     12  C   UNL     1     -43.160 -43.085  70.139  1.00  0.00     0.000 C 
BRANCH  12  13
ATOM     13  C   UNL     1     -42.481 -44.019  71.159  1.00  0.00     0.006 C 
BRANCH  13  14
ATOM     14  C   UNL     1     -42.500 -43.490  72.602  1.00  0.00     0.053 C 
BRANCH  14  15
ATOM     15  C   UNL     1     -43.337 -44.344  73.506  1.00  0.00     0.041 C 
ATOM     16  O   UNL     1     -43.658 -45.510  73.158  1.00  0.00    -0.550 OA
ATOM     17  O   UNL     1     -43.752 -43.856  74.740  1.00  0.00    -0.550 OA
ENDBRANCH  14  15
ENDBRANCH  13  14
ENDBRANCH  12  13
ENDBRANCH  11  12
ENDBRANCH  10  11
ENDBRANCH   9  10
ENDBRANCH   8   9
ENDBRANCH   7   8
ENDBRANCH   6   7
ENDBRANCH   5   6
ENDBRANCH   4   5
ENDBRANCH   3   4
ENDBRANCH   2   3
ENDBRANCH   1   2
BRANCH   1  18
ATOM     18  C   UNL     1     -48.983 -49.205  70.191  1.00  0.00     0.000 C 
BRANCH  18  19
ATOM     19  C   UNL     1     -48.532 -50.580  70.723  1.00  0.00     0.000 C 
BRANCH  19  20
ATOM     20  C   UNL     1     -47.077 -50.946  70.360  1.00  0.00     0.000 C 
BRANCH  20  21
ATOM     21  C   UNL     1     -46.826 -50.925  68.842  1.00  0.00     0.000 C 
BRANCH  21  22
ATOM     22  C   UNL     1     -45.362 -50.613  68.493  1.00  0.00     0.000 C 
BRANCH  22  23
ATOM     23  C   UNL     1     -45.230 -49.760  67.223  1.00  0.00     0.000 C 
BRANCH  23  24
ATOM     24  C   UNL     1     -46.211 -48.578  67.253  1.00  0.00    -0.000 C 
BRANCH  24  25
ATOM     25  C   UNL     1     -47.184 -48.573  66.059  1.00  0.00    -0.000 C 
BRANCH  25  26
ATOM     26  C   UNL     1     -48.677 -48.601  66.434  1.00  0.00    -0.000 C 
BRANCH  26  27
ATOM     27  C   UNL     1     -49.121 -47.359  67.223  1.00  0.00    -0.000 C 
BRANCH  27  28
ATOM     28  C   UNL     1     -50.369 -46.685  66.624  1.00  0.00    -0.000 C 
BRANCH  28  29
ATOM     29  C   UNL     1     -51.123 -47.517  65.567  1.00  0.00    -0.000 C 
BRANCH  29  30
ATOM     30  C   UNL     1     -50.952 -47.037  64.111  1.00  0.00    -0.000 C 
BRANCH  30  31
ATOM     31  C   UNL     1     -49.995 -45.845  63.934  1.00  0.00    -0.003 C 
ATOM     32  C   UNL     1     -48.678 -46.236  63.263  1.00  0.00     0.004 C 
ENDBRANCH  30  31
ENDBRANCH  29  30
ENDBRANCH  28  29
ENDBRANCH  27  28
ENDBRANCH  26  27
ENDBRANCH  25  26
ENDBRANCH  24  25
ENDBRANCH  23  24
ENDBRANCH  22  23
ENDBRANCH  21  22
ENDBRANCH  20  21
ENDBRANCH  19  20
ENDBRANCH  18  19
ENDBRANCH   1  18
TORSDOF 28
ENDMDL
MODEL 3
REMARK VINA RESULT:    -2.986      3.773      6.564
REMARK INTER + INTRA:         -13.864
REMARK INTER:                  -8.256
REMARK INTRA:                  -5.608
REMARK UNBOUND:                -5.991
REMARK SMILES CCCCCCCCCCCCCCCCCCCCCCCCCCCCCC(=O)[O-]
REMARK SMILES IDX 16 1 17 2 18 3 19 4 20 5 21 6 22 7 23 8 24 9 25 10 26 11
REMARK SMILES IDX 27 12 28 13 29 14 30 15 31 16 32 17 15 18 14 19 13 20 12 21
REMARK SMILES IDX 11 22 10 23 9 24 8 25 7 26 6 27 5 28 4 29 3 30 2 31 1 32
REMARK H PARENT
REMARK Flexibility Score: inf
ROOT
ATOM      1  C   UNL     1     -44.458 -45.983  70.805  1.00  0.00     0.000 C 
ENDROOT
BRANCH   1   2
ATOM      2  C   UNL     1     -45.524 -46.861  71.490  1.00  0.00     0.000 C 
BRANCH   2   3
ATOM      3  C   UNL     1     -46.774 -47.125  70.624  1.00  0.00     0.000 C 
BRANCH   3   4
ATOM      4  C   UNL     1     -47.143 -48.618  70.551  1.00  0.00     0.000 C 
BRANCH   4   5
ATOM      5  C   UNL     1     -45.916 -49.544  70.638  1.00  0.00     0.000 C 
BRANCH   5   6
ATOM      6  C   UNL     1     -46.085 -50.924  69.974  1.00  0.00     0.000 C 
BRANCH   6   7
ATOM      7  C   UNL     1     -45.198 -51.106  68.732  1.00  0.00     0.000 C 
BRANCH   7   8
ATOM      8  C   UNL     1     -45.935 -50.756  67.429  1.00  0.00     0.000 C 
BRANCH   8   9
ATOM      9  C   UNL     1     -45.765 -49.279  67.031  1.00  0.00     0.000 C 
BRANCH   9  10
ATOM     10  C   UNL     1     -47.104 -48.604  66.691  1.00  0.00     0.000 C 
BRANCH  10  11
ATOM     11  C   UNL     1     -48.317 -49.438  67.139  1.00  0.00     0.000 C 
BRANCH  11  12
ATOM     12  C   UNL     1     -49.498 -48.552  67.593  1.00  0.00     0.000 C 
BRANCH  12  13
ATOM     13  C   UNL     1     -49.386 -47.090  67.117  1.00  0.00     0.006 C 
BRANCH  13  14
ATOM     14  C   UNL     1     -50.489 -46.665  66.135  1.00  0.00     0.053 C 
BRANCH  14  15
ATOM     15  C   UNL     1     -49.941 -46.326  64.782  1.00  0.00     0.041 C 
ATOM     16  O   UNL     1     -48.972 -46.977  64.309  1.00  0.00    -0.550 OA
ATOM     17  O   UNL     1     -50.508 -45.300  64.035  1.00  0.00    -0.550 OA
ENDBRANCH  14  15
ENDBRANCH  13  14
ENDBRANCH  12  13
ENDBRANCH  11  12
ENDBRANCH  10  11
ENDBRANCH   9  10
ENDBRANCH   8   9
ENDBRANCH   7   8
ENDBRANCH   6   7
ENDBRANCH   5   6
ENDBRANCH   4   5
ENDBRANCH   3   4
ENDBRANCH   2   3
ENDBRANCH   1   2
BRANCH   1  18
ATOM     18  C   UNL     1     -43.295 -45.540  71.708  1.00  0.00     0.000 C 
BRANCH  18  19
ATOM     19  C   UNL     1     -42.365 -46.674  72.185  1.00  0.00     0.000 C 
BRANCH  19  20
ATOM     20  C   UNL     1     -40.962 -46.646  71.541  1.00  0.00     0.000 C 
BRANCH  20  21
ATOM     21  C   UNL     1     -40.917 -47.389  70.195  1.00  0.00     0.000 C 
BRANCH  21  22
ATOM     22  C   UNL     1     -41.972 -48.503  70.103  1.00  0.00     0.000 C 
BRANCH  22  23
ATOM     23  C   UNL     1     -42.523 -48.676  68.680  1.00  0.00     0.000 C 
BRANCH  23  24
ATOM     24  C   UNL     1     -42.824 -47.312  68.039  1.00  0.00    -0.000 C 
BRANCH  24  25
ATOM     25  C   UNL     1     -42.607 -47.302  66.515  1.00  0.00    -0.000 C 
BRANCH  25  26
ATOM     26  C   UNL     1     -41.503 -46.351  66.019  1.00  0.00    -0.000 C 
BRANCH  26  27
ATOM     27  C   UNL     1     -40.126 -46.658  66.631  1.00  0.00    -0.000 C 
BRANCH  27  28
ATOM     28  C   UNL     1     -39.535 -45.464  67.401  1.00  0.00    -0.000 C 
BRANCH  28  29
ATOM     29  C   UNL     1     -40.411 -44.194  67.421  1.00  0.00    -0.000 C 
BRANCH  29  30
ATOM     30  C   UNL     1     -41.179 -43.950  68.736  1.00  0.00    -0.000 C 
BRANCH  30  31
ATOM     31  C   UNL     1     -42.694 -43.736  68.568  1.00  0.00    -0.003 C 
ATOM     32  C   UNL     1     -43.212 -42.528  69.349  1.00  0.00     0.004 C 
ENDBRANCH  30  31
ENDBRANCH  29  30
ENDBRANCH  28  29
ENDBRANCH  27  28
ENDBRANCH  26  27
ENDBRANCH  25  26
ENDBRANCH  24  25
ENDBRANCH  23  24
ENDBRANCH  22  23
ENDBRANCH  21  22
ENDBRANCH  20  21
ENDBRANCH  19  20
ENDBRANCH  18  19
ENDBRANCH   1  18
TORSDOF 28
ENDMDL
MODEL 4
REMARK VINA RESULT:    -2.982      3.539      7.742
REMARK INTER + INTRA:         -13.855
REMARK INTER:                  -8.488
REMARK INTRA:                  -5.367
REMARK UNBOUND:                -5.991
REMARK SMILES CCCCCCCCCCCCCCCCCCCCCCCCCCCCCC(=O)[O-]
REMARK SMILES IDX 16 1 17 2 18 3 19 4 20 5 21 6 22 7 23 8 24 9 25 10 26 11
REMARK SMILES IDX 27 12 28 13 29 14 30 15 31 16 32 17 15 18 14 19 13 20 12 21
REMARK SMILES IDX 11 22 10 23 9 24 8 25 7 26 6 27 5 28 4 29 3 30 2 31 1 32
REMARK H PARENT
REMARK Flexibility Score: inf
ROOT
ATOM      1  C   UNL     1     -42.053 -45.235  67.102  1.00  0.00     0.000 C 
ENDROOT
BRANCH   1   2
ATOM      2  C   UNL     1     -42.190 -46.657  67.684  1.00  0.00     0.000 C 
BRANCH   2   3
ATOM      3  C   UNL     1     -43.202 -47.549  66.933  1.00  0.00     0.000 C 
BRANCH   3   4
ATOM      4  C   UNL     1     -44.207 -48.233  67.878  1.00  0.00     0.000 C 
BRANCH   4   5
ATOM      5  C   UNL     1     -44.032 -47.811  69.348  1.00  0.00     0.000 C 
BRANCH   5   6
ATOM      6  C   UNL     1     -44.444 -48.870  70.389  1.00  0.00     0.000 C 
BRANCH   6   7
ATOM      7  C   UNL     1     -45.944 -48.830  70.726  1.00  0.00     0.000 C 
BRANCH   7   8
ATOM      8  C   UNL     1     -46.427 -47.414  71.081  1.00  0.00     0.000 C 
BRANCH   8   9
ATOM      9  C   UNL     1     -47.658 -46.986  70.261  1.00  0.00     0.000 C 
BRANCH   9  10
ATOM     10  C   UNL     1     -48.237 -48.138  69.424  1.00  0.00     0.000 C 
BRANCH  10  11
ATOM     11  C   UNL     1     -48.502 -47.731  67.964  1.00  0.00     0.000 C 
BRANCH  11  12
ATOM     12  C   UNL     1     -47.683 -48.578  66.964  1.00  0.00     0.000 C 
BRANCH  12  13
ATOM     13  C   UNL     1     -47.906 -50.095  67.120  1.00  0.00     0.006 C 
BRANCH  13  14
ATOM     14  C   UNL     1     -46.656 -50.869  67.566  1.00  0.00     0.053 C 
BRANCH  14  15
ATOM     15  C   UNL     1     -46.519 -52.181  66.852  1.00  0.00     0.041 C 
ATOM     16  O   UNL     1     -47.478 -52.636  66.175  1.00  0.00    -0.550 OA
ATOM     17  O   UNL     1     -45.329 -52.895  66.925  1.00  0.00    -0.550 OA
ENDBRANCH  14  15
ENDBRANCH  13  14
ENDBRANCH  12  13
ENDBRANCH  11  12
ENDBRANCH  10  11
ENDBRANCH   9  10
ENDBRANCH   8   9
ENDBRANCH   7   8
ENDBRANCH   6   7
ENDBRANCH   5   6
ENDBRANCH   4   5
ENDBRANCH   3   4
ENDBRANCH   2   3
ENDBRANCH   1   2
BRANCH   1  18
ATOM     18  C   UNL     1     -41.957 -44.108  68.144  1.00  0.00     0.000 C 
BRANCH  18  19
ATOM     19  C   UNL     1     -43.159 -43.995  69.103  1.00  0.00     0.000 C 
BRANCH  19  20
ATOM     20  C   UNL     1     -43.687 -42.555  69.279  1.00  0.00     0.000 C 
BRANCH  20  21
ATOM     21  C   UNL     1     -42.765 -41.694  70.158  1.00  0.00     0.000 C 
BRANCH  21  22
ATOM     22  C   UNL     1     -42.392 -42.389  71.477  1.00  0.00     0.000 C 
BRANCH  22  23
ATOM     23  C   UNL     1     -40.879 -42.613  71.617  1.00  0.00     0.000 C 
BRANCH  23  24
ATOM     24  C   UNL     1     -40.585 -43.918  72.372  1.00  0.00    -0.000 C 
BRANCH  24  25
ATOM     25  C   UNL     1     -40.262 -45.096  71.436  1.00  0.00    -0.000 C 
BRANCH  25  26
ATOM     26  C   UNL     1     -41.371 -46.155  71.311  1.00  0.00    -0.000 C 
BRANCH  26  27
ATOM     27  C   UNL     1     -42.215 -46.293  72.590  1.00  0.00    -0.000 C 
BRANCH  27  28
ATOM     28  C   UNL     1     -43.629 -45.704  72.438  1.00  0.00    -0.000 C 
BRANCH  28  29
ATOM     29  C   UNL     1     -44.323 -45.306  73.758  1.00  0.00    -0.000 C 
BRANCH  29  30
ATOM     30  C   UNL     1     -43.372 -45.053  74.946  1.00  0.00    -0.000 C 
BRANCH  30  31
ATOM     31  C   UNL     1     -43.076 -43.571  75.231  1.00  0.00    -0.003 C 
ATOM     32  C   UNL     1     -44.123 -42.631  74.633  1.00  0.00     0.004 C 
ENDBRANCH  30  31
ENDBRANCH  29  30
ENDBRANCH  28  29
ENDBRANCH  27  28
ENDBRANCH  26  27
ENDBRANCH  25  26
ENDBRANCH  24  25
ENDBRANCH  23  24
ENDBRANCH  22  23
ENDBRANCH  21  22
ENDBRANCH  20  21
ENDBRANCH  19  20
ENDBRANCH  18  19
ENDBRANCH   1  18
TORSDOF 28
ENDMDL
MODEL 5
REMARK VINA RESULT:    -2.904      4.191      7.428
REMARK INTER + INTRA:         -13.648
REMARK INTER:                  -8.217
REMARK INTRA:                  -5.432
REMARK UNBOUND:                -5.991
REMARK SMILES CCCCCCCCCCCCCCCCCCCCCCCCCCCCCC(=O)[O-]
REMARK SMILES IDX 16 1 17 2 18 3 19 4 20 5 21 6 22 7 23 8 24 9 25 10 26 11
REMARK SMILES IDX 27 12 28 13 29 14 30 15 31 16 32 17 15 18 14 19 13 20 12 21
REMARK SMILES IDX 11 22 10 23 9 24 8 25 7 26 6 27 5 28 4 29 3 30 2 31 1 32
REMARK H PARENT
REMARK Flexibility Score: inf
ROOT
ATOM      1  C   UNL     1     -44.783 -49.629  68.930  1.00  0.00     0.000 C 
ENDROOT
BRANCH   1   2
ATOM      2  C   UNL     1     -44.450 -48.913  70.255  1.00  0.00     0.000 C 
BRANCH   2   3
ATOM      3  C   UNL     1     -44.800 -47.410  70.264  1.00  0.00     0.000 C 
BRANCH   3   4
ATOM      4  C   UNL     1     -45.959 -47.075  71.220  1.00  0.00     0.000 C 
BRANCH   4   5
ATOM      5  C   UNL     1     -47.324 -47.013  70.511  1.00  0.00     0.000 C 
BRANCH   5   6
ATOM      6  C   UNL     1     -48.387 -47.990  71.046  1.00  0.00     0.000 C 
BRANCH   6   7
ATOM      7  C   UNL     1     -48.158 -49.439  70.586  1.00  0.00     0.000 C 
BRANCH   7   8
ATOM      8  C   UNL     1     -48.727 -49.704  69.182  1.00  0.00     0.000 C 
BRANCH   8   9
ATOM      9  C   UNL     1     -50.122 -49.087  68.982  1.00  0.00     0.000 C 
BRANCH   9  10
ATOM     10  C   UNL     1     -50.380 -48.675  67.524  1.00  0.00     0.000 C 
BRANCH  10  11
ATOM     11  C   UNL     1     -49.291 -49.186  66.564  1.00  0.00     0.000 C 
BRANCH  11  12
ATOM     12  C   UNL     1     -48.512 -48.030  65.898  1.00  0.00     0.000 C 
BRANCH  12  13
ATOM     13  C   UNL     1     -49.182 -47.498  64.617  1.00  0.00     0.006 C 
BRANCH  13  14
ATOM     14  C   UNL     1     -50.016 -46.225  64.828  1.00  0.00     0.053 C 
BRANCH  14  15
ATOM     15  C   UNL     1     -51.417 -46.376  64.315  1.00  0.00     0.041 C 
ATOM     16  O   UNL     1     -52.189 -47.232  64.821  1.00  0.00    -0.550 OA
ATOM     17  O   UNL     1     -51.875 -45.562  63.285  1.00  0.00    -0.550 OA
ENDBRANCH  14  15
ENDBRANCH  13  14
ENDBRANCH  12  13
ENDBRANCH  11  12
ENDBRANCH  10  11
ENDBRANCH   9  10
ENDBRANCH   8   9
ENDBRANCH   7   8
ENDBRANCH   6   7
ENDBRANCH   5   6
ENDBRANCH   4   5
ENDBRANCH   3   4
ENDBRANCH   2   3
ENDBRANCH   1   2
BRANCH   1  18
ATOM     18  C   UNL     1     -45.450 -48.749  67.860  1.00  0.00     0.000 C 
BRANCH  18  19
ATOM     19  C   UNL     1     -44.694 -48.658  66.519  1.00  0.00     0.000 C 
BRANCH  19  20
ATOM     20  C   UNL     1     -43.175 -48.428  66.670  1.00  0.00     0.000 C 
BRANCH  20  21
ATOM     21  C   UNL     1     -42.837 -46.989  67.095  1.00  0.00     0.000 C 
BRANCH  21  22
ATOM     22  C   UNL     1     -41.732 -46.935  68.162  1.00  0.00     0.000 C 
BRANCH  22  23
ATOM     23  C   UNL     1     -41.166 -48.324  68.492  1.00  0.00     0.000 C 
BRANCH  23  24
ATOM     24  C   UNL     1     -40.846 -48.443  69.990  1.00  0.00    -0.000 C 
BRANCH  24  25
ATOM     25  C   UNL     1     -40.912 -47.095  70.730  1.00  0.00    -0.000 C 
BRANCH  25  26
ATOM     26  C   UNL     1     -41.721 -47.107  72.039  1.00  0.00    -0.000 C 
BRANCH  26  27
ATOM     27  C   UNL     1     -41.737 -45.742  72.747  1.00  0.00    -0.000 C 
BRANCH  27  28
ATOM     28  C   UNL     1     -43.030 -44.949  72.487  1.00  0.00    -0.000 C 
BRANCH  28  29
ATOM     29  C   UNL     1     -42.905 -43.803  71.461  1.00  0.00    -0.000 C 
BRANCH  29  30
ATOM     30  C   UNL     1     -43.253 -44.184  70.008  1.00  0.00    -0.000 C 
BRANCH  30  31
ATOM     31  C   UNL     1     -42.864 -43.133  68.954  1.00  0.00    -0.003 C 
ATOM     32  C   UNL     1     -41.389 -43.207  68.559  1.00  0.00     0.004 C 
ENDBRANCH  30  31
ENDBRANCH  29  30
ENDBRANCH  28  29
ENDBRANCH  27  28
ENDBRANCH  26  27
ENDBRANCH  25  26
ENDBRANCH  24  25
ENDBRANCH  23  24
ENDBRANCH  22  23
ENDBRANCH  21  22
ENDBRANCH  20  21
ENDBRANCH  19  20
ENDBRANCH  18  19
ENDBRANCH   1  18
TORSDOF 28
ENDMDL
MODEL 6
REMARK VINA RESULT:    -2.901      2.085      5.525
REMARK INTER + INTRA:         -13.640
REMARK INTER:                  -8.344
REMARK INTRA:                  -5.297
REMARK UNBOUND:                -5.991
REMARK SMILES CCCCCCCCCCCCCCCCCCCCCCCCCCCCCC(=O)[O-]
REMARK SMILES IDX 16 1 17 2 18 3 19 4 20 5 21 6 22 7 23 8 24 9 25 10 26 11
REMARK SMILES IDX 27 12 28 13 29 14 30 15 31 16 32 17 15 18 14 19 13 20 12 21
REMARK SMILES IDX 11 22 10 23 9 24 8 25 7 26 6 27 5 28 4 29 3 30 2 31 1 32
REMARK H PARENT
REMARK Flexibility Score: inf
ROOT
ATOM      1  C   UNL     1     -42.507 -45.007  67.363  1.00  0.00     0.000 C 
ENDROOT
BRANCH   1   2
ATOM      2  C   UNL     1     -42.017 -44.063  68.480  1.00  0.00     0.000 C 
BRANCH   2   3
ATOM      3  C   UNL     1     -43.108 -43.677  69.501  1.00  0.00     0.000 C 
BRANCH   3   4
ATOM      4  C   UNL     1     -43.650 -42.252  69.282  1.00  0.00     0.000 C 
BRANCH   4   5
ATOM      5  C   UNL     1     -43.091 -41.235  70.293  1.00  0.00     0.000 C 
BRANCH   5   6
ATOM      6  C   UNL     1     -41.737 -40.606  69.911  1.00  0.00     0.000 C 
BRANCH   6   7
ATOM      7  C   UNL     1     -40.565 -41.151  70.744  1.00  0.00     0.000 C 
BRANCH   7   8
ATOM      8  C   UNL     1     -41.026 -41.752  72.081  1.00  0.00     0.000 C 
BRANCH   8   9
ATOM      9  C   UNL     1     -40.632 -43.232  72.232  1.00  0.00     0.000 C 
BRANCH   9  10
ATOM     10  C   UNL     1     -41.499 -43.969  73.266  1.00  0.00     0.000 C 
BRANCH  10  11
ATOM     11  C   UNL     1     -43.001 -43.685  73.088  1.00  0.00     0.000 C 
BRANCH  11  12
ATOM     12  C   UNL     1     -43.730 -43.530  74.440  1.00  0.00     0.000 C 
BRANCH  12  13
ATOM     13  C   UNL     1     -43.883 -42.063  74.888  1.00  0.00     0.006 C 
BRANCH  13  14
ATOM     14  C   UNL     1     -44.421 -41.127  73.796  1.00  0.00     0.053 C 
BRANCH  14  15
ATOM     15  C   UNL     1     -45.696 -40.452  74.207  1.00  0.00     0.041 C 
ATOM     16  O   UNL     1     -46.400 -39.853  73.352  1.00  0.00    -0.550 OA
ATOM     17  O   UNL     1     -46.113 -40.496  75.532  1.00  0.00    -0.550 OA
ENDBRANCH  14  15
ENDBRANCH  13  14
ENDBRANCH  12  13
ENDBRANCH  11  12
ENDBRANCH  10  11
ENDBRANCH   9  10
ENDBRANCH   8   9
ENDBRANCH   7   8
ENDBRANCH   6   7
ENDBRANCH   5   6
ENDBRANCH   4   5
ENDBRANCH   3   4
ENDBRANCH   2   3
ENDBRANCH   1   2
BRANCH   1  18
ATOM     18  C   UNL     1     -41.856 -46.400  67.351  1.00  0.00     0.000 C 
BRANCH  18  19
ATOM     19  C   UNL     1     -42.724 -47.526  66.755  1.00  0.00     0.000 C 
BRANCH  19  20
ATOM     20  C   UNL     1     -43.741 -48.127  67.749  1.00  0.00     0.000 C 
BRANCH  20  21
ATOM     21  C   UNL     1     -45.029 -48.604  67.056  1.00  0.00     0.000 C 
BRANCH  21  22
ATOM     22  C   UNL     1     -46.202 -48.757  68.037  1.00  0.00     0.000 C 
BRANCH  22  23
ATOM     23  C   UNL     1     -45.735 -48.981  69.483  1.00  0.00     0.000 C 
BRANCH  23  24
ATOM     24  C   UNL     1     -46.778 -48.460  70.484  1.00  0.00    -0.000 C 
BRANCH  24  25
ATOM     25  C   UNL     1     -46.322 -47.188  71.221  1.00  0.00    -0.000 C 
BRANCH  25  26
ATOM     26  C   UNL     1     -45.003 -46.577  70.715  1.00  0.00    -0.000 C 
BRANCH  26  27
ATOM     27  C   UNL     1     -43.831 -46.792  71.687  1.00  0.00    -0.000 C 
BRANCH  27  28
ATOM     28  C   UNL     1     -42.462 -46.789  70.982  1.00  0.00    -0.000 C 
BRANCH  28  29
ATOM     29  C   UNL     1     -41.525 -47.955  71.356  1.00  0.00    -0.000 C 
BRANCH  29  30
ATOM     30  C   UNL     1     -40.867 -48.675  70.162  1.00  0.00    -0.000 C 
BRANCH  30  31
ATOM     31  C   UNL     1     -41.200 -50.173  70.048  1.00  0.00    -0.003 C 
ATOM     32  C   UNL     1     -42.656 -50.485  70.395  1.00  0.00     0.004 C 
ENDBRANCH  30  31
ENDBRANCH  29  30
ENDBRANCH  28  29
ENDBRANCH  27  28
ENDBRANCH  26  27
ENDBRANCH  25  26
ENDBRANCH  24  25
ENDBRANCH  23  24
ENDBRANCH  22  23
ENDBRANCH  21  22
ENDBRANCH  20  21
ENDBRANCH  19  20
ENDBRANCH  18  19
ENDBRANCH   1  18
TORSDOF 28
ENDMDL
MODEL 7
REMARK VINA RESULT:    -2.891      3.481      6.335
REMARK INTER + INTRA:         -13.613
REMARK INTER:                  -8.133
REMARK INTRA:                  -5.480
REMARK UNBOUND:                -5.991
REMARK SMILES CCCCCCCCCCCCCCCCCCCCCCCCCCCCCC(=O)[O-]
REMARK SMILES IDX 16 1 17 2 18 3 19 4 20 5 21 6 22 7 23 8 24 9 25 10 26 11
REMARK SMILES IDX 27 12 28 13 29 14 30 15 31 16 32 17 15 18 14 19 13 20 12 21
REMARK SMILES IDX 11 22 10 23 9 24 8 25 7 26 6 27 5 28 4 29 3 30 2 31 1 32
REMARK H PARENT
REMARK Flexibility Score: inf
ROOT
ATOM      1  C   UNL     1     -45.568 -46.754  71.478  1.00  0.00     0.000 C 
ENDROOT
BRANCH   1   2
ATOM      2  C   UNL     1     -46.792 -47.151  70.629  1.00  0.00     0.000 C 
BRANCH   2   3
ATOM      3  C   UNL     1     -47.193 -48.636  70.758  1.00  0.00     0.000 C 
BRANCH   3   4
ATOM      4  C   UNL     1     -46.031 -49.595  70.437  1.00  0.00     0.000 C 
BRANCH   4   5
ATOM      5  C   UNL     1     -46.470 -51.069  70.369  1.00  0.00     0.000 C 
BRANCH   5   6
ATOM      6  C   UNL     1     -47.981 -51.296  70.170  1.00  0.00     0.000 C 
BRANCH   6   7
ATOM      7  C   UNL     1     -48.311 -52.035  68.863  1.00  0.00     0.000 C 
BRANCH   7   8
ATOM      8  C   UNL     1     -47.051 -52.406  68.065  1.00  0.00     0.000 C 
BRANCH   8   9
ATOM      9  C   UNL     1     -47.071 -51.844  66.632  1.00  0.00     0.000 C 
BRANCH   9  10
ATOM     10  C   UNL     1     -45.956 -50.815  66.387  1.00  0.00     0.000 C 
BRANCH  10  11
ATOM     11  C   UNL     1     -46.500 -49.456  65.915  1.00  0.00     0.000 C 
BRANCH  11  12
ATOM     12  C   UNL     1     -47.139 -48.650  67.068  1.00  0.00     0.000 C 
BRANCH  12  13
ATOM     13  C   UNL     1     -48.562 -48.150  66.751  1.00  0.00     0.006 C 
BRANCH  13  14
ATOM     14  C   UNL     1     -49.467 -48.014  67.984  1.00  0.00     0.053 C 
BRANCH  14  15
ATOM     15  C   UNL     1     -50.796 -48.681  67.786  1.00  0.00     0.041 C 
ATOM     16  O   UNL     1     -50.913 -49.923  67.952  1.00  0.00    -0.550 OA
ATOM     17  O   UNL     1     -51.909 -47.927  67.430  1.00  0.00    -0.550 OA
ENDBRANCH  14  15
ENDBRANCH  13  14
ENDBRANCH  12  13
ENDBRANCH  11  12
ENDBRANCH  10  11
ENDBRANCH   9  10
ENDBRANCH   8   9
ENDBRANCH   7   8
ENDBRANCH   6   7
ENDBRANCH   5   6
ENDBRANCH   4   5
ENDBRANCH   3   4
ENDBRANCH   2   3
ENDBRANCH   1   2
BRANCH   1  18
ATOM     18  C   UNL     1     -44.332 -46.309  70.678  1.00  0.00     0.000 C 
BRANCH  18  19
ATOM     19  C   UNL     1     -43.033 -46.174  71.497  1.00  0.00     0.000 C 
BRANCH  19  20
ATOM     20  C   UNL     1     -41.906 -47.129  71.047  1.00  0.00     0.000 C 
BRANCH  20  21
ATOM     21  C   UNL     1     -42.445 -48.484  70.556  1.00  0.00     0.000 C 
BRANCH  21  22
ATOM     22  C   UNL     1     -42.025 -48.793  69.110  1.00  0.00     0.000 C 
BRANCH  22  23
ATOM     23  C   UNL     1     -43.228 -49.064  68.194  1.00  0.00     0.000 C 
BRANCH  23  24
ATOM     24  C   UNL     1     -43.567 -47.823  67.354  1.00  0.00    -0.000 C 
BRANCH  24  25
ATOM     25  C   UNL     1     -42.319 -47.064  66.869  1.00  0.00    -0.000 C 
BRANCH  25  26
ATOM     26  C   UNL     1     -42.375 -45.536  67.046  1.00  0.00    -0.000 C 
BRANCH  26  27
ATOM     27  C   UNL     1     -41.081 -44.953  67.639  1.00  0.00    -0.000 C 
BRANCH  27  28
ATOM     28  C   UNL     1     -41.331 -44.100  68.896  1.00  0.00    -0.000 C 
BRANCH  28  29
ATOM     29  C   UNL     1     -42.671 -43.337  68.918  1.00  0.00    -0.000 C 
BRANCH  29  30
ATOM     30  C   UNL     1     -42.992 -42.615  70.243  1.00  0.00    -0.000 C 
BRANCH  30  31
ATOM     31  C   UNL     1     -43.080 -41.082  70.137  1.00  0.00    -0.003 C 
ATOM     32  C   UNL     1     -41.969 -40.481  69.276  1.00  0.00     0.004 C 
ENDBRANCH  30  31
ENDBRANCH  29  30
ENDBRANCH  28  29
ENDBRANCH  27  28
ENDBRANCH  26  27
ENDBRANCH  25  26
ENDBRANCH  24  25
ENDBRANCH  23  24
ENDBRANCH  22  23
ENDBRANCH  21  22
ENDBRANCH  20  21
ENDBRANCH  19  20
ENDBRANCH  18  19
ENDBRANCH   1  18
TORSDOF 28
ENDMDL
MODEL 8
REMARK VINA RESULT:    -2.873      2.785      7.184
REMARK INTER + INTRA:         -13.567
REMARK INTER:                  -9.138
REMARK INTRA:                  -4.429
REMARK UNBOUND:                -5.991
REMARK SMILES CCCCCCCCCCCCCCCCCCCCCCCCCCCCCC(=O)[O-]
REMARK SMILES IDX 16 1 17 2 18 3 19 4 20 5 21 6 22 7 23 8 24 9 25 10 26 11
REMARK SMILES IDX 27 12 28 13 29 14 30 15 31 16 32 17 15 18 14 19 13 20 12 21
REMARK SMILES IDX 11 22 10 23 9 24 8 25 7 26 6 27 5 28 4 29 3 30 2 31 1 32
REMARK H PARENT
REMARK Flexibility Score: inf
ROOT
ATOM      1  C   UNL     1     -43.430 -42.818  75.387  1.00  0.00     0.000 C 
ENDROOT
BRANCH   1   2
ATOM      2  C   UNL     1     -43.780 -42.519  73.915  1.00  0.00     0.000 C 
BRANCH   2   3
ATOM      3  C   UNL     1     -42.710 -41.695  73.169  1.00  0.00     0.000 C 
BRANCH   3   4
ATOM      4  C   UNL     1     -42.337 -42.301  71.803  1.00  0.00     0.000 C 
BRANCH   4   5
ATOM      5  C   UNL     1     -43.408 -42.055  70.725  1.00  0.00     0.000 C 
BRANCH   5   6
ATOM      6  C   UNL     1     -42.922 -42.201  69.271  1.00  0.00     0.000 C 
BRANCH   6   7
ATOM      7  C   UNL     1     -41.407 -42.442  69.164  1.00  0.00     0.000 C 
BRANCH   7   8
ATOM      8  C   UNL     1     -40.621 -41.139  68.939  1.00  0.00     0.000 C 
BRANCH   8   9
ATOM      9  C   UNL     1     -41.539 -39.923  68.723  1.00  0.00     0.000 C 
BRANCH   9  10
ATOM     10  C   UNL     1     -41.548 -38.971  69.929  1.00  0.00     0.000 C 
BRANCH  10  11
ATOM     11  C   UNL     1     -42.964 -38.490  70.292  1.00  0.00     0.000 C 
BRANCH  11  12
ATOM     12  C   UNL     1     -43.123 -38.237  71.808  1.00  0.00     0.000 C 
BRANCH  12  13
ATOM     13  C   UNL     1     -44.590 -38.063  72.249  1.00  0.00     0.006 C 
BRANCH  13  14
ATOM     14  C   UNL     1     -45.401 -39.368  72.256  1.00  0.00     0.053 C 
BRANCH  14  15
ATOM     15  C   UNL     1     -46.394 -39.410  73.378  1.00  0.00     0.041 C 
ATOM     16  O   UNL     1     -46.217 -40.188  74.352  1.00  0.00    -0.550 OA
ATOM     17  O   UNL     1     -47.509 -38.580  73.355  1.00  0.00    -0.550 OA
ENDBRANCH  14  15
ENDBRANCH  13  14
ENDBRANCH  12  13
ENDBRANCH  11  12
ENDBRANCH  10  11
ENDBRANCH   9  10
ENDBRANCH   8   9
ENDBRANCH   7   8
ENDBRANCH   6   7
ENDBRANCH   5   6
ENDBRANCH   4   5
ENDBRANCH   3   4
ENDBRANCH   2   3
ENDBRANCH   1   2
BRANCH   1  18
ATOM     18  C   UNL     1     -42.729 -44.164  75.633  1.00  0.00     0.000 C 
BRANCH  18  19
ATOM     19  C   UNL     1     -43.040 -45.266  74.602  1.00  0.00     0.000 C 
BRANCH  19  20
ATOM     20  C   UNL     1     -41.808 -45.748  73.807  1.00  0.00     0.000 C 
BRANCH  20  21
ATOM     21  C   UNL     1     -42.120 -45.975  72.318  1.00  0.00     0.000 C 
BRANCH  21  22
ATOM     22  C   UNL     1     -43.595 -45.705  71.979  1.00  0.00     0.000 C 
BRANCH  22  23
ATOM     23  C   UNL     1     -43.875 -45.779  70.471  1.00  0.00     0.000 C 
BRANCH  23  24
ATOM     24  C   UNL     1     -43.580 -47.186  69.927  1.00  0.00    -0.000 C 
BRANCH  24  25
ATOM     25  C   UNL     1     -44.855 -47.971  69.568  1.00  0.00    -0.000 C 
BRANCH  25  26
ATOM     26  C   UNL     1     -45.730 -48.379  70.767  1.00  0.00    -0.000 C 
BRANCH  26  27
ATOM     27  C   UNL     1     -47.080 -47.644  70.801  1.00  0.00    -0.000 C 
BRANCH  27  28
ATOM     28  C   UNL     1     -48.284 -48.602  70.739  1.00  0.00    -0.000 C 
BRANCH  28  29
ATOM     29  C   UNL     1     -49.067 -48.589  69.410  1.00  0.00    -0.000 C 
BRANCH  29  30
ATOM     30  C   UNL     1     -48.524 -47.622  68.339  1.00  0.00    -0.000 C 
BRANCH  30  31
ATOM     31  C   UNL     1     -48.127 -48.289  67.010  1.00  0.00    -0.003 C 
ATOM     32  C   UNL     1     -47.187 -49.480  67.201  1.00  0.00     0.004 C 
ENDBRANCH  30  31
ENDBRANCH  29  30
ENDBRANCH  28  29
ENDBRANCH  27  28
ENDBRANCH  26  27
ENDBRANCH  25  26
ENDBRANCH  24  25
ENDBRANCH  23  24
ENDBRANCH  22  23
ENDBRANCH  21  22
ENDBRANCH  20  21
ENDBRANCH  19  20
ENDBRANCH  18  19
ENDBRANCH   1  18
TORSDOF 28
ENDMDL
MODEL 9
REMARK VINA RESULT:    -2.859      3.430      7.134
REMARK INTER + INTRA:         -13.531
REMARK INTER:                  -7.977
REMARK INTRA:                  -5.554
REMARK UNBOUND:                -5.991
REMARK SMILES CCCCCCCCCCCCCCCCCCCCCCCCCCCCCC(=O)[O-]
REMARK SMILES IDX 16 1 17 2 18 3 19 4 20 5 21 6 22 7 23 8 24 9 25 10 26 11
REMARK SMILES IDX 27 12 28 13 29 14 30 15 31 16 32 17 15 18 14 19 13 20 12 21
REMARK SMILES IDX 11 22 10 23 9 24 8 25 7 26 6 27 5 28 4 29 3 30 2 31 1 32
REMARK H PARENT
REMARK Flexibility Score: inf
ROOT
ATOM      1  C   UNL     1     -40.966 -46.349  72.235  1.00  0.00     0.000 C 
ENDROOT
BRANCH   1   2
ATOM      2  C   UNL     1     -40.723 -47.401  71.134  1.00  0.00     0.000 C 
BRANCH   2   3
ATOM      3  C   UNL     1     -41.250 -48.809  71.481  1.00  0.00     0.000 C 
BRANCH   3   4
ATOM      4  C   UNL     1     -42.424 -49.243  70.584  1.00  0.00     0.000 C 
BRANCH   4   5
ATOM      5  C   UNL     1     -42.701 -48.254  69.437  1.00  0.00     0.000 C 
BRANCH   5   6
ATOM      6  C   UNL     1     -44.118 -47.650  69.419  1.00  0.00     0.000 C 
BRANCH   6   7
ATOM      7  C   UNL     1     -44.929 -47.980  70.682  1.00  0.00     0.000 C 
BRANCH   7   8
ATOM      8  C   UNL     1     -45.990 -46.911  70.992  1.00  0.00     0.000 C 
BRANCH   8   9
ATOM      9  C   UNL     1     -47.421 -47.478  70.985  1.00  0.00     0.000 C 
BRANCH   9  10
ATOM     10  C   UNL     1     -47.450 -49.002  70.787  1.00  0.00     0.000 C 
BRANCH  10  11
ATOM     11  C   UNL     1     -48.264 -49.421  69.551  1.00  0.00     0.000 C 
BRANCH  11  12
ATOM     12  C   UNL     1     -47.377 -49.590  68.297  1.00  0.00     0.000 C 
BRANCH  12  13
ATOM     13  C   UNL     1     -47.487 -48.414  67.307  1.00  0.00     0.006 C 
BRANCH  13  14
ATOM     14  C   UNL     1     -48.805 -47.631  67.407  1.00  0.00     0.053 C 
BRANCH  14  15
ATOM     15  C   UNL     1     -49.514 -47.548  66.089  1.00  0.00     0.041 C 
ATOM     16  O   UNL     1     -49.467 -48.514  65.282  1.00  0.00    -0.550 OA
ATOM     17  O   UNL     1     -50.239 -46.409  65.756  1.00  0.00    -0.550 OA
ENDBRANCH  14  15
ENDBRANCH  13  14
ENDBRANCH  12  13
ENDBRANCH  11  12
ENDBRANCH  10  11
ENDBRANCH   9  10
ENDBRANCH   8   9
ENDBRANCH   7   8
ENDBRANCH   6   7
ENDBRANCH   5   6
ENDBRANCH   4   5
ENDBRANCH   3   4
ENDBRANCH   2   3
ENDBRANCH   1   2
BRANCH   1  18
ATOM     18  C   UNL     1     -42.403 -46.290  72.779  1.00  0.00     0.000 C 
BRANCH  18  19
ATOM     19  C   UNL     1     -43.198 -45.025  72.400  1.00  0.00     0.000 C 
BRANCH  19  20
ATOM     20  C   UNL     1     -42.505 -44.142  71.341  1.00  0.00     0.000 C 
BRANCH  20  21
ATOM     21  C   UNL     1     -43.182 -44.236  69.963  1.00  0.00     0.000 C 
BRANCH  21  22
ATOM     22  C   UNL     1     -43.646 -42.866  69.442  1.00  0.00     0.000 C 
BRANCH  22  23
ATOM     23  C   UNL     1     -42.698 -41.730  69.849  1.00  0.00     0.000 C 
BRANCH  23  24
ATOM     24  C   UNL     1     -41.561 -41.572  68.828  1.00  0.00    -0.000 C 
BRANCH  24  25
ATOM     25  C   UNL     1     -40.257 -41.046  69.456  1.00  0.00    -0.000 C 
BRANCH  25  26
ATOM     26  C   UNL     1     -39.052 -41.998  69.351  1.00  0.00    -0.000 C 
BRANCH  26  27
ATOM     27  C   UNL     1     -39.151 -43.198  70.308  1.00  0.00    -0.000 C 
BRANCH  27  28
ATOM     28  C   UNL     1     -39.092 -44.552  69.577  1.00  0.00    -0.000 C 
BRANCH  28  29
ATOM     29  C   UNL     1     -39.571 -44.530  68.110  1.00  0.00    -0.000 C 
BRANCH  29  30
ATOM     30  C   UNL     1     -40.426 -45.741  67.683  1.00  0.00    -0.000 C 
BRANCH  30  31
ATOM     31  C   UNL     1     -41.763 -45.381  67.013  1.00  0.00    -0.003 C 
ATOM     32  C   UNL     1     -41.914 -45.996  65.621  1.00  0.00     0.004 C 
ENDBRANCH  30  31
ENDBRANCH  29  30
ENDBRANCH  28  29
ENDBRANCH  27  28
ENDBRANCH  26  27
ENDBRANCH  25  26
ENDBRANCH  24  25
ENDBRANCH  23  24
ENDBRANCH  22  23
ENDBRANCH  21  22
ENDBRANCH  20  21
ENDBRANCH  19  20
ENDBRANCH  18  19
ENDBRANCH   1  18
TORSDOF 28
ENDMDL
