MODEL 1
REMARK VINA RESULT:    -5.725      0.000      0.000
REMARK INTER + INTRA:         -13.064
REMARK INTER:                 -11.080
REMARK INTRA:                  -1.984
REMARK UNBOUND:                -1.984
REMARK SMILES CCCCCCCCCCCCCCCCCC(=O)[O-]
REMARK SMILES IDX 10 1 11 2 12 3 13 4 14 5 15 6 16 7 17 8 18 9 19 10 20 11
REMARK SMILES IDX 9 12 8 13 7 14 6 15 5 16 4 17 3 18 2 19 1 20
REMARK H PARENT
REMARK Flexibility Score: inf
ROOT
ATOM      1  C   UNL     1      60.936 151.895   2.476  1.00  0.00     0.000 C 
ENDROOT
BRANCH   1   2
ATOM      2  C   UNL     1      61.304 152.900   1.367  1.00  0.00     0.000 C 
BRANCH   2   3
ATOM      3  C   UNL     1      60.147 153.789   0.877  1.00  0.00     0.000 C 
BRANCH   3   4
ATOM      4  C   UNL     1      58.858 153.593   1.693  1.00  0.00     0.000 C 
BRANCH   4   5
ATOM      5  C   UNL     1      58.208 154.925   2.111  1.00  0.00     0.000 C 
BRANCH   5   6
ATOM      6  C   UNL     1      58.219 155.217   3.625  1.00  0.00     0.000 C 
BRANCH   6   7
ATOM      7  C   UNL     1      58.628 154.030   4.520  1.00  0.00     0.006 C 
BRANCH   7   8
ATOM      8  C   UNL     1      59.713 154.362   5.557  1.00  0.00     0.053 C 
BRANCH   8   9
ATOM      9  C   UNL     1      59.343 155.547   6.395  1.00  0.00     0.041 C 
ATOM     10  O   UNL     1      58.367 155.481   7.188  1.00  0.00    -0.550 OA
ATOM     11  O   UNL     1      60.097 156.711   6.327  1.00  0.00    -0.550 OA
ENDBRANCH   8   9
ENDBRANCH   7   8
ENDBRANCH   6   7
ENDBRANCH   5   6
ENDBRANCH   4   5
ENDBRANCH   3   4
ENDBRANCH   2   3
ENDBRANCH   1   2
BRANCH   1  12
ATOM     12  C   UNL     1      61.930 151.820   3.652  1.00  0.00     0.000 C 
BRANCH  12  13
ATOM     13  C   UNL     1      63.392 151.550   3.253  1.00  0.00    -0.000 C 
BRANCH  13  14
ATOM     14  C   UNL     1      64.401 152.257   4.175  1.00  0.00    -0.000 C 
BRANCH  14  15
ATOM     15  C   UNL     1      65.008 151.309   5.222  1.00  0.00    -0.000 C 
BRANCH  15  16
ATOM     16  C   UNL     1      64.947 149.834   4.788  1.00  0.00    -0.000 C 
BRANCH  16  17
ATOM     17  C   UNL     1      64.368 148.921   5.882  1.00  0.00    -0.000 C 
BRANCH  17  18
ATOM     18  C   UNL     1      62.964 149.357   6.337  1.00  0.00    -0.000 C 
BRANCH  18  19
ATOM     19  C   UNL     1      61.846 148.615   5.589  1.00  0.00    -0.003 C 
ATOM     20  C   UNL     1      62.236 147.186   5.211  1.00  0.00     0.004 C 
ENDBRANCH  18  19
ENDBRANCH  17  18
ENDBRANCH  16  17
ENDBRANCH  15  16
ENDBRANCH  14  15
ENDBRANCH  13  14
ENDBRANCH  12  13
ENDBRANCH   1  12
TORSDOF 16
ENDMDL
MODEL 2
REMARK VINA RESULT:    -5.687      2.804      6.591
REMARK INTER + INTRA:         -12.990
REMARK INTER:                 -10.755
REMARK INTRA:                  -2.235
REMARK UNBOUND:                -1.984
REMARK SMILES CCCCCCCCCCCCCCCCCC(=O)[O-]
REMARK SMILES IDX 10 1 11 2 12 3 13 4 14 5 15 6 16 7 17 8 18 9 19 10 20 11
REMARK SMILES IDX 9 12 8 13 7 14 6 15 5 16 4 17 3 18 2 19 1 20
REMARK H PARENT
REMARK Flexibility Score: inf
ROOT
ATOM      1  C   UNL     1      60.962 151.808   2.404  1.00  0.00     0.000 C 
ENDROOT
BRANCH   1   2
ATOM      2  C   UNL     1      61.941 151.672   3.587  1.00  0.00     0.000 C 
BRANCH   2   3
ATOM      3  C   UNL     1      63.430 151.614   3.202  1.00  0.00     0.000 C 
BRANCH   3   4
ATOM      4  C   UNL     1      64.339 152.311   4.229  1.00  0.00     0.000 C 
BRANCH   4   5
ATOM      5  C   UNL     1      64.738 151.389   5.396  1.00  0.00     0.000 C 
BRANCH   5   6
ATOM      6  C   UNL     1      65.114 149.948   4.998  1.00  0.00     0.000 C 
BRANCH   6   7
ATOM      7  C   UNL     1      64.337 148.839   5.736  1.00  0.00     0.006 C 
BRANCH   7   8
ATOM      8  C   UNL     1      62.943 149.261   6.226  1.00  0.00     0.053 C 
BRANCH   8   9
ATOM      9  C   UNL     1      61.884 148.290   5.805  1.00  0.00     0.041 C 
ATOM     10  O   UNL     1      60.672 148.531   6.047  1.00  0.00    -0.550 OA
ATOM     11  O   UNL     1      62.231 147.136   5.115  1.00  0.00    -0.550 OA
ENDBRANCH   8   9
ENDBRANCH   7   8
ENDBRANCH   6   7
ENDBRANCH   5   6
ENDBRANCH   4   5
ENDBRANCH   3   4
ENDBRANCH   2   3
ENDBRANCH   1   2
BRANCH   1  12
ATOM     12  C   UNL     1      61.213 153.015   1.479  1.00  0.00     0.000 C 
BRANCH  12  13
ATOM     13  C   UNL     1      59.943 153.709   0.954  1.00  0.00    -0.000 C 
BRANCH  13  14
ATOM     14  C   UNL     1      58.779 153.660   1.959  1.00  0.00    -0.000 C 
BRANCH  14  15
ATOM     15  C   UNL     1      58.390 155.053   2.479  1.00  0.00    -0.000 C 
BRANCH  15  16
ATOM     16  C   UNL     1      58.254 155.093   4.012  1.00  0.00    -0.000 C 
BRANCH  16  17
ATOM     17  C   UNL     1      58.703 153.782   4.677  1.00  0.00    -0.000 C 
BRANCH  17  18
ATOM     18  C   UNL     1      59.896 153.977   5.628  1.00  0.00    -0.000 C 
BRANCH  18  19
ATOM     19  C   UNL     1      60.137 152.755   6.528  1.00  0.00    -0.003 C 
ATOM     20  C   UNL     1      61.542 152.733   7.131  1.00  0.00     0.004 C 
ENDBRANCH  18  19
ENDBRANCH  17  18
ENDBRANCH  16  17
ENDBRANCH  15  16
ENDBRANCH  14  15
ENDBRANCH  13  14
ENDBRANCH  12  13
ENDBRANCH   1  12
TORSDOF 16
ENDMDL
MODEL 3
REMARK VINA RESULT:    -5.431      3.082      5.505
REMARK INTER + INTRA:         -12.496
REMARK INTER:                 -10.806
REMARK INTRA:                  -1.690
REMARK UNBOUND:                -1.984
REMARK SMILES CCCCCCCCCCCCCCCCCC(=O)[O-]
REMARK SMILES IDX 10 1 11 2 12 3 13 4 14 5 15 6 16 7 17 8 18 9 19 10 20 11
REMARK SMILES IDX 9 12 8 13 7 14 6 15 5 16 4 17 3 18 2 19 1 20
REMARK H PARENT
REMARK Flexibility Score: inf
ROOT
ATOM      1  C   UNL     1      64.007 149.023   6.030  1.00  0.00     0.000 C 
ENDROOT
BRANCH   1   2
ATOM      2  C   UNL     1      64.885 149.817   5.042  1.00  0.00     0.000 C 
BRANCH   2   3
ATOM      3  C   UNL     1      65.055 151.312   5.371  1.00  0.00     0.000 C 
BRANCH   3   4
ATOM      4  C   UNL     1      64.536 152.231   4.252  1.00  0.00     0.000 C 
BRANCH   4   5
ATOM      5  C   UNL     1      63.563 151.517   3.296  1.00  0.00     0.000 C 
BRANCH   5   6
ATOM      6  C   UNL     1      62.069 151.822   3.528  1.00  0.00     0.000 C 
BRANCH   6   7
ATOM      7  C   UNL     1      61.166 151.661   2.289  1.00  0.00     0.006 C 
BRANCH   7   8
ATOM      8  C   UNL     1      59.917 152.557   2.294  1.00  0.00     0.053 C 
BRANCH   8   9
ATOM      9  C   UNL     1      60.005 153.647   1.271  1.00  0.00     0.041 C 
ATOM     10  O   UNL     1      61.057 153.796   0.594  1.00  0.00    -0.550 OA
ATOM     11  O   UNL     1      58.915 154.474   1.039  1.00  0.00    -0.550 OA
ENDBRANCH   8   9
ENDBRANCH   7   8
ENDBRANCH   6   7
ENDBRANCH   5   6
ENDBRANCH   4   5
ENDBRANCH   3   4
ENDBRANCH   2   3
ENDBRANCH   1   2
BRANCH   1  12
ATOM     12  C   UNL     1      62.615 148.628   5.500  1.00  0.00     0.000 C 
BRANCH  12  13
ATOM     13  C   UNL     1      61.434 149.367   6.155  1.00  0.00    -0.000 C 
BRANCH  13  14
ATOM     14  C   UNL     1      61.852 150.179   7.393  1.00  0.00    -0.000 C 
BRANCH  14  15
ATOM     15  C   UNL     1      61.511 149.463   8.710  1.00  0.00    -0.000 C 
BRANCH  15  16
ATOM     16  C   UNL     1      60.030 149.052   8.791  1.00  0.00    -0.000 C 
BRANCH  16  17
ATOM     17  C   UNL     1      59.850 147.562   9.125  1.00  0.00    -0.000 C 
BRANCH  17  18
ATOM     18  C   UNL     1      59.547 146.707   7.882  1.00  0.00    -0.000 C 
BRANCH  18  19
ATOM     19  C   UNL     1      59.644 145.201   8.166  1.00  0.00    -0.003 C 
ATOM     20  C   UNL     1      58.322 144.605   8.651  1.00  0.00     0.004 C 
ENDBRANCH  18  19
ENDBRANCH  17  18
ENDBRANCH  16  17
ENDBRANCH  15  16
ENDBRANCH  14  15
ENDBRANCH  13  14
ENDBRANCH  12  13
ENDBRANCH   1  12
TORSDOF 16
ENDMDL
MODEL 4
REMARK VINA RESULT:    -5.413      2.322      6.748
REMARK INTER + INTRA:         -12.460
REMARK INTER:                 -10.604
REMARK INTRA:                  -1.855
REMARK UNBOUND:                -1.984
REMARK SMILES CCCCCCCCCCCCCCCCCC(=O)[O-]
REMARK SMILES IDX 10 1 11 2 12 3 13 4 14 5 15 6 16 7 17 8 18 9 19 10 20 11
REMARK SMILES IDX 9 12 8 13 7 14 6 15 5 16 4 17 3 18 2 19 1 20
REMARK H PARENT
REMARK Flexibility Score: inf
ROOT
ATOM      1  C   UNL     1      63.606 152.111   4.381  1.00  0.00     0.000 C 
ENDROOT
BRANCH   1   2
ATOM      2  C   UNL     1      65.031 151.523   4.331  1.00  0.00     0.000 C 
BRANCH   2   3
ATOM      3  C   UNL     1      65.107 150.015   4.031  1.00  0.00     0.000 C 
BRANCH   3   4
ATOM      4  C   UNL     1      65.120 149.154   5.306  1.00  0.00     0.000 C 
BRANCH   4   5
ATOM      5  C   UNL     1      63.783 149.197   6.069  1.00  0.00     0.000 C 
BRANCH   5   6
ATOM      6  C   UNL     1      62.739 148.152   5.628  1.00  0.00     0.000 C 
BRANCH   6   7
ATOM      7  C   UNL     1      61.271 148.618   5.704  1.00  0.00     0.006 C 
BRANCH   7   8
ATOM      8  C   UNL     1      60.428 147.886   6.760  1.00  0.00     0.053 C 
BRANCH   8   9
ATOM      9  C   UNL     1      59.470 148.809   7.449  1.00  0.00     0.041 C 
ATOM     10  O   UNL     1      58.820 148.412   8.452  1.00  0.00    -0.550 OA
ATOM     11  O   UNL     1      59.322 150.116   7.007  1.00  0.00    -0.550 OA
ENDBRANCH   8   9
ENDBRANCH   7   8
ENDBRANCH   6   7
ENDBRANCH   5   6
ENDBRANCH   4   5
ENDBRANCH   3   4
ENDBRANCH   2   3
ENDBRANCH   1   2
BRANCH   1  12
ATOM     12  C   UNL     1      62.739 151.839   3.136  1.00  0.00     0.000 C 
BRANCH  12  13
ATOM     13  C   UNL     1      61.269 151.486   3.430  1.00  0.00    -0.000 C 
BRANCH  13  14
ATOM     14  C   UNL     1      60.665 152.344   4.556  1.00  0.00    -0.000 C 
BRANCH  14  15
ATOM     15  C   UNL     1      59.184 152.677   4.313  1.00  0.00    -0.000 C 
BRANCH  15  16
ATOM     16  C   UNL     1      58.915 154.192   4.300  1.00  0.00    -0.000 C 
BRANCH  16  17
ATOM     17  C   UNL     1      58.569 154.717   2.898  1.00  0.00    -0.000 C 
BRANCH  17  18
ATOM     18  C   UNL     1      58.683 153.633   1.812  1.00  0.00    -0.000 C 
BRANCH  18  19
ATOM     19  C   UNL     1      59.365 154.148   0.536  1.00  0.00    -0.003 C 
ATOM     20  C   UNL     1      60.872 153.894   0.528  1.00  0.00     0.004 C 
ENDBRANCH  18  19
ENDBRANCH  17  18
ENDBRANCH  16  17
ENDBRANCH  15  16
ENDBRANCH  14  15
ENDBRANCH  13  14
ENDBRANCH  12  13
ENDBRANCH   1  12
TORSDOF 16
ENDMDL
MODEL 5
REMARK VINA RESULT:    -5.412      2.398      3.768
REMARK INTER + INTRA:         -12.458
REMARK INTER:                 -10.240
REMARK INTRA:                  -2.218
REMARK UNBOUND:                -1.984
REMARK SMILES CCCCCCCCCCCCCCCCCC(=O)[O-]
REMARK SMILES IDX 10 1 11 2 12 3 13 4 14 5 15 6 16 7 17 8 18 9 19 10 20 11
REMARK SMILES IDX 9 12 8 13 7 14 6 15 5 16 4 17 3 18 2 19 1 20
REMARK H PARENT
REMARK Flexibility Score: inf
ROOT
ATOM      1  C   UNL     1      62.105 151.666   4.186  1.00  0.00     0.000 C 
ENDROOT
BRANCH   1   2
ATOM      2  C   UNL     1      62.073 152.154   5.648  1.00  0.00     0.000 C 
BRANCH   2   3
ATOM      3  C   UNL     1      60.681 152.162   6.307  1.00  0.00     0.000 C 
BRANCH   3   4
ATOM      4  C   UNL     1      60.315 153.528   6.911  1.00  0.00     0.000 C 
BRANCH   4   5
ATOM      5  C   UNL     1      59.495 154.406   5.949  1.00  0.00     0.000 C 
BRANCH   5   6
ATOM      6  C   UNL     1      58.715 153.641   4.862  1.00  0.00     0.000 C 
BRANCH   6   7
ATOM      7  C   UNL     1      58.902 154.167   3.425  1.00  0.00     0.006 C 
BRANCH   7   8
ATOM      8  C   UNL     1      59.095 153.069   2.367  1.00  0.00     0.053 C 
BRANCH   8   9
ATOM      9  C   UNL     1      59.895 153.553   1.197  1.00  0.00     0.041 C 
ATOM     10  O   UNL     1      59.330 154.169   0.256  1.00  0.00    -0.550 OA
ATOM     11  O   UNL     1      61.268 153.355   1.162  1.00  0.00    -0.550 OA
ENDBRANCH   8   9
ENDBRANCH   7   8
ENDBRANCH   6   7
ENDBRANCH   5   6
ENDBRANCH   4   5
ENDBRANCH   3   4
ENDBRANCH   2   3
ENDBRANCH   1   2
BRANCH   1  12
ATOM     12  C   UNL     1      63.444 151.875   3.452  1.00  0.00     0.000 C 
BRANCH  12  13
ATOM     13  C   UNL     1      64.693 151.433   4.236  1.00  0.00    -0.000 C 
BRANCH  13  14
ATOM     14  C   UNL     1      65.049 149.954   4.004  1.00  0.00    -0.000 C 
BRANCH  14  15
ATOM     15  C   UNL     1      65.153 149.160   5.316  1.00  0.00    -0.000 C 
BRANCH  15  16
ATOM     16  C   UNL     1      63.818 149.102   6.079  1.00  0.00    -0.000 C 
BRANCH  16  17
ATOM     17  C   UNL     1      62.851 148.059   5.496  1.00  0.00    -0.000 C 
BRANCH  17  18
ATOM     18  C   UNL     1      61.376 148.471   5.637  1.00  0.00    -0.000 C 
BRANCH  18  19
ATOM     19  C   UNL     1      60.700 147.829   6.858  1.00  0.00    -0.003 C 
ATOM     20  C   UNL     1      60.629 148.773   8.058  1.00  0.00     0.004 C 
ENDBRANCH  18  19
ENDBRANCH  17  18
ENDBRANCH  16  17
ENDBRANCH  15  16
ENDBRANCH  14  15
ENDBRANCH  13  14
ENDBRANCH  12  13
ENDBRANCH   1  12
TORSDOF 16
ENDMDL
MODEL 6
REMARK VINA RESULT:    -5.317      1.377      5.038
REMARK INTER + INTRA:         -12.274
REMARK INTER:                  -9.945
REMARK INTRA:                  -2.329
REMARK UNBOUND:                -1.984
REMARK SMILES CCCCCCCCCCCCCCCCCC(=O)[O-]
REMARK SMILES IDX 10 1 11 2 12 3 13 4 14 5 15 6 16 7 17 8 18 9 19 10 20 11
REMARK SMILES IDX 9 12 8 13 7 14 6 15 5 16 4 17 3 18 2 19 1 20
REMARK H PARENT
REMARK Flexibility Score: inf
ROOT
ATOM      1  C   UNL     1      64.631 148.866   5.598  1.00  0.00     0.000 C 
ENDROOT
BRANCH   1   2
ATOM      2  C   UNL     1      63.111 148.614   5.631  1.00  0.00     0.000 C 
BRANCH   2   3
ATOM      3  C   UNL     1      62.346 149.361   6.739  1.00  0.00     0.000 C 
BRANCH   3   4
ATOM      4  C   UNL     1      60.844 149.500   6.436  1.00  0.00     0.000 C 
BRANCH   4   5
ATOM      5  C   UNL     1      60.317 150.927   6.673  1.00  0.00     0.000 C 
BRANCH   5   6
ATOM      6  C   UNL     1      61.388 151.972   7.043  1.00  0.00     0.000 C 
BRANCH   6   7
ATOM      7  C   UNL     1      60.904 153.435   7.049  1.00  0.00     0.006 C 
BRANCH   7   8
ATOM      8  C   UNL     1      60.085 153.837   5.812  1.00  0.00     0.053 C 
BRANCH   8   9
ATOM      9  C   UNL     1      59.686 155.279   5.848  1.00  0.00     0.041 C 
ATOM     10  O   UNL     1      60.276 156.080   6.621  1.00  0.00    -0.550 OA
ATOM     11  O   UNL     1      58.690 155.749   5.003  1.00  0.00    -0.550 OA
ENDBRANCH   8   9
ENDBRANCH   7   8
ENDBRANCH   6   7
ENDBRANCH   5   6
ENDBRANCH   4   5
ENDBRANCH   3   4
ENDBRANCH   2   3
ENDBRANCH   1   2
BRANCH   1  12
ATOM     12  C   UNL     1      65.086 150.023   4.686  1.00  0.00     0.000 C 
BRANCH  12  13
ATOM     13  C   UNL     1      65.062 151.416   5.339  1.00  0.00    -0.000 C 
BRANCH  13  14
ATOM     14  C   UNL     1      64.044 152.364   4.683  1.00  0.00    -0.000 C 
BRANCH  14  15
ATOM     15  C   UNL     1      63.482 151.806   3.365  1.00  0.00    -0.000 C 
BRANCH  15  16
ATOM     16  C   UNL     1      61.961 151.577   3.422  1.00  0.00    -0.000 C 
BRANCH  16  17
ATOM     17  C   UNL     1      61.256 151.978   2.117  1.00  0.00    -0.000 C 
BRANCH  17  18
ATOM     18  C   UNL     1      60.161 153.038   2.333  1.00  0.00    -0.000 C 
BRANCH  18  19
ATOM     19  C   UNL     1      59.733 153.718   1.024  1.00  0.00    -0.003 C 
ATOM     20  C   UNL     1      60.911 153.992   0.089  1.00  0.00     0.004 C 
ENDBRANCH  18  19
ENDBRANCH  17  18
ENDBRANCH  16  17
ENDBRANCH  15  16
ENDBRANCH  14  15
ENDBRANCH  13  14
ENDBRANCH  12  13
ENDBRANCH   1  12
TORSDOF 16
ENDMDL
MODEL 7
REMARK VINA RESULT:    -5.291      1.791      6.253
REMARK INTER + INTRA:         -12.225
REMARK INTER:                 -10.058
REMARK INTRA:                  -2.166
REMARK UNBOUND:                -1.984
REMARK SMILES CCCCCCCCCCCCCCCCCC(=O)[O-]
REMARK SMILES IDX 10 1 11 2 12 3 13 4 14 5 15 6 16 7 17 8 18 9 19 10 20 11
REMARK SMILES IDX 9 12 8 13 7 14 6 15 5 16 4 17 3 18 2 19 1 20
REMARK H PARENT
REMARK Flexibility Score: inf
ROOT
ATOM      1  C   UNL     1      63.846 151.740   3.596  1.00  0.00     0.000 C 
ENDROOT
BRANCH   1   2
ATOM      2  C   UNL     1      64.999 151.079   4.378  1.00  0.00     0.000 C 
BRANCH   2   3
ATOM      3  C   UNL     1      65.028 149.541   4.329  1.00  0.00     0.000 C 
BRANCH   3   4
ATOM      4  C   UNL     1      64.480 148.893   5.613  1.00  0.00     0.000 C 
BRANCH   4   5
ATOM      5  C   UNL     1      63.109 148.225   5.406  1.00  0.00     0.000 C 
BRANCH   5   6
ATOM      6  C   UNL     1      61.970 148.772   6.289  1.00  0.00     0.000 C 
BRANCH   6   7
ATOM      7  C   UNL     1      62.378 149.887   7.271  1.00  0.00     0.006 C 
BRANCH   7   8
ATOM      8  C   UNL     1      61.236 150.391   8.169  1.00  0.00     0.053 C 
BRANCH   8   9
ATOM      9  C   UNL     1      60.417 151.446   7.493  1.00  0.00     0.041 C 
ATOM     10  O   UNL     1      59.335 151.141   6.926  1.00  0.00    -0.550 OA
ATOM     11  O   UNL     1      60.828 152.772   7.520  1.00  0.00    -0.550 OA
ENDBRANCH   8   9
ENDBRANCH   7   8
ENDBRANCH   6   7
ENDBRANCH   5   6
ENDBRANCH   4   5
ENDBRANCH   3   4
ENDBRANCH   2   3
ENDBRANCH   1   2
BRANCH   1  12
ATOM     12  C   UNL     1      62.536 151.924   4.387  1.00  0.00     0.000 C 
BRANCH  12  13
ATOM     13  C   UNL     1      61.250 151.612   3.599  1.00  0.00    -0.000 C 
BRANCH  13  14
ATOM     14  C   UNL     1      61.393 151.888   2.093  1.00  0.00    -0.000 C 
BRANCH  14  15
ATOM     15  C   UNL     1      60.525 153.067   1.624  1.00  0.00    -0.000 C 
BRANCH  15  16
ATOM     16  C   UNL     1      59.178 153.139   2.365  1.00  0.00    -0.000 C 
BRANCH  16  17
ATOM     17  C   UNL     1      58.468 154.488   2.167  1.00  0.00    -0.000 C 
BRANCH  17  18
ATOM     18  C   UNL     1      58.229 155.234   3.491  1.00  0.00    -0.000 C 
BRANCH  18  19
ATOM     19  C   UNL     1      58.937 154.566   4.679  1.00  0.00    -0.003 C 
ATOM     20  C   UNL     1      57.962 154.074   5.748  1.00  0.00     0.004 C 
ENDBRANCH  18  19
ENDBRANCH  17  18
ENDBRANCH  16  17
ENDBRANCH  15  16
ENDBRANCH  14  15
ENDBRANCH  13  14
ENDBRANCH  12  13
ENDBRANCH   1  12
TORSDOF 16
ENDMDL
MODEL 8
REMARK VINA RESULT:    -5.285      2.822      5.663
REMARK INTER + INTRA:         -12.213
REMARK INTER:                 -10.020
REMARK INTRA:                  -2.193
REMARK UNBOUND:                -1.984
REMARK SMILES CCCCCCCCCCCCCCCCCC(=O)[O-]
REMARK SMILES IDX 10 1 11 2 12 3 13 4 14 5 15 6 16 7 17 8 18 9 19 10 20 11
REMARK SMILES IDX 9 12 8 13 7 14 6 15 5 16 4 17 3 18 2 19 1 20
REMARK H PARENT
REMARK Flexibility Score: inf
ROOT
ATOM      1  C   UNL     1      64.199 148.862   5.759  1.00  0.00     0.000 C 
ENDROOT
BRANCH   1   2
ATOM      2  C   UNL     1      65.028 149.827   4.888  1.00  0.00     0.000 C 
BRANCH   2   3
ATOM      3  C   UNL     1      65.025 151.295   5.350  1.00  0.00     0.000 C 
BRANCH   3   4
ATOM      4  C   UNL     1      64.452 152.253   4.292  1.00  0.00     0.000 C 
BRANCH   4   5
ATOM      5  C   UNL     1      63.587 151.533   3.241  1.00  0.00     0.000 C 
BRANCH   5   6
ATOM      6  C   UNL     1      62.065 151.714   3.405  1.00  0.00     0.000 C 
BRANCH   6   7
ATOM      7  C   UNL     1      61.282 151.912   2.092  1.00  0.00     0.006 C 
BRANCH   7   8
ATOM      8  C   UNL     1      60.220 153.023   2.148  1.00  0.00     0.053 C 
BRANCH   8   9
ATOM      9  C   UNL     1      60.145 153.791   0.865  1.00  0.00     0.041 C 
ATOM     10  O   UNL     1      59.033 154.191   0.431  1.00  0.00    -0.550 OA
ATOM     11  O   UNL     1      61.306 154.096   0.166  1.00  0.00    -0.550 OA
ENDBRANCH   8   9
ENDBRANCH   7   8
ENDBRANCH   6   7
ENDBRANCH   5   6
ENDBRANCH   4   5
ENDBRANCH   3   4
ENDBRANCH   2   3
ENDBRANCH   1   2
BRANCH   1  12
ATOM     12  C   UNL     1      62.907 149.458   6.353  1.00  0.00     0.000 C 
BRANCH  12  13
ATOM     13  C   UNL     1      61.603 148.977   5.692  1.00  0.00    -0.000 C 
BRANCH  13  14
ATOM     14  C   UNL     1      60.842 147.953   6.552  1.00  0.00    -0.000 C 
BRANCH  14  15
ATOM     15  C   UNL     1      59.555 148.534   7.160  1.00  0.00    -0.000 C 
BRANCH  15  16
ATOM     16  C   UNL     1      59.830 149.403   8.400  1.00  0.00    -0.000 C 
BRANCH  16  17
ATOM     17  C   UNL     1      59.178 150.792   8.303  1.00  0.00    -0.000 C 
BRANCH  17  18
ATOM     18  C   UNL     1      60.212 151.928   8.221  1.00  0.00    -0.000 C 
BRANCH  18  19
ATOM     19  C   UNL     1      60.579 152.286   6.772  1.00  0.00    -0.003 C 
ATOM     20  C   UNL     1      61.741 153.274   6.685  1.00  0.00     0.004 C 
ENDBRANCH  18  19
ENDBRANCH  17  18
ENDBRANCH  16  17
ENDBRANCH  15  16
ENDBRANCH  14  15
ENDBRANCH  13  14
ENDBRANCH  12  13
ENDBRANCH   1  12
TORSDOF 16
ENDMDL
MODEL 9
REMARK VINA RESULT:    -5.207      2.415      4.510
REMARK INTER + INTRA:         -12.062
REMARK INTER:                 -10.083
REMARK INTRA:                  -1.978
REMARK UNBOUND:                -1.984
REMARK SMILES CCCCCCCCCCCCCCCCCC(=O)[O-]
REMARK SMILES IDX 10 1 11 2 12 3 13 4 14 5 15 6 16 7 17 8 18 9 19 10 20 11
REMARK SMILES IDX 9 12 8 13 7 14 6 15 5 16 4 17 3 18 2 19 1 20
REMARK H PARENT
REMARK Flexibility Score: inf
ROOT
ATOM      1  C   UNL     1      61.638 151.965   6.098  1.00  0.00     0.000 C 
ENDROOT
BRANCH   1   2
ATOM      2  C   UNL     1      61.909 153.425   6.511  1.00  0.00     0.000 C 
BRANCH   2   3
ATOM      3  C   UNL     1      60.807 154.082   7.360  1.00  0.00     0.000 C 
BRANCH   3   4
ATOM      4  C   UNL     1      59.996 155.129   6.577  1.00  0.00     0.000 C 
BRANCH   4   5
ATOM      5  C   UNL     1      58.813 154.514   5.807  1.00  0.00     0.000 C 
BRANCH   5   6
ATOM      6  C   UNL     1      58.939 154.546   4.271  1.00  0.00     0.000 C 
BRANCH   6   7
ATOM      7  C   UNL     1      59.109 153.170   3.597  1.00  0.00     0.006 C 
BRANCH   7   8
ATOM      8  C   UNL     1      59.173 153.219   2.062  1.00  0.00     0.053 C 
BRANCH   8   9
ATOM      9  C   UNL     1      60.580 153.131   1.558  1.00  0.00     0.041 C 
ATOM     10  O   UNL     1      61.390 152.319   2.078  1.00  0.00    -0.550 OA
ATOM     11  O   UNL     1      60.988 153.919   0.490  1.00  0.00    -0.550 OA
ENDBRANCH   8   9
ENDBRANCH   7   8
ENDBRANCH   6   7
ENDBRANCH   5   6
ENDBRANCH   4   5
ENDBRANCH   3   4
ENDBRANCH   2   3
ENDBRANCH   1   2
BRANCH   1  12
ATOM     12  C   UNL     1      61.439 150.978   7.266  1.00  0.00     0.000 C 
BRANCH  12  13
ATOM     13  C   UNL     1      62.394 149.771   7.268  1.00  0.00    -0.000 C 
BRANCH  13  14
ATOM     14  C   UNL     1      62.043 148.731   6.190  1.00  0.00    -0.000 C 
BRANCH  14  15
ATOM     15  C   UNL     1      63.272 148.279   5.384  1.00  0.00    -0.000 C 
BRANCH  15  16
ATOM     16  C   UNL     1      64.506 149.161   5.646  1.00  0.00    -0.000 C 
BRANCH  16  17
ATOM     17  C   UNL     1      65.076 149.773   4.356  1.00  0.00    -0.000 C 
BRANCH  17  18
ATOM     18  C   UNL     1      64.258 150.975   3.855  1.00  0.00    -0.000 C 
BRANCH  18  19
ATOM     19  C   UNL     1      64.909 152.320   4.211  1.00  0.00    -0.003 C 
ATOM     20  C   UNL     1      65.406 152.371   5.656  1.00  0.00     0.004 C 
ENDBRANCH  18  19
ENDBRANCH  17  18
ENDBRANCH  16  17
ENDBRANCH  15  16
ENDBRANCH  14  15
ENDBRANCH  13  14
ENDBRANCH  12  13
ENDBRANCH   1  12
TORSDOF 16
ENDMDL
