MODEL 1
REMARK VINA RESULT:    -2.742      0.000      0.000
REMARK INTER + INTRA:          -7.830
REMARK INTER:                  -5.147
REMARK INTRA:                  -2.683
REMARK UNBOUND:                -2.683
REMARK SMILES CCCCCC=CCC=CCCCCCCCC(=O)OC
REMARK SMILES IDX 11 1 10 2 9 3 8 4 7 5 6 6 5 7 4 8 3 9 2 10 1 11 12 12 13 13
REMARK SMILES IDX 14 14 15 15 16 16 17 17 18 18 19 19 20 20 21 21
REMARK H PARENT
REMARK Flexibility Score: inf
ROOT
ATOM      1  C   UNL     1       0.678   2.482  -2.117  1.00  0.00     0.027 C 
ENDROOT
BRANCH   1   2
ATOM      2  C   UNL     1      -0.636   1.845  -2.483  1.00  0.00    -0.031 C 
ATOM      3  C   UNL     1      -1.496   1.418  -1.546  1.00  0.00    -0.027 C 
BRANCH   3   4
ATOM      4  C   UNL     1      -2.827   0.828  -1.915  1.00  0.00     0.054 C 
BRANCH   4   5
ATOM      5  C   UNL     1      -3.100   1.048  -3.375  1.00  0.00    -0.027 C 
ATOM      6  C   UNL     1      -4.326   0.889  -3.894  1.00  0.00    -0.031 C 
BRANCH   6   7
ATOM      7  C   UNL     1      -4.579   1.018  -5.369  1.00  0.00     0.027 C 
BRANCH   7   8
ATOM      8  C   UNL     1      -3.942  -0.144  -6.139  1.00  0.00     0.004 C 
BRANCH   8   9
ATOM      9  C   UNL     1      -2.767   0.341  -6.997  1.00  0.00     0.000 C 
BRANCH   9  10
ATOM     10  C   UNL     1      -1.433  -0.308  -6.598  1.00  0.00    -0.003 C 
ATOM     11  C   UNL     1      -0.458   0.681  -5.961  1.00  0.00     0.004 C 
ENDBRANCH   9  10
ENDBRANCH   8   9
ENDBRANCH   7   8
ENDBRANCH   6   7
ENDBRANCH   4   5
ENDBRANCH   3   4
ENDBRANCH   1   2
BRANCH   1  12
ATOM     12  C   UNL     1       0.562   3.427  -0.909  1.00  0.00     0.004 C 
BRANCH  12  13
ATOM     13  C   UNL     1       0.405   4.916  -1.279  1.00  0.00     0.000 C 
BRANCH  13  14
ATOM     14  C   UNL     1      -1.049   5.392  -1.480  1.00  0.00     0.000 C 
BRANCH  14  15
ATOM     15  C   UNL     1      -1.525   5.435  -2.943  1.00  0.00     0.001 C 
BRANCH  15  16
ATOM     16  C   UNL     1      -2.904   4.790  -3.144  1.00  0.00     0.012 C 
BRANCH  16  17
ATOM     17  C   UNL     1      -3.558   4.466  -1.796  1.00  0.00     0.123 C 
BRANCH  17  18
ATOM     18  C   UNL     1      -5.048   4.416  -1.929  1.00  0.00     0.305 C 
ATOM     19  O   UNL     1      -5.568   4.042  -3.016  1.00  0.00    -0.252 OA
BRANCH  18  20
ATOM     20  O   UNL     1      -5.849   4.787  -0.845  1.00  0.00    -0.469 OA
ATOM     21  C   UNL     1      -6.083   6.147  -0.495  1.00  0.00     0.282 C 
ENDBRANCH  18  20
ENDBRANCH  17  18
ENDBRANCH  16  17
ENDBRANCH  15  16
ENDBRANCH  14  15
ENDBRANCH  13  14
ENDBRANCH  12  13
ENDBRANCH   1  12
TORSDOF 15
ENDMDL
MODEL 2
REMARK VINA RESULT:    -2.674      1.913      4.848
REMARK INTER + INTRA:          -7.703
REMARK INTER:                  -4.699
REMARK INTRA:                  -3.004
REMARK UNBOUND:                -2.683
REMARK SMILES CCCCCC=CCC=CCCCCCCCC(=O)OC
REMARK SMILES IDX 11 1 10 2 9 3 8 4 7 5 6 6 5 7 4 8 3 9 2 10 1 11 12 12 13 13
REMARK SMILES IDX 14 14 15 15 16 16 17 17 18 18 19 19 20 20 21 21
REMARK H PARENT
REMARK Flexibility Score: inf
ROOT
ATOM      1  C   UNL     1      -4.066   0.997  -4.953  1.00  0.00     0.027 C 
ENDROOT
BRANCH   1   2
ATOM      2  C   UNL     1      -3.142   0.695  -3.804  1.00  0.00    -0.031 C 
ATOM      3  C   UNL     1      -3.387   1.149  -2.566  1.00  0.00    -0.027 C 
BRANCH   3   4
ATOM      4  C   UNL     1      -2.488   0.805  -1.413  1.00  0.00     0.054 C 
BRANCH   4   5
ATOM      5  C   UNL     1      -1.359   1.792  -1.329  1.00  0.00    -0.027 C 
ATOM      6  C   UNL     1      -0.357   1.792  -2.220  1.00  0.00    -0.031 C 
BRANCH   6   7
ATOM      7  C   UNL     1       0.818   2.717  -2.082  1.00  0.00     0.027 C 
BRANCH   7   8
ATOM      8  C   UNL     1       0.521   3.834  -1.074  1.00  0.00     0.004 C 
BRANCH   8   9
ATOM      9  C   UNL     1       1.271   5.121  -1.441  1.00  0.00     0.000 C 
BRANCH   9  10
ATOM     10  C   UNL     1       1.910   5.057  -2.837  1.00  0.00    -0.003 C 
ATOM     11  C   UNL     1       1.118   5.833  -3.889  1.00  0.00     0.004 C 
ENDBRANCH   9  10
ENDBRANCH   8   9
ENDBRANCH   7   8
ENDBRANCH   6   7
ENDBRANCH   4   5
ENDBRANCH   3   4
ENDBRANCH   1   2
BRANCH   1  12
ATOM     12  C   UNL     1      -3.544   2.133  -5.850  1.00  0.00     0.004 C 
BRANCH  12  13
ATOM     13  C   UNL     1      -2.059   2.486  -5.629  1.00  0.00     0.000 C 
BRANCH  13  14
ATOM     14  C   UNL     1      -1.797   3.906  -5.084  1.00  0.00     0.000 C 
BRANCH  14  15
ATOM     15  C   UNL     1      -2.911   4.477  -4.190  1.00  0.00     0.001 C 
BRANCH  15  16
ATOM     16  C   UNL     1      -2.395   4.975  -2.832  1.00  0.00     0.012 C 
BRANCH  16  17
ATOM     17  C   UNL     1      -3.471   4.825  -1.750  1.00  0.00     0.123 C 
BRANCH  17  18
ATOM     18  C   UNL     1      -3.008   5.420  -0.457  1.00  0.00     0.305 C 
ATOM     19  O   UNL     1      -3.067   6.669  -0.287  1.00  0.00    -0.252 OA
BRANCH  18  20
ATOM     20  O   UNL     1      -2.512   4.585   0.548  1.00  0.00    -0.469 OA
ATOM     21  C   UNL     1      -2.149   5.068   1.836  1.00  0.00     0.282 C 
ENDBRANCH  18  20
ENDBRANCH  17  18
ENDBRANCH  16  17
ENDBRANCH  15  16
ENDBRANCH  14  15
ENDBRANCH  13  14
ENDBRANCH  12  13
ENDBRANCH   1  12
TORSDOF 15
ENDMDL
MODEL 3
REMARK VINA RESULT:    -2.665      2.134      3.859
REMARK INTER + INTRA:          -7.686
REMARK INTER:                  -4.689
REMARK INTRA:                  -2.997
REMARK UNBOUND:                -2.683
REMARK SMILES CCCCCC=CCC=CCCCCCCCC(=O)OC
REMARK SMILES IDX 11 1 10 2 9 3 8 4 7 5 6 6 5 7 4 8 3 9 2 10 1 11 12 12 13 13
REMARK SMILES IDX 14 14 15 15 16 16 17 17 18 18 19 19 20 20 21 21
REMARK H PARENT
REMARK Flexibility Score: inf
ROOT
ATOM      1  C   UNL     1       1.140   5.487  -3.701  1.00  0.00     0.027 C 
ENDROOT
BRANCH   1   2
ATOM      2  C   UNL     1      -0.271   5.392  -4.213  1.00  0.00    -0.031 C 
ATOM      3  C   UNL     1      -0.626   4.485  -5.136  1.00  0.00    -0.027 C 
BRANCH   3   4
ATOM      4  C   UNL     1      -2.046   4.361  -5.608  1.00  0.00     0.054 C 
BRANCH   4   5
ATOM      5  C   UNL     1      -2.574   2.990  -5.298  1.00  0.00    -0.027 C 
ATOM      6  C   UNL     1      -1.870   1.885  -5.581  1.00  0.00    -0.031 C 
BRANCH   6   7
ATOM      7  C   UNL     1      -2.437   0.512  -5.356  1.00  0.00     0.027 C 
BRANCH   7   8
ATOM      8  C   UNL     1      -3.798   0.589  -4.654  1.00  0.00     0.004 C 
BRANCH   8   9
ATOM      9  C   UNL     1      -3.657   0.333  -3.148  1.00  0.00     0.000 C 
BRANCH   9  10
ATOM     10  C   UNL     1      -4.786   0.977  -2.329  1.00  0.00    -0.003 C 
ATOM     11  C   UNL     1      -5.263   2.305  -2.916  1.00  0.00     0.004 C 
ENDBRANCH   9  10
ENDBRANCH   8   9
ENDBRANCH   7   8
ENDBRANCH   6   7
ENDBRANCH   4   5
ENDBRANCH   3   4
ENDBRANCH   1   2
BRANCH   1  12
ATOM     12  C   UNL     1       1.793   4.108  -3.504  1.00  0.00     0.004 C 
BRANCH  12  13
ATOM     13  C   UNL     1       1.382   3.390  -2.202  1.00  0.00     0.000 C 
BRANCH  13  14
ATOM     14  C   UNL     1       0.807   1.970  -2.390  1.00  0.00     0.000 C 
BRANCH  14  15
ATOM     15  C   UNL     1      -0.714   1.851  -2.188  1.00  0.00     0.001 C 
BRANCH  15  16
ATOM     16  C   UNL     1      -1.233   2.704  -1.022  1.00  0.00     0.012 C 
BRANCH  16  17
ATOM     17  C   UNL     1      -2.265   3.727  -1.511  1.00  0.00     0.123 C 
BRANCH  17  18
ATOM     18  C   UNL     1      -2.280   4.931  -0.621  1.00  0.00     0.305 C 
ATOM     19  O   UNL     1      -3.197   5.066   0.235  1.00  0.00    -0.252 OA
BRANCH  18  20
ATOM     20  O   UNL     1      -1.277   5.897  -0.750  1.00  0.00    -0.469 OA
ATOM     21  C   UNL     1      -1.452   7.244  -0.329  1.00  0.00     0.282 C 
ENDBRANCH  18  20
ENDBRANCH  17  18
ENDBRANCH  16  17
ENDBRANCH  15  16
ENDBRANCH  14  15
ENDBRANCH  13  14
ENDBRANCH  12  13
ENDBRANCH   1  12
TORSDOF 15
ENDMDL
MODEL 4
REMARK VINA RESULT:    -2.653      3.229      5.324
REMARK INTER + INTRA:          -7.663
REMARK INTER:                  -5.130
REMARK INTRA:                  -2.532
REMARK UNBOUND:                -2.683
REMARK SMILES CCCCCC=CCC=CCCCCCCCC(=O)OC
REMARK SMILES IDX 11 1 10 2 9 3 8 4 7 5 6 6 5 7 4 8 3 9 2 10 1 11 12 12 13 13
REMARK SMILES IDX 14 14 15 15 16 16 17 17 18 18 19 19 20 20 21 21
REMARK H PARENT
REMARK Flexibility Score: inf
ROOT
ATOM      1  C   UNL     1       1.946   4.630  -2.323  1.00  0.00     0.027 C 
ENDROOT
BRANCH   1   2
ATOM      2  C   UNL     1       0.695   4.521  -1.493  1.00  0.00    -0.031 C 
ATOM      3  C   UNL     1       0.216   3.334  -1.093  1.00  0.00    -0.027 C 
BRANCH   3   4
ATOM      4  C   UNL     1      -1.005   3.234  -0.224  1.00  0.00     0.054 C 
BRANCH   4   5
ATOM      5  C   UNL     1      -2.240   3.479  -1.042  1.00  0.00    -0.027 C 
ATOM      6  C   UNL     1      -2.626   2.629  -2.005  1.00  0.00    -0.031 C 
BRANCH   6   7
ATOM      7  C   UNL     1      -3.808   2.922  -2.884  1.00  0.00     0.027 C 
BRANCH   7   8
ATOM      8  C   UNL     1      -4.523   1.628  -3.293  1.00  0.00     0.004 C 
BRANCH   8   9
ATOM      9  C   UNL     1      -3.539   0.453  -3.359  1.00  0.00     0.000 C 
BRANCH   9  10
ATOM     10  C   UNL     1      -3.667  -0.355  -4.659  1.00  0.00    -0.003 C 
ATOM     11  C   UNL     1      -4.289   0.450  -5.800  1.00  0.00     0.004 C 
ENDBRANCH   9  10
ENDBRANCH   8   9
ENDBRANCH   7   8
ENDBRANCH   6   7
ENDBRANCH   4   5
ENDBRANCH   3   4
ENDBRANCH   1   2
BRANCH   1  12
ATOM     12  C   UNL     1       2.059   3.509  -3.371  1.00  0.00     0.004 C 
BRANCH  12  13
ATOM     13  C   UNL     1       2.038   4.001  -4.833  1.00  0.00     0.000 C 
BRANCH  13  14
ATOM     14  C   UNL     1       0.678   4.542  -5.322  1.00  0.00     0.000 C 
BRANCH  14  15
ATOM     15  C   UNL     1      -0.555   3.830  -4.741  1.00  0.00     0.001 C 
BRANCH  15  16
ATOM     16  C   UNL     1      -1.046   2.670  -5.619  1.00  0.00     0.012 C 
BRANCH  16  17
ATOM     17  C   UNL     1      -0.377   1.353  -5.209  1.00  0.00     0.123 C 
BRANCH  17  18
ATOM     18  C   UNL     1       0.186   0.650  -6.405  1.00  0.00     0.305 C 
ATOM     19  O   UNL     1      -0.126   1.038  -7.564  1.00  0.00    -0.252 OA
BRANCH  18  20
ATOM     20  O   UNL     1       1.051  -0.434  -6.223  1.00  0.00    -0.469 OA
ATOM     21  C   UNL     1       1.815  -0.991  -7.287  1.00  0.00     0.282 C 
ENDBRANCH  18  20
ENDBRANCH  17  18
ENDBRANCH  16  17
ENDBRANCH  15  16
ENDBRANCH  14  15
ENDBRANCH  13  14
ENDBRANCH  12  13
ENDBRANCH   1  12
TORSDOF 15
ENDMDL
MODEL 5
REMARK VINA RESULT:    -2.643      1.802      2.945
REMARK INTER + INTRA:          -7.645
REMARK INTER:                  -4.723
REMARK INTRA:                  -2.922
REMARK UNBOUND:                -2.683
REMARK SMILES CCCCCC=CCC=CCCCCCCCC(=O)OC
REMARK SMILES IDX 11 1 10 2 9 3 8 4 7 5 6 6 5 7 4 8 3 9 2 10 1 11 12 12 13 13
REMARK SMILES IDX 14 14 15 15 16 16 17 17 18 18 19 19 20 20 21 21
REMARK H PARENT
REMARK Flexibility Score: inf
ROOT
ATOM      1  C   UNL     1       1.572   3.323  -3.004  1.00  0.00     0.027 C 
ENDROOT
BRANCH   1   2
ATOM      2  C   UNL     1       0.535   2.838  -2.027  1.00  0.00    -0.031 C 
ATOM      3  C   UNL     1      -0.460   2.021  -2.403  1.00  0.00    -0.027 C 
BRANCH   3   4
ATOM      4  C   UNL     1      -1.463   1.500  -1.414  1.00  0.00     0.054 C 
BRANCH   4   5
ATOM      5  C   UNL     1      -2.753   1.178  -2.111  1.00  0.00    -0.027 C 
ATOM      6  C   UNL     1      -2.857   1.208  -3.448  1.00  0.00    -0.031 C 
BRANCH   6   7
ATOM      7  C   UNL     1      -4.171   0.976  -4.139  1.00  0.00     0.027 C 
BRANCH   7   8
ATOM      8  C   UNL     1      -5.308   1.710  -3.419  1.00  0.00     0.004 C 
BRANCH   8   9
ATOM      9  C   UNL     1      -6.001   2.707  -4.357  1.00  0.00     0.000 C 
BRANCH   9  10
ATOM     10  C   UNL     1      -5.419   2.687  -5.778  1.00  0.00    -0.003 C 
ATOM     11  C   UNL     1      -4.834   4.034  -6.200  1.00  0.00     0.004 C 
ENDBRANCH   9  10
ENDBRANCH   8   9
ENDBRANCH   7   8
ENDBRANCH   6   7
ENDBRANCH   4   5
ENDBRANCH   3   4
ENDBRANCH   1   2
BRANCH   1  12
ATOM     12  C   UNL     1       1.244   2.933  -4.456  1.00  0.00     0.004 C 
BRANCH  12  13
ATOM     13  C   UNL     1       0.742   4.101  -5.331  1.00  0.00     0.000 C 
BRANCH  13  14
ATOM     14  C   UNL     1      -0.017   5.209  -4.571  1.00  0.00     0.000 C 
BRANCH  14  15
ATOM     15  C   UNL     1      -1.527   4.967  -4.402  1.00  0.00     0.001 C 
BRANCH  15  16
ATOM     16  C   UNL     1      -2.042   5.342  -3.006  1.00  0.00     0.012 C 
BRANCH  16  17
ATOM     17  C   UNL     1      -3.524   4.979  -2.854  1.00  0.00     0.123 C 
BRANCH  17  18
ATOM     18  C   UNL     1      -3.861   4.715  -1.419  1.00  0.00     0.305 C 
ATOM     19  O   UNL     1      -5.069   4.640  -1.063  1.00  0.00    -0.252 OA
BRANCH  18  20
ATOM     20  O   UNL     1      -2.830   4.558  -0.487  1.00  0.00    -0.469 OA
ATOM     21  C   UNL     1      -2.639   5.454   0.601  1.00  0.00     0.282 C 
ENDBRANCH  18  20
ENDBRANCH  17  18
ENDBRANCH  16  17
ENDBRANCH  15  16
ENDBRANCH  14  15
ENDBRANCH  13  14
ENDBRANCH  12  13
ENDBRANCH   1  12
TORSDOF 15
ENDMDL
MODEL 6
REMARK VINA RESULT:    -2.642      3.454      6.348
REMARK INTER + INTRA:          -7.643
REMARK INTER:                  -4.725
REMARK INTRA:                  -2.918
REMARK UNBOUND:                -2.683
REMARK SMILES CCCCCC=CCC=CCCCCCCCC(=O)OC
REMARK SMILES IDX 11 1 10 2 9 3 8 4 7 5 6 6 5 7 4 8 3 9 2 10 1 11 12 12 13 13
REMARK SMILES IDX 14 14 15 15 16 16 17 17 18 18 19 19 20 20 21 21
REMARK H PARENT
REMARK Flexibility Score: inf
ROOT
ATOM      1  C   UNL     1      -5.289   3.187  -6.034  1.00  0.00     0.027 C 
ENDROOT
BRANCH   1   2
ATOM      2  C   UNL     1      -5.284   2.724  -4.602  1.00  0.00    -0.031 C 
ATOM      3  C   UNL     1      -4.827   1.511  -4.257  1.00  0.00    -0.027 C 
BRANCH   3   4
ATOM      4  C   UNL     1      -4.778   1.071  -2.822  1.00  0.00     0.054 C 
BRANCH   4   5
ATOM      5  C   UNL     1      -3.351   0.928  -2.375  1.00  0.00    -0.027 C 
ATOM      6  C   UNL     1      -2.618   1.991  -2.012  1.00  0.00    -0.031 C 
BRANCH   6   7
ATOM      7  C   UNL     1      -1.165   1.858  -1.655  1.00  0.00     0.027 C 
BRANCH   7   8
ATOM      8  C   UNL     1      -0.677   3.084  -0.875  1.00  0.00     0.004 C 
BRANCH   8   9
ATOM      9  C   UNL     1       0.655   3.600  -1.436  1.00  0.00     0.000 C 
BRANCH   9  10
ATOM     10  C   UNL     1       1.198   2.722  -2.575  1.00  0.00    -0.003 C 
ATOM     11  C   UNL     1       1.999   3.516  -3.607  1.00  0.00     0.004 C 
ENDBRANCH   9  10
ENDBRANCH   8   9
ENDBRANCH   7   8
ENDBRANCH   6   7
ENDBRANCH   4   5
ENDBRANCH   3   4
ENDBRANCH   1   2
BRANCH   1  12
ATOM     12  C   UNL     1      -3.995   3.923  -6.422  1.00  0.00     0.004 C 
BRANCH  12  13
ATOM     13  C   UNL     1      -3.242   4.556  -5.234  1.00  0.00     0.000 C 
BRANCH  13  14
ATOM     14  C   UNL     1      -1.832   3.986  -4.974  1.00  0.00     0.000 C 
BRANCH  14  15
ATOM     15  C   UNL     1      -1.379   2.892  -5.956  1.00  0.00     0.001 C 
BRANCH  15  16
ATOM     16  C   UNL     1      -1.084   1.552  -5.267  1.00  0.00     0.012 C 
BRANCH  16  17
ATOM     17  C   UNL     1      -1.679   0.385  -6.065  1.00  0.00     0.123 C 
BRANCH  17  18
ATOM     18  C   UNL     1      -0.641  -0.239  -6.945  1.00  0.00     0.305 C 
ATOM     19  O   UNL     1      -0.890  -0.433  -8.166  1.00  0.00    -0.252 OA
BRANCH  18  20
ATOM     20  O   UNL     1       0.595  -0.603  -6.401  1.00  0.00    -0.469 OA
ATOM     21  C   UNL     1       1.794  -0.615  -7.166  1.00  0.00     0.282 C 
ENDBRANCH  18  20
ENDBRANCH  17  18
ENDBRANCH  16  17
ENDBRANCH  15  16
ENDBRANCH  14  15
ENDBRANCH  13  14
ENDBRANCH  12  13
ENDBRANCH   1  12
TORSDOF 15
ENDMDL
MODEL 7
REMARK VINA RESULT:    -2.590      2.747      4.252
REMARK INTER + INTRA:          -7.544
REMARK INTER:                  -4.869
REMARK INTRA:                  -2.676
REMARK UNBOUND:                -2.683
REMARK SMILES CCCCCC=CCC=CCCCCCCCC(=O)OC
REMARK SMILES IDX 11 1 10 2 9 3 8 4 7 5 6 6 5 7 4 8 3 9 2 10 1 11 12 12 13 13
REMARK SMILES IDX 14 14 15 15 16 16 17 17 18 18 19 19 20 20 21 21
REMARK H PARENT
REMARK Flexibility Score: inf
ROOT
ATOM      1  C   UNL     1       0.898   3.323  -3.634  1.00  0.00     0.027 C 
ENDROOT
BRANCH   1   2
ATOM      2  C   UNL     1      -0.314   2.529  -3.224  1.00  0.00    -0.031 C 
ATOM      3  C   UNL     1      -0.355   1.855  -2.065  1.00  0.00    -0.027 C 
BRANCH   3   4
ATOM      4  C   UNL     1      -1.584   1.105  -1.639  1.00  0.00     0.054 C 
BRANCH   4   5
ATOM      5  C   UNL     1      -2.777   1.590  -2.412  1.00  0.00    -0.027 C 
ATOM      6  C   UNL     1      -3.968   0.981  -2.322  1.00  0.00    -0.031 C 
BRANCH   6   7
ATOM      7  C   UNL     1      -5.135   1.410  -3.165  1.00  0.00     0.027 C 
BRANCH   7   8
ATOM      8  C   UNL     1      -4.712   2.467  -4.192  1.00  0.00     0.004 C 
BRANCH   8   9
ATOM      9  C   UNL     1      -5.409   3.807  -3.923  1.00  0.00     0.000 C 
BRANCH   9  10
ATOM     10  C   UNL     1      -4.670   4.660  -2.881  1.00  0.00    -0.003 C 
ATOM     11  C   UNL     1      -5.475   4.860  -1.597  1.00  0.00     0.004 C 
ENDBRANCH   9  10
ENDBRANCH   8   9
ENDBRANCH   7   8
ENDBRANCH   6   7
ENDBRANCH   4   5
ENDBRANCH   3   4
ENDBRANCH   1   2
BRANCH   1  12
ATOM     12  C   UNL     1       1.653   3.914  -2.430  1.00  0.00     0.004 C 
BRANCH  12  13
ATOM     13  C   UNL     1       1.167   5.314  -2.001  1.00  0.00     0.000 C 
BRANCH  13  14
ATOM     14  C   UNL     1       0.257   5.339  -0.755  1.00  0.00     0.000 C 
BRANCH  14  15
ATOM     15  C   UNL     1      -1.252   5.326  -1.050  1.00  0.00     0.001 C 
BRANCH  15  16
ATOM     16  C   UNL     1      -2.049   4.462  -0.062  1.00  0.00     0.012 C 
BRANCH  16  17
ATOM     17  C   UNL     1      -1.115   3.777   0.941  1.00  0.00     0.123 C 
BRANCH  17  18
ATOM     18  C   UNL     1      -1.684   3.840   2.324  1.00  0.00     0.305 C 
ATOM     19  O   UNL     1      -2.126   4.934   2.770  1.00  0.00    -0.252 OA
BRANCH  18  20
ATOM     20  O   UNL     1      -1.717   2.684   3.110  1.00  0.00    -0.469 OA
ATOM     21  C   UNL     1      -0.608   2.256   3.891  1.00  0.00     0.282 C 
ENDBRANCH  18  20
ENDBRANCH  17  18
ENDBRANCH  16  17
ENDBRANCH  15  16
ENDBRANCH  14  15
ENDBRANCH  13  14
ENDBRANCH  12  13
ENDBRANCH   1  12
TORSDOF 15
ENDMDL
MODEL 8
REMARK VINA RESULT:    -2.575      1.217      5.300
REMARK INTER + INTRA:          -7.516
REMARK INTER:                  -4.861
REMARK INTRA:                  -2.655
REMARK UNBOUND:                -2.683
REMARK SMILES CCCCCC=CCC=CCCCCCCCC(=O)OC
REMARK SMILES IDX 11 1 10 2 9 3 8 4 7 5 6 6 5 7 4 8 3 9 2 10 1 11 12 12 13 13
REMARK SMILES IDX 14 14 15 15 16 16 17 17 18 18 19 19 20 20 21 21
REMARK H PARENT
REMARK Flexibility Score: inf
ROOT
ATOM      1  C   UNL     1      -3.098   0.067  -6.412  1.00  0.00     0.027 C 
ENDROOT
BRANCH   1   2
ATOM      2  C   UNL     1      -1.640   0.298  -6.123  1.00  0.00    -0.031 C 
ATOM      3  C   UNL     1      -1.140   1.534  -5.968  1.00  0.00    -0.027 C 
BRANCH   3   4
ATOM      4  C   UNL     1       0.307   1.757  -5.632  1.00  0.00     0.054 C 
BRANCH   4   5
ATOM      5  C   UNL     1       0.424   2.510  -4.338  1.00  0.00    -0.027 C 
ATOM      6  C   UNL     1       0.686   1.884  -3.182  1.00  0.00    -0.031 C 
BRANCH   6   7
ATOM      7  C   UNL     1       0.711   2.625  -1.875  1.00  0.00     0.027 C 
BRANCH   7   8
ATOM      8  C   UNL     1       0.208   4.063  -2.050  1.00  0.00     0.004 C 
BRANCH   8   9
ATOM      9  C   UNL     1       0.430   4.884  -0.772  1.00  0.00     0.000 C 
BRANCH   9  10
ATOM     10  C   UNL     1      -0.843   5.016   0.076  1.00  0.00    -0.003 C 
ATOM     11  C   UNL     1      -1.268   3.697   0.720  1.00  0.00     0.004 C 
ENDBRANCH   9  10
ENDBRANCH   8   9
ENDBRANCH   7   8
ENDBRANCH   6   7
ENDBRANCH   4   5
ENDBRANCH   3   4
ENDBRANCH   1   2
BRANCH   1  12
ATOM     12  C   UNL     1      -3.858  -0.501  -5.200  1.00  0.00     0.004 C 
BRANCH  12  13
ATOM     13  C   UNL     1      -4.195   0.542  -4.115  1.00  0.00     0.000 C 
BRANCH  13  14
ATOM     14  C   UNL     1      -3.384   0.414  -2.808  1.00  0.00     0.000 C 
BRANCH  14  15
ATOM     15  C   UNL     1      -2.890   1.745  -2.214  1.00  0.00     0.001 C 
BRANCH  15  16
ATOM     16  C   UNL     1      -3.151   2.946  -3.134  1.00  0.00     0.012 C 
BRANCH  16  17
ATOM     17  C   UNL     1      -3.430   4.211  -2.315  1.00  0.00     0.123 C 
BRANCH  17  18
ATOM     18  C   UNL     1      -4.890   4.333  -2.009  1.00  0.00     0.305 C 
ATOM     19  O   UNL     1      -5.735   3.757  -2.747  1.00  0.00    -0.252 OA
BRANCH  18  20
ATOM     20  O   UNL     1      -5.302   5.090  -0.907  1.00  0.00    -0.469 OA
ATOM     21  C   UNL     1      -4.471   6.071  -0.297  1.00  0.00     0.282 C 
ENDBRANCH  18  20
ENDBRANCH  17  18
ENDBRANCH  16  17
ENDBRANCH  15  16
ENDBRANCH  14  15
ENDBRANCH  13  14
ENDBRANCH  12  13
ENDBRANCH   1  12
TORSDOF 15
ENDMDL
MODEL 9
REMARK VINA RESULT:    -2.536      2.392      3.252
REMARK INTER + INTRA:          -7.442
REMARK INTER:                  -4.344
REMARK INTRA:                  -3.098
REMARK UNBOUND:                -2.683
REMARK SMILES CCCCCC=CCC=CCCCCCCCC(=O)OC
REMARK SMILES IDX 11 1 10 2 9 3 8 4 7 5 6 6 5 7 4 8 3 9 2 10 1 11 12 12 13 13
REMARK SMILES IDX 14 14 15 15 16 16 17 17 18 18 19 19 20 20 21 21
REMARK H PARENT
REMARK Flexibility Score: inf
ROOT
ATOM      1  C   UNL     1       0.718   2.695  -4.132  1.00  0.00     0.027 C 
ENDROOT
BRANCH   1   2
ATOM      2  C   UNL     1      -0.432   1.970  -3.485  1.00  0.00    -0.031 C 
ATOM      3  C   UNL     1      -0.566   1.910  -2.152  1.00  0.00    -0.027 C 
BRANCH   3   4
ATOM      4  C   UNL     1      -1.741   1.228  -1.512  1.00  0.00     0.054 C 
BRANCH   4   5
ATOM      5  C   UNL     1      -2.865   1.104  -2.501  1.00  0.00    -0.027 C 
ATOM      6  C   UNL     1      -4.055   1.684  -2.289  1.00  0.00    -0.031 C 
BRANCH   6   7
ATOM      7  C   UNL     1      -5.206   1.482  -3.233  1.00  0.00     0.027 C 
BRANCH   7   8
ATOM      8  C   UNL     1      -5.362   2.683  -4.174  1.00  0.00     0.004 C 
BRANCH   8   9
ATOM      9  C   UNL     1      -4.697   2.410  -5.530  1.00  0.00     0.000 C 
BRANCH   9  10
ATOM     10  C   UNL     1      -4.539   0.910  -5.821  1.00  0.00    -0.003 C 
ATOM     11  C   UNL     1      -3.104   0.521  -6.173  1.00  0.00     0.004 C 
ENDBRANCH   9  10
ENDBRANCH   8   9
ENDBRANCH   7   8
ENDBRANCH   6   7
ENDBRANCH   4   5
ENDBRANCH   3   4
ENDBRANCH   1   2
BRANCH   1  12
ATOM     12  C   UNL     1       0.297   4.042  -4.746  1.00  0.00     0.004 C 
BRANCH  12  13
ATOM     13  C   UNL     1      -1.217   4.177  -5.008  1.00  0.00     0.000 C 
BRANCH  13  14
ATOM     14  C   UNL     1      -1.907   5.347  -4.275  1.00  0.00     0.000 C 
BRANCH  14  15
ATOM     15  C   UNL     1      -2.634   4.964  -2.975  1.00  0.00     0.001 C 
BRANCH  15  16
ATOM     16  C   UNL     1      -1.864   5.379  -1.713  1.00  0.00     0.012 C 
BRANCH  16  17
ATOM     17  C   UNL     1      -2.413   4.658  -0.476  1.00  0.00     0.123 C 
BRANCH  17  18
ATOM     18  C   UNL     1      -1.377   4.592   0.602  1.00  0.00     0.305 C 
ATOM     19  O   UNL     1      -0.168   4.396   0.298  1.00  0.00    -0.252 OA
BRANCH  18  20
ATOM     20  O   UNL     1      -1.761   4.745   1.938  1.00  0.00    -0.469 OA
ATOM     21  C   UNL     1      -1.742   6.003   2.601  1.00  0.00     0.282 C 
ENDBRANCH  18  20
ENDBRANCH  17  18
ENDBRANCH  16  17
ENDBRANCH  15  16
ENDBRANCH  14  15
ENDBRANCH  13  14
ENDBRANCH  12  13
ENDBRANCH   1  12
TORSDOF 15
ENDMDL
