MODEL 1
REMARK VINA RESULT:    -3.725      0.000      0.000
REMARK INTER + INTRA:          -6.538
REMARK INTER:                  -5.684
REMARK INTRA:                  -0.853
REMARK UNBOUND:                -0.853
REMARK SMILES O=C([O-])CCCCCCCCC(=O)[O-]
REMARK SMILES IDX 7 1 6 2 5 3 4 4 2 5 1 6 3 7 8 8 9 9 10 10 11 11 12 12 13 13
REMARK SMILES IDX 14 14
REMARK H PARENT
REMARK Flexibility Score: inf
ROOT
ATOM      1  C   UNL     1     187.162 188.593 169.419  1.00  0.00     0.000 C 
ENDROOT
BRANCH   1   2
ATOM      2  C   UNL     1     186.964 187.230 168.736  1.00  0.00     0.000 C 
BRANCH   2   3
ATOM      3  C   UNL     1     185.676 186.526 169.190  1.00  0.00     0.006 C 
BRANCH   3   4
ATOM      4  C   UNL     1     185.095 187.196 170.438  1.00  0.00     0.053 C 
BRANCH   4   5
ATOM      5  C   UNL     1     183.633 187.458 170.260  1.00  0.00     0.041 C 
ATOM      6  O   UNL     1     183.231 188.208 169.331  1.00  0.00    -0.550 OA
ATOM      7  O   UNL     1     182.716 186.913 171.149  1.00  0.00    -0.550 OA
ENDBRANCH   4   5
ENDBRANCH   3   4
ENDBRANCH   2   3
ENDBRANCH   1   2
BRANCH   1   8
ATOM      8  C   UNL     1     188.576 188.763 170.000  1.00  0.00     0.000 C 
BRANCH   8   9
ATOM      9  C   UNL     1     189.315 187.415 170.130  1.00  0.00     0.000 C 
BRANCH   9  10
ATOM     10  C   UNL     1     189.473 186.939 171.585  1.00  0.00     0.006 C 
BRANCH  10  11
ATOM     11  C   UNL     1     188.274 186.122 172.080  1.00  0.00     0.053 C 
BRANCH  11  12
ATOM     12  C   UNL     1     188.616 185.407 173.348  1.00  0.00     0.041 C 
ATOM     13  O   UNL     1     187.745 184.717 173.942  1.00  0.00    -0.550 OA
ATOM     14  O   UNL     1     189.882 185.542 173.902  1.00  0.00    -0.550 OA
ENDBRANCH  11  12
ENDBRANCH  10  11
ENDBRANCH   9  10
ENDBRANCH   8   9
ENDBRANCH   1   8
TORSDOF 9
ENDMDL
MODEL 2
REMARK VINA RESULT:    -3.651      2.552      5.214
REMARK INTER + INTRA:          -6.425
REMARK INTER:                  -5.363
REMARK INTRA:                  -1.062
REMARK UNBOUND:                -0.853
REMARK SMILES O=C([O-])CCCCCCCCC(=O)[O-]
REMARK SMILES IDX 7 1 6 2 5 3 4 4 2 5 1 6 3 7 8 8 9 9 10 10 11 11 12 12 13 13
REMARK SMILES IDX 14 14
REMARK H PARENT
REMARK Flexibility Score: inf
ROOT
ATOM      1  C   UNL     1     186.530 187.515 170.475  1.00  0.00     0.000 C 
ENDROOT
BRANCH   1   2
ATOM      2  C   UNL     1     187.858 188.287 170.465  1.00  0.00     0.000 C 
BRANCH   2   3
ATOM      3  C   UNL     1     189.041 187.431 170.945  1.00  0.00     0.006 C 
BRANCH   3   4
ATOM      4  C   UNL     1     188.573 186.032 171.357  1.00  0.00     0.053 C 
BRANCH   4   5
ATOM      5  C   UNL     1     188.940 185.755 172.780  1.00  0.00     0.041 C 
ATOM      6  O   UNL     1     188.071 185.335 173.589  1.00  0.00    -0.550 OA
ATOM      7  O   UNL     1     190.231 186.007 173.227  1.00  0.00    -0.550 OA
ENDBRANCH   4   5
ENDBRANCH   3   4
ENDBRANCH   2   3
ENDBRANCH   1   2
BRANCH   1   8
ATOM      8  C   UNL     1     185.581 187.957 169.348  1.00  0.00     0.000 C 
BRANCH   8   9
ATOM      9  C   UNL     1     185.254 186.803 168.378  1.00  0.00     0.000 C 
BRANCH   9  10
ATOM     10  C   UNL     1     186.089 185.535 168.628  1.00  0.00     0.006 C 
BRANCH  10  11
ATOM     11  C   UNL     1     186.974 185.158 167.434  1.00  0.00     0.053 C 
BRANCH  11  12
ATOM     12  C   UNL     1     188.341 185.743 167.592  1.00  0.00     0.041 C 
ATOM     13  O   UNL     1     188.567 186.933 167.246  1.00  0.00    -0.550 OA
ATOM     14  O   UNL     1     189.381 184.959 168.077  1.00  0.00    -0.550 OA
ENDBRANCH  11  12
ENDBRANCH  10  11
ENDBRANCH   9  10
ENDBRANCH   8   9
ENDBRANCH   1   8
TORSDOF 9
ENDMDL
MODEL 3
REMARK VINA RESULT:    -3.633      1.561      4.956
REMARK INTER + INTRA:          -6.398
REMARK INTER:                  -5.363
REMARK INTRA:                  -1.035
REMARK UNBOUND:                -0.853
REMARK SMILES O=C([O-])CCCCCCCCC(=O)[O-]
REMARK SMILES IDX 7 1 6 2 5 3 4 4 2 5 1 6 3 7 8 8 9 9 10 10 11 11 12 12 13 13
REMARK SMILES IDX 14 14
REMARK H PARENT
REMARK Flexibility Score: inf
ROOT
ATOM      1  C   UNL     1     188.888 187.730 168.126  1.00  0.00     0.000 C 
ENDROOT
BRANCH   1   2
ATOM      2  C   UNL     1     188.194 188.787 169.000  1.00  0.00     0.000 C 
BRANCH   2   3
ATOM      3  C   UNL     1     188.176 188.402 170.487  1.00  0.00     0.006 C 
BRANCH   3   4
ATOM      4  C   UNL     1     189.315 187.433 170.816  1.00  0.00     0.053 C 
BRANCH   4   5
ATOM      5  C   UNL     1     188.782 186.203 171.479  1.00  0.00     0.041 C 
ATOM      6  O   UNL     1     187.655 186.223 172.041  1.00  0.00    -0.550 OA
ATOM      7  O   UNL     1     189.550 185.046 171.518  1.00  0.00    -0.550 OA
ENDBRANCH   4   5
ENDBRANCH   3   4
ENDBRANCH   2   3
ENDBRANCH   1   2
BRANCH   1   8
ATOM      8  C   UNL     1     187.889 186.888 167.313  1.00  0.00     0.000 C 
BRANCH   8   9
ATOM      9  C   UNL     1     187.496 185.588 168.045  1.00  0.00     0.000 C 
BRANCH   9  10
ATOM     10  C   UNL     1     186.115 185.658 168.722  1.00  0.00     0.006 C 
BRANCH  10  11
ATOM     11  C   UNL     1     185.289 186.867 168.269  1.00  0.00     0.053 C 
BRANCH  11  12
ATOM     12  C   UNL     1     184.485 187.407 169.409  1.00  0.00     0.041 C 
ATOM     13  O   UNL     1     183.498 188.158 169.190  1.00  0.00    -0.550 OA
ATOM     14  O   UNL     1     184.857 187.123 170.717  1.00  0.00    -0.550 OA
ENDBRANCH  11  12
ENDBRANCH  10  11
ENDBRANCH   9  10
ENDBRANCH   8   9
ENDBRANCH   1   8
TORSDOF 9
ENDMDL
MODEL 4
REMARK VINA RESULT:    -3.583      1.502      6.166
REMARK INTER + INTRA:          -6.322
REMARK INTER:                  -5.828
REMARK INTRA:                  -0.494
REMARK UNBOUND:                -0.853
REMARK SMILES O=C([O-])CCCCCCCCC(=O)[O-]
REMARK SMILES IDX 7 1 6 2 5 3 4 4 2 5 1 6 3 7 8 8 9 9 10 10 11 11 12 12 13 13
REMARK SMILES IDX 14 14
REMARK H PARENT
REMARK Flexibility Score: inf
ROOT
ATOM      1  C   UNL     1     186.876 186.988 170.906  1.00  0.00     0.000 C 
ENDROOT
BRANCH   1   2
ATOM      2  C   UNL     1     188.366 187.232 171.193  1.00  0.00     0.000 C 
BRANCH   2   3
ATOM      3  C   UNL     1     189.125 185.934 171.509  1.00  0.00     0.006 C 
BRANCH   3   4
ATOM      4  C   UNL     1     188.749 185.403 172.896  1.00  0.00     0.053 C 
BRANCH   4   5
ATOM      5  C   UNL     1     189.968 185.267 173.752  1.00  0.00     0.041 C 
ATOM      6  O   UNL     1     190.418 184.125 174.038  1.00  0.00    -0.550 OA
ATOM      7  O   UNL     1     190.580 186.398 174.276  1.00  0.00    -0.550 OA
ENDBRANCH   4   5
ENDBRANCH   3   4
ENDBRANCH   2   3
ENDBRANCH   1   2
BRANCH   1   8
ATOM      8  C   UNL     1     186.650 186.090 169.678  1.00  0.00     0.000 C 
BRANCH   8   9
ATOM      9  C   UNL     1     185.629 186.698 168.693  1.00  0.00     0.000 C 
BRANCH   9  10
ATOM     10  C   UNL     1     184.924 187.954 169.237  1.00  0.00     0.006 C 
BRANCH  10  11
ATOM     11  C   UNL     1     183.413 187.948 168.979  1.00  0.00     0.053 C 
BRANCH  11  12
ATOM     12  C   UNL     1     182.664 187.790 170.263  1.00  0.00     0.041 C 
ATOM     13  O   UNL     1     181.649 188.498 170.498  1.00  0.00    -0.550 OA
ATOM     14  O   UNL     1     183.115 186.894 171.225  1.00  0.00    -0.550 OA
ENDBRANCH  11  12
ENDBRANCH  10  11
ENDBRANCH   9  10
ENDBRANCH   8   9
ENDBRANCH   1   8
TORSDOF 9
ENDMDL
MODEL 5
REMARK VINA RESULT:    -3.569      1.776      5.292
REMARK INTER + INTRA:          -6.300
REMARK INTER:                  -5.419
REMARK INTRA:                  -0.881
REMARK UNBOUND:                -0.853
REMARK SMILES O=C([O-])CCCCCCCCC(=O)[O-]
REMARK SMILES IDX 7 1 6 2 5 3 4 4 2 5 1 6 3 7 8 8 9 9 10 10 11 11 12 12 13 13
REMARK SMILES IDX 14 14
REMARK H PARENT
REMARK Flexibility Score: inf
ROOT
ATOM      1  C   UNL     1     189.200 185.205 169.754  1.00  0.00     0.000 C 
ENDROOT
BRANCH   1   2
ATOM      2  C   UNL     1     189.522 186.647 170.178  1.00  0.00     0.000 C 
BRANCH   2   3
ATOM      3  C   UNL     1     189.332 186.875 171.685  1.00  0.00     0.006 C 
BRANCH   3   4
ATOM      4  C   UNL     1     188.456 185.779 172.299  1.00  0.00     0.053 C 
BRANCH   4   5
ATOM      5  C   UNL     1     189.154 185.137 173.456  1.00  0.00     0.041 C 
ATOM      6  O   UNL     1     189.981 185.793 174.142  1.00  0.00    -0.550 OA
ATOM      7  O   UNL     1     188.927 183.798 173.747  1.00  0.00    -0.550 OA
ENDBRANCH   4   5
ENDBRANCH   3   4
ENDBRANCH   2   3
ENDBRANCH   1   2
BRANCH   1   8
ATOM      8  C   UNL     1     188.502 185.133 168.385  1.00  0.00     0.000 C 
BRANCH   8   9
ATOM      9  C   UNL     1     186.965 185.128 168.517  1.00  0.00     0.000 C 
BRANCH   9  10
ATOM     10  C   UNL     1     186.287 186.337 167.847  1.00  0.00     0.006 C 
BRANCH  10  11
ATOM     11  C   UNL     1     185.220 186.990 168.733  1.00  0.00     0.053 C 
BRANCH  11  12
ATOM     12  C   UNL     1     185.851 187.619 169.934  1.00  0.00     0.041 C 
ATOM     13  O   UNL     1     185.569 187.206 171.090  1.00  0.00    -0.550 OA
ATOM     14  O   UNL     1     186.715 188.697 169.781  1.00  0.00    -0.550 OA
ENDBRANCH  11  12
ENDBRANCH  10  11
ENDBRANCH   9  10
ENDBRANCH   8   9
ENDBRANCH   1   8
TORSDOF 9
ENDMDL
MODEL 6
REMARK VINA RESULT:    -3.540      1.360      2.139
REMARK INTER + INTRA:          -6.255
REMARK INTER:                  -5.409
REMARK INTRA:                  -0.847
REMARK UNBOUND:                -0.853
REMARK SMILES O=C([O-])CCCCCCCCC(=O)[O-]
REMARK SMILES IDX 7 1 6 2 5 3 4 4 2 5 1 6 3 7 8 8 9 9 10 10 11 11 12 12 13 13
REMARK SMILES IDX 14 14
REMARK H PARENT
REMARK Flexibility Score: inf
ROOT
ATOM      1  C   UNL     1     188.278 185.308 168.191  1.00  0.00     0.000 C 
ENDROOT
BRANCH   1   2
ATOM      2  C   UNL     1     186.746 185.193 168.230  1.00  0.00     0.000 C 
BRANCH   2   3
ATOM      3  C   UNL     1     186.046 186.500 167.826  1.00  0.00     0.006 C 
BRANCH   3   4
ATOM      4  C   UNL     1     186.086 187.518 168.969  1.00  0.00     0.053 C 
BRANCH   4   5
ATOM      5  C   UNL     1     184.762 187.580 169.662  1.00  0.00     0.041 C 
ATOM      6  O   UNL     1     184.622 187.079 170.809  1.00  0.00    -0.550 OA
ATOM      7  O   UNL     1     183.668 188.147 169.022  1.00  0.00    -0.550 OA
ENDBRANCH   4   5
ENDBRANCH   3   4
ENDBRANCH   2   3
ENDBRANCH   1   2
BRANCH   1   8
ATOM      8  C   UNL     1     188.927 185.016 169.555  1.00  0.00     0.000 C 
BRANCH   8   9
ATOM      9  C   UNL     1     189.805 186.187 170.043  1.00  0.00     0.000 C 
BRANCH   9  10
ATOM     10  C   UNL     1     189.204 186.952 171.235  1.00  0.00     0.006 C 
BRANCH  10  11
ATOM     11  C   UNL     1     188.096 186.170 171.948  1.00  0.00     0.053 C 
BRANCH  11  12
ATOM     12  C   UNL     1     188.626 185.528 173.191  1.00  0.00     0.041 C 
ATOM     13  O   UNL     1     189.772 185.825 173.619  1.00  0.00    -0.550 OA
ATOM     14  O   UNL     1     187.874 184.563 173.849  1.00  0.00    -0.550 OA
ENDBRANCH  11  12
ENDBRANCH  10  11
ENDBRANCH   9  10
ENDBRANCH   8   9
ENDBRANCH   1   8
TORSDOF 9
ENDMDL
MODEL 7
REMARK VINA RESULT:    -3.507      2.863      3.419
REMARK INTER + INTRA:          -6.205
REMARK INTER:                  -5.396
REMARK INTRA:                  -0.809
REMARK UNBOUND:                -0.853
REMARK SMILES O=C([O-])CCCCCCCCC(=O)[O-]
REMARK SMILES IDX 7 1 6 2 5 3 4 4 2 5 1 6 3 7 8 8 9 9 10 10 11 11 12 12 13 13
REMARK SMILES IDX 14 14
REMARK H PARENT
REMARK Flexibility Score: inf
ROOT
ATOM      1  C   UNL     1     185.930 187.308 170.692  1.00  0.00     0.000 C 
ENDROOT
BRANCH   1   2
ATOM      2  C   UNL     1     185.013 187.301 169.459  1.00  0.00     0.000 C 
BRANCH   2   3
ATOM      3  C   UNL     1     185.691 186.689 168.224  1.00  0.00     0.006 C 
BRANCH   3   4
ATOM      4  C   UNL     1     186.177 185.266 168.515  1.00  0.00     0.053 C 
BRANCH   4   5
ATOM      5  C   UNL     1     187.439 184.980 167.764  1.00  0.00     0.041 C 
ATOM      6  O   UNL     1     188.537 184.903 168.376  1.00  0.00    -0.550 OA
ATOM      7  O   UNL     1     187.411 184.847 166.382  1.00  0.00    -0.550 OA
ENDBRANCH   4   5
ENDBRANCH   3   4
ENDBRANCH   2   3
ENDBRANCH   1   2
BRANCH   1   8
ATOM      8  C   UNL     1     187.191 188.165 170.487  1.00  0.00     0.000 C 
BRANCH   8   9
ATOM      9  C   UNL     1     188.478 187.406 170.869  1.00  0.00     0.000 C 
BRANCH   9  10
ATOM     10  C   UNL     1     188.221 186.143 171.711  1.00  0.00     0.006 C 
BRANCH  10  11
ATOM     11  C   UNL     1     189.318 185.883 172.748  1.00  0.00     0.053 C 
BRANCH  11  12
ATOM     12  C   UNL     1     190.297 184.877 172.233  1.00  0.00     0.041 C 
ATOM     13  O   UNL     1     190.004 184.156 171.242  1.00  0.00    -0.550 OA
ATOM     14  O   UNL     1     191.516 184.700 172.876  1.00  0.00    -0.550 OA
ENDBRANCH  11  12
ENDBRANCH  10  11
ENDBRANCH   9  10
ENDBRANCH   8   9
ENDBRANCH   1   8
TORSDOF 9
ENDMDL
MODEL 8
REMARK VINA RESULT:    -3.493      1.615      5.533
REMARK INTER + INTRA:          -6.184
REMARK INTER:                  -5.659
REMARK INTRA:                  -0.525
REMARK UNBOUND:                -0.853
REMARK SMILES O=C([O-])CCCCCCCCC(=O)[O-]
REMARK SMILES IDX 7 1 6 2 5 3 4 4 2 5 1 6 3 7 8 8 9 9 10 10 11 11 12 12 13 13
REMARK SMILES IDX 14 14
REMARK H PARENT
REMARK Flexibility Score: inf
ROOT
ATOM      1  C   UNL     1     187.525 185.098 167.710  1.00  0.00     0.000 C 
ENDROOT
BRANCH   1   2
ATOM      2  C   UNL     1     188.864 185.148 168.463  1.00  0.00     0.000 C 
BRANCH   2   3
ATOM      3  C   UNL     1     188.911 186.272 169.509  1.00  0.00     0.006 C 
BRANCH   3   4
ATOM      4  C   UNL     1     189.596 185.797 170.793  1.00  0.00     0.053 C 
BRANCH   4   5
ATOM      5  C   UNL     1     188.671 185.930 171.961  1.00  0.00     0.041 C 
ATOM      6  O   UNL     1     187.476 186.286 171.786  1.00  0.00    -0.550 OA
ATOM      7  O   UNL     1     189.141 185.707 173.249  1.00  0.00    -0.550 OA
ENDBRANCH   4   5
ENDBRANCH   3   4
ENDBRANCH   2   3
ENDBRANCH   1   2
BRANCH   1   8
ATOM      8  C   UNL     1     186.322 185.377 168.627  1.00  0.00     0.000 C 
BRANCH   8   9
ATOM      9  C   UNL     1     185.608 186.695 168.263  1.00  0.00     0.000 C 
BRANCH   9  10
ATOM     10  C   UNL     1     184.980 187.409 169.473  1.00  0.00     0.006 C 
BRANCH  10  11
ATOM     11  C   UNL     1     183.613 188.028 169.159  1.00  0.00     0.053 C 
BRANCH  11  12
ATOM     12  C   UNL     1     182.677 187.841 170.310  1.00  0.00     0.041 C 
ATOM     13  O   UNL     1     181.725 188.646 170.490  1.00  0.00    -0.550 OA
ATOM     14  O   UNL     1     182.885 186.807 171.214  1.00  0.00    -0.550 OA
ENDBRANCH  11  12
ENDBRANCH  10  11
ENDBRANCH   9  10
ENDBRANCH   8   9
ENDBRANCH   1   8
TORSDOF 9
ENDMDL
MODEL 9
REMARK VINA RESULT:    -3.478      2.505      5.086
REMARK INTER + INTRA:          -6.162
REMARK INTER:                  -5.195
REMARK INTRA:                  -0.967
REMARK UNBOUND:                -0.853
REMARK SMILES O=C([O-])CCCCCCCCC(=O)[O-]
REMARK SMILES IDX 7 1 6 2 5 3 4 4 2 5 1 6 3 7 8 8 9 9 10 10 11 11 12 12 13 13
REMARK SMILES IDX 14 14
REMARK H PARENT
REMARK Flexibility Score: inf
ROOT
ATOM      1  C   UNL     1     188.921 185.419 167.566  1.00  0.00     0.000 C 
ENDROOT
BRANCH   1   2
ATOM      2  C   UNL     1     189.371 186.862 167.286  1.00  0.00     0.000 C 
BRANCH   2   3
ATOM      3  C   UNL     1     189.759 187.617 168.566  1.00  0.00     0.006 C 
BRANCH   3   4
ATOM      4  C   UNL     1     188.849 188.829 168.784  1.00  0.00     0.053 C 
BRANCH   4   5
ATOM      5  C   UNL     1     188.152 188.732 170.104  1.00  0.00     0.041 C 
ATOM      6  O   UNL     1     187.326 189.617 170.452  1.00  0.00    -0.550 OA
ATOM      7  O   UNL     1     188.449 187.689 170.972  1.00  0.00    -0.550 OA
ENDBRANCH   4   5
ENDBRANCH   3   4
ENDBRANCH   2   3
ENDBRANCH   1   2
BRANCH   1   8
ATOM      8  C   UNL     1     187.550 185.098 166.947  1.00  0.00     0.000 C 
BRANCH   8   9
ATOM      9  C   UNL     1     186.513 184.689 168.015  1.00  0.00     0.000 C 
BRANCH   9  10
ATOM     10  C   UNL     1     186.187 185.810 169.017  1.00  0.00     0.006 C 
BRANCH  10  11
ATOM     11  C   UNL     1     185.379 186.953 168.393  1.00  0.00     0.053 C 
BRANCH  11  12
ATOM     12  C   UNL     1     184.437 187.537 169.397  1.00  0.00     0.041 C 
ATOM     13  O   UNL     1     184.535 187.226 170.614  1.00  0.00    -0.550 OA
ATOM     14  O   UNL     1     183.419 188.387 168.984  1.00  0.00    -0.550 OA
ENDBRANCH  11  12
ENDBRANCH  10  11
ENDBRANCH   9  10
ENDBRANCH   8   9
ENDBRANCH   1   8
TORSDOF 9
ENDMDL
