MODEL 1
REMARK VINA RESULT:    77.341      0.000      0.000
REMARK INTER + INTRA:         107.193
REMARK INTER:                 106.729
REMARK INTRA:                   0.463
REMARK UNBOUND:                 0.463
REMARK SMILES C=C(CC[C@@H](C(=O)[O-])[C@@H]1CC[C@@]2(C)C3=C(CC[C@@]12C)[C@]1(C)CC[C@H](O)C(C)(C)[C@@H]1CC3)C(C)C
REMARK SMILES IDX 4 1 5 2 6 3 7 4 8 5 9 6 10 7 18 8 11 9 12 10 17 11 19 12
REMARK SMILES IDX 13 13 14 14 16 15 15 16 31 17 20 18 30 19 29 20 22 21 21 22
REMARK SMILES IDX 26 23 23 24 24 25 27 26 28 27 25 28 3 30 2 31 1 32 32 33
REMARK SMILES IDX 33 34 34 35
REMARK H PARENT 25 29
REMARK Flexibility Score: inf
ROOT
ATOM      1  C   UNL     1      81.490  20.043 102.187  1.00  0.00     0.014 C 
ENDROOT
BRANCH   1   2
ATOM      2  C   UNL     1      80.765  18.710 102.551  1.00  0.00     0.039 C 
BRANCH   2   3
ATOM      3  C   UNL     1      80.774  17.703 101.421  1.00  0.00     0.045 C 
ATOM      4  O   UNL     1      81.848  17.332 100.875  1.00  0.00    -0.550 OA
ATOM      5  O   UNL     1      79.572  17.173 100.963  1.00  0.00    -0.550 OA
ENDBRANCH   2   3
BRANCH   2   6
ATOM      6  C   UNL     1      81.172  18.024 103.906  1.00  0.00     0.004 C 
ATOM      7  C   UNL     1      80.549  18.659 105.154  1.00  0.00     0.006 C 
ATOM      8  C   UNL     1      82.678  17.690 104.262  1.00  0.00    -0.020 C 
ATOM      9  C   UNL     1      81.345  18.117 106.328  1.00  0.00     0.012 C 
ATOM     10  C   UNL     1      82.807  17.983 105.833  1.00  0.00    -0.006 C 
ATOM     11  C   UNL     1      82.939  16.186 103.937  1.00  0.00     0.012 C 
ATOM     12  C   UNL     1      83.717  18.487 103.425  1.00  0.00     0.012 C 
ATOM     13  C   UNL     1      83.488  19.362 106.121  1.00  0.00     0.017 C 
ATOM     14  C   UNL     1      83.491  16.815 106.616  1.00  0.00    -0.064 C 
ATOM     15  C   UNL     1      82.415  15.263 105.037  1.00  0.00     0.032 C 
ATOM     16  C   UNL     1      83.201  15.514 106.314  1.00  0.00    -0.064 C 
ATOM     17  C   UNL     1      84.524  17.080 107.684  1.00  0.00     0.032 C 
ATOM     18  C   UNL     1      83.485  14.325 107.285  1.00  0.00    -0.008 C 
ATOM     19  C   UNL     1      84.336  16.160 108.870  1.00  0.00     0.009 C 
ATOM     20  C   UNL     1      84.502  14.678 108.458  1.00  0.00     0.007 C 
ATOM     21  C   UNL     1      82.101  13.946 107.880  1.00  0.00     0.014 C 
ATOM     22  C   UNL     1      84.059  13.156 106.426  1.00  0.00     0.016 C 
ATOM     23  C   UNL     1      84.484  13.692 109.729  1.00  0.00    -0.006 C 
ATOM     24  C   UNL     1      82.168  12.876 108.967  1.00  0.00     0.033 C 
ATOM     25  C   UNL     1      83.026  13.328 110.154  1.00  0.00     0.120 C 
ATOM     26  C   UNL     1      85.217  14.316 110.954  1.00  0.00     0.014 C 
ATOM     27  C   UNL     1      85.272  12.374 109.446  1.00  0.00     0.014 C 
BRANCH  25  28
ATOM     28  O   UNL     1      82.381  14.415 110.776  1.00  0.00    -0.393 OA
ATOM     29  H   UNL     1      82.975  14.732 111.511  1.00  0.00     0.210 HD
ENDBRANCH  25  28
ENDBRANCH   2   6
ENDBRANCH   1   2
BRANCH   1  30
ATOM     30  C   UNL     1      80.831  21.308 102.802  1.00  0.00     0.031 C 
BRANCH  30  31
ATOM     31  C   UNL     1      79.362  21.108 103.133  1.00  0.00    -0.075 C 
ATOM     32  C   UNL     1      78.516  20.793 102.130  1.00  0.00     0.008 C 
BRANCH  31  33
ATOM     33  C   UNL     1      78.931  21.151 104.607  1.00  0.00     0.008 C 
ATOM     34  C   UNL     1      78.349  22.530 104.965  1.00  0.00     0.012 C 
ATOM     35  C   UNL     1      77.937  20.050 105.028  1.00  0.00     0.012 C 
ENDBRANCH  31  33
ENDBRANCH  30  31
ENDBRANCH   1  30
TORSDOF 7
ENDMDL
MODEL 2
REMARK VINA RESULT:    77.937      2.625      9.003
REMARK INTER + INTRA:         108.015
REMARK INTER:                 107.526
REMARK INTRA:                   0.489
REMARK UNBOUND:                 0.463
REMARK SMILES C=C(CC[C@@H](C(=O)[O-])[C@@H]1CC[C@@]2(C)C3=C(CC[C@@]12C)[C@]1(C)CC[C@H](O)C(C)(C)[C@@H]1CC3)C(C)C
REMARK SMILES IDX 4 1 5 2 6 3 7 4 8 5 9 6 10 7 18 8 11 9 12 10 17 11 19 12
REMARK SMILES IDX 13 13 14 14 16 15 15 16 31 17 20 18 30 19 29 20 22 21 21 22
REMARK SMILES IDX 26 23 23 24 24 25 27 26 28 27 25 28 3 30 2 31 1 32 32 33
REMARK SMILES IDX 33 34 34 35
REMARK H PARENT 25 29
REMARK Flexibility Score: inf
ROOT
ATOM      1  C   UNL     1      87.148  14.313 107.441  1.00  0.00     0.014 C 
ENDROOT
BRANCH   1   2
ATOM      2  C   UNL     1      85.597  14.173 107.346  1.00  0.00     0.039 C 
BRANCH   2   3
ATOM      3  C   UNL     1      84.951  13.822 108.669  1.00  0.00     0.045 C 
ATOM      4  O   UNL     1      85.092  14.552 109.686  1.00  0.00    -0.550 OA
ATOM      5  O   UNL     1      84.187  12.664 108.775  1.00  0.00    -0.550 OA
ENDBRANCH   2   3
BRANCH   2   6
ATOM      6  C   UNL     1      84.817  15.343 106.643  1.00  0.00     0.004 C 
ATOM      7  C   UNL     1      85.084  16.732 107.234  1.00  0.00     0.006 C 
ATOM      8  C   UNL     1      83.265  15.261 106.344  1.00  0.00    -0.020 C 
ATOM      9  C   UNL     1      83.983  17.625 106.690  1.00  0.00     0.012 C 
ATOM     10  C   UNL     1      82.712  16.743 106.608  1.00  0.00    -0.006 C 
ATOM     11  C   UNL     1      83.072  14.834 104.855  1.00  0.00     0.012 C 
ATOM     12  C   UNL     1      82.515  14.192 107.187  1.00  0.00     0.012 C 
ATOM     13  C   UNL     1      82.008  16.870 107.999  1.00  0.00     0.017 C 
ATOM     14  C   UNL     1      81.814  17.274 105.443  1.00  0.00    -0.064 C 
ATOM     15  C   UNL     1      83.252  16.010 103.895  1.00  0.00     0.032 C 
ATOM     16  C   UNL     1      82.149  17.027 104.141  1.00  0.00    -0.064 C 
ATOM     17  C   UNL     1      80.532  18.022 105.714  1.00  0.00     0.032 C 
ATOM     18  C   UNL     1      81.582  17.849 102.940  1.00  0.00    -0.008 C 
ATOM     19  C   UNL     1      80.365  19.188 104.765  1.00  0.00     0.009 C 
ATOM     20  C   UNL     1      80.288  18.705 103.297  1.00  0.00     0.007 C 
ATOM     21  C   UNL     1      82.740  18.791 102.511  1.00  0.00     0.014 C 
ATOM     22  C   UNL     1      81.244  16.832 101.806  1.00  0.00     0.016 C 
ATOM     23  C   UNL     1      79.933  19.904 102.284  1.00  0.00    -0.006 C 
ATOM     24  C   UNL     1      82.352  19.787 101.420  1.00  0.00     0.033 C 
ATOM     25  C   UNL     1      81.209  20.704 101.871  1.00  0.00     0.120 C 
ATOM     26  C   UNL     1      78.904  20.895 102.903  1.00  0.00     0.014 C 
ATOM     27  C   UNL     1      79.227  19.377 100.995  1.00  0.00     0.014 C 
BRANCH  25  28
ATOM     28  O   UNL     1      81.680  21.509 102.927  1.00  0.00    -0.393 OA
ATOM     29  H   UNL     1      82.676  21.484 102.898  1.00  0.00     0.210 HD
ENDBRANCH  25  28
ENDBRANCH   2   6
ENDBRANCH   1   2
BRANCH   1  30
ATOM     30  C   UNL     1      87.912  12.967 107.311  1.00  0.00     0.031 C 
BRANCH  30  31
ATOM     31  C   UNL     1      88.837  12.925 106.107  1.00  0.00    -0.075 C 
ATOM     32  C   UNL     1      89.083  14.076 105.447  1.00  0.00     0.008 C 
BRANCH  31  33
ATOM     33  C   UNL     1      89.546  11.603 105.775  1.00  0.00     0.008 C 
ATOM     34  C   UNL     1      89.557  10.668 106.997  1.00  0.00     0.012 C 
ATOM     35  C   UNL     1      88.978  10.848 104.557  1.00  0.00     0.012 C 
ENDBRANCH  31  33
ENDBRANCH  30  31
ENDBRANCH   1  30
TORSDOF 7
ENDMDL
MODEL 3
REMARK VINA RESULT:    79.182      1.933      2.889
REMARK INTER + INTRA:         109.733
REMARK INTER:                 108.459
REMARK INTRA:                   1.274
REMARK UNBOUND:                 0.463
REMARK SMILES C=C(CC[C@@H](C(=O)[O-])[C@@H]1CC[C@@]2(C)C3=C(CC[C@@]12C)[C@]1(C)CC[C@H](O)C(C)(C)[C@@H]1CC3)C(C)C
REMARK SMILES IDX 4 1 5 2 6 3 7 4 8 5 9 6 10 7 18 8 11 9 12 10 17 11 19 12
REMARK SMILES IDX 13 13 14 14 16 15 15 16 31 17 20 18 30 19 29 20 22 21 21 22
REMARK SMILES IDX 26 23 23 24 24 25 27 26 28 27 25 28 3 30 2 31 1 32 32 33
REMARK SMILES IDX 33 34 34 35
REMARK H PARENT 25 29
REMARK Flexibility Score: inf
ROOT
ATOM      1  C   UNL     1      78.404  19.115 103.679  1.00  0.00     0.014 C 
ENDROOT
BRANCH   1   2
ATOM      2  C   UNL     1      79.421  19.818 104.632  1.00  0.00     0.039 C 
BRANCH   2   3
ATOM      3  C   UNL     1      78.830  21.008 105.356  1.00  0.00     0.045 C 
ATOM      4  O   UNL     1      79.000  22.186 104.940  1.00  0.00    -0.550 OA
ATOM      5  O   UNL     1      78.083  20.808 106.513  1.00  0.00    -0.550 OA
ENDBRANCH   2   3
BRANCH   2   6
ATOM      6  C   UNL     1      80.212  18.899 105.633  1.00  0.00     0.004 C 
ATOM      7  C   UNL     1      80.228  19.402 107.081  1.00  0.00     0.006 C 
ATOM      8  C   UNL     1      81.667  18.365 105.315  1.00  0.00    -0.020 C 
ATOM      9  C   UNL     1      81.325  18.612 107.774  1.00  0.00     0.012 C 
ATOM     10  C   UNL     1      82.441  18.405 106.719  1.00  0.00    -0.006 C 
ATOM     11  C   UNL     1      81.548  16.907 104.769  1.00  0.00     0.012 C 
ATOM     12  C   UNL     1      82.408  19.168 104.209  1.00  0.00     0.012 C 
ATOM     13  C   UNL     1      83.382  19.649 106.836  1.00  0.00     0.017 C 
ATOM     14  C   UNL     1      83.187  17.069 107.041  1.00  0.00    -0.064 C 
ATOM     15  C   UNL     1      81.358  15.889 105.893  1.00  0.00     0.032 C 
ATOM     16  C   UNL     1      82.607  15.865 106.759  1.00  0.00    -0.064 C 
ATOM     17  C   UNL     1      84.582  17.066 107.618  1.00  0.00     0.032 C 
ATOM     18  C   UNL     1      83.061  14.521 107.412  1.00  0.00    -0.008 C 
ATOM     19  C   UNL     1      84.731  16.003 108.685  1.00  0.00     0.009 C 
ATOM     20  C   UNL     1      84.495  14.590 108.101  1.00  0.00     0.007 C 
ATOM     21  C   UNL     1      81.977  14.201 108.478  1.00  0.00     0.014 C 
ATOM     22  C   UNL     1      83.069  13.442 106.286  1.00  0.00     0.016 C 
ATOM     23  C   UNL     1      84.822  13.432 109.169  1.00  0.00    -0.006 C 
ATOM     24  C   UNL     1      82.296  12.979 109.336  1.00  0.00     0.033 C 
ATOM     25  C   UNL     1      83.607  13.159 110.111  1.00  0.00     0.120 C 
ATOM     26  C   UNL     1      86.060  13.789 110.045  1.00  0.00     0.014 C 
ATOM     27  C   UNL     1      85.226  12.097 108.465  1.00  0.00     0.014 C 
BRANCH  25  28
ATOM     28  O   UNL     1      83.429  14.202 111.042  1.00  0.00    -0.393 OA
ATOM     29  H   UNL     1      83.487  13.799 111.952  1.00  0.00     0.210 HD
ENDBRANCH  25  28
ENDBRANCH   2   6
ENDBRANCH   1   2
BRANCH   1  30
ATOM     30  C   UNL     1      78.616  19.444 102.176  1.00  0.00     0.031 C 
BRANCH  30  31
ATOM     31  C   UNL     1      80.044  19.851 101.856  1.00  0.00    -0.075 C 
ATOM     32  C   UNL     1      80.501  21.024 102.341  1.00  0.00     0.008 C 
BRANCH  31  33
ATOM     33  C   UNL     1      80.938  18.854 101.103  1.00  0.00     0.008 C 
ATOM     34  C   UNL     1      82.396  18.956 101.584  1.00  0.00     0.012 C 
ATOM     35  C   UNL     1      80.478  17.384 101.173  1.00  0.00     0.012 C 
ENDBRANCH  31  33
ENDBRANCH  30  31
ENDBRANCH   1  30
TORSDOF 7
ENDMDL
