MODEL 1
REMARK VINA RESULT:    -4.345      0.000      0.000
REMARK INTER + INTRA:         -10.462
REMARK INTER:                  -8.155
REMARK INTRA:                  -2.307
REMARK UNBOUND:                -2.307
REMARK SMILES O=C([O-])CCCCCCCCCCCCCCC(=O)[O-]
REMARK SMILES IDX 10 1 9 2 8 3 7 4 6 5 5 6 4 7 2 8 1 9 3 10 11 11 12 12 13 13
REMARK SMILES IDX 14 14 15 15 16 16 17 17 18 18 19 19 20 20
REMARK H PARENT
REMARK Flexibility Score: inf
ROOT
ATOM      1  C   UNL     1     -16.374 -32.610  21.779  1.00  0.00     0.000 C 
ENDROOT
BRANCH   1   2
ATOM      2  C   UNL     1     -15.832 -33.716  20.854  1.00  0.00     0.000 C 
BRANCH   2   3
ATOM      3  C   UNL     1     -14.904 -33.174  19.755  1.00  0.00     0.000 C 
BRANCH   3   4
ATOM      4  C   UNL     1     -15.616 -32.206  18.791  1.00  0.00     0.000 C 
BRANCH   4   5
ATOM      5  C   UNL     1     -15.664 -32.661  17.321  1.00  0.00     0.000 C 
BRANCH   5   6
ATOM      6  C   UNL     1     -16.892 -33.525  16.999  1.00  0.00     0.006 C 
BRANCH   6   7
ATOM      7  C   UNL     1     -17.979 -32.698  16.309  1.00  0.00     0.053 C 
BRANCH   7   8
ATOM      8  C   UNL     1     -18.710 -33.528  15.302  1.00  0.00     0.041 C 
ATOM      9  O   UNL     1     -18.077 -34.118  14.387  1.00  0.00    -0.550 OA
ATOM     10  O   UNL     1     -20.096 -33.612  15.343  1.00  0.00    -0.550 OA
ENDBRANCH   7   8
ENDBRANCH   6   7
ENDBRANCH   5   6
ENDBRANCH   4   5
ENDBRANCH   3   4
ENDBRANCH   2   3
ENDBRANCH   1   2
BRANCH   1  11
ATOM     11  C   UNL     1     -17.896 -32.374  21.704  1.00  0.00     0.000 C 
BRANCH  11  12
ATOM     12  C   UNL     1     -18.661 -33.326  20.767  1.00  0.00     0.000 C 
BRANCH  12  13
ATOM     13  C   UNL     1     -19.387 -32.589  19.631  1.00  0.00     0.000 C 
BRANCH  13  14
ATOM     14  C   UNL     1     -19.868 -31.206  20.094  1.00  0.00     0.000 C 
BRANCH  14  15
ATOM     15  C   UNL     1     -19.867 -30.167  18.961  1.00  0.00     0.000 C 
BRANCH  15  16
ATOM     16  C   UNL     1     -18.448 -29.815  18.483  1.00  0.00     0.006 C 
BRANCH  16  17
ATOM     17  C   UNL     1     -17.589 -29.222  19.607  1.00  0.00     0.053 C 
BRANCH  17  18
ATOM     18  C   UNL     1     -17.390 -27.746  19.437  1.00  0.00     0.041 C 
ATOM     19  O   UNL     1     -16.234 -27.251  19.496  1.00  0.00    -0.550 OA
ATOM     20  O   UNL     1     -18.480 -26.923  19.186  1.00  0.00    -0.550 OA
ENDBRANCH  17  18
ENDBRANCH  16  17
ENDBRANCH  15  16
ENDBRANCH  14  15
ENDBRANCH  13  14
ENDBRANCH  12  13
ENDBRANCH  11  12
ENDBRANCH   1  11
TORSDOF 15
ENDMDL
MODEL 2
REMARK VINA RESULT:    -4.324      0.824      5.698
REMARK INTER + INTRA:         -10.423
REMARK INTER:                  -8.087
REMARK INTRA:                  -2.335
REMARK UNBOUND:                -2.307
REMARK SMILES O=C([O-])CCCCCCCCCCCCCCC(=O)[O-]
REMARK SMILES IDX 10 1 9 2 8 3 7 4 6 5 5 6 4 7 2 8 1 9 3 10 11 11 12 12 13 13
REMARK SMILES IDX 14 14 15 15 16 16 17 17 18 18 19 19 20 20
REMARK H PARENT
REMARK Flexibility Score: inf
ROOT
ATOM      1  C   UNL     1     -16.821 -34.037  20.949  1.00  0.00     0.000 C 
ENDROOT
BRANCH   1   2
ATOM      2  C   UNL     1     -18.286 -33.595  20.772  1.00  0.00     0.000 C 
BRANCH   2   3
ATOM      3  C   UNL     1     -18.491 -32.092  21.020  1.00  0.00     0.000 C 
BRANCH   3   4
ATOM      4  C   UNL     1     -19.594 -31.482  20.136  1.00  0.00     0.000 C 
BRANCH   4   5
ATOM      5  C   UNL     1     -19.119 -30.403  19.145  1.00  0.00     0.000 C 
BRANCH   5   6
ATOM      6  C   UNL     1     -17.596 -30.208  19.153  1.00  0.00     0.006 C 
BRANCH   6   7
ATOM      7  C   UNL     1     -17.206 -28.902  18.456  1.00  0.00     0.053 C 
BRANCH   7   8
ATOM      8  C   UNL     1     -17.374 -27.741  19.384  1.00  0.00     0.041 C 
ATOM      9  O   UNL     1     -18.348 -26.953  19.243  1.00  0.00    -0.550 OA
ATOM     10  O   UNL     1     -16.432 -27.499  20.375  1.00  0.00    -0.550 OA
ENDBRANCH   7   8
ENDBRANCH   6   7
ENDBRANCH   5   6
ENDBRANCH   4   5
ENDBRANCH   3   4
ENDBRANCH   2   3
ENDBRANCH   1   2
BRANCH   1  11
ATOM     11  C   UNL     1     -15.806 -32.892  21.147  1.00  0.00     0.000 C 
BRANCH  11  12
ATOM     12  C   UNL     1     -14.855 -32.649  19.963  1.00  0.00     0.000 C 
BRANCH  12  13
ATOM     13  C   UNL     1     -14.867 -33.796  18.942  1.00  0.00     0.000 C 
BRANCH  13  14
ATOM     14  C   UNL     1     -15.332 -33.300  17.565  1.00  0.00     0.000 C 
BRANCH  14  15
ATOM     15  C   UNL     1     -16.802 -33.642  17.274  1.00  0.00     0.000 C 
BRANCH  15  16
ATOM     16  C   UNL     1     -17.502 -32.566  16.426  1.00  0.00     0.006 C 
BRANCH  16  17
ATOM     17  C   UNL     1     -19.022 -32.771  16.372  1.00  0.00     0.053 C 
BRANCH  17  18
ATOM     18  C   UNL     1     -19.440 -33.513  15.140  1.00  0.00     0.041 C 
ATOM     19  O   UNL     1     -20.545 -34.116  15.105  1.00  0.00    -0.550 OA
ATOM     20  O   UNL     1     -18.620 -33.515  14.018  1.00  0.00    -0.550 OA
ENDBRANCH  17  18
ENDBRANCH  16  17
ENDBRANCH  15  16
ENDBRANCH  14  15
ENDBRANCH  13  14
ENDBRANCH  12  13
ENDBRANCH  11  12
ENDBRANCH   1  11
TORSDOF 15
ENDMDL
MODEL 3
REMARK VINA RESULT:    -4.233      2.519      4.229
REMARK INTER + INTRA:         -10.251
REMARK INTER:                  -8.182
REMARK INTRA:                  -2.069
REMARK UNBOUND:                -2.307
REMARK SMILES O=C([O-])CCCCCCCCCCCCCCC(=O)[O-]
REMARK SMILES IDX 10 1 9 2 8 3 7 4 6 5 5 6 4 7 2 8 1 9 3 10 11 11 12 12 13 13
REMARK SMILES IDX 14 14 15 15 16 16 17 17 18 18 19 19 20 20
REMARK H PARENT
REMARK Flexibility Score: inf
ROOT
ATOM      1  C   UNL     1     -19.553 -33.040  15.893  1.00  0.00     0.000 C 
ENDROOT
BRANCH   1   2
ATOM      2  C   UNL     1     -19.238 -33.762  14.568  1.00  0.00     0.000 C 
BRANCH   2   3
ATOM      3  C   UNL     1     -18.156 -33.047  13.742  1.00  0.00     0.000 C 
BRANCH   3   4
ATOM      4  C   UNL     1     -16.873 -32.765  14.546  1.00  0.00     0.000 C 
BRANCH   4   5
ATOM      5  C   UNL     1     -15.953 -31.683  13.954  1.00  0.00     0.000 C 
BRANCH   5   6
ATOM      6  C   UNL     1     -15.768 -30.475  14.883  1.00  0.00     0.006 C 
BRANCH   6   7
ATOM      7  C   UNL     1     -16.323 -30.766  16.279  1.00  0.00     0.053 C 
BRANCH   7   8
ATOM      8  C   UNL     1     -15.223 -30.758  17.294  1.00  0.00     0.041 C 
ATOM      9  O   UNL     1     -15.378 -31.341  18.400  1.00  0.00    -0.550 OA
ATOM     10  O   UNL     1     -14.046 -30.067  17.039  1.00  0.00    -0.550 OA
ENDBRANCH   7   8
ENDBRANCH   6   7
ENDBRANCH   5   6
ENDBRANCH   4   5
ENDBRANCH   3   4
ENDBRANCH   2   3
ENDBRANCH   1   2
BRANCH   1  11
ATOM     11  C   UNL     1     -19.349 -33.883  17.168  1.00  0.00     0.000 C 
BRANCH  11  12
ATOM     12  C   UNL     1     -18.001 -33.680  17.880  1.00  0.00     0.000 C 
BRANCH  12  13
ATOM     13  C   UNL     1     -18.154 -33.409  19.384  1.00  0.00     0.000 C 
BRANCH  13  14
ATOM     14  C   UNL     1     -19.621 -33.132  19.745  1.00  0.00     0.000 C 
BRANCH  14  15
ATOM     15  C   UNL     1     -19.898 -31.644  20.010  1.00  0.00     0.000 C 
BRANCH  15  16
ATOM     16  C   UNL     1     -18.627 -30.781  19.921  1.00  0.00     0.006 C 
BRANCH  16  17
ATOM     17  C   UNL     1     -18.758 -29.666  18.875  1.00  0.00     0.053 C 
BRANCH  17  18
ATOM     18  C   UNL     1     -17.719 -28.602  19.063  1.00  0.00     0.041 C 
ATOM     19  O   UNL     1     -16.888 -28.686  20.005  1.00  0.00    -0.550 OA
ATOM     20  O   UNL     1     -17.654 -27.531  18.181  1.00  0.00    -0.550 OA
ENDBRANCH  17  18
ENDBRANCH  16  17
ENDBRANCH  15  16
ENDBRANCH  14  15
ENDBRANCH  13  14
ENDBRANCH  12  13
ENDBRANCH  11  12
ENDBRANCH   1  11
TORSDOF 15
ENDMDL
MODEL 4
REMARK VINA RESULT:    -4.227      2.775      5.479
REMARK INTER + INTRA:         -10.241
REMARK INTER:                  -7.992
REMARK INTRA:                  -2.248
REMARK UNBOUND:                -2.307
REMARK SMILES O=C([O-])CCCCCCCCCCCCCCC(=O)[O-]
REMARK SMILES IDX 10 1 9 2 8 3 7 4 6 5 5 6 4 7 2 8 1 9 3 10 11 11 12 12 13 13
REMARK SMILES IDX 14 14 15 15 16 16 17 17 18 18 19 19 20 20
REMARK H PARENT
REMARK Flexibility Score: inf
ROOT
ATOM      1  C   UNL     1     -19.194 -33.129  15.618  1.00  0.00     0.000 C 
ENDROOT
BRANCH   1   2
ATOM      2  C   UNL     1     -19.301 -33.814  16.994  1.00  0.00     0.000 C 
BRANCH   2   3
ATOM      3  C   UNL     1     -17.991 -33.747  17.796  1.00  0.00     0.000 C 
BRANCH   3   4
ATOM      4  C   UNL     1     -18.211 -33.372  19.274  1.00  0.00     0.000 C 
BRANCH   4   5
ATOM      5  C   UNL     1     -19.641 -32.930  19.633  1.00  0.00     0.000 C 
BRANCH   5   6
ATOM      6  C   UNL     1     -19.729 -31.456  20.051  1.00  0.00     0.006 C 
BRANCH   6   7
ATOM      7  C   UNL     1     -19.342 -30.532  18.894  1.00  0.00     0.053 C 
BRANCH   7   8
ATOM      8  C   UNL     1     -18.227 -29.621  19.299  1.00  0.00     0.041 C 
ATOM      9  O   UNL     1     -17.364 -30.007  20.131  1.00  0.00    -0.550 OA
ATOM     10  O   UNL     1     -18.168 -28.328  18.796  1.00  0.00    -0.550 OA
ENDBRANCH   7   8
ENDBRANCH   6   7
ENDBRANCH   5   6
ENDBRANCH   4   5
ENDBRANCH   3   4
ENDBRANCH   2   3
ENDBRANCH   1   2
BRANCH   1  11
ATOM     11  C   UNL     1     -18.103 -33.691  14.683  1.00  0.00     0.000 C 
BRANCH  11  12
ATOM     12  C   UNL     1     -18.108 -33.121  13.255  1.00  0.00     0.000 C 
BRANCH  12  13
ATOM     13  C   UNL     1     -16.949 -32.146  12.997  1.00  0.00     0.000 C 
BRANCH  13  14
ATOM     14  C   UNL     1     -15.972 -32.130  14.181  1.00  0.00     0.000 C 
BRANCH  14  15
ATOM     15  C   UNL     1     -15.844 -30.742  14.829  1.00  0.00     0.000 C 
BRANCH  15  16
ATOM     16  C   UNL     1     -16.425 -30.698  16.252  1.00  0.00     0.006 C 
BRANCH  16  17
ATOM     17  C   UNL     1     -15.387 -31.087  17.313  1.00  0.00     0.053 C 
BRANCH  17  18
ATOM     18  C   UNL     1     -14.413 -29.978  17.572  1.00  0.00     0.041 C 
ATOM     19  O   UNL     1     -13.218 -30.081  17.191  1.00  0.00    -0.550 OA
ATOM     20  O   UNL     1     -14.834 -28.819  18.211  1.00  0.00    -0.550 OA
ENDBRANCH  17  18
ENDBRANCH  16  17
ENDBRANCH  15  16
ENDBRANCH  14  15
ENDBRANCH  13  14
ENDBRANCH  12  13
ENDBRANCH  11  12
ENDBRANCH   1  11
TORSDOF 15
ENDMDL
MODEL 5
REMARK VINA RESULT:    -4.142     11.365     13.630
REMARK INTER + INTRA:         -10.080
REMARK INTER:                  -7.742
REMARK INTRA:                  -2.338
REMARK UNBOUND:                -2.307
REMARK SMILES O=C([O-])CCCCCCCCCCCCCCC(=O)[O-]
REMARK SMILES IDX 10 1 9 2 8 3 7 4 6 5 5 6 4 7 2 8 1 9 3 10 11 11 12 12 13 13
REMARK SMILES IDX 14 14 15 15 16 16 17 17 18 18 19 19 20 20
REMARK H PARENT
REMARK Flexibility Score: inf
ROOT
ATOM      1  C   UNL     1      -9.440 -23.875  18.499  1.00  0.00     0.000 C 
ENDROOT
BRANCH   1   2
ATOM      2  C   UNL     1      -8.508 -22.829  17.860  1.00  0.00     0.000 C 
BRANCH   2   3
ATOM      3  C   UNL     1      -7.107 -22.813  18.492  1.00  0.00     0.000 C 
BRANCH   3   4
ATOM      4  C   UNL     1      -6.574 -21.389  18.738  1.00  0.00     0.000 C 
BRANCH   4   5
ATOM      5  C   UNL     1      -7.482 -20.253  18.231  1.00  0.00     0.000 C 
BRANCH   5   6
ATOM      6  C   UNL     1      -8.136 -19.454  19.367  1.00  0.00     0.006 C 
BRANCH   6   7
ATOM      7  C   UNL     1      -7.665 -19.956  20.734  1.00  0.00     0.053 C 
BRANCH   7   8
ATOM      8  C   UNL     1      -8.808 -20.543  21.500  1.00  0.00     0.041 C 
ATOM      9  O   UNL     1      -9.078 -21.769  21.396  1.00  0.00    -0.550 OA
ATOM     10  O   UNL     1      -9.606 -19.728  22.292  1.00  0.00    -0.550 OA
ENDBRANCH   7   8
ENDBRANCH   6   7
ENDBRANCH   5   6
ENDBRANCH   4   5
ENDBRANCH   3   4
ENDBRANCH   2   3
ENDBRANCH   1   2
BRANCH   1  11
ATOM     11  C   UNL     1     -10.361 -24.628  17.516  1.00  0.00     0.000 C 
BRANCH  11  12
ATOM     12  C   UNL     1     -10.417 -24.043  16.094  1.00  0.00     0.000 C 
BRANCH  12  13
ATOM     13  C   UNL     1     -11.804 -23.494  15.728  1.00  0.00     0.000 C 
BRANCH  13  14
ATOM     14  C   UNL     1     -11.818 -21.960  15.782  1.00  0.00     0.000 C 
BRANCH  14  15
ATOM     15  C   UNL     1     -12.459 -21.416  17.069  1.00  0.00     0.000 C 
BRANCH  15  16
ATOM     16  C   UNL     1     -11.455 -20.653  17.952  1.00  0.00     0.006 C 
BRANCH  16  17
ATOM     17  C   UNL     1     -11.860 -20.668  19.432  1.00  0.00     0.053 C 
BRANCH  17  18
ATOM     18  C   UNL     1     -12.174 -19.293  19.937  1.00  0.00     0.041 C 
ATOM     19  O   UNL     1     -11.486 -18.307  19.564  1.00  0.00    -0.550 OA
ATOM     20  O   UNL     1     -13.245 -19.098  20.801  1.00  0.00    -0.550 OA
ENDBRANCH  17  18
ENDBRANCH  16  17
ENDBRANCH  15  16
ENDBRANCH  14  15
ENDBRANCH  13  14
ENDBRANCH  12  13
ENDBRANCH  11  12
ENDBRANCH   1  11
TORSDOF 15
ENDMDL
MODEL 6
REMARK VINA RESULT:    -4.112      2.329      5.340
REMARK INTER + INTRA:         -10.024
REMARK INTER:                  -7.805
REMARK INTRA:                  -2.220
REMARK UNBOUND:                -2.307
REMARK SMILES O=C([O-])CCCCCCCCCCCCCCC(=O)[O-]
REMARK SMILES IDX 10 1 9 2 8 3 7 4 6 5 5 6 4 7 2 8 1 9 3 10 11 11 12 12 13 13
REMARK SMILES IDX 14 14 15 15 16 16 17 17 18 18 19 19 20 20
REMARK H PARENT
REMARK Flexibility Score: inf
ROOT
ATOM      1  C   UNL     1     -18.592 -33.618  20.574  1.00  0.00     0.000 C 
ENDROOT
BRANCH   1   2
ATOM      2  C   UNL     1     -19.604 -32.945  19.626  1.00  0.00     0.000 C 
BRANCH   2   3
ATOM      3  C   UNL     1     -20.038 -31.552  20.109  1.00  0.00     0.000 C 
BRANCH   3   4
ATOM      4  C   UNL     1     -19.662 -30.430  19.123  1.00  0.00     0.000 C 
BRANCH   4   5
ATOM      5  C   UNL     1     -18.159 -30.309  18.810  1.00  0.00     0.000 C 
BRANCH   5   6
ATOM      6  C   UNL     1     -17.364 -29.625  19.931  1.00  0.00     0.006 C 
BRANCH   6   7
ATOM      7  C   UNL     1     -16.522 -28.471  19.383  1.00  0.00     0.053 C 
BRANCH   7   8
ATOM      8  C   UNL     1     -17.371 -27.537  18.581  1.00  0.00     0.041 C 
ATOM      9  O   UNL     1     -17.109 -27.326  17.366  1.00  0.00    -0.550 OA
ATOM     10  O   UNL     1     -18.423 -26.860  19.184  1.00  0.00    -0.550 OA
ENDBRANCH   7   8
ENDBRANCH   6   7
ENDBRANCH   5   6
ENDBRANCH   4   5
ENDBRANCH   3   4
ENDBRANCH   2   3
ENDBRANCH   1   2
BRANCH   1  11
ATOM     11  C   UNL     1     -17.985 -32.698  21.653  1.00  0.00     0.000 C 
BRANCH  11  12
ATOM     12  C   UNL     1     -16.457 -32.785  21.802  1.00  0.00     0.000 C 
BRANCH  12  13
ATOM     13  C   UNL     1     -15.795 -33.615  20.692  1.00  0.00     0.000 C 
BRANCH  13  14
ATOM     14  C   UNL     1     -14.446 -33.005  20.282  1.00  0.00     0.000 C 
BRANCH  14  15
ATOM     15  C   UNL     1     -14.595 -31.855  19.273  1.00  0.00     0.000 C 
BRANCH  15  16
ATOM     16  C   UNL     1     -15.161 -32.325  17.921  1.00  0.00     0.006 C 
BRANCH  16  17
ATOM     17  C   UNL     1     -15.095 -31.225  16.854  1.00  0.00     0.053 C 
BRANCH  17  18
ATOM     18  C   UNL     1     -13.880 -31.361  15.988  1.00  0.00     0.041 C 
ATOM     19  O   UNL     1     -13.981 -31.821  14.820  1.00  0.00    -0.550 OA
ATOM     20  O   UNL     1     -12.639 -30.955  16.463  1.00  0.00    -0.550 OA
ENDBRANCH  17  18
ENDBRANCH  16  17
ENDBRANCH  15  16
ENDBRANCH  14  15
ENDBRANCH  13  14
ENDBRANCH  12  13
ENDBRANCH  11  12
ENDBRANCH   1  11
TORSDOF 15
ENDMDL
MODEL 7
REMARK VINA RESULT:    -4.106      2.007      5.112
REMARK INTER + INTRA:         -10.012
REMARK INTER:                  -7.547
REMARK INTRA:                  -2.465
REMARK UNBOUND:                -2.307
REMARK SMILES O=C([O-])CCCCCCCCCCCCCCC(=O)[O-]
REMARK SMILES IDX 10 1 9 2 8 3 7 4 6 5 5 6 4 7 2 8 1 9 3 10 11 11 12 12 13 13
REMARK SMILES IDX 14 14 15 15 16 16 17 17 18 18 19 19 20 20
REMARK H PARENT
REMARK Flexibility Score: inf
ROOT
ATOM      1  C   UNL     1     -16.588 -32.490  21.880  1.00  0.00     0.000 C 
ENDROOT
BRANCH   1   2
ATOM      2  C   UNL     1     -18.126 -32.514  21.785  1.00  0.00     0.000 C 
BRANCH   2   3
ATOM      3  C   UNL     1     -18.638 -33.392  20.631  1.00  0.00     0.000 C 
BRANCH   3   4
ATOM      4  C   UNL     1     -19.309 -32.578  19.509  1.00  0.00     0.000 C 
BRANCH   4   5
ATOM      5  C   UNL     1     -19.811 -31.182  19.922  1.00  0.00     0.000 C 
BRANCH   5   6
ATOM      6  C   UNL     1     -19.315 -30.065  18.992  1.00  0.00     0.006 C 
BRANCH   6   7
ATOM      7  C   UNL     1     -17.970 -29.511  19.467  1.00  0.00     0.053 C 
BRANCH   7   8
ATOM      8  C   UNL     1     -17.746 -28.137  18.920  1.00  0.00     0.041 C 
ATOM      9  O   UNL     1     -18.573 -27.217  19.159  1.00  0.00    -0.550 OA
ATOM     10  O   UNL     1     -16.651 -27.882  18.105  1.00  0.00    -0.550 OA
ENDBRANCH   7   8
ENDBRANCH   6   7
ENDBRANCH   5   6
ENDBRANCH   4   5
ENDBRANCH   3   4
ENDBRANCH   2   3
ENDBRANCH   1   2
BRANCH   1  11
ATOM     11  C   UNL     1     -15.851 -33.422  20.897  1.00  0.00     0.000 C 
BRANCH  11  12
ATOM     12  C   UNL     1     -14.803 -32.735  20.004  1.00  0.00     0.000 C 
BRANCH  12  13
ATOM     13  C   UNL     1     -15.418 -32.086  18.755  1.00  0.00     0.000 C 
BRANCH  13  14
ATOM     14  C   UNL     1     -16.122 -33.134  17.882  1.00  0.00     0.000 C 
BRANCH  14  15
ATOM     15  C   UNL     1     -16.849 -32.514  16.678  1.00  0.00     0.000 C 
BRANCH  15  16
ATOM     16  C   UNL     1     -16.533 -31.019  16.502  1.00  0.00     0.006 C 
BRANCH  16  17
ATOM     17  C   UNL     1     -15.817 -30.731  15.176  1.00  0.00     0.053 C 
BRANCH  17  18
ATOM     18  C   UNL     1     -14.360 -31.076  15.244  1.00  0.00     0.041 C 
ATOM     19  O   UNL     1     -13.862 -31.890  14.423  1.00  0.00    -0.550 OA
ATOM     20  O   UNL     1     -13.548 -30.477  16.198  1.00  0.00    -0.550 OA
ENDBRANCH  17  18
ENDBRANCH  16  17
ENDBRANCH  15  16
ENDBRANCH  14  15
ENDBRANCH  13  14
ENDBRANCH  12  13
ENDBRANCH  11  12
ENDBRANCH   1  11
TORSDOF 15
ENDMDL
MODEL 8
REMARK VINA RESULT:    -4.092      2.611      5.802
REMARK INTER + INTRA:          -9.987
REMARK INTER:                  -8.332
REMARK INTRA:                  -1.655
REMARK UNBOUND:                -2.307
REMARK SMILES O=C([O-])CCCCCCCCCCCCCCC(=O)[O-]
REMARK SMILES IDX 10 1 9 2 8 3 7 4 6 5 5 6 4 7 2 8 1 9 3 10 11 11 12 12 13 13
REMARK SMILES IDX 14 14 15 15 16 16 17 17 18 18 19 19 20 20
REMARK H PARENT
REMARK Flexibility Score: inf
ROOT
ATOM      1  C   UNL     1     -16.586 -32.112  13.392  1.00  0.00     0.000 C 
ENDROOT
BRANCH   1   2
ATOM      2  C   UNL     1     -15.877 -32.043  14.758  1.00  0.00     0.000 C 
BRANCH   2   3
ATOM      3  C   UNL     1     -16.059 -30.686  15.456  1.00  0.00     0.000 C 
BRANCH   3   4
ATOM      4  C   UNL     1     -16.343 -30.819  16.964  1.00  0.00     0.000 C 
BRANCH   4   5
ATOM      5  C   UNL     1     -15.889 -29.626  17.825  1.00  0.00     0.000 C 
BRANCH   5   6
ATOM      6  C   UNL     1     -16.489 -29.640  19.238  1.00  0.00     0.006 C 
BRANCH   6   7
ATOM      7  C   UNL     1     -17.880 -29.003  19.250  1.00  0.00     0.053 C 
BRANCH   7   8
ATOM      8  C   UNL     1     -17.775 -27.513  19.324  1.00  0.00     0.041 C 
ATOM      9  O   UNL     1     -18.641 -26.788  18.764  1.00  0.00    -0.550 OA
ATOM     10  O   UNL     1     -16.697 -26.922  19.969  1.00  0.00    -0.550 OA
ENDBRANCH   7   8
ENDBRANCH   6   7
ENDBRANCH   5   6
ENDBRANCH   4   5
ENDBRANCH   3   4
ENDBRANCH   2   3
ENDBRANCH   1   2
BRANCH   1  11
ATOM     11  C   UNL     1     -17.875 -32.959  13.358  1.00  0.00     0.000 C 
BRANCH  11  12
ATOM     12  C   UNL     1     -18.131 -33.810  14.614  1.00  0.00     0.000 C 
BRANCH  12  13
ATOM     13  C   UNL     1     -19.346 -33.329  15.422  1.00  0.00     0.000 C 
BRANCH  13  14
ATOM     14  C   UNL     1     -19.305 -33.881  16.854  1.00  0.00     0.000 C 
BRANCH  14  15
ATOM     15  C   UNL     1     -17.918 -33.751  17.503  1.00  0.00     0.000 C 
BRANCH  15  16
ATOM     16  C   UNL     1     -17.992 -33.617  19.034  1.00  0.00     0.006 C 
BRANCH  16  17
ATOM     17  C   UNL     1     -19.417 -33.324  19.521  1.00  0.00     0.053 C 
BRANCH  17  18
ATOM     18  C   UNL     1     -19.479 -32.069  20.337  1.00  0.00     0.041 C 
ATOM     19  O   UNL     1     -18.601 -31.834  21.208  1.00  0.00    -0.550 OA
ATOM     20  O   UNL     1     -20.494 -31.146  20.116  1.00  0.00    -0.550 OA
ENDBRANCH  17  18
ENDBRANCH  16  17
ENDBRANCH  15  16
ENDBRANCH  14  15
ENDBRANCH  13  14
ENDBRANCH  12  13
ENDBRANCH  11  12
ENDBRANCH   1  11
TORSDOF 15
ENDMDL
MODEL 9
REMARK VINA RESULT:    -3.984      2.405      3.082
REMARK INTER + INTRA:          -9.784
REMARK INTER:                  -7.437
REMARK INTRA:                  -2.347
REMARK UNBOUND:                -2.307
REMARK SMILES O=C([O-])CCCCCCCCCCCCCCC(=O)[O-]
REMARK SMILES IDX 10 1 9 2 8 3 7 4 6 5 5 6 4 7 2 8 1 9 3 10 11 11 12 12 13 13
REMARK SMILES IDX 14 14 15 15 16 16 17 17 18 18 19 19 20 20
REMARK H PARENT
REMARK Flexibility Score: inf
ROOT
ATOM      1  C   UNL     1     -17.943 -32.583  21.692  1.00  0.00     0.000 C 
ENDROOT
BRANCH   1   2
ATOM      2  C   UNL     1     -16.446 -32.225  21.749  1.00  0.00     0.000 C 
BRANCH   2   3
ATOM      3  C   UNL     1     -15.556 -33.269  21.056  1.00  0.00     0.000 C 
BRANCH   3   4
ATOM      4  C   UNL     1     -14.952 -32.761  19.733  1.00  0.00     0.000 C 
BRANCH   4   5
ATOM      5  C   UNL     1     -15.489 -31.403  19.245  1.00  0.00     0.000 C 
BRANCH   5   6
ATOM      6  C   UNL     1     -15.278 -31.177  17.742  1.00  0.00     0.006 C 
BRANCH   6   7
ATOM      7  C   UNL     1     -14.437 -32.300  17.130  1.00  0.00     0.053 C 
BRANCH   7   8
ATOM      8  C   UNL     1     -13.412 -31.740  16.195  1.00  0.00     0.041 C 
ATOM      9  O   UNL     1     -12.914 -32.464  15.292  1.00  0.00    -0.550 OA
ATOM     10  O   UNL     1     -12.970 -30.433  16.350  1.00  0.00    -0.550 OA
ENDBRANCH   7   8
ENDBRANCH   6   7
ENDBRANCH   5   6
ENDBRANCH   4   5
ENDBRANCH   3   4
ENDBRANCH   2   3
ENDBRANCH   1   2
BRANCH   1  11
ATOM     11  C   UNL     1     -18.310 -33.740  20.740  1.00  0.00     0.000 C 
BRANCH  11  12
ATOM     12  C   UNL     1     -19.323 -33.385  19.638  1.00  0.00     0.000 C 
BRANCH  12  13
ATOM     13  C   UNL     1     -18.655 -33.068  18.292  1.00  0.00     0.000 C 
BRANCH  13  14
ATOM     14  C   UNL     1     -18.993 -31.642  17.834  1.00  0.00     0.000 C 
BRANCH  14  15
ATOM     15  C   UNL     1     -19.740 -30.833  18.907  1.00  0.00     0.000 C 
BRANCH  15  16
ATOM     16  C   UNL     1     -19.048 -29.498  19.230  1.00  0.00     0.006 C 
BRANCH  16  17
ATOM     17  C   UNL     1     -18.138 -29.028  18.087  1.00  0.00     0.053 C 
BRANCH  17  18
ATOM     18  C   UNL     1     -17.523 -27.693  18.379  1.00  0.00     0.041 C 
ATOM     19  O   UNL     1     -18.038 -26.931  19.239  1.00  0.00    -0.550 OA
ATOM     20  O   UNL     1     -16.365 -27.302  17.718  1.00  0.00    -0.550 OA
ENDBRANCH  17  18
ENDBRANCH  16  17
ENDBRANCH  15  16
ENDBRANCH  14  15
ENDBRANCH  13  14
ENDBRANCH  12  13
ENDBRANCH  11  12
ENDBRANCH   1  11
TORSDOF 15
ENDMDL
