MODEL 1
REMARK VINA RESULT:    -6.113      0.000      0.000
REMARK INTER + INTRA:          -6.800
REMARK INTER:                  -6.649
REMARK INTRA:                  -0.150
REMARK UNBOUND:                -0.150
REMARK SMILES C=C(C)[C@H]1CC[C@@]2(C)CC[C@@]3(C)[C@@H](CC[C@@H]4[C@]5(C)CC[C@@H](O)C(C)(C)[C@@H]5CC[C@@]43C)[C@@H]12
REMARK SMILES IDX 4 1 5 2 6 3 7 4 31 5 13 6 14 7 15 8 16 9 17 10 19 11 20 12
REMARK SMILES IDX 21 13 23 14 26 15 27 16 28 17 29 18 11 19 10 20 9 21 12 22
REMARK SMILES IDX 30 23 24 24 25 25 18 26 8 27 2 28 3 29 1 30 22 31
REMARK H PARENT 22 32
REMARK Flexibility Score: inf
ROOT
ATOM      1  C   UNL     1     140.347 132.507 136.134  1.00  0.00     0.018 C 
ATOM      2  C   UNL     1     139.678 131.507 135.187  1.00  0.00     0.009 C 
ATOM      3  C   UNL     1     138.575 132.312 134.516  1.00  0.00     0.008 C 
ATOM      4  C   UNL     1     138.007 133.230 135.618  1.00  0.00    -0.029 C 
ATOM      5  C   UNL     1     139.241 133.540 136.525  1.00  0.00     0.006 C 
ATOM      6  C   UNL     1     138.828 133.887 137.995  1.00  0.00    -0.000 C 
ATOM      7  C   UNL     1     139.935 134.385 138.902  1.00  0.00     0.005 C 
ATOM      8  C   UNL     1     139.351 135.296 139.997  1.00  0.00     0.005 C 
ATOM      9  C   UNL     1     137.834 135.051 140.381  1.00  0.00     0.002 C 
ATOM     10  C   UNL     1     137.407 135.755 141.776  1.00  0.00    -0.026 C 
ATOM     11  C   UNL     1     138.239 137.075 141.984  1.00  0.00     0.010 C 
ATOM     12  C   UNL     1     138.137 137.696 143.372  1.00  0.00     0.033 C 
ATOM     13  C   UNL     1     138.618 136.695 144.420  1.00  0.00     0.120 C 
ATOM     14  C   UNL     1     137.714 135.431 144.466  1.00  0.00    -0.006 C 
ATOM     15  C   UNL     1     137.557 134.759 143.019  1.00  0.00     0.003 C 
ATOM     16  C   UNL     1     138.586 133.635 142.716  1.00  0.00     0.005 C 
ATOM     17  C   UNL     1     138.347 132.822 141.407  1.00  0.00     0.008 C 
ATOM     18  C   UNL     1     137.502 133.511 140.266  1.00  0.00    -0.024 C 
ATOM     19  C   UNL     1     137.827 132.946 138.746  1.00  0.00    -0.024 C 
ATOM     20  C   UNL     1     136.568 132.930 137.799  1.00  0.00     0.008 C 
ATOM     21  C   UNL     1     136.852 132.476 136.352  1.00  0.00     0.007 C 
ATOM     22  C   UNL     1     138.353 131.487 138.835  1.00  0.00     0.012 C 
ATOM     23  C   UNL     1     136.001 133.196 140.566  1.00  0.00     0.012 C 
ATOM     24  C   UNL     1     136.312 135.786 145.047  1.00  0.00     0.014 C 
ATOM     25  C   UNL     1     138.340 134.451 145.500  1.00  0.00     0.014 C 
ATOM     26  C   UNL     1     135.912 136.209 141.643  1.00  0.00     0.012 C 
ATOM     27  C   UNL     1     137.441 134.523 134.982  1.00  0.00     0.011 C 
ENDROOT
BRANCH   1  28
ATOM     28  C   UNL     1     141.304 131.951 137.191  1.00  0.00    -0.077 C 
ATOM     29  C   UNL     1     142.532 132.754 137.548  1.00  0.00     0.039 C 
ATOM     30  C   UNL     1     141.224 130.699 137.676  1.00  0.00     0.008 C 
ENDBRANCH   1  28
BRANCH  13  31
ATOM     31  O   UNL     1     138.657 137.323 145.679  1.00  0.00    -0.393 OA
ATOM     32  H   UNL     1     138.120 138.155 145.605  1.00  0.00     0.210 HD
ENDBRANCH  13  31
TORSDOF 2
ENDMDL
MODEL 2
REMARK VINA RESULT:    -6.069      3.668      6.957
REMARK INTER + INTRA:          -6.751
REMARK INTER:                  -6.605
REMARK INTRA:                  -0.146
REMARK UNBOUND:                -0.150
REMARK SMILES C=C(C)[C@H]1CC[C@@]2(C)CC[C@@]3(C)[C@@H](CC[C@@H]4[C@]5(C)CC[C@@H](O)C(C)(C)[C@@H]5CC[C@@]43C)[C@@H]12
REMARK SMILES IDX 4 1 5 2 6 3 7 4 31 5 13 6 14 7 15 8 16 9 17 10 19 11 20 12
REMARK SMILES IDX 21 13 23 14 26 15 27 16 28 17 29 18 11 19 10 20 9 21 12 22
REMARK SMILES IDX 30 23 24 24 25 25 18 26 8 27 2 28 3 29 1 30 22 31
REMARK H PARENT 22 32
REMARK Flexibility Score: inf
ROOT
ATOM      1  C   UNL     1     139.583 137.743 142.498  1.00  0.00     0.018 C 
ATOM      2  C   UNL     1     140.944 138.128 143.084  1.00  0.00     0.009 C 
ATOM      3  C   UNL     1     141.936 137.770 141.987  1.00  0.00     0.008 C 
ATOM      4  C   UNL     1     141.411 136.455 141.372  1.00  0.00    -0.029 C 
ATOM      5  C   UNL     1     139.858 136.573 141.498  1.00  0.00     0.006 C 
ATOM      6  C   UNL     1     139.157 135.174 141.553  1.00  0.00    -0.000 C 
ATOM      7  C   UNL     1     137.643 135.180 141.484  1.00  0.00     0.005 C 
ATOM      8  C   UNL     1     137.136 133.861 140.873  1.00  0.00     0.005 C 
ATOM      9  C   UNL     1     138.083 132.602 141.031  1.00  0.00     0.002 C 
ATOM     10  C   UNL     1     137.337 131.199 140.722  1.00  0.00    -0.026 C 
ATOM     11  C   UNL     1     136.218 131.417 139.636  1.00  0.00     0.010 C 
ATOM     12  C   UNL     1     135.261 130.247 139.445  1.00  0.00     0.033 C 
ATOM     13  C   UNL     1     134.550 129.943 140.762  1.00  0.00     0.120 C 
ATOM     14  C   UNL     1     135.548 129.483 141.861  1.00  0.00    -0.006 C 
ATOM     15  C   UNL     1     136.747 130.530 142.052  1.00  0.00     0.003 C 
ATOM     16  C   UNL     1     136.502 131.597 143.154  1.00  0.00     0.005 C 
ATOM     17  C   UNL     1     137.715 132.508 143.509  1.00  0.00     0.008 C 
ATOM     18  C   UNL     1     138.840 132.681 142.415  1.00  0.00    -0.024 C 
ATOM     19  C   UNL     1     139.699 134.089 142.542  1.00  0.00    -0.024 C 
ATOM     20  C   UNL     1     141.210 133.942 142.122  1.00  0.00     0.008 C 
ATOM     21  C   UNL     1     142.024 135.253 142.160  1.00  0.00     0.007 C 
ATOM     22  C   UNL     1     139.677 134.580 144.016  1.00  0.00     0.012 C 
ATOM     23  C   UNL     1     139.847 131.504 142.617  1.00  0.00     0.012 C 
ATOM     24  C   UNL     1     136.118 128.072 141.523  1.00  0.00     0.014 C 
ATOM     25  C   UNL     1     134.734 129.283 143.172  1.00  0.00     0.014 C 
ATOM     26  C   UNL     1     138.385 130.233 140.068  1.00  0.00     0.012 C 
ATOM     27  C   UNL     1     141.846 136.360 139.890  1.00  0.00     0.011 C 
ENDROOT
BRANCH   1  28
ATOM     28  C   UNL     1     138.390 137.687 143.455  1.00  0.00    -0.077 C 
ATOM     29  C   UNL     1     137.052 138.194 142.972  1.00  0.00     0.039 C 
ATOM     30  C   UNL     1     138.504 137.402 144.764  1.00  0.00     0.008 C 
ENDBRANCH   1  28
BRANCH  13  31
ATOM     31  O   UNL     1     133.567 128.961 140.543  1.00  0.00    -0.393 OA
ATOM     32  H   UNL     1     133.793 128.508 139.689  1.00  0.00     0.210 HD
ENDBRANCH  13  31
TORSDOF 2
ENDMDL
MODEL 3
REMARK VINA RESULT:    -5.937      4.425      6.568
REMARK INTER + INTRA:          -6.608
REMARK INTER:                  -6.488
REMARK INTRA:                  -0.119
REMARK UNBOUND:                -0.150
REMARK SMILES C=C(C)[C@H]1CC[C@@]2(C)CC[C@@]3(C)[C@@H](CC[C@@H]4[C@]5(C)CC[C@@H](O)C(C)(C)[C@@H]5CC[C@@]43C)[C@@H]12
REMARK SMILES IDX 4 1 5 2 6 3 7 4 31 5 13 6 14 7 15 8 16 9 17 10 19 11 20 12
REMARK SMILES IDX 21 13 23 14 26 15 27 16 28 17 29 18 11 19 10 20 9 21 12 22
REMARK SMILES IDX 30 23 24 24 25 25 18 26 8 27 2 28 3 29 1 30 22 31
REMARK H PARENT 22 32
REMARK Flexibility Score: inf
ROOT
ATOM      1  C   UNL     1     133.411 129.451 141.279  1.00  0.00     0.018 C 
ATOM      2  C   UNL     1     132.833 128.145 141.831  1.00  0.00     0.009 C 
ATOM      3  C   UNL     1     131.638 128.589 142.661  1.00  0.00     0.008 C 
ATOM      4  C   UNL     1     132.080 129.897 143.351  1.00  0.00    -0.029 C 
ATOM      5  C   UNL     1     133.050 130.559 142.320  1.00  0.00     0.006 C 
ATOM      6  C   UNL     1     134.090 131.508 143.005  1.00  0.00    -0.000 C 
ATOM      7  C   UNL     1     134.950 132.341 142.076  1.00  0.00     0.005 C 
ATOM      8  C   UNL     1     135.386 133.639 142.781  1.00  0.00     0.005 C 
ATOM      9  C   UNL     1     135.449 133.593 144.363  1.00  0.00     0.002 C 
ATOM     10  C   UNL     1     136.271 134.832 145.004  1.00  0.00    -0.026 C 
ATOM     11  C   UNL     1     136.110 136.108 144.095  1.00  0.00     0.010 C 
ATOM     12  C   UNL     1     137.041 137.267 144.430  1.00  0.00     0.033 C 
ATOM     13  C   UNL     1     138.493 136.811 144.307  1.00  0.00     0.120 C 
ATOM     14  C   UNL     1     138.837 135.697 145.335  1.00  0.00    -0.006 C 
ATOM     15  C   UNL     1     137.811 134.468 145.245  1.00  0.00     0.003 C 
ATOM     16  C   UNL     1     138.267 133.316 144.307  1.00  0.00     0.005 C 
ATOM     17  C   UNL     1     137.401 132.021 144.342  1.00  0.00     0.008 C 
ATOM     18  C   UNL     1     135.906 132.157 144.832  1.00  0.00    -0.024 C 
ATOM     19  C   UNL     1     134.892 130.989 144.246  1.00  0.00    -0.024 C 
ATOM     20  C   UNL     1     133.759 130.576 145.259  1.00  0.00     0.008 C 
ATOM     21  C   UNL     1     132.751 129.541 144.717  1.00  0.00     0.007 C 
ATOM     22  C   UNL     1     135.707 129.708 143.920  1.00  0.00     0.012 C 
ATOM     23  C   UNL     1     135.930 132.012 146.388  1.00  0.00     0.012 C 
ATOM     24  C   UNL     1     138.850 136.278 146.782  1.00  0.00     0.014 C 
ATOM     25  C   UNL     1     140.303 135.255 145.066  1.00  0.00     0.014 C 
ATOM     26  C   UNL     1     135.597 135.196 146.373  1.00  0.00     0.012 C 
ATOM     27  C   UNL     1     130.847 130.793 143.615  1.00  0.00     0.011 C 
ENDROOT
BRANCH   1  28
ATOM     28  C   UNL     1     134.803 129.398 140.646  1.00  0.00    -0.077 C 
ATOM     29  C   UNL     1     135.034 130.125 139.343  1.00  0.00     0.039 C 
ATOM     30  C   UNL     1     135.781 128.580 141.076  1.00  0.00     0.008 C 
ENDBRANCH   1  28
BRANCH  13  31
ATOM     31  O   UNL     1     139.343 137.920 144.476  1.00  0.00    -0.393 OA
ATOM     32  H   UNL     1     139.677 137.891 145.411  1.00  0.00     0.210 HD
ENDBRANCH  13  31
TORSDOF 2
ENDMDL
MODEL 4
REMARK VINA RESULT:    -5.877     11.376     13.311
REMARK INTER + INTRA:          -6.542
REMARK INTER:                  -6.391
REMARK INTRA:                  -0.151
REMARK UNBOUND:                -0.150
REMARK SMILES C=C(C)[C@H]1CC[C@@]2(C)CC[C@@]3(C)[C@@H](CC[C@@H]4[C@]5(C)CC[C@@H](O)C(C)(C)[C@@H]5CC[C@@]43C)[C@@H]12
REMARK SMILES IDX 4 1 5 2 6 3 7 4 31 5 13 6 14 7 15 8 16 9 17 10 19 11 20 12
REMARK SMILES IDX 21 13 23 14 26 15 27 16 28 17 29 18 11 19 10 20 9 21 12 22
REMARK SMILES IDX 30 23 24 24 25 25 18 26 8 27 2 28 3 29 1 30 22 31
REMARK H PARENT 22 32
REMARK Flexibility Score: inf
ROOT
ATOM      1  C   UNL     1     131.432 124.433 136.866  1.00  0.00     0.018 C 
ATOM      2  C   UNL     1     130.980 125.265 135.662  1.00  0.00     0.009 C 
ATOM      3  C   UNL     1     131.440 126.677 135.992  1.00  0.00     0.008 C 
ATOM      4  C   UNL     1     131.206 126.842 137.508  1.00  0.00    -0.029 C 
ATOM      5  C   UNL     1     131.447 125.410 138.086  1.00  0.00     0.006 C 
ATOM      6  C   UNL     1     130.673 125.170 139.426  1.00  0.00    -0.000 C 
ATOM      7  C   UNL     1     130.989 123.883 140.161  1.00  0.00     0.005 C 
ATOM      8  C   UNL     1     130.747 124.064 141.671  1.00  0.00     0.005 C 
ATOM      9  C   UNL     1     129.695 125.173 142.087  1.00  0.00     0.002 C 
ATOM     10  C   UNL     1     129.207 125.044 143.626  1.00  0.00    -0.026 C 
ATOM     11  C   UNL     1     130.373 124.460 144.508  1.00  0.00     0.010 C 
ATOM     12  C   UNL     1     129.973 124.036 145.916  1.00  0.00     0.033 C 
ATOM     13  C   UNL     1     128.890 122.962 145.841  1.00  0.00     0.120 C 
ATOM     14  C   UNL     1     127.587 123.502 145.188  1.00  0.00    -0.006 C 
ATOM     15  C   UNL     1     127.871 124.172 143.759  1.00  0.00     0.003 C 
ATOM     16  C   UNL     1     127.710 123.207 142.552  1.00  0.00     0.005 C 
ATOM     17  C   UNL     1     127.782 123.859 141.139  1.00  0.00     0.008 C 
ATOM     18  C   UNL     1     128.541 125.237 141.010  1.00  0.00    -0.024 C 
ATOM     19  C   UNL     1     129.152 125.536 139.503  1.00  0.00    -0.024 C 
ATOM     20  C   UNL     1     129.129 127.061 139.107  1.00  0.00     0.008 C 
ATOM     21  C   UNL     1     129.758 127.384 137.736  1.00  0.00     0.007 C 
ATOM     22  C   UNL     1     128.314 124.773 138.441  1.00  0.00     0.012 C 
ATOM     23  C   UNL     1     127.495 126.356 141.316  1.00  0.00     0.012 C 
ATOM     24  C   UNL     1     126.892 124.530 146.132  1.00  0.00     0.014 C 
ATOM     25  C   UNL     1     126.591 122.313 145.087  1.00  0.00     0.014 C 
ATOM     26  C   UNL     1     128.946 126.492 144.167  1.00  0.00     0.012 C 
ATOM     27  C   UNL     1     132.221 127.857 138.088  1.00  0.00     0.011 C 
ENDROOT
BRANCH   1  28
ATOM     28  C   UNL     1     130.862 123.020 137.004  1.00  0.00    -0.077 C 
ATOM     29  C   UNL     1     131.774 121.917 137.487  1.00  0.00     0.039 C 
ATOM     30  C   UNL     1     129.655 122.658 136.533  1.00  0.00     0.008 C 
ENDBRANCH   1  28
BRANCH  13  31
ATOM     31  O   UNL     1     128.630 122.473 147.135  1.00  0.00    -0.393 OA
ATOM     32  H   UNL     1     128.057 123.145 147.590  1.00  0.00     0.210 HD
ENDBRANCH  13  31
TORSDOF 2
ENDMDL
MODEL 5
REMARK VINA RESULT:    -5.865      3.426      8.234
REMARK INTER + INTRA:          -6.530
REMARK INTER:                  -6.381
REMARK INTRA:                  -0.148
REMARK UNBOUND:                -0.150
REMARK SMILES C=C(C)[C@H]1CC[C@@]2(C)CC[C@@]3(C)[C@@H](CC[C@@H]4[C@]5(C)CC[C@@H](O)C(C)(C)[C@@H]5CC[C@@]43C)[C@@H]12
REMARK SMILES IDX 4 1 5 2 6 3 7 4 31 5 13 6 14 7 15 8 16 9 17 10 19 11 20 12
REMARK SMILES IDX 21 13 23 14 26 15 27 16 28 17 29 18 11 19 10 20 9 21 12 22
REMARK SMILES IDX 30 23 24 24 25 25 18 26 8 27 2 28 3 29 1 30 22 31
REMARK H PARENT 22 32
REMARK Flexibility Score: inf
ROOT
ATOM      1  C   UNL     1     138.063 133.355 141.409  1.00  0.00     0.018 C 
ATOM      2  C   UNL     1     136.887 133.022 142.330  1.00  0.00     0.009 C 
ATOM      3  C   UNL     1     136.937 131.508 142.464  1.00  0.00     0.008 C 
ATOM      4  C   UNL     1     137.337 130.984 141.069  1.00  0.00    -0.029 C 
ATOM      5  C   UNL     1     138.271 132.100 140.500  1.00  0.00     0.006 C 
ATOM      6  C   UNL     1     138.280 132.128 138.935  1.00  0.00    -0.000 C 
ATOM      7  C   UNL     1     139.296 133.047 138.287  1.00  0.00     0.005 C 
ATOM      8  C   UNL     1     139.681 132.513 136.895  1.00  0.00     0.005 C 
ATOM      9  C   UNL     1     138.604 131.608 136.166  1.00  0.00     0.002 C 
ATOM     10  C   UNL     1     138.901 131.410 134.587  1.00  0.00    -0.026 C 
ATOM     11  C   UNL     1     140.454 131.436 134.328  1.00  0.00     0.010 C 
ATOM     12  C   UNL     1     140.868 131.530 132.864  1.00  0.00     0.033 C 
ATOM     13  C   UNL     1     140.292 132.803 132.248  1.00  0.00     0.120 C 
ATOM     14  C   UNL     1     138.738 132.785 132.236  1.00  0.00    -0.006 C 
ATOM     15  C   UNL     1     138.135 132.495 133.694  1.00  0.00     0.003 C 
ATOM     16  C   UNL     1     137.807 133.770 134.520  1.00  0.00     0.005 C 
ATOM     17  C   UNL     1     137.039 133.541 135.856  1.00  0.00     0.008 C 
ATOM     18  C   UNL     1     137.154 132.117 136.528  1.00  0.00    -0.024 C 
ATOM     19  C   UNL     1     136.916 132.119 138.165  1.00  0.00    -0.024 C 
ATOM     20  C   UNL     1     136.211 130.815 138.698  1.00  0.00     0.008 C 
ATOM     21  C   UNL     1     136.039 130.751 140.230  1.00  0.00     0.007 C 
ATOM     22  C   UNL     1     136.016 133.322 138.559  1.00  0.00     0.012 C 
ATOM     23  C   UNL     1     136.031 131.232 135.898  1.00  0.00     0.012 C 
ATOM     24  C   UNL     1     138.214 131.725 131.221  1.00  0.00     0.014 C 
ATOM     25  C   UNL     1     138.262 134.153 131.669  1.00  0.00     0.014 C 
ATOM     26  C   UNL     1     138.425 129.970 134.187  1.00  0.00     0.012 C 
ATOM     27  C   UNL     1     138.092 129.641 141.211  1.00  0.00     0.011 C 
ENDROOT
BRANCH   1  28
ATOM     28  C   UNL     1     138.124 134.765 140.817  1.00  0.00    -0.077 C 
ATOM     29  C   UNL     1     139.477 135.394 140.584  1.00  0.00     0.039 C 
ATOM     30  C   UNL     1     137.046 135.557 140.678  1.00  0.00     0.008 C 
ENDBRANCH   1  28
BRANCH  13  31
ATOM     31  O   UNL     1     140.795 132.956 130.943  1.00  0.00    -0.393 OA
ATOM     32  H   UNL     1     140.368 132.257 130.383  1.00  0.00     0.210 HD
ENDBRANCH  13  31
TORSDOF 2
ENDMDL
MODEL 6
REMARK VINA RESULT:    -5.823     12.155     13.979
REMARK INTER + INTRA:          -6.484
REMARK INTER:                  -6.331
REMARK INTRA:                  -0.153
REMARK UNBOUND:                -0.150
REMARK SMILES C=C(C)[C@H]1CC[C@@]2(C)CC[C@@]3(C)[C@@H](CC[C@@H]4[C@]5(C)CC[C@@H](O)C(C)(C)[C@@H]5CC[C@@]43C)[C@@H]12
REMARK SMILES IDX 4 1 5 2 6 3 7 4 31 5 13 6 14 7 15 8 16 9 17 10 19 11 20 12
REMARK SMILES IDX 21 13 23 14 26 15 27 16 28 17 29 18 11 19 10 20 9 21 12 22
REMARK SMILES IDX 30 23 24 24 25 25 18 26 8 27 2 28 3 29 1 30 22 31
REMARK H PARENT 22 32
REMARK Flexibility Score: inf
ROOT
ATOM      1  C   UNL     1     132.065 121.926 136.544  1.00  0.00     0.018 C 
ATOM      2  C   UNL     1     131.617 122.231 135.113  1.00  0.00     0.009 C 
ATOM      3  C   UNL     1     131.874 123.722 134.952  1.00  0.00     0.008 C 
ATOM      4  C   UNL     1     131.498 124.353 136.309  1.00  0.00    -0.029 C 
ATOM      5  C   UNL     1     131.862 123.248 137.354  1.00  0.00     0.006 C 
ATOM      6  C   UNL     1     131.015 123.366 138.665  1.00  0.00    -0.000 C 
ATOM      7  C   UNL     1     131.424 122.461 139.810  1.00  0.00     0.005 C 
ATOM      8  C   UNL     1     131.037 123.102 141.155  1.00  0.00     0.005 C 
ATOM      9  C   UNL     1     129.829 124.125 141.126  1.00  0.00     0.002 C 
ATOM     10  C   UNL     1     129.235 124.454 142.596  1.00  0.00    -0.026 C 
ATOM     11  C   UNL     1     130.386 124.373 143.667  1.00  0.00     0.010 C 
ATOM     12  C   UNL     1     129.927 124.395 145.119  1.00  0.00     0.033 C 
ATOM     13  C   UNL     1     128.991 123.216 145.380  1.00  0.00     0.120 C 
ATOM     14  C   UNL     1     127.691 123.315 144.535  1.00  0.00    -0.006 C 
ATOM     15  C   UNL     1     128.008 123.498 142.974  1.00  0.00     0.003 C 
ATOM     16  C   UNL     1     128.065 122.170 142.169  1.00  0.00     0.005 C 
ATOM     17  C   UNL     1     128.173 122.311 140.620  1.00  0.00     0.008 C 
ATOM     18  C   UNL     1     128.768 123.659 140.052  1.00  0.00    -0.024 C 
ATOM     19  C   UNL     1     129.460 123.517 138.557  1.00  0.00    -0.024 C 
ATOM     20  C   UNL     1     129.285 124.800 137.660  1.00  0.00     0.008 C 
ATOM     21  C   UNL     1     129.981 124.729 136.284  1.00  0.00     0.007 C 
ATOM     22  C   UNL     1     128.811 122.330 137.793  1.00  0.00     0.012 C 
ATOM     23  C   UNL     1     127.572 124.655 139.916  1.00  0.00     0.012 C 
ATOM     24  C   UNL     1     126.801 124.491 145.041  1.00  0.00     0.014 C 
ATOM     25  C   UNL     1     126.858 122.032 144.815  1.00  0.00     0.014 C 
ATOM     26  C   UNL     1     128.757 125.947 142.595  1.00  0.00     0.012 C 
ATOM     27  C   UNL     1     132.331 125.637 136.539  1.00  0.00     0.011 C 
ENDROOT
BRANCH   1  28
ATOM     28  C   UNL     1     131.662 120.577 137.141  1.00  0.00    -0.077 C 
ATOM     29  C   UNL     1     132.626 119.880 138.072  1.00  0.00     0.039 C 
ATOM     30  C   UNL     1     130.588 119.877 136.732  1.00  0.00     0.008 C 
ENDBRANCH   1  28
BRANCH  13  31
ATOM     31  O   UNL     1     128.687 123.160 146.753  1.00  0.00    -0.393 OA
ATOM     32  H   UNL     1     129.241 123.851 147.202  1.00  0.00     0.210 HD
ENDBRANCH  13  31
TORSDOF 2
ENDMDL
MODEL 7
REMARK VINA RESULT:    -5.736     13.398     16.139
REMARK INTER + INTRA:          -6.390
REMARK INTER:                  -6.245
REMARK INTRA:                  -0.144
REMARK UNBOUND:                -0.150
REMARK SMILES C=C(C)[C@H]1CC[C@@]2(C)CC[C@@]3(C)[C@@H](CC[C@@H]4[C@]5(C)CC[C@@H](O)C(C)(C)[C@@H]5CC[C@@]43C)[C@@H]12
REMARK SMILES IDX 4 1 5 2 6 3 7 4 31 5 13 6 14 7 15 8 16 9 17 10 19 11 20 12
REMARK SMILES IDX 21 13 23 14 26 15 27 16 28 17 29 18 11 19 10 20 9 21 12 22
REMARK SMILES IDX 30 23 24 24 25 25 18 26 8 27 2 28 3 29 1 30 22 31
REMARK H PARENT 22 32
REMARK Flexibility Score: inf
ROOT
ATOM      1  C   UNL     1     129.646 123.257 146.055  1.00  0.00     0.018 C 
ATOM      2  C   UNL     1     129.240 122.212 147.098  1.00  0.00     0.009 C 
ATOM      3  C   UNL     1     128.826 121.004 146.271  1.00  0.00     0.008 C 
ATOM      4  C   UNL     1     128.089 121.578 145.043  1.00  0.00    -0.029 C 
ATOM      5  C   UNL     1     128.807 122.940 144.774  1.00  0.00     0.006 C 
ATOM      6  C   UNL     1     127.880 123.967 144.042  1.00  0.00    -0.000 C 
ATOM      7  C   UNL     1     128.541 125.246 143.568  1.00  0.00     0.005 C 
ATOM      8  C   UNL     1     127.791 125.808 142.346  1.00  0.00     0.005 C 
ATOM      9  C   UNL     1     126.263 125.413 142.215  1.00  0.00     0.002 C 
ATOM     10  C   UNL     1     125.455 126.331 141.154  1.00  0.00    -0.026 C 
ATOM     11  C   UNL     1     126.422 126.787 139.998  1.00  0.00     0.010 C 
ATOM     12  C   UNL     1     125.870 127.869 139.078  1.00  0.00     0.033 C 
ATOM     13  C   UNL     1     125.532 129.115 139.894  1.00  0.00     0.120 C 
ATOM     14  C   UNL     1     124.404 128.838 140.927  1.00  0.00    -0.006 C 
ATOM     15  C   UNL     1     124.749 127.581 141.861  1.00  0.00     0.003 C 
ATOM     16  C   UNL     1     125.458 127.945 143.195  1.00  0.00     0.005 C 
ATOM     17  C   UNL     1     125.633 126.783 144.218  1.00  0.00     0.008 C 
ATOM     18  C   UNL     1     125.620 125.308 143.654  1.00  0.00    -0.024 C 
ATOM     19  C   UNL     1     126.436 124.217 144.592  1.00  0.00    -0.024 C 
ATOM     20  C   UNL     1     125.794 122.778 144.583  1.00  0.00     0.008 C 
ATOM     21  C   UNL     1     126.571 121.717 145.390  1.00  0.00     0.007 C 
ATOM     22  C   UNL     1     126.450 124.705 146.066  1.00  0.00     0.012 C 
ATOM     23  C   UNL     1     124.125 124.857 143.612  1.00  0.00     0.012 C 
ATOM     24  C   UNL     1     123.045 128.608 140.199  1.00  0.00     0.014 C 
ATOM     25  C   UNL     1     124.202 130.141 141.753  1.00  0.00     0.014 C 
ATOM     26  C   UNL     1     124.369 125.430 140.472  1.00  0.00     0.012 C 
ATOM     27  C   UNL     1     128.245 120.616 143.842  1.00  0.00     0.011 C 
ENDROOT
BRANCH   1  28
ATOM     28  C   UNL     1     129.828 124.700 146.530  1.00  0.00    -0.077 C 
ATOM     29  C   UNL     1     130.981 125.503 145.978  1.00  0.00     0.039 C 
ATOM     30  C   UNL     1     129.143 125.232 147.559  1.00  0.00     0.008 C 
ENDBRANCH   1  28
BRANCH  13  31
ATOM     31  O   UNL     1     125.161 130.155 139.022  1.00  0.00    -0.393 OA
ATOM     32  H   UNL     1     125.231 131.003 139.535  1.00  0.00     0.210 HD
ENDBRANCH  13  31
TORSDOF 2
ENDMDL
MODEL 8
REMARK VINA RESULT:    -5.731      3.113      7.841
REMARK INTER + INTRA:          -6.384
REMARK INTER:                  -6.232
REMARK INTRA:                  -0.152
REMARK UNBOUND:                -0.150
REMARK SMILES C=C(C)[C@H]1CC[C@@]2(C)CC[C@@]3(C)[C@@H](CC[C@@H]4[C@]5(C)CC[C@@H](O)C(C)(C)[C@@H]5CC[C@@]43C)[C@@H]12
REMARK SMILES IDX 4 1 5 2 6 3 7 4 31 5 13 6 14 7 15 8 16 9 17 10 19 11 20 12
REMARK SMILES IDX 21 13 23 14 26 15 27 16 28 17 29 18 11 19 10 20 9 21 12 22
REMARK SMILES IDX 30 23 24 24 25 25 18 26 8 27 2 28 3 29 1 30 22 31
REMARK H PARENT 22 32
REMARK Flexibility Score: inf
ROOT
ATOM      1  C   UNL     1     137.267 135.324 143.197  1.00  0.00     0.018 C 
ATOM      2  C   UNL     1     137.997 134.977 144.497  1.00  0.00     0.009 C 
ATOM      3  C   UNL     1     139.469 135.150 144.155  1.00  0.00     0.008 C 
ATOM      4  C   UNL     1     139.621 134.622 142.712  1.00  0.00    -0.029 C 
ATOM      5  C   UNL     1     138.254 134.968 142.038  1.00  0.00     0.006 C 
ATOM      6  C   UNL     1     137.918 134.010 140.847  1.00  0.00    -0.000 C 
ATOM      7  C   UNL     1     136.709 134.379 140.010  1.00  0.00     0.005 C 
ATOM      8  C   UNL     1     136.874 133.842 138.577  1.00  0.00     0.005 C 
ATOM      9  C   UNL     1     137.811 132.576 138.403  1.00  0.00     0.002 C 
ATOM     10  C   UNL     1     137.632 131.842 136.970  1.00  0.00    -0.026 C 
ATOM     11  C   UNL     1     137.254 132.903 135.870  1.00  0.00     0.010 C 
ATOM     12  C   UNL     1     136.795 132.324 134.538  1.00  0.00     0.033 C 
ATOM     13  C   UNL     1     135.563 131.448 134.755  1.00  0.00     0.120 C 
ATOM     14  C   UNL     1     135.881 130.219 135.652  1.00  0.00    -0.006 C 
ATOM     15  C   UNL     1     136.563 130.653 137.036  1.00  0.00     0.003 C 
ATOM     16  C   UNL     1     135.565 130.861 138.208  1.00  0.00     0.005 C 
ATOM     17  C   UNL     1     136.196 131.089 139.615  1.00  0.00     0.008 C 
ATOM     18  C   UNL     1     137.675 131.641 139.668  1.00  0.00    -0.024 C 
ATOM     19  C   UNL     1     138.041 132.463 141.056  1.00  0.00    -0.024 C 
ATOM     20  C   UNL     1     139.536 132.281 141.517  1.00  0.00     0.008 C 
ATOM     21  C   UNL     1     139.932 133.092 142.769  1.00  0.00     0.007 C 
ATOM     22  C   UNL     1     137.138 131.957 142.214  1.00  0.00     0.012 C 
ATOM     23  C   UNL     1     138.620 130.399 139.602  1.00  0.00     0.012 C 
ATOM     24  C   UNL     1     136.802 129.216 134.893  1.00  0.00     0.014 C 
ATOM     25  C   UNL     1     134.548 129.450 135.874  1.00  0.00     0.014 C 
ATOM     26  C   UNL     1     139.030 131.270 136.549  1.00  0.00     0.012 C 
ATOM     27  C   UNL     1     140.792 135.349 142.009  1.00  0.00     0.011 C 
ENDROOT
BRANCH   1  28
ATOM     28  C   UNL     1     135.784 134.960 143.098  1.00  0.00    -0.077 C 
ATOM     29  C   UNL     1     134.867 135.870 142.317  1.00  0.00     0.039 C 
ATOM     30  C   UNL     1     135.210 133.988 143.829  1.00  0.00     0.008 C 
ENDBRANCH   1  28
BRANCH  13  31
ATOM     31  O   UNL     1     135.061 131.035 133.507  1.00  0.00    -0.393 OA
ATOM     32  H   UNL     1     135.824 131.038 132.872  1.00  0.00     0.210 HD
ENDBRANCH  13  31
TORSDOF 2
ENDMDL
MODEL 9
REMARK VINA RESULT:    -5.683     11.710     15.750
REMARK INTER + INTRA:          -6.332
REMARK INTER:                  -6.184
REMARK INTRA:                  -0.148
REMARK UNBOUND:                -0.150
REMARK SMILES C=C(C)[C@H]1CC[C@@]2(C)CC[C@@]3(C)[C@@H](CC[C@@H]4[C@]5(C)CC[C@@H](O)C(C)(C)[C@@H]5CC[C@@]43C)[C@@H]12
REMARK SMILES IDX 4 1 5 2 6 3 7 4 31 5 13 6 14 7 15 8 16 9 17 10 19 11 20 12
REMARK SMILES IDX 21 13 23 14 26 15 27 16 28 17 29 18 11 19 10 20 9 21 12 22
REMARK SMILES IDX 30 23 24 24 25 25 18 26 8 27 2 28 3 29 1 30 22 31
REMARK H PARENT 22 32
REMARK Flexibility Score: inf
ROOT
ATOM      1  C   UNL     1     126.430 137.030 146.473  1.00  0.00     0.018 C 
ATOM      2  C   UNL     1     127.158 138.191 147.155  1.00  0.00     0.009 C 
ATOM      3  C   UNL     1     128.627 137.940 146.848  1.00  0.00     0.008 C 
ATOM      4  C   UNL     1     128.811 136.411 146.937  1.00  0.00    -0.029 C 
ATOM      5  C   UNL     1     127.440 135.837 146.453  1.00  0.00     0.006 C 
ATOM      6  C   UNL     1     127.148 134.416 147.042  1.00  0.00    -0.000 C 
ATOM      7  C   UNL     1     125.936 133.696 146.485  1.00  0.00     0.005 C 
ATOM      8  C   UNL     1     126.134 132.172 146.586  1.00  0.00     0.005 C 
ATOM      9  C   UNL     1     127.114 131.663 147.721  1.00  0.00     0.002 C 
ATOM     10  C   UNL     1     126.975 130.078 148.020  1.00  0.00    -0.026 C 
ATOM     11  C   UNL     1     126.572 129.319 146.701  1.00  0.00     0.010 C 
ATOM     12  C   UNL     1     126.146 127.868 146.890  1.00  0.00     0.033 C 
ATOM     13  C   UNL     1     124.942 127.803 147.827  1.00  0.00     0.120 C 
ATOM     14  C   UNL     1     125.293 128.318 149.251  1.00  0.00    -0.006 C 
ATOM     15  C   UNL     1     125.946 129.781 149.210  1.00  0.00     0.003 C 
ATOM     16  C   UNL     1     124.930 130.945 149.375  1.00  0.00     0.005 C 
ATOM     17  C   UNL     1     125.539 132.370 149.539  1.00  0.00     0.008 C 
ATOM     18  C   UNL     1     126.997 132.607 148.982  1.00  0.00    -0.024 C 
ATOM     19  C   UNL     1     127.322 134.178 148.580  1.00  0.00    -0.024 C 
ATOM     20  C   UNL     1     128.818 134.596 148.842  1.00  0.00     0.008 C 
ATOM     21  C   UNL     1     129.173 136.035 148.410  1.00  0.00     0.007 C 
ATOM     22  C   UNL     1     126.425 135.127 149.421  1.00  0.00     0.012 C 
ATOM     23  C   UNL     1     127.985 132.208 150.125  1.00  0.00     0.012 C 
ATOM     24  C   UNL     1     126.255 127.322 149.967  1.00  0.00     0.014 C 
ATOM     25  C   UNL     1     123.984 128.286 150.091  1.00  0.00     0.014 C 
ATOM     26  C   UNL     1     128.395 129.538 148.407  1.00  0.00     0.012 C 
ATOM     27  C   UNL     1     129.964 135.966 146.006  1.00  0.00     0.011 C 
ENDROOT
BRANCH   1  28
ATOM     28  C   UNL     1     124.962 136.803 146.838  1.00  0.00    -0.077 C 
ATOM     29  C   UNL     1     123.999 136.401 145.745  1.00  0.00     0.039 C 
ATOM     30  C   UNL     1     124.435 137.133 148.031  1.00  0.00     0.008 C 
ENDBRANCH   1  28
BRANCH  13  31
ATOM     31  O   UNL     1     124.467 126.480 147.882  1.00  0.00    -0.393 OA
ATOM     32  H   UNL     1     123.552 126.483 147.497  1.00  0.00     0.210 HD
ENDBRANCH  13  31
TORSDOF 2
ENDMDL
