MODEL 1
REMARK VINA RESULT:    -4.046      0.000      0.000
REMARK INTER + INTRA:          -4.435
REMARK INTER:                  -4.401
REMARK INTRA:                  -0.034
REMARK UNBOUND:                -0.034
REMARK SMILES O=C([O-])c1ccc(O)cc1
REMARK SMILES IDX 7 1 6 2 9 3 5 4 10 5 4 6 8 7 2 9 1 10 3 11
REMARK H PARENT 8 8
REMARK Flexibility Score: inf
ROOT
ATOM      1  C   UNL     1      -8.086 -14.645 -21.852  1.00  0.00     0.115 A 
ATOM      2  C   UNL     1      -6.749 -14.506 -21.455  1.00  0.00     0.047 A 
ATOM      3  C   UNL     1      -8.474 -15.762 -22.598  1.00  0.00     0.047 A 
ATOM      4  C   UNL     1      -5.807 -15.479 -21.804  1.00  0.00     0.014 A 
ATOM      5  C   UNL     1      -7.535 -16.737 -22.948  1.00  0.00     0.014 A 
ATOM      6  C   UNL     1      -6.190 -16.606 -22.554  1.00  0.00    -0.003 A 
ENDROOT
BRANCH   1   7
ATOM      7  O   UNL     1      -9.032 -13.683 -21.511  1.00  0.00    -0.508 OA
ATOM      8  H   UNL     1      -9.837 -13.501 -22.099  1.00  0.00     0.293 HD
ENDBRANCH   1   7
BRANCH   6   9
ATOM      9  C   UNL     1      -5.192 -17.634 -22.921  1.00  0.00     0.071 C 
ATOM     10  O   UNL     1      -5.545 -18.825 -23.125  1.00  0.00    -0.545 OA
ATOM     11  O   UNL     1      -3.849 -17.297 -23.047  1.00  0.00    -0.545 OA
ENDBRANCH   6   9
TORSDOF 2
ENDMDL
MODEL 2
REMARK VINA RESULT:    -4.034      4.269      6.947
REMARK INTER + INTRA:          -4.421
REMARK INTER:                  -4.387
REMARK INTRA:                  -0.034
REMARK UNBOUND:                -0.034
REMARK SMILES O=C([O-])c1ccc(O)cc1
REMARK SMILES IDX 7 1 6 2 9 3 5 4 10 5 4 6 8 7 2 9 1 10 3 11
REMARK H PARENT 8 8
REMARK Flexibility Score: inf
ROOT
ATOM      1  C   UNL     1       0.097 -19.748 -21.459  1.00  0.00     0.115 A 
ATOM      2  C   UNL     1      -0.640 -19.369 -20.330  1.00  0.00     0.047 A 
ATOM      3  C   UNL     1      -0.513 -19.746 -22.717  1.00  0.00     0.047 A 
ATOM      4  C   UNL     1      -1.982 -18.993 -20.459  1.00  0.00     0.014 A 
ATOM      5  C   UNL     1      -1.853 -19.370 -22.850  1.00  0.00     0.014 A 
ATOM      6  C   UNL     1      -2.602 -18.989 -21.721  1.00  0.00    -0.003 A 
ENDROOT
BRANCH   1   7
ATOM      7  O   UNL     1       1.432 -20.125 -21.343  1.00  0.00    -0.508 OA
ATOM      8  H   UNL     1       2.175 -19.577 -21.759  1.00  0.00     0.293 HD
ENDBRANCH   1   7
BRANCH   6   9
ATOM      9  C   UNL     1      -4.020 -18.589 -21.855  1.00  0.00     0.071 C 
ATOM     10  O   UNL     1      -4.704 -18.976 -22.839  1.00  0.00    -0.545 OA
ATOM     11  O   UNL     1      -4.618 -17.782 -20.894  1.00  0.00    -0.545 OA
ENDBRANCH   6   9
TORSDOF 2
ENDMDL
MODEL 3
REMARK VINA RESULT:    -3.922      1.996      4.448
REMARK INTER + INTRA:          -4.300
REMARK INTER:                  -4.263
REMARK INTRA:                  -0.036
REMARK UNBOUND:                -0.034
REMARK SMILES O=C([O-])c1ccc(O)cc1
REMARK SMILES IDX 7 1 6 2 9 3 5 4 10 5 4 6 8 7 2 9 1 10 3 11
REMARK H PARENT 8 8
REMARK Flexibility Score: inf
ROOT
ATOM      1  C   UNL     1      -4.114 -19.081 -22.162  1.00  0.00     0.115 A 
ATOM      2  C   UNL     1      -3.869 -17.754 -21.787  1.00  0.00     0.047 A 
ATOM      3  C   UNL     1      -5.374 -19.443 -22.647  1.00  0.00     0.047 A 
ATOM      4  C   UNL     1      -4.880 -16.794 -21.897  1.00  0.00     0.014 A 
ATOM      5  C   UNL     1      -6.387 -18.484 -22.760  1.00  0.00     0.014 A 
ATOM      6  C   UNL     1      -6.150 -17.149 -22.386  1.00  0.00    -0.003 A 
ENDROOT
BRANCH   1   7
ATOM      7  O   UNL     1      -3.116 -20.046 -22.055  1.00  0.00    -0.508 OA
ATOM      8  H   UNL     1      -3.299 -20.955 -21.646  1.00  0.00     0.293 HD
ENDBRANCH   1   7
BRANCH   6   9
ATOM      9  C   UNL     1      -7.217 -16.131 -22.502  1.00  0.00     0.071 C 
ATOM     10  O   UNL     1      -8.335 -16.430 -22.999  1.00  0.00    -0.545 OA
ATOM     11  O   UNL     1      -6.999 -14.830 -22.065  1.00  0.00    -0.545 OA
ENDBRANCH   6   9
TORSDOF 2
ENDMDL
MODEL 4
REMARK VINA RESULT:    -3.760     20.722     21.768
REMARK INTER + INTRA:          -4.124
REMARK INTER:                  -4.096
REMARK INTRA:                  -0.028
REMARK UNBOUND:                -0.034
REMARK SMILES O=C([O-])c1ccc(O)cc1
REMARK SMILES IDX 7 1 6 2 9 3 5 4 10 5 4 6 8 7 2 9 1 10 3 11
REMARK H PARENT 8 8
REMARK Flexibility Score: inf
ROOT
ATOM      1  C   UNL     1      -4.148  -1.828  -6.736  1.00  0.00     0.115 A 
ATOM      2  C   UNL     1      -5.027  -2.834  -7.158  1.00  0.00     0.047 A 
ATOM      3  C   UNL     1      -3.863  -1.682  -5.376  1.00  0.00     0.047 A 
ATOM      4  C   UNL     1      -5.618  -3.689  -6.222  1.00  0.00     0.014 A 
ATOM      5  C   UNL     1      -4.452  -2.536  -4.438  1.00  0.00     0.014 A 
ATOM      6  C   UNL     1      -5.336  -3.550  -4.851  1.00  0.00    -0.003 A 
ENDROOT
BRANCH   1   7
ATOM      7  O   UNL     1      -3.554  -0.970  -7.659  1.00  0.00    -0.508 OA
ATOM      8  H   UNL     1      -3.711  -1.074  -8.655  1.00  0.00     0.293 HD
ENDBRANCH   1   7
BRANCH   6   9
ATOM      9  C   UNL     1      -5.962  -4.456  -3.864  1.00  0.00     0.071 C 
ATOM     10  O   UNL     1      -7.197  -4.392  -3.629  1.00  0.00    -0.545 OA
ATOM     11  O   UNL     1      -5.193  -5.391  -3.181  1.00  0.00    -0.545 OA
ENDBRANCH   6   9
TORSDOF 2
ENDMDL
MODEL 5
REMARK VINA RESULT:    -3.694     20.571     21.521
REMARK INTER + INTRA:          -4.051
REMARK INTER:                  -4.025
REMARK INTRA:                  -0.027
REMARK UNBOUND:                -0.034
REMARK SMILES O=C([O-])c1ccc(O)cc1
REMARK SMILES IDX 7 1 6 2 9 3 5 4 10 5 4 6 8 7 2 9 1 10 3 11
REMARK H PARENT 8 8
REMARK Flexibility Score: inf
ROOT
ATOM      1  C   UNL     1      -5.625  -3.451  -4.834  1.00  0.00     0.115 A 
ATOM      2  C   UNL     1      -4.556  -2.733  -4.284  1.00  0.00     0.047 A 
ATOM      3  C   UNL     1      -5.766  -3.529  -6.223  1.00  0.00     0.047 A 
ATOM      4  C   UNL     1      -3.633  -2.095  -5.120  1.00  0.00     0.014 A 
ATOM      5  C   UNL     1      -4.844  -2.893  -7.061  1.00  0.00     0.014 A 
ATOM      6  C   UNL     1      -3.767  -2.170  -6.518  1.00  0.00    -0.003 A 
ENDROOT
BRANCH   1   7
ATOM      7  O   UNL     1      -6.551  -4.089  -4.012  1.00  0.00    -0.508 OA
ATOM      8  H   UNL     1      -7.206  -3.563  -3.446  1.00  0.00     0.293 HD
ENDBRANCH   1   7
BRANCH   6   9
ATOM      9  C   UNL     1      -2.789  -1.495  -7.399  1.00  0.00     0.071 C 
ATOM     10  O   UNL     1      -2.996  -0.321  -7.804  1.00  0.00    -0.545 OA
ATOM     11  O   UNL     1      -1.627  -2.149  -7.792  1.00  0.00    -0.545 OA
ENDBRANCH   6   9
TORSDOF 2
ENDMDL
MODEL 6
REMARK VINA RESULT:    -3.585     13.179     13.704
REMARK INTER + INTRA:          -3.934
REMARK INTER:                  -3.898
REMARK INTRA:                  -0.036
REMARK UNBOUND:                -0.034
REMARK SMILES O=C([O-])c1ccc(O)cc1
REMARK SMILES IDX 7 1 6 2 9 3 5 4 10 5 4 6 8 7 2 9 1 10 3 11
REMARK H PARENT 8 8
REMARK Flexibility Score: inf
ROOT
ATOM      1  C   UNL     1      -4.345 -18.108  -7.777  1.00  0.00     0.115 A 
ATOM      2  C   UNL     1      -5.664 -17.641  -7.852  1.00  0.00     0.047 A 
ATOM      3  C   UNL     1      -3.863 -18.983  -8.754  1.00  0.00     0.047 A 
ATOM      4  C   UNL     1      -6.495 -18.049  -8.900  1.00  0.00     0.014 A 
ATOM      5  C   UNL     1      -4.692 -19.391  -9.804  1.00  0.00     0.014 A 
ATOM      6  C   UNL     1      -6.018 -18.928  -9.888  1.00  0.00    -0.003 A 
ENDROOT
BRANCH   1   7
ATOM      7  O   UNL     1      -3.508 -17.709  -6.737  1.00  0.00    -0.508 OA
ATOM      8  H   UNL     1      -2.592 -17.316  -6.917  1.00  0.00     0.293 HD
ENDBRANCH   1   7
BRANCH   6   9
ATOM      9  C   UNL     1      -6.899 -19.357 -10.996  1.00  0.00     0.071 C 
ATOM     10  O   UNL     1      -6.469 -20.125 -11.896  1.00  0.00    -0.545 OA
ATOM     11  O   UNL     1      -8.217 -18.917 -11.057  1.00  0.00    -0.545 OA
ENDBRANCH   6   9
TORSDOF 2
ENDMDL
MODEL 7
REMARK VINA RESULT:    -3.544     13.740     14.694
REMARK INTER + INTRA:          -3.889
REMARK INTER:                  -3.856
REMARK INTRA:                  -0.033
REMARK UNBOUND:                -0.034
REMARK SMILES O=C([O-])c1ccc(O)cc1
REMARK SMILES IDX 7 1 6 2 9 3 5 4 10 5 4 6 8 7 2 9 1 10 3 11
REMARK H PARENT 8 8
REMARK Flexibility Score: inf
ROOT
ATOM      1  C   UNL     1      -3.884 -18.934  -9.057  1.00  0.00     0.115 A 
ATOM      2  C   UNL     1      -3.901 -17.846  -8.175  1.00  0.00     0.047 A 
ATOM      3  C   UNL     1      -5.090 -19.459  -9.533  1.00  0.00     0.047 A 
ATOM      4  C   UNL     1      -5.117 -17.287  -7.770  1.00  0.00     0.014 A 
ATOM      5  C   UNL     1      -6.308 -18.902  -9.131  1.00  0.00     0.014 A 
ATOM      6  C   UNL     1      -6.334 -17.809  -8.245  1.00  0.00    -0.003 A 
ENDROOT
BRANCH   1   7
ATOM      7  O   UNL     1      -2.679 -19.500  -9.466  1.00  0.00    -0.508 OA
ATOM      8  H   UNL     1      -2.178 -20.158  -8.881  1.00  0.00     0.293 HD
ENDBRANCH   1   7
BRANCH   6   9
ATOM      9  C   UNL     1      -7.620 -17.215  -7.816  1.00  0.00     0.071 C 
ATOM     10  O   UNL     1      -7.738 -16.704  -6.672  1.00  0.00    -0.545 OA
ATOM     11  O   UNL     1      -8.714 -17.214  -8.673  1.00  0.00    -0.545 OA
ENDBRANCH   6   9
TORSDOF 2
ENDMDL
MODEL 8
REMARK VINA RESULT:    -3.419     12.805     13.139
REMARK INTER + INTRA:          -3.753
REMARK INTER:                  -3.726
REMARK INTRA:                  -0.027
REMARK UNBOUND:                -0.034
REMARK SMILES O=C([O-])c1ccc(O)cc1
REMARK SMILES IDX 7 1 6 2 9 3 5 4 10 5 4 6 8 7 2 9 1 10 3 11
REMARK H PARENT 8 8
REMARK Flexibility Score: inf
ROOT
ATOM      1  C   UNL     1      -7.679 -19.200 -11.480  1.00  0.00     0.115 A 
ATOM      2  C   UNL     1      -6.462 -19.893 -11.508  1.00  0.00     0.047 A 
ATOM      3  C   UNL     1      -7.978 -18.367 -10.398  1.00  0.00     0.047 A 
ATOM      4  C   UNL     1      -5.550 -19.755 -10.456  1.00  0.00     0.014 A 
ATOM      5  C   UNL     1      -7.067 -18.226  -9.346  1.00  0.00     0.014 A 
ATOM      6  C   UNL     1      -5.842 -18.918  -9.364  1.00  0.00    -0.003 A 
ENDROOT
BRANCH   1   7
ATOM      7  O   UNL     1      -8.595 -19.331 -12.521  1.00  0.00    -0.508 OA
ATOM      8  H   UNL     1      -8.779 -18.570 -13.163  1.00  0.00     0.293 HD
ENDBRANCH   1   7
BRANCH   6   9
ATOM      9  C   UNL     1      -4.875 -18.773  -8.254  1.00  0.00     0.071 C 
ATOM     10  O   UNL     1      -4.968 -19.494  -7.226  1.00  0.00    -0.545 OA
ATOM     11  O   UNL     1      -3.851 -17.836  -8.332  1.00  0.00    -0.545 OA
ENDBRANCH   6   9
TORSDOF 2
ENDMDL
MODEL 9
REMARK VINA RESULT:    -3.368     14.038     14.650
REMARK INTER + INTRA:          -3.697
REMARK INTER:                  -3.668
REMARK INTRA:                  -0.029
REMARK UNBOUND:                -0.034
REMARK SMILES O=C([O-])c1ccc(O)cc1
REMARK SMILES IDX 7 1 6 2 9 3 5 4 10 5 4 6 8 7 2 9 1 10 3 11
REMARK H PARENT 8 8
REMARK Flexibility Score: inf
ROOT
ATOM      1  C   UNL     1      -5.747 -19.227  -9.984  1.00  0.00     0.115 A 
ATOM      2  C   UNL     1      -4.403 -19.404  -9.628  1.00  0.00     0.047 A 
ATOM      3  C   UNL     1      -6.535 -18.309  -9.284  1.00  0.00     0.047 A 
ATOM      4  C   UNL     1      -3.852 -18.665  -8.576  1.00  0.00     0.014 A 
ATOM      5  C   UNL     1      -5.986 -17.568  -8.233  1.00  0.00     0.014 A 
ATOM      6  C   UNL     1      -4.637 -17.738  -7.868  1.00  0.00    -0.003 A 
ENDROOT
BRANCH   1   7
ATOM      7  O   UNL     1      -6.307 -19.958 -11.029  1.00  0.00    -0.508 OA
ATOM      8  H   UNL     1      -6.992 -19.549 -11.653  1.00  0.00     0.293 HD
ENDBRANCH   1   7
BRANCH   6   9
ATOM      9  C   UNL     1      -4.051 -16.957  -6.756  1.00  0.00     0.071 C 
ATOM     10  O   UNL     1      -3.510 -17.540  -5.780  1.00  0.00    -0.545 OA
ATOM     11  O   UNL     1      -4.090 -15.568  -6.775  1.00  0.00    -0.545 OA
ENDBRANCH   6   9
TORSDOF 2
ENDMDL
