MODEL 1
REMARK VINA RESULT:    -4.586      0.000      0.000
REMARK INTER + INTRA:          -7.299
REMARK INTER:                  -6.195
REMARK INTRA:                  -1.104
REMARK UNBOUND:                -1.104
REMARK SMILES O=c1c(-c2ccc(O)cc2)coc2c([C@@H]3O[C@H](CO)[C@@H](O)[C@H](O)[C@H]3O)c(O)ccc12
REMARK SMILES IDX 3 1 11 2 12 3 13 4 30 5 2 6 1 7 29 8 28 9 26 10 14 11 4 12
REMARK SMILES IDX 5 13 6 14 7 15 10 16 9 17 8 18 15 20 24 21 16 22 22 23 17 24
REMARK SMILES IDX 20 25 25 26 23 28 18 30 19 31 21 33 27 35
REMARK H PARENT 8 19 25 27 23 29 19 32 21 34 27 36
REMARK Flexibility Score: inf
ROOT
ATOM      1  C   UNL     1     -27.051  48.512  41.189  1.00  0.00     0.065 A 
ATOM      2  C   UNL     1     -26.905  49.903  41.100  1.00  0.00     0.208 A 
ATOM      3  O   UNL     1     -26.430  50.605  42.121  1.00  0.00    -0.463 OA
ATOM      4  C   UNL     1     -26.067  50.056  43.278  1.00  0.00     0.147 A 
ATOM      5  C   UNL     1     -26.181  48.657  43.454  1.00  0.00     0.066 A 
ATOM      6  C   UNL     1     -26.673  47.881  42.388  1.00  0.00     0.200 A 
ATOM      7  O   UNL     1     -26.757  46.626  42.500  1.00  0.00    -0.288 OA
ATOM      8  C   UNL     1     -25.807  48.079  44.676  1.00  0.00     0.020 A 
ATOM      9  C   UNL     1     -25.338  48.879  45.716  1.00  0.00     0.047 A 
ATOM     10  C   UNL     1     -25.224  50.264  45.555  1.00  0.00     0.125 A 
ATOM     11  C   UNL     1     -25.571  50.869  44.324  1.00  0.00     0.069 A 
ENDROOT
BRANCH   1  12
ATOM     12  C   UNL     1     -27.590  47.748  40.035  1.00  0.00    -0.011 A 
ATOM     13  C   UNL     1     -28.956  47.417  39.980  1.00  0.00     0.013 A 
ATOM     14  C   UNL     1     -29.465  46.690  38.900  1.00  0.00     0.047 A 
ATOM     15  C   UNL     1     -28.618  46.282  37.865  1.00  0.00     0.115 A 
ATOM     16  C   UNL     1     -26.743  47.328  38.995  1.00  0.00     0.013 A 
ATOM     17  C   UNL     1     -27.256  46.601  37.915  1.00  0.00     0.047 A 
BRANCH  15  18
ATOM     18  O   UNL     1     -29.140  45.559  36.794  1.00  0.00    -0.508 OA
ATOM     19  H   UNL     1     -30.068  45.155  36.830  1.00  0.00     0.293 HD
ENDBRANCH  15  18
ENDBRANCH   1  12
BRANCH  11  20
ATOM     20  C   UNL     1     -25.470  52.378  44.146  1.00  0.00     0.188 C 
ATOM     21  C   UNL     1     -26.541  53.088  45.002  1.00  0.00     0.179 C 
ATOM     22  O   UNL     1     -24.169  52.805  44.514  1.00  0.00    -0.362 OA
ATOM     23  C   UNL     1     -26.396  54.611  44.853  1.00  0.00     0.177 C 
ATOM     24  C   UNL     1     -23.989  54.184  44.233  1.00  0.00     0.176 C 
ATOM     25  C   UNL     1     -24.939  55.037  45.105  1.00  0.00     0.177 C 
BRANCH  21  26
ATOM     26  O   UNL     1     -27.820  52.688  44.579  1.00  0.00    -0.387 OA
ATOM     27  H   UNL     1     -27.687  52.031  43.845  1.00  0.00     0.211 HD
ENDBRANCH  21  26
BRANCH  23  28
ATOM     28  O   UNL     1     -27.247  55.250  45.770  1.00  0.00    -0.387 OA
ATOM     29  H   UNL     1     -27.757  54.536  46.236  1.00  0.00     0.211 HD
ENDBRANCH  23  28
BRANCH  24  30
ATOM     30  C   UNL     1     -22.521  54.546  44.506  1.00  0.00     0.191 C 
BRANCH  30  31
ATOM     31  O   UNL     1     -22.389  55.119  45.780  1.00  0.00    -0.394 OA
ATOM     32  H   UNL     1     -21.503  54.840  46.130  1.00  0.00     0.210 HD
ENDBRANCH  30  31
ENDBRANCH  24  30
BRANCH  25  33
ATOM     33  O   UNL     1     -24.802  56.398  44.784  1.00  0.00    -0.388 OA
ATOM     34  H   UNL     1     -23.859  56.542  44.506  1.00  0.00     0.211 HD
ENDBRANCH  25  33
ENDBRANCH  11  20
BRANCH  10  35
ATOM     35  O   UNL     1     -24.772  51.042  46.621  1.00  0.00    -0.507 OA
ATOM     36  H   UNL     1     -25.254  51.060  47.512  1.00  0.00     0.293 HD
ENDBRANCH  10  35
TORSDOF 9
ENDMDL
MODEL 2
REMARK VINA RESULT:    -4.563      1.899      8.481
REMARK INTER + INTRA:          -7.267
REMARK INTER:                  -6.270
REMARK INTRA:                  -0.997
REMARK UNBOUND:                -1.104
REMARK SMILES O=c1c(-c2ccc(O)cc2)coc2c([C@@H]3O[C@H](CO)[C@@H](O)[C@H](O)[C@H]3O)c(O)ccc12
REMARK SMILES IDX 3 1 11 2 12 3 13 4 30 5 2 6 1 7 29 8 28 9 26 10 14 11 4 12
REMARK SMILES IDX 5 13 6 14 7 15 10 16 9 17 8 18 15 20 24 21 16 22 22 23 17 24
REMARK SMILES IDX 20 25 25 26 23 28 18 30 19 31 21 33 27 35
REMARK H PARENT 8 19 25 27 23 29 19 32 21 34 27 36
REMARK Flexibility Score: inf
ROOT
ATOM      1  C   UNL     1     -25.622  52.941  44.542  1.00  0.00     0.065 A 
ATOM      2  C   UNL     1     -26.762  52.548  43.828  1.00  0.00     0.208 A 
ATOM      3  O   UNL     1     -26.814  51.367  43.224  1.00  0.00    -0.463 OA
ATOM      4  C   UNL     1     -25.814  50.489  43.250  1.00  0.00     0.147 A 
ATOM      5  C   UNL     1     -24.625  50.804  43.949  1.00  0.00     0.066 A 
ATOM      6  C   UNL     1     -24.539  52.045  44.608  1.00  0.00     0.200 A 
ATOM      7  O   UNL     1     -23.506  52.345  45.269  1.00  0.00    -0.288 OA
ATOM      8  C   UNL     1     -23.567  49.883  43.970  1.00  0.00     0.020 A 
ATOM      9  C   UNL     1     -23.681  48.670  43.294  1.00  0.00     0.047 A 
ATOM     10  C   UNL     1     -24.850  48.349  42.595  1.00  0.00     0.125 A 
ATOM     11  C   UNL     1     -25.941  49.249  42.581  1.00  0.00     0.069 A 
ENDROOT
BRANCH   1  12
ATOM     12  C   UNL     1     -25.584  54.269  45.204  1.00  0.00    -0.011 A 
ATOM     13  C   UNL     1     -26.165  54.445  46.473  1.00  0.00     0.013 A 
ATOM     14  C   UNL     1     -26.139  55.697  47.095  1.00  0.00     0.047 A 
ATOM     15  C   UNL     1     -25.540  56.787  46.459  1.00  0.00     0.115 A 
ATOM     16  C   UNL     1     -24.989  55.372  44.567  1.00  0.00     0.013 A 
ATOM     17  C   UNL     1     -24.965  56.623  45.192  1.00  0.00     0.047 A 
BRANCH  15  18
ATOM     18  O   UNL     1     -25.521  58.028  47.091  1.00  0.00    -0.508 OA
ATOM     19  H   UNL     1     -24.695  58.614  47.083  1.00  0.00     0.293 HD
ENDBRANCH  15  18
ENDBRANCH   1  12
BRANCH  11  20
ATOM     20  C   UNL     1     -27.210  48.918  41.807  1.00  0.00     0.188 C 
ATOM     21  C   UNL     1     -27.006  49.203  40.303  1.00  0.00     0.179 C 
ATOM     22  O   UNL     1     -27.543  47.556  42.019  1.00  0.00    -0.362 OA
ATOM     23  C   UNL     1     -28.275  48.817  39.526  1.00  0.00     0.177 C 
ATOM     24  C   UNL     1     -28.793  47.241  41.427  1.00  0.00     0.176 C 
ATOM     25  C   UNL     1     -28.709  47.386  39.889  1.00  0.00     0.177 C 
BRANCH  21  26
ATOM     26  O   UNL     1     -26.732  50.568  40.118  1.00  0.00    -0.387 OA
ATOM     27  H   UNL     1     -25.762  50.694  40.293  1.00  0.00     0.211 HD
ENDBRANCH  21  26
BRANCH  23  28
ATOM     28  O   UNL     1     -28.020  48.904  38.148  1.00  0.00    -0.387 OA
ATOM     29  H   UNL     1     -28.785  48.474  37.685  1.00  0.00     0.211 HD
ENDBRANCH  23  28
BRANCH  24  30
ATOM     30  C   UNL     1     -29.168  45.805  41.823  1.00  0.00     0.191 C 
BRANCH  30  31
ATOM     31  O   UNL     1     -29.835  45.797  43.057  1.00  0.00    -0.394 OA
ATOM     32  H   UNL     1     -30.312  44.929  43.120  1.00  0.00     0.210 HD
ENDBRANCH  30  31
ENDBRANCH  24  30
BRANCH  25  33
ATOM     33  O   UNL     1     -29.964  47.131  39.309  1.00  0.00    -0.388 OA
ATOM     34  H   UNL     1     -30.400  46.421  39.850  1.00  0.00     0.211 HD
ENDBRANCH  25  33
ENDBRANCH  11  20
BRANCH  10  35
ATOM     35  O   UNL     1     -24.927  47.135  41.911  1.00  0.00    -0.507 OA
ATOM     36  H   UNL     1     -24.462  46.301  42.249  1.00  0.00     0.293 HD
ENDBRANCH  10  35
TORSDOF 9
ENDMDL
MODEL 3
REMARK VINA RESULT:    -4.165      1.635      7.817
REMARK INTER + INTRA:          -6.729
REMARK INTER:                  -6.074
REMARK INTRA:                  -0.655
REMARK UNBOUND:                -1.104
REMARK SMILES O=c1c(-c2ccc(O)cc2)coc2c([C@@H]3O[C@H](CO)[C@@H](O)[C@H](O)[C@H]3O)c(O)ccc12
REMARK SMILES IDX 3 1 11 2 12 3 13 4 30 5 2 6 1 7 29 8 28 9 26 10 14 11 4 12
REMARK SMILES IDX 5 13 6 14 7 15 10 16 9 17 8 18 15 20 24 21 16 22 22 23 17 24
REMARK SMILES IDX 20 25 25 26 23 28 18 30 19 31 21 33 27 35
REMARK H PARENT 8 19 25 27 23 29 19 32 21 34 27 36
REMARK Flexibility Score: inf
ROOT
ATOM      1  C   UNL     1     -25.940  51.308  43.978  1.00  0.00     0.065 A 
ATOM      2  C   UNL     1     -26.408  50.901  42.721  1.00  0.00     0.208 A 
ATOM      3  O   UNL     1     -26.514  49.613  42.418  1.00  0.00    -0.463 OA
ATOM      4  C   UNL     1     -26.194  48.636  43.263  1.00  0.00     0.147 A 
ATOM      5  C   UNL     1     -25.713  48.957  44.554  1.00  0.00     0.066 A 
ATOM      6  C   UNL     1     -25.596  50.313  44.911  1.00  0.00     0.200 A 
ATOM      7  O   UNL     1     -25.202  50.635  46.067  1.00  0.00    -0.288 OA
ATOM      8  C   UNL     1     -25.367  47.927  45.441  1.00  0.00     0.020 A 
ATOM      9  C   UNL     1     -25.482  46.595  45.048  1.00  0.00     0.047 A 
ATOM     10  C   UNL     1     -25.951  46.265  43.772  1.00  0.00     0.125 A 
ATOM     11  C   UNL     1     -26.332  47.284  42.868  1.00  0.00     0.069 A 
ENDROOT
BRANCH   1  12
ATOM     12  C   UNL     1     -25.824  52.754  44.293  1.00  0.00    -0.011 A 
ATOM     13  C   UNL     1     -26.859  53.416  44.977  1.00  0.00     0.013 A 
ATOM     14  C   UNL     1     -26.757  54.780  45.267  1.00  0.00     0.047 A 
ATOM     15  C   UNL     1     -25.625  55.500  44.873  1.00  0.00     0.115 A 
ATOM     16  C   UNL     1     -24.692  53.486  43.894  1.00  0.00     0.013 A 
ATOM     17  C   UNL     1     -24.592  54.851  44.186  1.00  0.00     0.047 A 
BRANCH  15  18
ATOM     18  O   UNL     1     -25.536  56.859  45.170  1.00  0.00    -0.508 OA
ATOM     19  H   UNL     1     -24.714  57.399  44.933  1.00  0.00     0.293 HD
ENDBRANCH  15  18
ENDBRANCH   1  12
BRANCH  11  20
ATOM     20  C   UNL     1     -26.825  46.936  41.470  1.00  0.00     0.188 C 
ATOM     21  C   UNL     1     -28.315  47.317  41.321  1.00  0.00     0.179 C 
ATOM     22  O   UNL     1     -26.035  47.621  40.512  1.00  0.00    -0.362 OA
ATOM     23  C   UNL     1     -28.788  47.008  39.892  1.00  0.00     0.177 C 
ATOM     24  C   UNL     1     -26.372  47.220  39.194  1.00  0.00     0.176 C 
ATOM     25  C   UNL     1     -27.826  47.632  38.865  1.00  0.00     0.177 C 
BRANCH  21  26
ATOM     26  O   UNL     1     -29.080  46.583  42.244  1.00  0.00    -0.387 OA
ATOM     27  H   UNL     1     -30.000  46.528  41.875  1.00  0.00     0.211 HD
ENDBRANCH  21  26
BRANCH  23  28
ATOM     28  O   UNL     1     -30.082  47.524  39.710  1.00  0.00    -0.387 OA
ATOM     29  H   UNL     1     -30.699  46.747  39.672  1.00  0.00     0.211 HD
ENDBRANCH  23  28
BRANCH  24  30
ATOM     30  C   UNL     1     -25.382  47.874  38.220  1.00  0.00     0.191 C 
BRANCH  30  31
ATOM     31  O   UNL     1     -25.990  48.951  37.557  1.00  0.00    -0.394 OA
ATOM     32  H   UNL     1     -25.541  49.037  36.676  1.00  0.00     0.210 HD
ENDBRANCH  30  31
ENDBRANCH  24  30
BRANCH  25  33
ATOM     33  O   UNL     1     -28.179  47.181  37.581  1.00  0.00    -0.388 OA
ATOM     34  H   UNL     1     -29.139  46.931  37.609  1.00  0.00     0.211 HD
ENDBRANCH  25  33
ENDBRANCH  11  20
BRANCH  10  35
ATOM     35  O   UNL     1     -26.036  44.923  43.400  1.00  0.00    -0.507 OA
ATOM     36  H   UNL     1     -26.898  44.518  43.056  1.00  0.00     0.293 HD
ENDBRANCH  10  35
TORSDOF 9
ENDMDL
MODEL 4
REMARK VINA RESULT:    -3.971      1.612      8.495
REMARK INTER + INTRA:          -6.467
REMARK INTER:                  -5.477
REMARK INTRA:                  -0.990
REMARK UNBOUND:                -1.104
REMARK SMILES O=c1c(-c2ccc(O)cc2)coc2c([C@@H]3O[C@H](CO)[C@@H](O)[C@H](O)[C@H]3O)c(O)ccc12
REMARK SMILES IDX 3 1 11 2 12 3 13 4 30 5 2 6 1 7 29 8 28 9 26 10 14 11 4 12
REMARK SMILES IDX 5 13 6 14 7 15 10 16 9 17 8 18 15 20 24 21 16 22 22 23 17 24
REMARK SMILES IDX 20 25 25 26 23 28 18 30 19 31 21 33 27 35
REMARK H PARENT 8 19 25 27 23 29 19 32 21 34 27 36
REMARK Flexibility Score: inf
ROOT
ATOM      1  C   UNL     1     -25.852  52.770  44.107  1.00  0.00     0.065 A 
ATOM      2  C   UNL     1     -26.339  52.588  42.806  1.00  0.00     0.208 A 
ATOM      3  O   UNL     1     -26.496  51.370  42.301  1.00  0.00    -0.463 OA
ATOM      4  C   UNL     1     -26.211  50.258  42.975  1.00  0.00     0.147 A 
ATOM      5  C   UNL     1     -25.714  50.350  44.296  1.00  0.00     0.066 A 
ATOM      6  C   UNL     1     -25.544  51.626  44.865  1.00  0.00     0.200 A 
ATOM      7  O   UNL     1     -25.134  51.744  46.054  1.00  0.00    -0.288 OA
ATOM      8  C   UNL     1     -25.405  49.180  45.004  1.00  0.00     0.020 A 
ATOM      9  C   UNL     1     -25.572  47.933  44.404  1.00  0.00     0.047 A 
ATOM     10  C   UNL     1     -26.058  47.829  43.097  1.00  0.00     0.125 A 
ATOM     11  C   UNL     1     -26.402  48.994  42.371  1.00  0.00     0.069 A 
ENDROOT
BRANCH   1  12
ATOM     12  C   UNL     1     -25.679  54.142  44.648  1.00  0.00    -0.011 A 
ATOM     13  C   UNL     1     -26.474  54.587  45.719  1.00  0.00     0.013 A 
ATOM     14  C   UNL     1     -26.321  55.881  46.224  1.00  0.00     0.047 A 
ATOM     15  C   UNL     1     -25.377  56.748  45.665  1.00  0.00     0.115 A 
ATOM     16  C   UNL     1     -24.737  55.021  44.086  1.00  0.00     0.013 A 
ATOM     17  C   UNL     1     -24.585  56.315  44.594  1.00  0.00     0.047 A 
BRANCH  15  18
ATOM     18  O   UNL     1     -25.234  58.034  46.180  1.00  0.00    -0.508 OA
ATOM     19  H   UNL     1     -24.523  58.253  46.867  1.00  0.00     0.293 HD
ENDBRANCH  15  18
ENDBRANCH   1  12
BRANCH  11  20
ATOM     20  C   UNL     1     -26.913  48.893  40.940  1.00  0.00     0.188 C 
ATOM     21  C   UNL     1     -25.751  48.545  39.983  1.00  0.00     0.179 C 
ATOM     22  O   UNL     1     -27.929  47.905  40.875  1.00  0.00    -0.362 OA
ATOM     23  C   UNL     1     -26.288  48.396  38.550  1.00  0.00     0.177 C 
ATOM     24  C   UNL     1     -28.527  47.875  39.590  1.00  0.00     0.176 C 
ATOM     25  C   UNL     1     -27.491  47.438  38.527  1.00  0.00     0.177 C 
BRANCH  21  26
ATOM     26  O   UNL     1     -24.788  49.567  40.026  1.00  0.00    -0.387 OA
ATOM     27  H   UNL     1     -25.201  50.332  40.506  1.00  0.00     0.211 HD
ENDBRANCH  21  26
BRANCH  23  28
ATOM     28  O   UNL     1     -25.267  47.903  37.722  1.00  0.00    -0.387 OA
ATOM     29  H   UNL     1     -25.531  48.106  36.787  1.00  0.00     0.211 HD
ENDBRANCH  23  28
BRANCH  24  30
ATOM     30  C   UNL     1     -29.715  46.902  39.631  1.00  0.00     0.191 C 
BRANCH  30  31
ATOM     31  O   UNL     1     -29.333  45.645  39.139  1.00  0.00    -0.394 OA
ATOM     32  H   UNL     1     -28.346  45.665  39.035  1.00  0.00     0.210 HD
ENDBRANCH  30  31
ENDBRANCH  24  30
BRANCH  25  33
ATOM     33  O   UNL     1     -28.070  47.465  37.247  1.00  0.00    -0.388 OA
ATOM     34  H   UNL     1     -28.958  47.901  37.333  1.00  0.00     0.211 HD
ENDBRANCH  25  33
ENDBRANCH  11  20
BRANCH  10  35
ATOM     35  O   UNL     1     -26.195  46.569  42.515  1.00  0.00    -0.507 OA
ATOM     36  H   UNL     1     -26.563  45.779  43.033  1.00  0.00     0.293 HD
ENDBRANCH  10  35
TORSDOF 9
ENDMDL
MODEL 5
REMARK VINA RESULT:    -3.919      2.574      8.727
REMARK INTER + INTRA:          -6.397
REMARK INTER:                  -5.276
REMARK INTRA:                  -1.121
REMARK UNBOUND:                -1.104
REMARK SMILES O=c1c(-c2ccc(O)cc2)coc2c([C@@H]3O[C@H](CO)[C@@H](O)[C@H](O)[C@H]3O)c(O)ccc12
REMARK SMILES IDX 3 1 11 2 12 3 13 4 30 5 2 6 1 7 29 8 28 9 26 10 14 11 4 12
REMARK SMILES IDX 5 13 6 14 7 15 10 16 9 17 8 18 15 20 24 21 16 22 22 23 17 24
REMARK SMILES IDX 20 25 25 26 23 28 18 30 19 31 21 33 27 35
REMARK H PARENT 8 19 25 27 23 29 19 32 21 34 27 36
REMARK Flexibility Score: inf
ROOT
ATOM      1  C   UNL     1     -25.726  54.128  46.473  1.00  0.00     0.065 A 
ATOM      2  C   UNL     1     -26.362  53.910  45.243  1.00  0.00     0.208 A 
ATOM      3  O   UNL     1     -26.189  52.773  44.579  1.00  0.00    -0.463 OA
ATOM      4  C   UNL     1     -25.420  51.780  45.019  1.00  0.00     0.147 A 
ATOM      5  C   UNL     1     -24.741  51.916  46.252  1.00  0.00     0.066 A 
ATOM      6  C   UNL     1     -24.908  53.105  46.987  1.00  0.00     0.200 A 
ATOM      7  O   UNL     1     -24.342  53.246  48.107  1.00  0.00    -0.288 OA
ATOM      8  C   UNL     1     -23.923  50.873  46.712  1.00  0.00     0.020 A 
ATOM      9  C   UNL     1     -23.768  49.716  45.952  1.00  0.00     0.047 A 
ATOM     10  C   UNL     1     -24.431  49.572  44.728  1.00  0.00     0.125 A 
ATOM     11  C   UNL     1     -25.282  50.598  44.255  1.00  0.00     0.069 A 
ENDROOT
BRANCH   1  12
ATOM     12  C   UNL     1     -25.929  55.409  47.195  1.00  0.00    -0.011 A 
ATOM     13  C   UNL     1     -26.910  55.510  48.197  1.00  0.00     0.013 A 
ATOM     14  C   UNL     1     -27.110  56.718  48.873  1.00  0.00     0.047 A 
ATOM     15  C   UNL     1     -26.338  57.839  48.553  1.00  0.00     0.115 A 
ATOM     16  C   UNL     1     -25.161  56.542  46.874  1.00  0.00     0.013 A 
ATOM     17  C   UNL     1     -25.363  57.749  47.552  1.00  0.00     0.047 A 
BRANCH  15  18
ATOM     18  O   UNL     1     -26.548  59.035  49.235  1.00  0.00    -0.508 OA
ATOM     19  H   UNL     1     -25.779  59.649  49.475  1.00  0.00     0.293 HD
ENDBRANCH  15  18
ENDBRANCH   1  12
BRANCH  11  20
ATOM     20  C   UNL     1     -25.993  50.459  42.915  1.00  0.00     0.188 C 
ATOM     21  C   UNL     1     -25.070  50.934  41.771  1.00  0.00     0.179 C 
ATOM     22  O   UNL     1     -26.371  49.106  42.725  1.00  0.00    -0.362 OA
ATOM     23  C   UNL     1     -25.779  50.742  40.421  1.00  0.00     0.177 C 
ATOM     24  C   UNL     1     -27.156  48.957  41.553  1.00  0.00     0.176 C 
ATOM     25  C   UNL     1     -26.319  49.306  40.300  1.00  0.00     0.177 C 
BRANCH  21  26
ATOM     26  O   UNL     1     -24.757  52.291  41.955  1.00  0.00    -0.387 OA
ATOM     27  H   UNL     1     -25.530  52.704  42.423  1.00  0.00     0.211 HD
ENDBRANCH  21  26
BRANCH  23  28
ATOM     28  O   UNL     1     -24.871  51.001  39.380  1.00  0.00    -0.387 OA
ATOM     29  H   UNL     1     -24.065  51.405  39.795  1.00  0.00     0.211 HD
ENDBRANCH  23  28
BRANCH  24  30
ATOM     30  C   UNL     1     -27.661  47.508  41.489  1.00  0.00     0.191 C 
BRANCH  30  31
ATOM     31  O   UNL     1     -28.795  47.423  40.667  1.00  0.00    -0.394 OA
ATOM     32  H   UNL     1     -28.604  46.729  39.984  1.00  0.00     0.210 HD
ENDBRANCH  30  31
ENDBRANCH  24  30
BRANCH  25  33
ATOM     33  O   UNL     1     -27.114  49.216  39.145  1.00  0.00    -0.388 OA
ATOM     34  H   UNL     1     -28.055  49.376  39.421  1.00  0.00     0.211 HD
ENDBRANCH  25  33
ENDBRANCH  11  20
BRANCH  10  35
ATOM     35  O   UNL     1     -24.241  48.410  43.979  1.00  0.00    -0.507 OA
ATOM     36  H   UNL     1     -24.407  47.490  44.369  1.00  0.00     0.293 HD
ENDBRANCH  10  35
TORSDOF 9
ENDMDL
MODEL 6
REMARK VINA RESULT:    -3.912      2.280      8.629
REMARK INTER + INTRA:          -6.388
REMARK INTER:                  -5.618
REMARK INTRA:                  -0.769
REMARK UNBOUND:                -1.104
REMARK SMILES O=c1c(-c2ccc(O)cc2)coc2c([C@@H]3O[C@H](CO)[C@@H](O)[C@H](O)[C@H]3O)c(O)ccc12
REMARK SMILES IDX 3 1 11 2 12 3 13 4 30 5 2 6 1 7 29 8 28 9 26 10 14 11 4 12
REMARK SMILES IDX 5 13 6 14 7 15 10 16 9 17 8 18 15 20 24 21 16 22 22 23 17 24
REMARK SMILES IDX 20 25 25 26 23 28 18 30 19 31 21 33 27 35
REMARK H PARENT 8 19 25 27 23 29 19 32 21 34 27 36
REMARK Flexibility Score: inf
ROOT
ATOM      1  C   UNL     1     -25.906  52.207  43.062  1.00  0.00     0.065 A 
ATOM      2  C   UNL     1     -25.912  52.202  41.661  1.00  0.00     0.208 A 
ATOM      3  O   UNL     1     -25.966  51.061  40.984  1.00  0.00    -0.463 OA
ATOM      4  C   UNL     1     -26.018  49.867  41.569  1.00  0.00     0.147 A 
ATOM      5  C   UNL     1     -26.017  49.780  42.981  1.00  0.00     0.066 A 
ATOM      6  C   UNL     1     -25.969  50.971  43.730  1.00  0.00     0.200 A 
ATOM      7  O   UNL     1     -25.999  50.931  44.992  1.00  0.00    -0.288 OA
ATOM      8  C   UNL     1     -26.063  48.522  43.599  1.00  0.00     0.020 A 
ATOM      9  C   UNL     1     -26.095  47.362  42.826  1.00  0.00     0.047 A 
ATOM     10  C   UNL     1     -26.092  47.435  41.429  1.00  0.00     0.125 A 
ATOM     11  C   UNL     1     -26.073  48.693  40.782  1.00  0.00     0.069 A 
ENDROOT
BRANCH   1  12
ATOM     12  C   UNL     1     -25.839  53.495  43.798  1.00  0.00    -0.011 A 
ATOM     13  C   UNL     1     -24.840  54.436  43.489  1.00  0.00     0.013 A 
ATOM     14  C   UNL     1     -24.767  55.646  44.186  1.00  0.00     0.047 A 
ATOM     15  C   UNL     1     -25.686  55.929  45.201  1.00  0.00     0.115 A 
ATOM     16  C   UNL     1     -26.755  53.784  44.824  1.00  0.00     0.013 A 
ATOM     17  C   UNL     1     -26.680  54.996  45.519  1.00  0.00     0.047 A 
BRANCH  15  18
ATOM     18  O   UNL     1     -25.603  57.140  45.886  1.00  0.00    -0.508 OA
ATOM     19  H   UNL     1     -25.235  57.973  45.444  1.00  0.00     0.293 HD
ENDBRANCH  15  18
ENDBRANCH   1  12
BRANCH  11  20
ATOM     20  C   UNL     1     -26.049  48.783  39.262  1.00  0.00     0.188 C 
ATOM     21  C   UNL     1     -24.600  48.653  38.743  1.00  0.00     0.179 C 
ATOM     22  O   UNL     1     -26.869  47.760  38.721  1.00  0.00    -0.362 OA
ATOM     23  C   UNL     1     -24.595  48.695  37.206  1.00  0.00     0.177 C 
ATOM     24  C   UNL     1     -26.985  47.892  37.314  1.00  0.00     0.176 C 
ATOM     25  C   UNL     1     -25.608  47.683  36.641  1.00  0.00     0.177 C 
BRANCH  21  26
ATOM     26  O   UNL     1     -23.825  49.710  39.250  1.00  0.00    -0.387 OA
ATOM     27  H   UNL     1     -23.253  49.329  39.966  1.00  0.00     0.211 HD
ENDBRANCH  21  26
BRANCH  23  28
ATOM     28  O   UNL     1     -23.306  48.393  36.739  1.00  0.00    -0.387 OA
ATOM     29  H   UNL     1     -22.765  49.221  36.830  1.00  0.00     0.211 HD
ENDBRANCH  23  28
BRANCH  24  30
ATOM     30  C   UNL     1     -28.003  46.858  36.812  1.00  0.00     0.191 C 
BRANCH  30  31
ATOM     31  O   UNL     1     -28.320  47.098  35.466  1.00  0.00    -0.394 OA
ATOM     32  H   UNL     1     -28.784  47.974  35.432  1.00  0.00     0.210 HD
ENDBRANCH  30  31
ENDBRANCH  24  30
BRANCH  25  33
ATOM     33  O   UNL     1     -25.712  47.873  35.252  1.00  0.00    -0.388 OA
ATOM     34  H   UNL     1     -24.906  47.468  34.838  1.00  0.00     0.211 HD
ENDBRANCH  25  33
ENDBRANCH  11  20
BRANCH  10  35
ATOM     35  O   UNL     1     -26.104  46.257  40.682  1.00  0.00    -0.507 OA
ATOM     36  H   UNL     1     -25.922  46.255  39.685  1.00  0.00     0.293 HD
ENDBRANCH  10  35
TORSDOF 9
ENDMDL
MODEL 7
REMARK VINA RESULT:    -3.844      2.245      4.022
REMARK INTER + INTRA:          -6.297
REMARK INTER:                  -5.374
REMARK INTRA:                  -0.923
REMARK UNBOUND:                -1.104
REMARK SMILES O=c1c(-c2ccc(O)cc2)coc2c([C@@H]3O[C@H](CO)[C@@H](O)[C@H](O)[C@H]3O)c(O)ccc12
REMARK SMILES IDX 3 1 11 2 12 3 13 4 30 5 2 6 1 7 29 8 28 9 26 10 14 11 4 12
REMARK SMILES IDX 5 13 6 14 7 15 10 16 9 17 8 18 15 20 24 21 16 22 22 23 17 24
REMARK SMILES IDX 20 25 25 26 23 28 18 30 19 31 21 33 27 35
REMARK H PARENT 8 19 25 27 23 29 19 32 21 34 27 36
REMARK Flexibility Score: inf
ROOT
ATOM      1  C   UNL     1     -26.101  49.600  42.492  1.00  0.00     0.065 A 
ATOM      2  C   UNL     1     -26.016  49.771  43.880  1.00  0.00     0.208 A 
ATOM      3  O   UNL     1     -25.792  50.968  44.407  1.00  0.00    -0.463 OA
ATOM      4  C   UNL     1     -25.636  52.070  43.676  1.00  0.00     0.147 A 
ATOM      5  C   UNL     1     -25.707  51.988  42.266  1.00  0.00     0.066 A 
ATOM      6  C   UNL     1     -25.952  50.735  41.674  1.00  0.00     0.200 A 
ATOM      7  O   UNL     1     -26.054  50.632  40.419  1.00  0.00    -0.288 OA
ATOM      8  C   UNL     1     -25.534  53.147  41.494  1.00  0.00     0.020 A 
ATOM      9  C   UNL     1     -25.279  54.370  42.113  1.00  0.00     0.047 A 
ATOM     10  C   UNL     1     -25.202  54.462  43.507  1.00  0.00     0.125 A 
ATOM     11  C   UNL     1     -25.398  53.313  44.308  1.00  0.00     0.069 A 
ENDROOT
BRANCH   1  12
ATOM     12  C   UNL     1     -26.345  48.250  41.925  1.00  0.00    -0.011 A 
ATOM     13  C   UNL     1     -27.659  47.781  41.751  1.00  0.00     0.013 A 
ATOM     14  C   UNL     1     -27.894  46.507  41.227  1.00  0.00     0.047 A 
ATOM     15  C   UNL     1     -26.820  45.683  40.874  1.00  0.00     0.115 A 
ATOM     16  C   UNL     1     -25.271  47.414  41.574  1.00  0.00     0.013 A 
ATOM     17  C   UNL     1     -25.508  46.139  41.050  1.00  0.00     0.047 A 
BRANCH  15  18
ATOM     18  O   UNL     1     -27.068  44.416  40.351  1.00  0.00    -0.508 OA
ATOM     19  H   UNL     1     -26.883  43.577  40.887  1.00  0.00     0.293 HD
ENDBRANCH  15  18
ENDBRANCH   1  12
BRANCH  11  20
ATOM     20  C   UNL     1     -25.297  53.399  45.825  1.00  0.00     0.188 C 
ATOM     21  C   UNL     1     -23.827  53.232  46.271  1.00  0.00     0.179 C 
ATOM     22  O   UNL     1     -25.813  54.646  46.258  1.00  0.00    -0.362 OA
ATOM     23  C   UNL     1     -23.731  53.371  47.799  1.00  0.00     0.177 C 
ATOM     24  C   UNL     1     -25.864  54.712  47.674  1.00  0.00     0.176 C 
ATOM     25  C   UNL     1     -24.435  54.657  48.264  1.00  0.00     0.177 C 
BRANCH  21  26
ATOM     26  O   UNL     1     -23.360  51.967  45.878  1.00  0.00    -0.387 OA
ATOM     27  H   UNL     1     -24.152  51.448  45.577  1.00  0.00     0.211 HD
ENDBRANCH  21  26
BRANCH  23  28
ATOM     28  O   UNL     1     -22.378  53.402  48.176  1.00  0.00    -0.387 OA
ATOM     29  H   UNL     1     -22.072  54.341  48.075  1.00  0.00     0.211 HD
ENDBRANCH  23  28
BRANCH  24  30
ATOM     30  C   UNL     1     -26.572  56.015  48.073  1.00  0.00     0.191 C 
BRANCH  30  31
ATOM     31  O   UNL     1     -27.940  55.939  47.770  1.00  0.00    -0.394 OA
ATOM     32  H   UNL     1     -28.395  55.585  48.578  1.00  0.00     0.210 HD
ENDBRANCH  30  31
ENDBRANCH  24  30
BRANCH  25  33
ATOM     33  O   UNL     1     -24.489  54.663  49.668  1.00  0.00    -0.388 OA
ATOM     34  H   UNL     1     -24.589  53.720  49.964  1.00  0.00     0.211 HD
ENDBRANCH  25  33
ENDBRANCH  11  20
BRANCH  10  35
ATOM     35  O   UNL     1     -24.924  55.695  44.097  1.00  0.00    -0.507 OA
ATOM     36  H   UNL     1     -25.595  56.164  44.695  1.00  0.00     0.293 HD
ENDBRANCH  10  35
TORSDOF 9
ENDMDL
MODEL 8
REMARK VINA RESULT:    -3.801      1.880      8.778
REMARK INTER + INTRA:          -6.239
REMARK INTER:                  -5.076
REMARK INTRA:                  -1.162
REMARK UNBOUND:                -1.104
REMARK SMILES O=c1c(-c2ccc(O)cc2)coc2c([C@@H]3O[C@H](CO)[C@@H](O)[C@H](O)[C@H]3O)c(O)ccc12
REMARK SMILES IDX 3 1 11 2 12 3 13 4 30 5 2 6 1 7 29 8 28 9 26 10 14 11 4 12
REMARK SMILES IDX 5 13 6 14 7 15 10 16 9 17 8 18 15 20 24 21 16 22 22 23 17 24
REMARK SMILES IDX 20 25 25 26 23 28 18 30 19 31 21 33 27 35
REMARK H PARENT 8 19 25 27 23 29 19 32 21 34 27 36
REMARK Flexibility Score: inf
ROOT
ATOM      1  C   UNL     1     -26.014  51.468  42.793  1.00  0.00     0.065 A 
ATOM      2  C   UNL     1     -26.724  51.337  41.592  1.00  0.00     0.208 A 
ATOM      3  O   UNL     1     -26.739  50.185  40.931  1.00  0.00    -0.463 OA
ATOM      4  C   UNL     1     -26.099  49.096  41.350  1.00  0.00     0.147 A 
ATOM      5  C   UNL     1     -25.358  49.139  42.554  1.00  0.00     0.066 A 
ATOM      6  C   UNL     1     -25.327  50.342  43.283  1.00  0.00     0.200 A 
ATOM      7  O   UNL     1     -24.702  50.406  44.379  1.00  0.00    -0.288 OA
ATOM      8  C   UNL     1     -24.676  47.994  42.990  1.00  0.00     0.020 A 
ATOM      9  C   UNL     1     -24.717  46.823  42.235  1.00  0.00     0.047 A 
ATOM     10  C   UNL     1     -25.443  46.769  41.040  1.00  0.00     0.125 A 
ATOM     11  C   UNL     1     -26.160  47.903  40.591  1.00  0.00     0.069 A 
ENDROOT
BRANCH   1  12
ATOM     12  C   UNL     1     -26.005  52.768  43.511  1.00  0.00    -0.011 A 
ATOM     13  C   UNL     1     -25.146  53.800  43.096  1.00  0.00     0.013 A 
ATOM     14  C   UNL     1     -25.128  55.022  43.775  1.00  0.00     0.047 A 
ATOM     15  C   UNL     1     -25.964  55.227  44.877  1.00  0.00     0.115 A 
ATOM     16  C   UNL     1     -26.838  52.978  44.624  1.00  0.00     0.013 A 
ATOM     17  C   UNL     1     -26.818  54.202  45.301  1.00  0.00     0.047 A 
BRANCH  15  18
ATOM     18  O   UNL     1     -25.937  56.450  45.543  1.00  0.00    -0.508 OA
ATOM     19  H   UNL     1     -25.083  56.813  45.950  1.00  0.00     0.293 HD
ENDBRANCH  15  18
ENDBRANCH   1  12
BRANCH  11  20
ATOM     20  C   UNL     1     -26.937  47.861  39.283  1.00  0.00     0.188 C 
ATOM     21  C   UNL     1     -25.980  48.071  38.088  1.00  0.00     0.179 C 
ATOM     22  O   UNL     1     -27.605  46.614  39.176  1.00  0.00    -0.362 OA
ATOM     23  C   UNL     1     -26.767  47.976  36.772  1.00  0.00     0.177 C 
ATOM     24  C   UNL     1     -28.450  46.586  38.037  1.00  0.00     0.176 C 
ATOM     25  C   UNL     1     -27.608  46.688  36.744  1.00  0.00     0.177 C 
BRANCH  21  26
ATOM     26  O   UNL     1     -25.375  49.335  38.191  1.00  0.00    -0.387 OA
ATOM     27  H   UNL     1     -24.604  49.336  37.564  1.00  0.00     0.211 HD
ENDBRANCH  21  26
BRANCH  23  28
ATOM     28  O   UNL     1     -25.868  47.984  35.693  1.00  0.00    -0.387 OA
ATOM     29  H   UNL     1     -26.412  48.022  34.863  1.00  0.00     0.211 HD
ENDBRANCH  23  28
BRANCH  24  30
ATOM     30  C   UNL     1     -29.257  45.280  38.065  1.00  0.00     0.191 C 
BRANCH  30  31
ATOM     31  O   UNL     1     -28.637  44.305  37.269  1.00  0.00    -0.394 OA
ATOM     32  H   UNL     1     -28.613  44.663  36.344  1.00  0.00     0.210 HD
ENDBRANCH  30  31
ENDBRANCH  24  30
BRANCH  25  33
ATOM     33  O   UNL     1     -28.450  46.719  35.619  1.00  0.00    -0.388 OA
ATOM     34  H   UNL     1     -27.881  46.564  34.820  1.00  0.00     0.211 HD
ENDBRANCH  25  33
ENDBRANCH  11  20
BRANCH  10  35
ATOM     35  O   UNL     1     -25.447  45.590  40.295  1.00  0.00    -0.507 OA
ATOM     36  H   UNL     1     -25.010  45.533  39.383  1.00  0.00     0.293 HD
ENDBRANCH  10  35
TORSDOF 9
ENDMDL
MODEL 9
REMARK VINA RESULT:    -3.697      6.360      8.214
REMARK INTER + INTRA:          -6.098
REMARK INTER:                  -4.971
REMARK INTRA:                  -1.127
REMARK UNBOUND:                -1.104
REMARK SMILES O=c1c(-c2ccc(O)cc2)coc2c([C@@H]3O[C@H](CO)[C@@H](O)[C@H](O)[C@H]3O)c(O)ccc12
REMARK SMILES IDX 3 1 11 2 12 3 13 4 30 5 2 6 1 7 29 8 28 9 26 10 14 11 4 12
REMARK SMILES IDX 5 13 6 14 7 15 10 16 9 17 8 18 15 20 24 21 16 22 22 23 17 24
REMARK SMILES IDX 20 25 25 26 23 28 18 30 19 31 21 33 27 35
REMARK H PARENT 8 19 25 27 23 29 19 32 21 34 27 36
REMARK Flexibility Score: inf
ROOT
ATOM      1  C   UNL     1     -25.592  56.935  37.370  1.00  0.00     0.065 A 
ATOM      2  C   UNL     1     -26.403  56.726  38.493  1.00  0.00     0.208 A 
ATOM      3  O   UNL     1     -25.894  56.251  39.623  1.00  0.00    -0.463 OA
ATOM      4  C   UNL     1     -24.606  55.946  39.772  1.00  0.00     0.147 A 
ATOM      5  C   UNL     1     -23.716  56.126  38.688  1.00  0.00     0.066 A 
ATOM      6  C   UNL     1     -24.221  56.636  37.477  1.00  0.00     0.200 A 
ATOM      7  O   UNL     1     -23.448  56.839  36.500  1.00  0.00    -0.288 OA
ATOM      8  C   UNL     1     -22.361  55.795  38.841  1.00  0.00     0.020 A 
ATOM      9  C   UNL     1     -21.898  55.279  40.049  1.00  0.00     0.047 A 
ATOM     10  C   UNL     1     -22.770  55.092  41.127  1.00  0.00     0.125 A 
ATOM     11  C   UNL     1     -24.135  55.442  41.007  1.00  0.00     0.069 A 
ENDROOT
BRANCH   1  12
ATOM     12  C   UNL     1     -26.185  57.461  36.115  1.00  0.00    -0.011 A 
ATOM     13  C   UNL     1     -26.923  56.613  35.270  1.00  0.00     0.013 A 
ATOM     14  C   UNL     1     -27.476  57.102  34.083  1.00  0.00     0.047 A 
ATOM     15  C   UNL     1     -27.295  58.441  33.722  1.00  0.00     0.115 A 
ATOM     16  C   UNL     1     -26.002  58.804  35.742  1.00  0.00     0.013 A 
ATOM     17  C   UNL     1     -26.556  59.291  34.554  1.00  0.00     0.047 A 
BRANCH  15  18
ATOM     18  O   UNL     1     -27.852  58.915  32.537  1.00  0.00    -0.508 OA
ATOM     19  H   UNL     1     -28.839  58.809  32.336  1.00  0.00     0.293 HD
ENDBRANCH  15  18
ENDBRANCH   1  12
BRANCH  11  20
ATOM     20  C   UNL     1     -25.097  55.224  42.167  1.00  0.00     0.188 C 
ATOM     21  C   UNL     1     -25.466  53.728  42.279  1.00  0.00     0.179 C 
ATOM     22  O   UNL     1     -24.493  55.682  43.366  1.00  0.00    -0.362 OA
ATOM     23  C   UNL     1     -26.396  53.514  43.484  1.00  0.00     0.177 C 
ATOM     24  C   UNL     1     -25.406  55.624  44.449  1.00  0.00     0.176 C 
ATOM     25  C   UNL     1     -25.793  54.156  44.745  1.00  0.00     0.177 C 
BRANCH  21  26
ATOM     26  O   UNL     1     -26.111  53.316  41.101  1.00  0.00    -0.387 OA
ATOM     27  H   UNL     1     -25.405  52.975  40.491  1.00  0.00     0.211 HD
ENDBRANCH  21  26
BRANCH  23  28
ATOM     28  O   UNL     1     -26.578  52.136  43.689  1.00  0.00    -0.387 OA
ATOM     29  H   UNL     1     -27.543  51.997  43.877  1.00  0.00     0.211 HD
ENDBRANCH  23  28
BRANCH  24  30
ATOM     30  C   UNL     1     -24.748  56.275  45.674  1.00  0.00     0.191 C 
BRANCH  30  31
ATOM     31  O   UNL     1     -25.723  56.835  46.513  1.00  0.00    -0.394 OA
ATOM     32  H   UNL     1     -25.584  56.445  47.415  1.00  0.00     0.210 HD
ENDBRANCH  30  31
ENDBRANCH  24  30
BRANCH  25  33
ATOM     33  O   UNL     1     -26.743  54.104  45.780  1.00  0.00    -0.388 OA
ATOM     34  H   UNL     1     -27.297  53.293  45.632  1.00  0.00     0.211 HD
ENDBRANCH  25  33
ENDBRANCH  11  20
BRANCH  10  35
ATOM     35  O   UNL     1     -22.281  54.553  42.318  1.00  0.00    -0.507 OA
ATOM     36  H   UNL     1     -21.300  54.332  42.440  1.00  0.00     0.293 HD
ENDBRANCH  10  35
TORSDOF 9
ENDMDL
