MODEL 1
REMARK VINA RESULT:    -2.735      0.000      0.000
REMARK INTER + INTRA:          -3.066
REMARK INTER:                  -2.975
REMARK INTRA:                  -0.091
REMARK UNBOUND:                -0.091
REMARK SMILES C=C(C)[C@@H]1CC[C@H](C)[C@H](O)C1
REMARK SMILES IDX 8 1 7 2 6 3 5 4 4 5 11 6 9 7 10 8 2 10 1 11 3 12
REMARK H PARENT 10 9
REMARK Flexibility Score: inf
ROOT
ATOM      1  C   UNL     1      32.789 -35.732 -11.900  1.00  0.00     0.010 C 
ATOM      2  C   UNL     1      34.169 -35.848 -11.246  1.00  0.00     0.015 C 
ATOM      3  C   UNL     1      35.128 -36.697 -12.118  1.00  0.00     0.006 C 
ATOM      4  C   UNL     1      36.620 -36.397 -11.865  1.00  0.00     0.008 C 
ATOM      5  C   UNL     1      36.867 -35.900 -10.427  1.00  0.00     0.017 C 
ATOM      6  C   UNL     1      36.092 -34.589 -10.134  1.00  0.00     0.040 C 
ATOM      7  C   UNL     1      34.766 -34.460 -10.926  1.00  0.00     0.117 C 
ENDROOT
BRANCH   7   8
ATOM      8  O   UNL     1      34.984 -33.754 -12.122  1.00  0.00    -0.393 OA
ATOM      9  H   UNL     1      34.136 -33.289 -12.341  1.00  0.00     0.210 HD
ENDBRANCH   7   8
BRANCH   5  10
ATOM     10  C   UNL     1      38.353 -35.753 -10.131  1.00  0.00    -0.077 C 
ATOM     11  C   UNL     1      39.103 -34.829 -10.759  1.00  0.00     0.008 C 
ATOM     12  C   UNL     1      39.020 -36.659  -9.130  1.00  0.00     0.039 C 
ENDBRANCH   5  10
TORSDOF 2
ENDMDL
MODEL 2
REMARK VINA RESULT:    -2.447      1.635      4.479
REMARK INTER + INTRA:          -2.752
REMARK INTER:                  -2.657
REMARK INTRA:                  -0.095
REMARK UNBOUND:                -0.091
REMARK SMILES C=C(C)[C@@H]1CC[C@H](C)[C@H](O)C1
REMARK SMILES IDX 8 1 7 2 6 3 5 4 4 5 11 6 9 7 10 8 2 10 1 11 3 12
REMARK H PARENT 10 9
REMARK Flexibility Score: inf
ROOT
ATOM      1  C   UNL     1      38.645 -33.088  -9.945  1.00  0.00     0.010 C 
ATOM      2  C   UNL     1      37.316 -33.816 -10.165  1.00  0.00     0.015 C 
ATOM      3  C   UNL     1      36.379 -32.997 -11.088  1.00  0.00     0.006 C 
ATOM      4  C   UNL     1      35.321 -33.855 -11.811  1.00  0.00     0.008 C 
ATOM      5  C   UNL     1      34.958 -35.117 -11.003  1.00  0.00     0.017 C 
ATOM      6  C   UNL     1      36.193 -36.027 -10.776  1.00  0.00     0.040 C 
ATOM      7  C   UNL     1      37.532 -35.249 -10.698  1.00  0.00     0.117 C 
ENDROOT
BRANCH   7   8
ATOM      8  O   UNL     1      38.134 -35.194 -11.967  1.00  0.00    -0.393 OA
ATOM      9  H   UNL     1      39.115 -35.170 -11.820  1.00  0.00     0.210 HD
ENDBRANCH   7   8
BRANCH   5  10
ATOM     10  C   UNL     1      33.806 -35.880 -11.642  1.00  0.00    -0.077 C 
ATOM     11  C   UNL     1      33.975 -37.125 -12.123  1.00  0.00     0.008 C 
ATOM     12  C   UNL     1      32.446 -35.243 -11.758  1.00  0.00     0.039 C 
ENDBRANCH   5  10
TORSDOF 2
ENDMDL
MODEL 3
REMARK VINA RESULT:    -2.410      1.737      2.467
REMARK INTER + INTRA:          -2.712
REMARK INTER:                  -2.621
REMARK INTRA:                  -0.091
REMARK UNBOUND:                -0.091
REMARK SMILES C=C(C)[C@@H]1CC[C@H](C)[C@H](O)C1
REMARK SMILES IDX 8 1 7 2 6 3 5 4 4 5 11 6 9 7 10 8 2 10 1 11 3 12
REMARK H PARENT 10 9
REMARK Flexibility Score: inf
ROOT
ATOM      1  C   UNL     1      33.111 -37.001 -11.980  1.00  0.00     0.010 C 
ATOM      2  C   UNL     1      34.405 -36.195 -12.124  1.00  0.00     0.015 C 
ATOM      3  C   UNL     1      34.250 -34.781 -11.510  1.00  0.00     0.006 C 
ATOM      4  C   UNL     1      35.590 -34.140 -11.092  1.00  0.00     0.008 C 
ATOM      5  C   UNL     1      36.762 -34.657 -11.948  1.00  0.00     0.017 C 
ATOM      6  C   UNL     1      36.939 -36.192 -11.810  1.00  0.00     0.040 C 
ATOM      7  C   UNL     1      35.615 -36.946 -11.529  1.00  0.00     0.117 C 
ENDROOT
BRANCH   7   8
ATOM      8  O   UNL     1      35.434 -37.107 -10.144  1.00  0.00    -0.393 OA
ATOM      9  H   UNL     1      34.930 -37.951 -10.015  1.00  0.00     0.210 HD
ENDBRANCH   7   8
BRANCH   5  10
ATOM     10  C   UNL     1      38.054 -33.912 -11.640  1.00  0.00    -0.077 C 
ATOM     11  C   UNL     1      38.279 -32.676 -12.121  1.00  0.00     0.008 C 
ATOM     12  C   UNL     1      39.119 -34.558 -10.794  1.00  0.00     0.039 C 
ENDBRANCH   5  10
TORSDOF 2
ENDMDL
