MODEL 1
REMARK VINA RESULT:    -3.817      0.000      0.000
REMARK INTER + INTRA:          -5.375
REMARK INTER:                  -5.156
REMARK INTRA:                  -0.218
REMARK UNBOUND:                -0.218
REMARK SMILES CCCCCCCC(=O)[O-]
REMARK SMILES IDX 5 1 6 2 7 3 8 4 9 5 10 6 4 7 3 8 2 9 1 10
REMARK H PARENT
REMARK Flexibility Score: inf
ROOT
ATOM      1  C   UNL     1      27.404  20.987  60.531  1.00  0.00     0.000 C 
ENDROOT
BRANCH   1   2
ATOM      2  C   UNL     1      27.536  21.477  59.081  1.00  0.00     0.006 C 
BRANCH   2   3
ATOM      3  C   UNL     1      26.314  21.070  58.252  1.00  0.00     0.053 C 
BRANCH   3   4
ATOM      4  C   UNL     1      26.632  19.882  57.400  1.00  0.00     0.041 C 
ATOM      5  O   UNL     1      26.312  18.725  57.780  1.00  0.00    -0.550 OA
ATOM      6  O   UNL     1      27.240  20.057  56.163  1.00  0.00    -0.550 OA
ENDBRANCH   3   4
ENDBRANCH   2   3
ENDBRANCH   1   2
BRANCH   1   7
ATOM      7  C   UNL     1      26.530  21.912  61.393  1.00  0.00     0.000 C 
BRANCH   7   8
ATOM      8  C   UNL     1      26.648  21.609  62.894  1.00  0.00    -0.000 C 
BRANCH   8   9
ATOM      9  C   UNL     1      25.565  20.620  63.340  1.00  0.00    -0.003 C 
ATOM     10  C   UNL     1      26.181  19.388  63.999  1.00  0.00     0.004 C 
ENDBRANCH   8   9
ENDBRANCH   7   8
ENDBRANCH   1   7
TORSDOF 6
ENDMDL
MODEL 2
REMARK VINA RESULT:    -3.758      0.173      1.038
REMARK INTER + INTRA:          -5.295
REMARK INTER:                  -5.086
REMARK INTRA:                  -0.209
REMARK UNBOUND:                -0.218
REMARK SMILES CCCCCCCC(=O)[O-]
REMARK SMILES IDX 5 1 6 2 7 3 8 4 9 5 10 6 4 7 3 8 2 9 1 10
REMARK H PARENT
REMARK Flexibility Score: inf
ROOT
ATOM      1  C   UNL     1      27.366  21.080  60.365  1.00  0.00     0.000 C 
ENDROOT
BRANCH   1   2
ATOM      2  C   UNL     1      27.384  21.679  58.950  1.00  0.00     0.006 C 
BRANCH   2   3
ATOM      3  C   UNL     1      26.202  21.163  58.123  1.00  0.00     0.053 C 
BRANCH   3   4
ATOM      4  C   UNL     1      26.603  19.959  57.331  1.00  0.00     0.041 C 
ATOM      5  O   UNL     1      27.219  20.094  56.241  1.00  0.00    -0.550 OA
ATOM      6  O   UNL     1      26.339  18.686  57.820  1.00  0.00    -0.550 OA
ENDBRANCH   3   4
ENDBRANCH   2   3
ENDBRANCH   1   2
BRANCH   1   7
ATOM      7  C   UNL     1      26.318  21.740  61.275  1.00  0.00     0.000 C 
BRANCH   7   8
ATOM      8  C   UNL     1      26.612  21.528  62.768  1.00  0.00    -0.000 C 
BRANCH   8   9
ATOM      9  C   UNL     1      25.549  20.630  63.412  1.00  0.00    -0.003 C 
ATOM     10  C   UNL     1      26.177  19.378  64.019  1.00  0.00     0.004 C 
ENDBRANCH   8   9
ENDBRANCH   7   8
ENDBRANCH   1   7
TORSDOF 6
ENDMDL
MODEL 3
REMARK VINA RESULT:    -3.489      1.025      1.414
REMARK INTER + INTRA:          -4.931
REMARK INTER:                  -4.678
REMARK INTRA:                  -0.254
REMARK UNBOUND:                -0.218
REMARK SMILES CCCCCCCC(=O)[O-]
REMARK SMILES IDX 5 1 6 2 7 3 8 4 9 5 10 6 4 7 3 8 2 9 1 10
REMARK H PARENT
REMARK Flexibility Score: inf
ROOT
ATOM      1  C   UNL     1      25.784  21.782  61.232  1.00  0.00     0.000 C 
ENDROOT
BRANCH   1   2
ATOM      2  C   UNL     1      25.709  21.561  59.714  1.00  0.00     0.006 C 
BRANCH   2   3
ATOM      3  C   UNL     1      27.003  20.934  59.188  1.00  0.00     0.053 C 
BRANCH   3   4
ATOM      4  C   UNL     1      26.744  20.188  57.917  1.00  0.00     0.041 C 
ATOM      5  O   UNL     1      26.342  18.996  57.953  1.00  0.00    -0.550 OA
ATOM      6  O   UNL     1      26.902  20.824  56.693  1.00  0.00    -0.550 OA
ENDBRANCH   3   4
ENDBRANCH   2   3
ENDBRANCH   1   2
BRANCH   1   7
ATOM      7  C   UNL     1      24.488  21.382  61.955  1.00  0.00     0.000 C 
BRANCH   7   8
ATOM      8  C   UNL     1      24.718  21.024  63.431  1.00  0.00    -0.000 C 
BRANCH   8   9
ATOM      9  C   UNL     1      26.166  20.576  63.666  1.00  0.00    -0.003 C 
ATOM     10  C   UNL     1      26.230  19.106  64.075  1.00  0.00     0.004 C 
ENDBRANCH   8   9
ENDBRANCH   7   8
ENDBRANCH   1   7
TORSDOF 6
ENDMDL
MODEL 4
REMARK VINA RESULT:    -3.348      3.209      5.347
REMARK INTER + INTRA:          -4.740
REMARK INTER:                  -4.505
REMARK INTRA:                  -0.235
REMARK UNBOUND:                -0.218
REMARK SMILES CCCCCCCC(=O)[O-]
REMARK SMILES IDX 5 1 6 2 7 3 8 4 9 5 10 6 4 7 3 8 2 9 1 10
REMARK H PARENT
REMARK Flexibility Score: inf
ROOT
ATOM      1  C   UNL     1      26.986  21.095  60.947  1.00  0.00     0.000 C 
ENDROOT
BRANCH   1   2
ATOM      2  C   UNL     1      26.637  22.045  62.103  1.00  0.00     0.006 C 
BRANCH   2   3
ATOM      3  C   UNL     1      26.651  21.304  63.444  1.00  0.00     0.053 C 
BRANCH   3   4
ATOM      4  C   UNL     1      25.443  20.430  63.571  1.00  0.00     0.041 C 
ATOM      5  O   UNL     1      24.290  20.922  63.457  1.00  0.00    -0.550 OA
ATOM      6  O   UNL     1      25.592  19.063  63.768  1.00  0.00    -0.550 OA
ENDBRANCH   3   4
ENDBRANCH   2   3
ENDBRANCH   1   2
BRANCH   1   7
ATOM      7  C   UNL     1      27.813  21.778  59.847  1.00  0.00     0.000 C 
BRANCH   7   8
ATOM      8  C   UNL     1      27.116  21.753  58.479  1.00  0.00    -0.000 C 
BRANCH   8   9
ATOM      9  C   UNL     1      26.566  20.355  58.171  1.00  0.00    -0.003 C 
ATOM     10  C   UNL     1      26.734  20.009  56.694  1.00  0.00     0.004 C 
ENDBRANCH   8   9
ENDBRANCH   7   8
ENDBRANCH   1   7
TORSDOF 6
ENDMDL
MODEL 5
REMARK VINA RESULT:    -3.075      3.087      5.534
REMARK INTER + INTRA:          -4.372
REMARK INTER:                  -4.187
REMARK INTRA:                  -0.185
REMARK UNBOUND:                -0.218
REMARK SMILES CCCCCCCC(=O)[O-]
REMARK SMILES IDX 5 1 6 2 7 3 8 4 9 5 10 6 4 7 3 8 2 9 1 10
REMARK H PARENT
REMARK Flexibility Score: inf
ROOT
ATOM      1  C   UNL     1      27.355  20.968  60.408  1.00  0.00     0.000 C 
ENDROOT
BRANCH   1   2
ATOM      2  C   UNL     1      26.375  21.721  61.320  1.00  0.00     0.006 C 
BRANCH   2   3
ATOM      3  C   UNL     1      26.626  21.383  62.792  1.00  0.00     0.053 C 
BRANCH   3   4
ATOM      4  C   UNL     1      25.524  20.523  63.327  1.00  0.00     0.041 C 
ATOM      5  O   UNL     1      25.720  19.297  63.533  1.00  0.00    -0.550 OA
ATOM      6  O   UNL     1      24.294  21.086  63.642  1.00  0.00    -0.550 OA
ENDBRANCH   3   4
ENDBRANCH   2   3
ENDBRANCH   1   2
BRANCH   1   7
ATOM      7  C   UNL     1      27.072  21.197  58.915  1.00  0.00     0.000 C 
BRANCH   7   8
ATOM      8  C   UNL     1      26.663  19.909  58.185  1.00  0.00    -0.000 C 
BRANCH   8   9
ATOM      9  C   UNL     1      26.488  20.163  56.683  1.00  0.00    -0.003 C 
ATOM     10  C   UNL     1      27.234  21.421  56.245  1.00  0.00     0.004 C 
ENDBRANCH   8   9
ENDBRANCH   7   8
ENDBRANCH   1   7
TORSDOF 6
ENDMDL
MODEL 6
REMARK VINA RESULT:    -3.001      3.035      5.086
REMARK INTER + INTRA:          -4.272
REMARK INTER:                  -3.847
REMARK INTRA:                  -0.425
REMARK UNBOUND:                -0.218
REMARK SMILES CCCCCCCC(=O)[O-]
REMARK SMILES IDX 5 1 6 2 7 3 8 4 9 5 10 6 4 7 3 8 2 9 1 10
REMARK H PARENT
REMARK Flexibility Score: inf
ROOT
ATOM      1  C   UNL     1      24.009  21.416  61.144  1.00  0.00     0.000 C 
ENDROOT
BRANCH   1   2
ATOM      2  C   UNL     1      24.076  22.014  62.558  1.00  0.00     0.006 C 
BRANCH   2   3
ATOM      3  C   UNL     1      24.522  20.961  63.577  1.00  0.00     0.053 C 
BRANCH   3   4
ATOM      4  C   UNL     1      25.990  20.701  63.452  1.00  0.00     0.041 C 
ATOM      5  O   UNL     1      26.407  19.547  63.168  1.00  0.00    -0.550 OA
ATOM      6  O   UNL     1      26.896  21.743  63.602  1.00  0.00    -0.550 OA
ENDBRANCH   3   4
ENDBRANCH   2   3
ENDBRANCH   1   2
BRANCH   1   7
ATOM      7  C   UNL     1      25.001  22.077  60.174  1.00  0.00     0.000 C 
BRANCH   7   8
ATOM      8  C   UNL     1      25.276  21.217  58.931  1.00  0.00    -0.000 C 
BRANCH   8   9
ATOM      9  C   UNL     1      26.784  21.067  58.692  1.00  0.00    -0.003 C 
ATOM     10  C   UNL     1      27.537  20.895  60.009  1.00  0.00     0.004 C 
ENDBRANCH   8   9
ENDBRANCH   7   8
ENDBRANCH   1   7
TORSDOF 6
ENDMDL
MODEL 7
REMARK VINA RESULT:    -2.803      2.100      2.482
REMARK INTER + INTRA:          -4.004
REMARK INTER:                  -3.721
REMARK INTRA:                  -0.283
REMARK UNBOUND:                -0.218
REMARK SMILES CCCCCCCC(=O)[O-]
REMARK SMILES IDX 5 1 6 2 7 3 8 4 9 5 10 6 4 7 3 8 2 9 1 10
REMARK H PARENT
REMARK Flexibility Score: inf
ROOT
ATOM      1  C   UNL     1      27.085  21.097  59.393  1.00  0.00     0.000 C 
ENDROOT
BRANCH   1   2
ATOM      2  C   UNL     1      25.874  21.640  58.619  1.00  0.00     0.006 C 
BRANCH   2   3
ATOM      3  C   UNL     1      25.080  20.500  57.973  1.00  0.00     0.053 C 
BRANCH   3   4
ATOM      4  C   UNL     1      23.679  20.475  58.496  1.00  0.00     0.041 C 
ATOM      5  O   UNL     1      22.893  19.552  58.157  1.00  0.00    -0.550 OA
ATOM      6  O   UNL     1      23.256  21.444  59.396  1.00  0.00    -0.550 OA
ENDBRANCH   3   4
ENDBRANCH   2   3
ENDBRANCH   1   2
BRANCH   1   7
ATOM      7  C   UNL     1      27.203  21.692  60.804  1.00  0.00     0.000 C 
BRANCH   7   8
ATOM      8  C   UNL     1      26.029  21.300  61.714  1.00  0.00    -0.000 C 
BRANCH   8   9
ATOM      9  C   UNL     1      26.469  21.239  63.181  1.00  0.00    -0.003 C 
ATOM     10  C   UNL     1      26.334  19.825  63.740  1.00  0.00     0.004 C 
ENDBRANCH   8   9
ENDBRANCH   7   8
ENDBRANCH   1   7
TORSDOF 6
ENDMDL
MODEL 8
REMARK VINA RESULT:    -2.682      2.181      3.229
REMARK INTER + INTRA:          -3.841
REMARK INTER:                  -3.666
REMARK INTRA:                  -0.175
REMARK UNBOUND:                -0.218
REMARK SMILES CCCCCCCC(=O)[O-]
REMARK SMILES IDX 5 1 6 2 7 3 8 4 9 5 10 6 4 7 3 8 2 9 1 10
REMARK H PARENT
REMARK Flexibility Score: inf
ROOT
ATOM      1  C   UNL     1      26.719  20.144  57.734  1.00  0.00     0.000 C 
ENDROOT
BRANCH   1   2
ATOM      2  C   UNL     1      25.195  19.965  57.652  1.00  0.00     0.006 C 
BRANCH   2   3
ATOM      3  C   UNL     1      24.786  19.362  56.305  1.00  0.00     0.053 C 
BRANCH   3   4
ATOM      4  C   UNL     1      23.636  18.422  56.480  1.00  0.00     0.041 C 
ATOM      5  O   UNL     1      22.942  18.458  57.531  1.00  0.00    -0.550 OA
ATOM      6  O   UNL     1      23.298  17.539  55.463  1.00  0.00    -0.550 OA
ENDBRANCH   3   4
ENDBRANCH   2   3
ENDBRANCH   1   2
BRANCH   1   7
ATOM      7  C   UNL     1      27.131  21.319  58.634  1.00  0.00     0.000 C 
BRANCH   7   8
ATOM      8  C   UNL     1      27.372  20.894  60.091  1.00  0.00    -0.000 C 
BRANCH   8   9
ATOM      9  C   UNL     1      26.581  21.783  61.058  1.00  0.00    -0.003 C 
ATOM     10  C   UNL     1      26.595  21.208  62.472  1.00  0.00     0.004 C 
ENDBRANCH   8   9
ENDBRANCH   7   8
ENDBRANCH   1   7
TORSDOF 6
ENDMDL
MODEL 9
REMARK VINA RESULT:    -2.649      3.473      5.502
REMARK INTER + INTRA:          -3.796
REMARK INTER:                  -3.516
REMARK INTRA:                  -0.281
REMARK UNBOUND:                -0.218
REMARK SMILES CCCCCCCC(=O)[O-]
REMARK SMILES IDX 5 1 6 2 7 3 8 4 9 5 10 6 4 7 3 8 2 9 1 10
REMARK H PARENT
REMARK Flexibility Score: inf
ROOT
ATOM      1  C   UNL     1      23.065  21.406  61.955  1.00  0.00     0.000 C 
ENDROOT
BRANCH   1   2
ATOM      2  C   UNL     1      24.090  22.027  62.916  1.00  0.00     0.006 C 
BRANCH   2   3
ATOM      3  C   UNL     1      24.726  20.954  63.806  1.00  0.00     0.053 C 
BRANCH   3   4
ATOM      4  C   UNL     1      26.167  20.767  63.452  1.00  0.00     0.041 C 
ATOM      5  O   UNL     1      26.998  21.688  63.669  1.00  0.00    -0.550 OA
ATOM      6  O   UNL     1      26.602  19.558  62.925  1.00  0.00    -0.550 OA
ENDBRANCH   3   4
ENDBRANCH   2   3
ENDBRANCH   1   2
BRANCH   1   7
ATOM      7  C   UNL     1      23.186  21.955  60.524  1.00  0.00     0.000 C 
BRANCH   7   8
ATOM      8  C   UNL     1      24.509  21.565  59.849  1.00  0.00    -0.000 C 
BRANCH   8   9
ATOM      9  C   UNL     1      24.255  20.891  58.495  1.00  0.00    -0.003 C 
ATOM     10  C   UNL     1      22.875  20.241  58.453  1.00  0.00     0.004 C 
ENDBRANCH   8   9
ENDBRANCH   7   8
ENDBRANCH   1   7
TORSDOF 6
ENDMDL
