MODEL 1
REMARK VINA RESULT:    -5.304      0.000      0.000
REMARK INTER + INTRA:          -8.184
REMARK INTER:                  -7.165
REMARK INTRA:                  -1.019
REMARK UNBOUND:                -1.019
REMARK SMILES CC(=O)CCC=C(C)CCC=C(C)C
REMARK SMILES IDX 7 1 6 2 8 3 9 4 10 5 11 6 13 7 12 8 14 9 5 10 4 11 2 12 3 13
REMARK SMILES IDX 1 14
REMARK H PARENT
REMARK Flexibility Score: inf
ROOT
ATOM      1  C   UNL     1      14.779 -29.973  22.032  1.00  0.00    -0.077 C 
ATOM      2  C   UNL     1      14.310 -30.745  21.022  1.00  0.00    -0.028 C 
ATOM      3  C   UNL     1      15.387 -28.639  21.677  1.00  0.00     0.039 C 
ENDROOT
BRANCH   1   4
ATOM      4  C   UNL     1      14.729 -30.385  23.490  1.00  0.00     0.034 C 
BRANCH   4   5
ATOM      5  C   UNL     1      13.284 -30.455  24.000  1.00  0.00     0.032 C 
BRANCH   5   6
ATOM      6  C   UNL     1      12.697 -29.072  24.132  1.00  0.00    -0.028 C 
ATOM      7  C   UNL     1      11.258 -27.162  23.568  1.00  0.00     0.039 C 
ATOM      8  C   UNL     1      11.716 -28.579  23.344  1.00  0.00    -0.080 C 
ATOM      9  C   UNL     1      11.062 -29.413  22.267  1.00  0.00     0.039 C 
ENDBRANCH   5   6
ENDBRANCH   4   5
ENDBRANCH   1   4
BRANCH   2  10
ATOM     10  C   UNL     1      13.642 -32.093  21.174  1.00  0.00     0.035 C 
BRANCH  10  11
ATOM     11  C   UNL     1      14.383 -33.170  20.371  1.00  0.00     0.079 C 
BRANCH  11  12
ATOM     12  C   UNL     1      15.127 -34.127  21.268  1.00  0.00     0.130 C 
ATOM     13  O   UNL     1      15.688 -35.097  20.781  1.00  0.00    -0.300 OA
ATOM     14  C   UNL     1      15.198 -33.910  22.751  1.00  0.00     0.087 C 
ENDBRANCH  11  12
ENDBRANCH  10  11
ENDBRANCH   2  10
TORSDOF 6
ENDMDL
MODEL 2
REMARK VINA RESULT:    -5.120      1.573      2.986
REMARK INTER + INTRA:          -7.936
REMARK INTER:                  -6.460
REMARK INTRA:                  -1.476
REMARK UNBOUND:                -1.019
REMARK SMILES CC(=O)CCC=C(C)CCC=C(C)C
REMARK SMILES IDX 7 1 6 2 8 3 9 4 10 5 11 6 13 7 12 8 14 9 5 10 4 11 2 12 3 13
REMARK SMILES IDX 1 14
REMARK H PARENT
REMARK Flexibility Score: inf
ROOT
ATOM      1  C   UNL     1      16.727 -31.704  23.264  1.00  0.00    -0.077 C 
ATOM      2  C   UNL     1      16.078 -32.814  23.689  1.00  0.00    -0.028 C 
ATOM      3  C   UNL     1      17.620 -30.989  24.247  1.00  0.00     0.039 C 
ENDROOT
BRANCH   1   4
ATOM      4  C   UNL     1      16.594 -31.144  21.861  1.00  0.00     0.034 C 
BRANCH   4   5
ATOM      5  C   UNL     1      15.730 -29.877  21.847  1.00  0.00     0.032 C 
BRANCH   5   6
ATOM      6  C   UNL     1      14.314 -30.202  21.443  1.00  0.00    -0.028 C 
ATOM      7  C   UNL     1      11.927 -30.693  21.759  1.00  0.00     0.039 C 
ATOM      8  C   UNL     1      13.281 -30.323  22.306  1.00  0.00    -0.080 C 
ATOM      9  C   UNL     1      13.446 -30.084  23.789  1.00  0.00     0.039 C 
ENDBRANCH   5   6
ENDBRANCH   4   5
ENDBRANCH   1   4
BRANCH   2  10
ATOM     10  C   UNL     1      15.166 -33.683  22.851  1.00  0.00     0.035 C 
BRANCH  10  11
ATOM     11  C   UNL     1      15.974 -34.649  21.976  1.00  0.00     0.079 C 
BRANCH  11  12
ATOM     12  C   UNL     1      15.431 -34.721  20.571  1.00  0.00     0.130 C 
ATOM     13  O   UNL     1      15.770 -35.640  19.840  1.00  0.00    -0.300 OA
ATOM     14  C   UNL     1      14.474 -33.689  20.051  1.00  0.00     0.087 C 
ENDBRANCH  11  12
ENDBRANCH  10  11
ENDBRANCH   2  10
TORSDOF 6
ENDMDL
MODEL 3
REMARK VINA RESULT:    -5.088      2.898      5.185
REMARK INTER + INTRA:          -7.891
REMARK INTER:                  -6.623
REMARK INTRA:                  -1.268
REMARK UNBOUND:                -1.019
REMARK SMILES CC(=O)CCC=C(C)CCC=C(C)C
REMARK SMILES IDX 7 1 6 2 8 3 9 4 10 5 11 6 13 7 12 8 14 9 5 10 4 11 2 12 3 13
REMARK SMILES IDX 1 14
REMARK H PARENT
REMARK Flexibility Score: inf
ROOT
ATOM      1  C   UNL     1      14.757 -32.597  22.311  1.00  0.00    -0.077 C 
ATOM      2  C   UNL     1      13.976 -32.030  21.360  1.00  0.00    -0.028 C 
ATOM      3  C   UNL     1      15.186 -34.029  22.109  1.00  0.00     0.039 C 
ENDROOT
BRANCH   1   4
ATOM      4  C   UNL     1      15.211 -31.870  23.562  1.00  0.00     0.034 C 
BRANCH   4   5
ATOM      5  C   UNL     1      16.733 -31.684  23.575  1.00  0.00     0.032 C 
BRANCH   5   6
ATOM      6  C   UNL     1      17.116 -30.374  22.934  1.00  0.00    -0.028 C 
ATOM      7  C   UNL     1      18.024 -28.881  21.207  1.00  0.00     0.039 C 
ATOM      8  C   UNL     1      17.654 -30.255  21.699  1.00  0.00    -0.080 C 
ATOM      9  C   UNL     1      17.874 -31.452  20.805  1.00  0.00     0.039 C 
ENDBRANCH   5   6
ENDBRANCH   4   5
ENDBRANCH   1   4
BRANCH   2  10
ATOM     10  C   UNL     1      13.470 -30.605  21.364  1.00  0.00     0.035 C 
BRANCH  10  11
ATOM     11  C   UNL     1      12.064 -30.520  21.973  1.00  0.00     0.079 C 
BRANCH  11  12
ATOM     12  C   UNL     1      11.921 -29.332  22.891  1.00  0.00     0.130 C 
ATOM     13  O   UNL     1      11.063 -28.494  22.662  1.00  0.00    -0.300 OA
ATOM     14  C   UNL     1      12.809 -29.162  24.088  1.00  0.00     0.087 C 
ENDBRANCH  11  12
ENDBRANCH  10  11
ENDBRANCH   2  10
TORSDOF 6
ENDMDL
MODEL 4
REMARK VINA RESULT:    -5.064      2.834      6.346
REMARK INTER + INTRA:          -7.859
REMARK INTER:                  -7.026
REMARK INTRA:                  -0.833
REMARK UNBOUND:                -1.019
REMARK SMILES CC(=O)CCC=C(C)CCC=C(C)C
REMARK SMILES IDX 7 1 6 2 8 3 9 4 10 5 11 6 13 7 12 8 14 9 5 10 4 11 2 12 3 13
REMARK SMILES IDX 1 14
REMARK H PARENT
REMARK Flexibility Score: inf
ROOT
ATOM      1  C   UNL     1      15.729 -32.173  22.839  1.00  0.00    -0.077 C 
ATOM      2  C   UNL     1      15.180 -31.141  23.523  1.00  0.00    -0.028 C 
ATOM      3  C   UNL     1      17.191 -32.083  22.478  1.00  0.00     0.039 C 
ENDROOT
BRANCH   1   4
ATOM      4  C   UNL     1      14.949 -33.402  22.415  1.00  0.00     0.034 C 
BRANCH   4   5
ATOM      5  C   UNL     1      14.947 -33.561  20.889  1.00  0.00     0.032 C 
BRANCH   5   6
ATOM      6  C   UNL     1      15.452 -34.926  20.494  1.00  0.00    -0.028 C 
ATOM      7  C   UNL     1      16.903 -36.566  19.380  1.00  0.00     0.039 C 
ATOM      8  C   UNL     1      16.543 -35.146  19.728  1.00  0.00    -0.080 C 
ATOM      9  C   UNL     1      17.412 -34.014  19.231  1.00  0.00     0.039 C 
ENDBRANCH   5   6
ENDBRANCH   4   5
ENDBRANCH   1   4
BRANCH   2  10
ATOM     10  C   UNL     1      13.748 -31.055  24.000  1.00  0.00     0.035 C 
BRANCH  10  11
ATOM     11  C   UNL     1      13.222 -29.617  23.916  1.00  0.00     0.079 C 
BRANCH  11  12
ATOM     12  C   UNL     1      12.109 -29.484  22.908  1.00  0.00     0.130 C 
ATOM     13  O   UNL     1      11.356 -28.524  22.964  1.00  0.00    -0.300 OA
ATOM     14  C   UNL     1      11.910 -30.506  21.828  1.00  0.00     0.087 C 
ENDBRANCH  11  12
ENDBRANCH  10  11
ENDBRANCH   2  10
TORSDOF 6
ENDMDL
MODEL 5
REMARK VINA RESULT:    -5.050      1.665      2.333
REMARK INTER + INTRA:          -7.841
REMARK INTER:                  -7.278
REMARK INTRA:                  -0.563
REMARK UNBOUND:                -1.019
REMARK SMILES CC(=O)CCC=C(C)CCC=C(C)C
REMARK SMILES IDX 7 1 6 2 8 3 9 4 10 5 11 6 13 7 12 8 14 9 5 10 4 11 2 12 3 13
REMARK SMILES IDX 1 14
REMARK H PARENT
REMARK Flexibility Score: inf
ROOT
ATOM      1  C   UNL     1      15.607 -32.247  23.281  1.00  0.00    -0.077 C 
ATOM      2  C   UNL     1      15.999 -33.167  22.368  1.00  0.00    -0.028 C 
ATOM      3  C   UNL     1      16.640 -31.269  23.785  1.00  0.00     0.039 C 
ENDROOT
BRANCH   1   4
ATOM      4  C   UNL     1      14.195 -32.158  23.825  1.00  0.00     0.034 C 
BRANCH   4   5
ATOM      5  C   UNL     1      13.399 -31.048  23.127  1.00  0.00     0.032 C 
BRANCH   5   6
ATOM      6  C   UNL     1      13.278 -29.837  24.017  1.00  0.00    -0.028 C 
ATOM      7  C   UNL     1      12.360 -27.707  24.826  1.00  0.00     0.039 C 
ATOM      8  C   UNL     1      12.330 -28.883  23.887  1.00  0.00    -0.080 C 
ATOM      9  C   UNL     1      11.242 -28.976  22.843  1.00  0.00     0.039 C 
ENDBRANCH   5   6
ENDBRANCH   4   5
ENDBRANCH   1   4
BRANCH   2  10
ATOM     10  C   UNL     1      15.111 -34.209  21.723  1.00  0.00     0.035 C 
BRANCH  10  11
ATOM     11  C   UNL     1      15.187 -34.129  20.194  1.00  0.00     0.079 C 
BRANCH  11  12
ATOM     12  C   UNL     1      16.356 -34.909  19.647  1.00  0.00     0.130 C 
ATOM     13  O   UNL     1      16.340 -36.130  19.692  1.00  0.00    -0.300 OA
ATOM     14  C   UNL     1      17.541 -34.216  19.042  1.00  0.00     0.087 C 
ENDBRANCH  11  12
ENDBRANCH  10  11
ENDBRANCH   2  10
TORSDOF 6
ENDMDL
MODEL 6
REMARK VINA RESULT:    -5.049      1.874      2.806
REMARK INTER + INTRA:          -7.839
REMARK INTER:                  -7.214
REMARK INTRA:                  -0.625
REMARK UNBOUND:                -1.019
REMARK SMILES CC(=O)CCC=C(C)CCC=C(C)C
REMARK SMILES IDX 7 1 6 2 8 3 9 4 10 5 11 6 13 7 12 8 14 9 5 10 4 11 2 12 3 13
REMARK SMILES IDX 1 14
REMARK H PARENT
REMARK Flexibility Score: inf
ROOT
ATOM      1  C   UNL     1      14.185 -32.545  21.155  1.00  0.00    -0.077 C 
ATOM      2  C   UNL     1      14.684 -33.616  20.493  1.00  0.00    -0.028 C 
ATOM      3  C   UNL     1      13.116 -31.729  20.472  1.00  0.00     0.039 C 
ENDROOT
BRANCH   1   4
ATOM      4  C   UNL     1      14.650 -32.125  22.536  1.00  0.00     0.034 C 
BRANCH   4   5
ATOM      5  C   UNL     1      13.471 -31.670  23.405  1.00  0.00     0.032 C 
BRANCH   5   6
ATOM      6  C   UNL     1      13.676 -30.255  23.884  1.00  0.00    -0.028 C 
ATOM      7  C   UNL     1      13.233 -27.846  24.080  1.00  0.00     0.039 C 
ATOM      8  C   UNL     1      12.878 -29.214  23.559  1.00  0.00    -0.080 C 
ATOM      9  C   UNL     1      11.643 -29.390  22.707  1.00  0.00     0.039 C 
ENDBRANCH   5   6
ENDBRANCH   4   5
ENDBRANCH   1   4
BRANCH   2  10
ATOM     10  C   UNL     1      15.733 -34.571  21.017  1.00  0.00     0.035 C 
BRANCH  10  11
ATOM     11  C   UNL     1      15.982 -35.715  20.026  1.00  0.00     0.079 C 
BRANCH  11  12
ATOM     12  C   UNL     1      17.409 -35.736  19.538  1.00  0.00     0.130 C 
ATOM     13  O   UNL     1      18.014 -36.796  19.488  1.00  0.00    -0.300 OA
ATOM     14  C   UNL     1      18.101 -34.478  19.105  1.00  0.00     0.087 C 
ENDBRANCH  11  12
ENDBRANCH  10  11
ENDBRANCH   2  10
TORSDOF 6
ENDMDL
MODEL 7
REMARK VINA RESULT:    -5.015      2.553      5.262
REMARK INTER + INTRA:          -7.793
REMARK INTER:                  -6.056
REMARK INTRA:                  -1.737
REMARK UNBOUND:                -1.019
REMARK SMILES CC(=O)CCC=C(C)CCC=C(C)C
REMARK SMILES IDX 7 1 6 2 8 3 9 4 10 5 11 6 13 7 12 8 14 9 5 10 4 11 2 12 3 13
REMARK SMILES IDX 1 14
REMARK H PARENT
REMARK Flexibility Score: inf
ROOT
ATOM      1  C   UNL     1      14.974 -33.946  21.048  1.00  0.00    -0.077 C 
ATOM      2  C   UNL     1      14.169 -33.021  20.472  1.00  0.00    -0.028 C 
ATOM      3  C   UNL     1      15.596 -34.992  20.157  1.00  0.00     0.039 C 
ENDROOT
BRANCH   1   4
ATOM      4  C   UNL     1      15.271 -33.985  22.534  1.00  0.00     0.034 C 
BRANCH   4   5
ATOM      5  C   UNL     1      16.759 -33.737  22.811  1.00  0.00     0.032 C 
BRANCH   5   6
ATOM      6  C   UNL     1      17.057 -32.259  22.842  1.00  0.00    -0.028 C 
ATOM      7  C   UNL     1      17.990 -30.123  22.066  1.00  0.00     0.039 C 
ATOM      8  C   UNL     1      17.731 -31.594  21.878  1.00  0.00    -0.080 C 
ATOM      9  C   UNL     1      18.213 -32.281  20.621  1.00  0.00     0.039 C 
ENDBRANCH   5   6
ENDBRANCH   4   5
ENDBRANCH   1   4
BRANCH   2  10
ATOM     10  C   UNL     1      13.479 -31.879  21.186  1.00  0.00     0.035 C 
BRANCH  10  11
ATOM     11  C   UNL     1      14.310 -30.593  21.102  1.00  0.00     0.079 C 
BRANCH  11  12
ATOM     12  C   UNL     1      14.291 -29.826  22.400  1.00  0.00     0.130 C 
ATOM     13  O   UNL     1      14.619 -28.649  22.410  1.00  0.00    -0.300 OA
ATOM     14  C   UNL     1      13.868 -30.477  23.683  1.00  0.00     0.087 C 
ENDBRANCH  11  12
ENDBRANCH  10  11
ENDBRANCH   2  10
TORSDOF 6
ENDMDL
MODEL 8
REMARK VINA RESULT:    -5.013      2.848      6.004
REMARK INTER + INTRA:          -7.791
REMARK INTER:                  -6.245
REMARK INTRA:                  -1.546
REMARK UNBOUND:                -1.019
REMARK SMILES CC(=O)CCC=C(C)CCC=C(C)C
REMARK SMILES IDX 7 1 6 2 8 3 9 4 10 5 11 6 13 7 12 8 14 9 5 10 4 11 2 12 3 13
REMARK SMILES IDX 1 14
REMARK H PARENT
REMARK Flexibility Score: inf
ROOT
ATOM      1  C   UNL     1      16.365 -35.167  19.768  1.00  0.00    -0.077 C 
ATOM      2  C   UNL     1      15.238 -34.881  20.464  1.00  0.00    -0.028 C 
ATOM      3  C   UNL     1      16.857 -36.593  19.777  1.00  0.00     0.039 C 
ENDROOT
BRANCH   1   4
ATOM      4  C   UNL     1      17.154 -34.129  18.994  1.00  0.00     0.034 C 
BRANCH   4   5
ATOM      5  C   UNL     1      18.397 -33.680  19.772  1.00  0.00     0.032 C 
BRANCH   5   6
ATOM      6  C   UNL     1      18.119 -32.409  20.535  1.00  0.00    -0.028 C 
ATOM      7  C   UNL     1      17.670 -31.000  22.496  1.00  0.00     0.039 C 
ATOM      8  C   UNL     1      17.989 -32.335  21.878  1.00  0.00    -0.080 C 
ATOM      9  C   UNL     1      18.170 -33.544  22.766  1.00  0.00     0.039 C 
ENDBRANCH   5   6
ENDBRANCH   4   5
ENDBRANCH   1   4
BRANCH   2  10
ATOM     10  C   UNL     1      14.571 -33.527  20.553  1.00  0.00     0.035 C 
BRANCH  10  11
ATOM     11  C   UNL     1      14.461 -33.061  22.010  1.00  0.00     0.079 C 
BRANCH  11  12
ATOM     12  C   UNL     1      13.874 -31.676  22.114  1.00  0.00     0.130 C 
ATOM     13  O   UNL     1      13.150 -31.397  23.058  1.00  0.00    -0.300 OA
ATOM     14  C   UNL     1      14.167 -30.627  21.083  1.00  0.00     0.087 C 
ENDBRANCH  11  12
ENDBRANCH  10  11
ENDBRANCH   2  10
TORSDOF 6
ENDMDL
MODEL 9
REMARK VINA RESULT:    -4.987      1.898      3.280
REMARK INTER + INTRA:          -7.756
REMARK INTER:                  -6.621
REMARK INTRA:                  -1.135
REMARK UNBOUND:                -1.019
REMARK SMILES CC(=O)CCC=C(C)CCC=C(C)C
REMARK SMILES IDX 7 1 6 2 8 3 9 4 10 5 11 6 13 7 12 8 14 9 5 10 4 11 2 12 3 13
REMARK SMILES IDX 1 14
REMARK H PARENT
REMARK Flexibility Score: inf
ROOT
ATOM      1  C   UNL     1      15.769 -32.746  22.332  1.00  0.00    -0.077 C 
ATOM      2  C   UNL     1      15.237 -33.886  21.830  1.00  0.00    -0.028 C 
ATOM      3  C   UNL     1      15.862 -32.612  23.832  1.00  0.00     0.039 C 
ENDROOT
BRANCH   1   4
ATOM      4  C   UNL     1      16.265 -31.603  21.467  1.00  0.00     0.034 C 
BRANCH   4   5
ATOM      5  C   UNL     1      15.486 -30.312  21.751  1.00  0.00     0.032 C 
BRANCH   5   6
ATOM      6  C   UNL     1      14.039 -30.464  21.356  1.00  0.00    -0.028 C 
ATOM      7  C   UNL     1      11.605 -30.558  21.674  1.00  0.00     0.039 C 
ATOM      8  C   UNL     1      12.996 -30.337  22.206  1.00  0.00    -0.080 C 
ATOM      9  C   UNL     1      13.189 -29.968  23.658  1.00  0.00     0.039 C 
ENDBRANCH   5   6
ENDBRANCH   4   5
ENDBRANCH   1   4
BRANCH   2  10
ATOM     10  C   UNL     1      15.086 -34.221  20.363  1.00  0.00     0.035 C 
BRANCH  10  11
ATOM     11  C   UNL     1      15.755 -35.561  20.031  1.00  0.00     0.079 C 
BRANCH  11  12
ATOM     12  C   UNL     1      17.130 -35.371  19.442  1.00  0.00     0.130 C 
ATOM     13  O   UNL     1      17.894 -36.322  19.375  1.00  0.00    -0.300 OA
ATOM     14  C   UNL     1      17.580 -34.035  18.929  1.00  0.00     0.087 C 
ENDBRANCH  11  12
ENDBRANCH  10  11
ENDBRANCH   2  10
TORSDOF 6
ENDMDL
