MODEL 1
REMARK VINA RESULT:    -3.089      0.000      0.000
REMARK INTER + INTRA:          -4.976
REMARK INTER:                  -4.172
REMARK INTRA:                  -0.804
REMARK UNBOUND:                -0.804
REMARK SMILES O=C[C@H](O)[C@@H](O)[C@@H](O)CO
REMARK SMILES IDX 7 1 9 2 10 3 5 5 3 6 2 7 1 8 4 9 6 11 8 13
REMARK H PARENT 10 4 4 10 6 12 8 14
REMARK Flexibility Score: inf
ROOT
ATOM      1  C   UNL     1      13.950   2.594  34.866  1.00  0.00     0.171 C 
ENDROOT
BRANCH   1   2
ATOM      2  C   UNL     1      14.874   3.783  35.204  1.00  0.00     0.190 C 
BRANCH   2   3
ATOM      3  O   UNL     1      14.804   4.759  34.200  1.00  0.00    -0.394 OA
ATOM      4  H   UNL     1      15.542   4.567  33.564  1.00  0.00     0.210 HD
ENDBRANCH   2   3
ENDBRANCH   1   2
BRANCH   1   5
ATOM      5  C   UNL     1      14.539   1.634  33.795  1.00  0.00     0.181 C 
BRANCH   5   6
ATOM      6  C   UNL     1      13.600   1.405  32.580  1.00  0.00     0.209 C 
BRANCH   6   7
ATOM      7  C   UNL     1      13.326   2.685  31.834  1.00  0.00     0.258 C 
ATOM      8  O   UNL     1      14.239   3.444  31.547  1.00  0.00    -0.300 OA
ENDBRANCH   6   7
BRANCH   6   9
ATOM      9  O   UNL     1      12.385   0.835  32.994  1.00  0.00    -0.383 OA
ATOM     10  H   UNL     1      12.568  -0.104  33.265  1.00  0.00     0.211 HD
ENDBRANCH   6   9
ENDBRANCH   5   6
BRANCH   5  11
ATOM     11  O   UNL     1      15.774   2.135  33.348  1.00  0.00    -0.387 OA
ATOM     12  H   UNL     1      16.433   1.977  34.073  1.00  0.00     0.211 HD
ENDBRANCH   5  11
ENDBRANCH   1   5
BRANCH   1  13
ATOM     13  O   UNL     1      13.630   1.876  36.032  1.00  0.00    -0.388 OA
ATOM     14  H   UNL     1      13.712   0.909  35.823  1.00  0.00     0.211 HD
ENDBRANCH   1  13
TORSDOF 8
ENDMDL
MODEL 2
REMARK VINA RESULT:    -3.038     13.754     14.979
REMARK INTER + INTRA:          -4.907
REMARK INTER:                  -4.144
REMARK INTRA:                  -0.763
REMARK UNBOUND:                -0.804
REMARK SMILES O=C[C@H](O)[C@@H](O)[C@@H](O)CO
REMARK SMILES IDX 7 1 9 2 10 3 5 5 3 6 2 7 1 8 4 9 6 11 8 13
REMARK H PARENT 10 4 4 10 6 12 8 14
REMARK Flexibility Score: inf
ROOT
ATOM      1  C   UNL     1      -0.506   2.239  34.198  1.00  0.00     0.171 C 
ENDROOT
BRANCH   1   2
ATOM      2  C   UNL     1       0.962   2.437  33.765  1.00  0.00     0.190 C 
BRANCH   2   3
ATOM      3  O   UNL     1       1.690   1.252  33.946  1.00  0.00    -0.394 OA
ATOM      4  H   UNL     1       2.417   1.259  33.269  1.00  0.00     0.210 HD
ENDBRANCH   2   3
ENDBRANCH   1   2
BRANCH   1   5
ATOM      5  C   UNL     1      -0.677   2.000  35.724  1.00  0.00     0.181 C 
BRANCH   5   6
ATOM      6  C   UNL     1      -1.104   0.552  36.084  1.00  0.00     0.209 C 
BRANCH   6   7
ATOM      7  C   UNL     1      -1.460   0.418  37.542  1.00  0.00     0.258 C 
ATOM      8  O   UNL     1      -1.443   1.394  38.276  1.00  0.00    -0.300 OA
ENDBRANCH   6   7
BRANCH   6   9
ATOM      9  O   UNL     1      -0.082  -0.358  35.766  1.00  0.00    -0.383 OA
ATOM     10  H   UNL     1       0.752   0.162  35.620  1.00  0.00     0.211 HD
ENDBRANCH   6   9
ENDBRANCH   5   6
BRANCH   5  11
ATOM     11  O   UNL     1       0.525   2.314  36.383  1.00  0.00    -0.387 OA
ATOM     12  H   UNL     1       0.797   3.219  36.079  1.00  0.00     0.211 HD
ENDBRANCH   5  11
ENDBRANCH   1   5
BRANCH   1  13
ATOM     13  O   UNL     1      -1.288   3.335  33.792  1.00  0.00    -0.388 OA
ATOM     14  H   UNL     1      -1.235   4.024  34.505  1.00  0.00     0.211 HD
ENDBRANCH   1  13
TORSDOF 8
ENDMDL
MODEL 3
REMARK VINA RESULT:    -2.989     19.088     19.921
REMARK INTER + INTRA:          -4.840
REMARK INTER:                  -4.234
REMARK INTRA:                  -0.607
REMARK UNBOUND:                -0.804
REMARK SMILES O=C[C@H](O)[C@@H](O)[C@@H](O)CO
REMARK SMILES IDX 7 1 9 2 10 3 5 5 3 6 2 7 1 8 4 9 6 11 8 13
REMARK H PARENT 10 4 4 10 6 12 8 14
REMARK Flexibility Score: inf
ROOT
ATOM      1  C   UNL     1      -2.943  10.887  27.423  1.00  0.00     0.171 C 
ENDROOT
BRANCH   1   2
ATOM      2  C   UNL     1      -4.121   9.908  27.615  1.00  0.00     0.190 C 
BRANCH   2   3
ATOM      3  O   UNL     1      -3.653   8.589  27.691  1.00  0.00    -0.394 OA
ATOM      4  H   UNL     1      -3.482   8.293  26.759  1.00  0.00     0.210 HD
ENDBRANCH   2   3
ENDBRANCH   1   2
BRANCH   1   5
ATOM      5  C   UNL     1      -2.659  11.233  25.934  1.00  0.00     0.181 C 
BRANCH   5   6
ATOM      6  C   UNL     1      -1.245  11.825  25.691  1.00  0.00     0.209 C 
BRANCH   6   7
ATOM      7  C   UNL     1      -0.705  11.450  24.335  1.00  0.00     0.258 C 
ATOM      8  O   UNL     1      -0.225  10.344  24.143  1.00  0.00    -0.300 OA
ENDBRANCH   6   7
BRANCH   6   9
ATOM      9  O   UNL     1      -0.351  11.394  26.686  1.00  0.00    -0.383 OA
ATOM     10  H   UNL     1      -0.561  11.894  27.519  1.00  0.00     0.211 HD
ENDBRANCH   6   9
ENDBRANCH   5   6
BRANCH   5  11
ATOM     11  O   UNL     1      -2.828  10.080  25.147  1.00  0.00    -0.387 OA
ATOM     12  H   UNL     1      -2.592   9.301  25.714  1.00  0.00     0.211 HD
ENDBRANCH   5  11
ENDBRANCH   1   5
BRANCH   1  13
ATOM     13  O   UNL     1      -3.163  12.067  28.157  1.00  0.00    -0.388 OA
ATOM     14  H   UNL     1      -2.622  12.788  27.740  1.00  0.00     0.211 HD
ENDBRANCH   1  13
TORSDOF 8
ENDMDL
MODEL 4
REMARK VINA RESULT:    -2.960      1.515      3.905
REMARK INTER + INTRA:          -4.802
REMARK INTER:                  -4.063
REMARK INTRA:                  -0.738
REMARK UNBOUND:                -0.804
REMARK SMILES O=C[C@H](O)[C@@H](O)[C@@H](O)CO
REMARK SMILES IDX 7 1 9 2 10 3 5 5 3 6 2 7 1 8 4 9 6 11 8 13
REMARK H PARENT 10 4 4 10 6 12 8 14
REMARK Flexibility Score: inf
ROOT
ATOM      1  C   UNL     1      14.174   2.672  33.261  1.00  0.00     0.171 C 
ENDROOT
BRANCH   1   2
ATOM      2  C   UNL     1      13.366   1.693  32.384  1.00  0.00     0.190 C 
BRANCH   2   3
ATOM      3  O   UNL     1      12.506   0.920  33.177  1.00  0.00    -0.394 OA
ATOM      4  H   UNL     1      12.372   1.421  34.023  1.00  0.00     0.210 HD
ENDBRANCH   2   3
ENDBRANCH   1   2
BRANCH   1   5
ATOM      5  C   UNL     1      15.209   1.971  34.183  1.00  0.00     0.181 C 
BRANCH   5   6
ATOM      6  C   UNL     1      14.887   2.102  35.695  1.00  0.00     0.209 C 
BRANCH   6   7
ATOM      7  C   UNL     1      15.722   1.167  36.531  1.00  0.00     0.258 C 
ATOM      8  O   UNL     1      15.304   0.058  36.826  1.00  0.00    -0.300 OA
ENDBRANCH   6   7
BRANCH   6   9
ATOM      9  O   UNL     1      13.525   1.853  35.934  1.00  0.00    -0.383 OA
ATOM     10  H   UNL     1      13.029   2.700  35.774  1.00  0.00     0.211 HD
ENDBRANCH   6   9
ENDBRANCH   5   6
BRANCH   5  11
ATOM     11  O   UNL     1      15.298   0.611  33.837  1.00  0.00    -0.387 OA
ATOM     12  H   UNL     1      14.478   0.168  34.180  1.00  0.00     0.211 HD
ENDBRANCH   5  11
ENDBRANCH   1   5
BRANCH   1  13
ATOM     13  O   UNL     1      14.817   3.632  32.458  1.00  0.00    -0.388 OA
ATOM     14  H   UNL     1      14.207   4.409  32.369  1.00  0.00     0.211 HD
ENDBRANCH   1  13
TORSDOF 8
ENDMDL
MODEL 5
REMARK VINA RESULT:    -2.951     13.577     14.564
REMARK INTER + INTRA:          -4.790
REMARK INTER:                  -3.810
REMARK INTRA:                  -0.980
REMARK UNBOUND:                -0.804
REMARK SMILES O=C[C@H](O)[C@@H](O)[C@@H](O)CO
REMARK SMILES IDX 7 1 9 2 10 3 5 5 3 6 2 7 1 8 4 9 6 11 8 13
REMARK H PARENT 10 4 4 10 6 12 8 14
REMARK Flexibility Score: inf
ROOT
ATOM      1  C   UNL     1      -1.267   1.298  35.928  1.00  0.00     0.171 C 
ENDROOT
BRANCH   1   2
ATOM      2  C   UNL     1      -0.750   1.964  37.221  1.00  0.00     0.190 C 
BRANCH   2   3
ATOM      3  O   UNL     1      -0.417   3.304  36.983  1.00  0.00    -0.394 OA
ATOM      4  H   UNL     1      -0.396   3.422  35.997  1.00  0.00     0.210 HD
ENDBRANCH   2   3
ENDBRANCH   1   2
BRANCH   1   5
ATOM      5  C   UNL     1      -0.175   1.136  34.834  1.00  0.00     0.181 C 
BRANCH   5   6
ATOM      6  C   UNL     1      -0.176   2.275  33.779  1.00  0.00     0.209 C 
BRANCH   6   7
ATOM      7  C   UNL     1       1.116   3.050  33.790  1.00  0.00     0.258 C 
ATOM      8  O   UNL     1       1.432   3.716  34.763  1.00  0.00    -0.300 OA
ENDBRANCH   6   7
BRANCH   6   9
ATOM      9  O   UNL     1      -1.251   3.152  34.000  1.00  0.00    -0.383 OA
ATOM     10  H   UNL     1      -1.415   3.649  33.155  1.00  0.00     0.211 HD
ENDBRANCH   6   9
ENDBRANCH   5   6
BRANCH   5  11
ATOM     11  O   UNL     1       1.090   1.060  35.443  1.00  0.00    -0.387 OA
ATOM     12  H   UNL     1       1.766   1.074  34.717  1.00  0.00     0.211 HD
ENDBRANCH   5  11
ENDBRANCH   1   5
BRANCH   1  13
ATOM     13  O   UNL     1      -1.846   0.049  36.218  1.00  0.00    -0.388 OA
ATOM     14  H   UNL     1      -1.337  -0.353  36.969  1.00  0.00     0.211 HD
ENDBRANCH   1  13
TORSDOF 8
ENDMDL
MODEL 6
REMARK VINA RESULT:    -2.925     13.420     14.578
REMARK INTER + INTRA:          -4.755
REMARK INTER:                  -3.807
REMARK INTRA:                  -0.948
REMARK UNBOUND:                -0.804
REMARK SMILES O=C[C@H](O)[C@@H](O)[C@@H](O)CO
REMARK SMILES IDX 7 1 9 2 10 3 5 5 3 6 2 7 1 8 4 9 6 11 8 13
REMARK H PARENT 10 4 4 10 6 12 8 14
REMARK Flexibility Score: inf
ROOT
ATOM      1  C   UNL     1      -1.057   1.809  36.396  1.00  0.00     0.171 C 
ENDROOT
BRANCH   1   2
ATOM      2  C   UNL     1      -0.922   0.303  36.088  1.00  0.00     0.190 C 
BRANCH   2   3
ATOM      3  O   UNL     1       0.359   0.017  35.595  1.00  0.00    -0.394 OA
ATOM      4  H   UNL     1       0.427   0.454  34.706  1.00  0.00     0.210 HD
ENDBRANCH   2   3
ENDBRANCH   1   2
BRANCH   1   5
ATOM      5  C   UNL     1      -0.804   2.721  35.164  1.00  0.00     0.181 C 
BRANCH   5   6
ATOM      6  C   UNL     1       0.611   3.357  35.139  1.00  0.00     0.209 C 
BRANCH   6   7
ATOM      7  C   UNL     1       1.414   2.890  33.952  1.00  0.00     0.258 C 
ATOM      8  O   UNL     1       1.875   1.760  33.921  1.00  0.00    -0.300 OA
ENDBRANCH   6   7
BRANCH   6   9
ATOM      9  O   UNL     1       1.308   3.059  36.322  1.00  0.00    -0.383 OA
ATOM     10  H   UNL     1       0.703   2.525  36.903  1.00  0.00     0.211 HD
ENDBRANCH   6   9
ENDBRANCH   5   6
BRANCH   5  11
ATOM     11  O   UNL     1      -1.010   1.982  33.986  1.00  0.00    -0.387 OA
ATOM     12  H   UNL     1      -1.402   1.110  34.252  1.00  0.00     0.211 HD
ENDBRANCH   5  11
ENDBRANCH   1   5
BRANCH   1  13
ATOM     13  O   UNL     1      -2.322   2.084  36.947  1.00  0.00    -0.388 OA
ATOM     14  H   UNL     1      -2.223   2.859  37.559  1.00  0.00     0.211 HD
ENDBRANCH   1  13
TORSDOF 8
ENDMDL
MODEL 7
REMARK VINA RESULT:    -2.902     13.365     14.478
REMARK INTER + INTRA:          -4.724
REMARK INTER:                  -3.728
REMARK INTRA:                  -0.996
REMARK UNBOUND:                -0.804
REMARK SMILES O=C[C@H](O)[C@@H](O)[C@@H](O)CO
REMARK SMILES IDX 7 1 9 2 10 3 5 5 3 6 2 7 1 8 4 9 6 11 8 13
REMARK H PARENT 10 4 4 10 6 12 8 14
REMARK Flexibility Score: inf
ROOT
ATOM      1  C   UNL     1       1.083   2.804  34.869  1.00  0.00     0.171 C 
ENDROOT
BRANCH   1   2
ATOM      2  C   UNL     1       1.279   3.700  36.111  1.00  0.00     0.190 C 
BRANCH   2   3
ATOM      3  O   UNL     1       1.119   2.952  37.285  1.00  0.00    -0.394 OA
ATOM      4  H   UNL     1       2.014   2.894  37.710  1.00  0.00     0.210 HD
ENDBRANCH   2   3
ENDBRANCH   1   2
BRANCH   1   5
ATOM      5  C   UNL     1      -0.357   2.237  34.733  1.00  0.00     0.181 C 
BRANCH   5   6
ATOM      6  C   UNL     1      -0.496   0.766  35.210  1.00  0.00     0.209 C 
BRANCH   6   7
ATOM      7  C   UNL     1      -1.465   0.638  36.356  1.00  0.00     0.258 C 
ATOM      8  O   UNL     1      -1.164   1.036  37.471  1.00  0.00    -0.300 OA
ENDBRANCH   6   7
BRANCH   6   9
ATOM      9  O   UNL     1       0.754   0.251  35.594  1.00  0.00    -0.383 OA
ATOM     10  H   UNL     1       0.650  -0.155  36.495  1.00  0.00     0.211 HD
ENDBRANCH   6   9
ENDBRANCH   5   6
BRANCH   5  11
ATOM     11  O   UNL     1      -1.250   3.051  35.452  1.00  0.00    -0.387 OA
ATOM     12  H   UNL     1      -2.082   2.526  35.585  1.00  0.00     0.211 HD
ENDBRANCH   5  11
ENDBRANCH   1   5
BRANCH   1  13
ATOM     13  O   UNL     1       1.438   3.502  33.701  1.00  0.00    -0.388 OA
ATOM     14  H   UNL     1       2.325   3.920  33.856  1.00  0.00     0.211 HD
ENDBRANCH   1  13
TORSDOF 8
ENDMDL
MODEL 8
REMARK VINA RESULT:    -2.883     13.894     14.999
REMARK INTER + INTRA:          -4.698
REMARK INTER:                  -3.827
REMARK INTRA:                  -0.872
REMARK UNBOUND:                -0.804
REMARK SMILES O=C[C@H](O)[C@@H](O)[C@@H](O)CO
REMARK SMILES IDX 7 1 9 2 10 3 5 5 3 6 2 7 1 8 4 9 6 11 8 13
REMARK H PARENT 10 4 4 10 6 12 8 14
REMARK Flexibility Score: inf
ROOT
ATOM      1  C   UNL     1      -1.464   1.148  35.413  1.00  0.00     0.171 C 
ENDROOT
BRANCH   1   2
ATOM      2  C   UNL     1      -2.697   1.972  34.987  1.00  0.00     0.190 C 
BRANCH   2   3
ATOM      3  O   UNL     1      -2.396   2.764  33.870  1.00  0.00    -0.394 OA
ATOM      4  H   UNL     1      -1.458   3.069  33.982  1.00  0.00     0.210 HD
ENDBRANCH   2   3
ENDBRANCH   1   2
BRANCH   1   5
ATOM      5  C   UNL     1      -0.354   1.997  36.094  1.00  0.00     0.181 C 
BRANCH   5   6
ATOM      6  C   UNL     1       1.004   1.963  35.345  1.00  0.00     0.209 C 
BRANCH   6   7
ATOM      7  C   UNL     1       1.170   3.148  34.429  1.00  0.00     0.258 C 
ATOM      8  O   UNL     1       0.478   3.261  33.430  1.00  0.00    -0.300 OA
ENDBRANCH   6   7
BRANCH   6   9
ATOM      9  O   UNL     1       1.131   0.777  34.603  1.00  0.00    -0.383 OA
ATOM     10  H   UNL     1       1.920   0.876  34.007  1.00  0.00     0.211 HD
ENDBRANCH   6   9
ENDBRANCH   5   6
BRANCH   5  11
ATOM     11  O   UNL     1      -0.792   3.328  36.214  1.00  0.00    -0.387 OA
ATOM     12  H   UNL     1      -0.139   3.799  36.795  1.00  0.00     0.211 HD
ENDBRANCH   5  11
ENDBRANCH   1   5
BRANCH   1  13
ATOM     13  O   UNL     1      -1.848   0.092  36.258  1.00  0.00    -0.388 OA
ATOM     14  H   UNL     1      -1.075  -0.126  36.841  1.00  0.00     0.211 HD
ENDBRANCH   1  13
TORSDOF 8
ENDMDL
MODEL 9
REMARK VINA RESULT:    -2.854     13.969     15.070
REMARK INTER + INTRA:          -4.659
REMARK INTER:                  -3.901
REMARK INTRA:                  -0.758
REMARK UNBOUND:                -0.804
REMARK SMILES O=C[C@H](O)[C@@H](O)[C@@H](O)CO
REMARK SMILES IDX 7 1 9 2 10 3 5 5 3 6 2 7 1 8 4 9 6 11 8 13
REMARK H PARENT 10 4 4 10 6 12 8 14
REMARK Flexibility Score: inf
ROOT
ATOM      1  C   UNL     1       0.432   1.665  34.975  1.00  0.00     0.171 C 
ENDROOT
BRANCH   1   2
ATOM      2  C   UNL     1       1.416   2.147  33.888  1.00  0.00     0.190 C 
BRANCH   2   3
ATOM      3  O   UNL     1       1.558   3.541  33.940  1.00  0.00    -0.394 OA
ATOM      4  H   UNL     1       0.654   3.913  34.112  1.00  0.00     0.210 HD
ENDBRANCH   2   3
ENDBRANCH   1   2
BRANCH   1   5
ATOM      5  C   UNL     1      -1.060   1.762  34.550  1.00  0.00     0.181 C 
BRANCH   5   6
ATOM      6  C   UNL     1      -2.057   1.463  35.701  1.00  0.00     0.209 C 
BRANCH   6   7
ATOM      7  C   UNL     1      -1.831   2.365  36.887  1.00  0.00     0.258 C 
ATOM      8  O   UNL     1      -2.035   3.566  36.801  1.00  0.00    -0.300 OA
ENDBRANCH   6   7
BRANCH   6   9
ATOM      9  O   UNL     1      -1.956   0.122  36.107  1.00  0.00    -0.383 OA
ATOM     10  H   UNL     1      -2.870  -0.194  36.337  1.00  0.00     0.211 HD
ENDBRANCH   6   9
ENDBRANCH   5   6
BRANCH   5  11
ATOM     11  O   UNL     1      -1.314   3.043  34.027  1.00  0.00    -0.387 OA
ATOM     12  H   UNL     1      -0.950   3.059  33.103  1.00  0.00     0.211 HD
ENDBRANCH   5  11
ENDBRANCH   1   5
BRANCH   1  13
ATOM     13  O   UNL     1       0.737   0.347  35.361  1.00  0.00    -0.388 OA
ATOM     14  H   UNL     1       0.723  -0.218  34.545  1.00  0.00     0.211 HD
ENDBRANCH   1  13
TORSDOF 8
ENDMDL
