MODEL 1
REMARK VINA RESULT:    -3.633      0.000      0.000
REMARK INTER + INTRA:          -4.070
REMARK INTER:                  -4.058
REMARK INTRA:                  -0.012
REMARK UNBOUND:                -0.012
REMARK SMILES CCCC(=O)[O-]
REMARK SMILES IDX 3 1 4 2 5 3 6 4 2 5 1 6
REMARK H PARENT
REMARK Flexibility Score: inf
ROOT
ATOM      1  C   UNL     1      40.493  67.064  24.789  1.00  0.00     0.052 C 
ENDROOT
BRANCH   1   2
ATOM      2  C   UNL     1      41.482  67.733  23.884  1.00  0.00     0.041 C 
ATOM      3  O   UNL     1      42.341  68.523  24.357  1.00  0.00    -0.550 OA
ATOM      4  O   UNL     1      41.434  67.509  22.514  1.00  0.00    -0.550 OA
ENDBRANCH   1   2
BRANCH   1   5
ATOM      5  C   UNL     1      39.174  66.768  24.065  1.00  0.00     0.003 C 
ATOM      6  C   UNL     1      37.956  67.248  24.854  1.00  0.00     0.004 C 
ENDBRANCH   1   5
TORSDOF 2
ENDMDL
MODEL 2
REMARK VINA RESULT:    -3.625      0.126      1.325
REMARK INTER + INTRA:          -4.060
REMARK INTER:                  -4.047
REMARK INTRA:                  -0.014
REMARK UNBOUND:                -0.012
REMARK SMILES CCCC(=O)[O-]
REMARK SMILES IDX 3 1 4 2 5 3 6 4 2 5 1 6
REMARK H PARENT
REMARK Flexibility Score: inf
ROOT
ATOM      1  C   UNL     1      40.537  67.134  24.707  1.00  0.00     0.052 C 
ENDROOT
BRANCH   1   2
ATOM      2  C   UNL     1      41.496  67.763  23.744  1.00  0.00     0.041 C 
ATOM      3  O   UNL     1      41.439  67.483  22.518  1.00  0.00    -0.550 OA
ATOM      4  O   UNL     1      42.475  68.635  24.206  1.00  0.00    -0.550 OA
ENDBRANCH   1   2
BRANCH   1   5
ATOM      5  C   UNL     1      39.215  66.759  24.027  1.00  0.00     0.003 C 
ATOM      6  C   UNL     1      37.997  67.212  24.832  1.00  0.00     0.004 C 
ENDBRANCH   1   5
TORSDOF 2
ENDMDL
MODEL 3
REMARK VINA RESULT:    -3.611      2.479      3.220
REMARK INTER + INTRA:          -4.045
REMARK INTER:                  -4.032
REMARK INTRA:                  -0.013
REMARK UNBOUND:                -0.012
REMARK SMILES CCCC(=O)[O-]
REMARK SMILES IDX 3 1 4 2 5 3 6 4 2 5 1 6
REMARK H PARENT
REMARK Flexibility Score: inf
ROOT
ATOM      1  C   UNL     1      41.380  66.867  24.736  1.00  0.00     0.052 C 
ENDROOT
BRANCH   1   2
ATOM      2  C   UNL     1      41.499  65.494  24.148  1.00  0.00     0.041 C 
ATOM      3  O   UNL     1      41.756  64.508  24.886  1.00  0.00    -0.550 OA
ATOM      4  O   UNL     1      41.358  65.310  22.778  1.00  0.00    -0.550 OA
ENDBRANCH   1   2
BRANCH   1   5
ATOM      5  C   UNL     1      41.748  67.953  23.719  1.00  0.00     0.003 C 
ATOM      6  C   UNL     1      42.783  68.936  24.264  1.00  0.00     0.004 C 
ENDBRANCH   1   5
TORSDOF 2
ENDMDL
MODEL 4
REMARK VINA RESULT:    -3.582      2.421      3.211
REMARK INTER + INTRA:          -4.013
REMARK INTER:                  -3.994
REMARK INTRA:                  -0.019
REMARK UNBOUND:                -0.012
REMARK SMILES CCCC(=O)[O-]
REMARK SMILES IDX 3 1 4 2 5 3 6 4 2 5 1 6
REMARK H PARENT
REMARK Flexibility Score: inf
ROOT
ATOM      1  C   UNL     1      40.645  66.351  24.911  1.00  0.00     0.052 C 
ENDROOT
BRANCH   1   2
ATOM      2  C   UNL     1      39.409  66.677  24.130  1.00  0.00     0.041 C 
ATOM      3  O   UNL     1      38.355  67.021  24.725  1.00  0.00    -0.550 OA
ATOM      4  O   UNL     1      39.413  66.569  22.745  1.00  0.00    -0.550 OA
ENDBRANCH   1   2
BRANCH   1   5
ATOM      5  C   UNL     1      41.573  65.408  24.136  1.00  0.00     0.003 C 
ATOM      6  C   UNL     1      41.834  64.102  24.885  1.00  0.00     0.004 C 
ENDBRANCH   1   5
TORSDOF 2
ENDMDL
MODEL 5
REMARK VINA RESULT:    -3.568      2.063      2.983
REMARK INTER + INTRA:          -3.997
REMARK INTER:                  -3.946
REMARK INTRA:                  -0.051
REMARK UNBOUND:                -0.012
REMARK SMILES CCCC(=O)[O-]
REMARK SMILES IDX 3 1 4 2 5 3 6 4 2 5 1 6
REMARK H PARENT
REMARK Flexibility Score: inf
ROOT
ATOM      1  C   UNL     1      40.686  66.231  24.659  1.00  0.00     0.052 C 
ENDROOT
BRANCH   1   2
ATOM      2  C   UNL     1      39.513  66.619  23.813  1.00  0.00     0.041 C 
ATOM      3  O   UNL     1      38.455  67.039  24.350  1.00  0.00    -0.550 OA
ATOM      4  O   UNL     1      39.577  66.485  22.431  1.00  0.00    -0.550 OA
ENDBRANCH   1   2
BRANCH   1   5
ATOM      5  C   UNL     1      41.442  67.460  25.178  1.00  0.00     0.003 C 
ATOM      6  C   UNL     1      42.101  68.257  24.052  1.00  0.00     0.004 C 
ENDBRANCH   1   5
TORSDOF 2
ENDMDL
MODEL 6
REMARK VINA RESULT:    -3.546      2.040      2.428
REMARK INTER + INTRA:          -3.973
REMARK INTER:                  -3.964
REMARK INTRA:                  -0.009
REMARK UNBOUND:                -0.012
REMARK SMILES CCCC(=O)[O-]
REMARK SMILES IDX 3 1 4 2 5 3 6 4 2 5 1 6
REMARK H PARENT
REMARK Flexibility Score: inf
ROOT
ATOM      1  C   UNL     1      40.522  66.316  24.710  1.00  0.00     0.052 C 
ENDROOT
BRANCH   1   2
ATOM      2  C   UNL     1      41.341  65.310  23.960  1.00  0.00     0.041 C 
ATOM      3  O   UNL     1      41.402  65.352  22.703  1.00  0.00    -0.550 OA
ATOM      4  O   UNL     1      42.011  64.306  24.649  1.00  0.00    -0.550 OA
ENDBRANCH   1   2
BRANCH   1   5
ATOM      5  C   UNL     1      39.320  66.795  23.888  1.00  0.00     0.003 C 
ATOM      6  C   UNL     1      38.125  67.168  24.766  1.00  0.00     0.004 C 
ENDBRANCH   1   5
TORSDOF 2
ENDMDL
MODEL 7
REMARK VINA RESULT:    -3.546      1.346      2.198
REMARK INTER + INTRA:          -3.973
REMARK INTER:                  -3.911
REMARK INTRA:                  -0.062
REMARK UNBOUND:                -0.012
REMARK SMILES CCCC(=O)[O-]
REMARK SMILES IDX 3 1 4 2 5 3 6 4 2 5 1 6
REMARK H PARENT
REMARK Flexibility Score: inf
ROOT
ATOM      1  C   UNL     1      40.509  66.844  24.425  1.00  0.00     0.052 C 
ENDROOT
BRANCH   1   2
ATOM      2  C   UNL     1      41.406  67.585  23.481  1.00  0.00     0.041 C 
ATOM      3  O   UNL     1      42.205  68.455  23.917  1.00  0.00    -0.550 OA
ATOM      4  O   UNL     1      41.336  67.337  22.116  1.00  0.00    -0.550 OA
ENDBRANCH   1   2
BRANCH   1   5
ATOM      5  C   UNL     1      41.287  65.818  25.258  1.00  0.00     0.003 C 
ATOM      6  C   UNL     1      41.740  64.617  24.427  1.00  0.00     0.004 C 
ENDBRANCH   1   5
TORSDOF 2
ENDMDL
MODEL 8
REMARK VINA RESULT:    -3.447      2.488      2.921
REMARK INTER + INTRA:          -3.863
REMARK INTER:                  -3.795
REMARK INTRA:                  -0.068
REMARK UNBOUND:                -0.012
REMARK SMILES CCCC(=O)[O-]
REMARK SMILES IDX 3 1 4 2 5 3 6 4 2 5 1 6
REMARK H PARENT
REMARK Flexibility Score: inf
ROOT
ATOM      1  C   UNL     1      41.347  65.926  24.009  1.00  0.00     0.052 C 
ENDROOT
BRANCH   1   2
ATOM      2  C   UNL     1      40.685  66.168  22.686  1.00  0.00     0.041 C 
ATOM      3  O   UNL     1      39.481  66.530  22.636  1.00  0.00    -0.550 OA
ATOM      4  O   UNL     1      41.391  65.960  21.508  1.00  0.00    -0.550 OA
ENDBRANCH   1   2
BRANCH   1   5
ATOM      5  C   UNL     1      41.458  67.216  24.830  1.00  0.00     0.003 C 
ATOM      6  C   UNL     1      42.167  68.334  24.066  1.00  0.00     0.004 C 
ENDBRANCH   1   5
TORSDOF 2
ENDMDL
MODEL 9
REMARK VINA RESULT:    -3.250      1.851      2.460
REMARK INTER + INTRA:          -3.642
REMARK INTER:                  -3.608
REMARK INTRA:                  -0.034
REMARK UNBOUND:                -0.012
REMARK SMILES CCCC(=O)[O-]
REMARK SMILES IDX 3 1 4 2 5 3 6 4 2 5 1 6
REMARK H PARENT
REMARK Flexibility Score: inf
ROOT
ATOM      1  C   UNL     1      41.055  66.030  23.915  1.00  0.00     0.052 C 
ENDROOT
BRANCH   1   2
ATOM      2  C   UNL     1      41.391  67.123  24.883  1.00  0.00     0.041 C 
ATOM      3  O   UNL     1      41.042  67.031  26.089  1.00  0.00    -0.550 OA
ATOM      4  O   UNL     1      42.061  68.258  24.444  1.00  0.00    -0.550 OA
ENDBRANCH   1   2
BRANCH   1   5
ATOM      5  C   UNL     1      40.019  66.487  22.880  1.00  0.00     0.003 C 
ATOM      6  C   UNL     1      40.571  66.466  21.455  1.00  0.00     0.004 C 
ENDBRANCH   1   5
TORSDOF 2
ENDMDL
