MODEL 1
REMARK VINA RESULT:    -4.318      0.000      0.000
REMARK INTER + INTRA:          -5.085
REMARK INTER:                  -4.949
REMARK INTRA:                  -0.137
REMARK UNBOUND:                -0.137
REMARK SMILES O=C([O-])C=Cc1ccc(O)cc1
REMARK SMILES IDX 6 1 7 2 12 3 8 4 11 5 9 6 5 7 4 8 2 9 1 10 3 11 10 12
REMARK H PARENT 10 13
REMARK Flexibility Score: inf
ROOT
ATOM      1  C   UNL     1       5.513  16.433   2.656  1.00  0.00    -0.025 A 
ATOM      2  C   UNL     1       5.995  15.273   2.026  1.00  0.00     0.012 A 
ATOM      3  C   UNL     1       6.391  17.181   3.468  1.00  0.00     0.012 A 
ATOM      4  C   UNL     1       7.328  14.881   2.182  1.00  0.00     0.047 A 
ATOM      5  C   UNL     1       7.723  16.784   3.621  1.00  0.00     0.047 A 
ATOM      6  C   UNL     1       8.196  15.637   2.977  1.00  0.00     0.115 A 
ENDROOT
BRANCH   1   7
ATOM      7  C   UNL     1       4.088  16.802   2.470  1.00  0.00     0.010 C 
ATOM      8  C   UNL     1       3.096  16.367   3.260  1.00  0.00     0.025 C 
BRANCH   8   9
ATOM      9  C   UNL     1       1.698  16.770   3.045  1.00  0.00     0.064 C 
ATOM     10  O   UNL     1       1.237  16.815   1.875  1.00  0.00    -0.545 OA
ATOM     11  O   UNL     1       0.875  17.106   4.114  1.00  0.00    -0.545 OA
ENDBRANCH   8   9
ENDBRANCH   1   7
BRANCH   6  12
ATOM     12  O   UNL     1       9.526  15.256   3.139  1.00  0.00    -0.508 OA
ATOM     13  H   UNL     1      10.233  15.497   2.455  1.00  0.00     0.293 HD
ENDBRANCH   6  12
TORSDOF 3
ENDMDL
MODEL 2
REMARK VINA RESULT:    -4.282     18.447     19.685
REMARK INTER + INTRA:          -5.044
REMARK INTER:                  -4.894
REMARK INTRA:                  -0.150
REMARK UNBOUND:                -0.137
REMARK SMILES O=C([O-])C=Cc1ccc(O)cc1
REMARK SMILES IDX 6 1 7 2 12 3 8 4 11 5 9 6 5 7 4 8 2 9 1 10 3 11 10 12
REMARK H PARENT 10 13
REMARK Flexibility Score: inf
ROOT
ATOM      1  C   UNL     1      17.728  21.363  16.751  1.00  0.00    -0.025 A 
ATOM      2  C   UNL     1      16.458  20.998  16.273  1.00  0.00     0.012 A 
ATOM      3  C   UNL     1      18.098  20.983  18.058  1.00  0.00     0.012 A 
ATOM      4  C   UNL     1      15.587  20.247  17.070  1.00  0.00     0.047 A 
ATOM      5  C   UNL     1      17.224  20.233  18.851  1.00  0.00     0.047 A 
ATOM      6  C   UNL     1      15.969  19.862  18.360  1.00  0.00     0.115 A 
ENDROOT
BRANCH   1   7
ATOM      7  C   UNL     1      18.612  22.169  15.873  1.00  0.00     0.010 C 
ATOM      8  C   UNL     1      18.597  22.098  14.534  1.00  0.00     0.025 C 
BRANCH   8   9
ATOM      9  C   UNL     1      19.484  22.926  13.702  1.00  0.00     0.064 C 
ATOM     10  O   UNL     1      19.898  24.030  14.144  1.00  0.00    -0.545 OA
ATOM     11  O   UNL     1      19.871  22.512  12.433  1.00  0.00    -0.545 OA
ENDBRANCH   8   9
ENDBRANCH   1   7
BRANCH   6  12
ATOM     12  O   UNL     1      15.110  19.114  19.163  1.00  0.00    -0.508 OA
ATOM     13  H   UNL     1      14.498  19.557  19.839  1.00  0.00     0.293 HD
ENDBRANCH   6  12
TORSDOF 3
ENDMDL
MODEL 3
REMARK VINA RESULT:    -4.199     10.114     11.580
REMARK INTER + INTRA:          -4.949
REMARK INTER:                  -4.809
REMARK INTRA:                  -0.141
REMARK UNBOUND:                -0.137
REMARK SMILES O=C([O-])C=Cc1ccc(O)cc1
REMARK SMILES IDX 6 1 7 2 12 3 8 4 11 5 9 6 5 7 4 8 2 9 1 10 3 11 10 12
REMARK H PARENT 10 13
REMARK Flexibility Score: inf
ROOT
ATOM      1  C   UNL     1      14.650  20.832   4.112  1.00  0.00    -0.025 A 
ATOM      2  C   UNL     1      13.251  20.939   4.020  1.00  0.00     0.012 A 
ATOM      3  C   UNL     1      15.440  21.959   3.803  1.00  0.00     0.012 A 
ATOM      4  C   UNL     1      12.653  22.149   3.653  1.00  0.00     0.047 A 
ATOM      5  C   UNL     1      14.837  23.167   3.436  1.00  0.00     0.047 A 
ATOM      6  C   UNL     1      13.444  23.266   3.363  1.00  0.00     0.115 A 
ENDROOT
BRANCH   1   7
ATOM      7  C   UNL     1      15.238  19.525   4.495  1.00  0.00     0.010 C 
ATOM      8  C   UNL     1      15.026  18.929   5.677  1.00  0.00     0.025 C 
BRANCH   8   9
ATOM      9  C   UNL     1      15.621  17.625   6.008  1.00  0.00     0.064 C 
ATOM     10  O   UNL     1      16.727  17.300   5.501  1.00  0.00    -0.545 OA
ATOM     11  O   UNL     1      14.981  16.742   6.869  1.00  0.00    -0.545 OA
ENDBRANCH   8   9
ENDBRANCH   1   7
BRANCH   6  12
ATOM     12  O   UNL     1      12.859  24.476   2.997  1.00  0.00    -0.508 OA
ATOM     13  H   UNL     1      13.241  25.363   3.302  1.00  0.00     0.293 HD
ENDBRANCH   6  12
TORSDOF 3
ENDMDL
MODEL 4
REMARK VINA RESULT:    -4.141     18.202     20.345
REMARK INTER + INTRA:          -4.883
REMARK INTER:                  -4.748
REMARK INTRA:                  -0.135
REMARK UNBOUND:                -0.137
REMARK SMILES O=C([O-])C=Cc1ccc(O)cc1
REMARK SMILES IDX 6 1 7 2 12 3 8 4 11 5 9 6 5 7 4 8 2 9 1 10 3 11 10 12
REMARK H PARENT 10 13
REMARK Flexibility Score: inf
ROOT
ATOM      1  C   UNL     1      18.721  21.174  16.962  1.00  0.00    -0.025 A 
ATOM      2  C   UNL     1      19.459  21.759  18.005  1.00  0.00     0.012 A 
ATOM      3  C   UNL     1      17.525  20.495  17.272  1.00  0.00     0.012 A 
ATOM      4  C   UNL     1      19.001  21.690  19.325  1.00  0.00     0.047 A 
ATOM      5  C   UNL     1      17.071  20.428  18.594  1.00  0.00     0.047 A 
ATOM      6  C   UNL     1      17.805  21.027  19.622  1.00  0.00     0.115 A 
ENDROOT
BRANCH   1   7
ATOM      7  C   UNL     1      19.253  21.264  15.580  1.00  0.00     0.010 C 
ATOM      8  C   UNL     1      18.527  21.663  14.526  1.00  0.00     0.025 C 
BRANCH   8   9
ATOM      9  C   UNL     1      19.101  21.749  13.174  1.00  0.00     0.064 C 
ATOM     10  O   UNL     1      18.893  20.820  12.351  1.00  0.00    -0.545 OA
ATOM     11  O   UNL     1      19.872  22.840  12.790  1.00  0.00    -0.545 OA
ENDBRANCH   8   9
ENDBRANCH   1   7
BRANCH   6  12
ATOM     12  O   UNL     1      17.340  20.952  20.933  1.00  0.00    -0.508 OA
ATOM     13  H   UNL     1      16.368  21.128  21.161  1.00  0.00     0.293 HD
ENDBRANCH   6  12
TORSDOF 3
ENDMDL
MODEL 5
REMARK VINA RESULT:    -3.899     18.359     20.627
REMARK INTER + INTRA:          -4.606
REMARK INTER:                  -4.473
REMARK INTRA:                  -0.133
REMARK UNBOUND:                -0.137
REMARK SMILES O=C([O-])C=Cc1ccc(O)cc1
REMARK SMILES IDX 6 1 7 2 12 3 8 4 11 5 9 6 5 7 4 8 2 9 1 10 3 11 10 12
REMARK H PARENT 10 13
REMARK Flexibility Score: inf
ROOT
ATOM      1  C   UNL     1      18.111  21.177  17.186  1.00  0.00    -0.025 A 
ATOM      2  C   UNL     1      17.100  21.530  16.275  1.00  0.00     0.012 A 
ATOM      3  C   UNL     1      19.438  21.070  16.720  1.00  0.00     0.012 A 
ATOM      4  C   UNL     1      17.409  21.796  14.938  1.00  0.00     0.047 A 
ATOM      5  C   UNL     1      19.741  21.336  15.381  1.00  0.00     0.047 A 
ATOM      6  C   UNL     1      18.730  21.701  14.488  1.00  0.00     0.115 A 
ENDROOT
BRANCH   1   7
ATOM      7  C   UNL     1      17.732  20.894  18.592  1.00  0.00     0.010 C 
ATOM      8  C   UNL     1      18.026  21.703  19.620  1.00  0.00     0.025 C 
BRANCH   8   9
ATOM      9  C   UNL     1      17.619  21.388  20.998  1.00  0.00     0.064 C 
ATOM     10  O   UNL     1      16.415  21.528  21.337  1.00  0.00    -0.545 OA
ATOM     11  O   UNL     1      18.543  20.940  21.935  1.00  0.00    -0.545 OA
ENDBRANCH   8   9
ENDBRANCH   1   7
BRANCH   6  12
ATOM     12  O   UNL     1      19.049  21.964  13.157  1.00  0.00    -0.508 OA
ATOM     13  H   UNL     1      18.464  21.636  12.398  1.00  0.00     0.293 HD
ENDBRANCH   6  12
TORSDOF 3
ENDMDL
MODEL 6
REMARK VINA RESULT:    -3.848      1.216      1.679
REMARK INTER + INTRA:          -4.547
REMARK INTER:                  -4.409
REMARK INTRA:                  -0.137
REMARK UNBOUND:                -0.137
REMARK SMILES O=C([O-])C=Cc1ccc(O)cc1
REMARK SMILES IDX 6 1 7 2 12 3 8 4 11 5 9 6 5 7 4 8 2 9 1 10 3 11 10 12
REMARK H PARENT 10 13
REMARK Flexibility Score: inf
ROOT
ATOM      1  C   UNL     1       6.735  16.305   3.131  1.00  0.00    -0.025 A 
ATOM      2  C   UNL     1       7.194  15.562   2.030  1.00  0.00     0.012 A 
ATOM      3  C   UNL     1       7.478  16.275   4.330  1.00  0.00     0.012 A 
ATOM      4  C   UNL     1       8.381  14.827   2.113  1.00  0.00     0.047 A 
ATOM      5  C   UNL     1       8.664  15.538   4.408  1.00  0.00     0.047 A 
ATOM      6  C   UNL     1       9.120  14.815   3.301  1.00  0.00     0.115 A 
ENDROOT
BRANCH   1   7
ATOM      7  C   UNL     1       5.465  17.060   2.998  1.00  0.00     0.010 C 
ATOM      8  C   UNL     1       4.255  16.484   2.972  1.00  0.00     0.025 C 
BRANCH   8   9
ATOM      9  C   UNL     1       3.020  17.275   2.851  1.00  0.00     0.064 C 
ATOM     10  O   UNL     1       2.063  17.057   3.640  1.00  0.00    -0.545 OA
ATOM     11  O   UNL     1       2.889  18.259   1.878  1.00  0.00    -0.545 OA
ENDBRANCH   8   9
ENDBRANCH   1   7
BRANCH   6  12
ATOM     12  O   UNL     1      10.304  14.086   3.396  1.00  0.00    -0.508 OA
ATOM     13  H   UNL     1      10.691  13.820   4.293  1.00  0.00     0.293 HD
ENDBRANCH   6  12
TORSDOF 3
ENDMDL
MODEL 7
REMARK VINA RESULT:    -3.595      2.279      6.573
REMARK INTER + INTRA:          -4.257
REMARK INTER:                  -4.110
REMARK INTRA:                  -0.147
REMARK UNBOUND:                -0.137
REMARK SMILES O=C([O-])C=Cc1ccc(O)cc1
REMARK SMILES IDX 6 1 7 2 12 3 8 4 11 5 9 6 5 7 4 8 2 9 1 10 3 11 10 12
REMARK H PARENT 10 13
REMARK Flexibility Score: inf
ROOT
ATOM      1  C   UNL     1       7.866  15.558   2.782  1.00  0.00    -0.025 A 
ATOM      2  C   UNL     1       7.961  16.677   3.628  1.00  0.00     0.012 A 
ATOM      3  C   UNL     1       6.597  15.177   2.298  1.00  0.00     0.012 A 
ATOM      4  C   UNL     1       6.821  17.414   3.962  1.00  0.00     0.047 A 
ATOM      5  C   UNL     1       5.460  15.917   2.636  1.00  0.00     0.047 A 
ATOM      6  C   UNL     1       5.568  17.037   3.465  1.00  0.00     0.115 A 
ENDROOT
BRANCH   1   7
ATOM      7  C   UNL     1       9.102  14.802   2.465  1.00  0.00     0.010 C 
ATOM      8  C   UNL     1      10.059  14.527   3.363  1.00  0.00     0.025 C 
BRANCH   8   9
ATOM      9  C   UNL     1      11.264  13.762   3.006  1.00  0.00     0.064 C 
ATOM     10  O   UNL     1      11.928  14.088   1.988  1.00  0.00    -0.545 OA
ATOM     11  O   UNL     1      11.680  12.680   3.772  1.00  0.00    -0.545 OA
ENDBRANCH   8   9
ENDBRANCH   1   7
BRANCH   6  12
ATOM     12  O   UNL     1       4.425  17.764   3.792  1.00  0.00    -0.508 OA
ATOM     13  H   UNL     1       3.576  17.305   4.100  1.00  0.00     0.293 HD
ENDBRANCH   6  12
TORSDOF 3
ENDMDL
MODEL 8
REMARK VINA RESULT:    -3.562     10.329     13.686
REMARK INTER + INTRA:          -4.220
REMARK INTER:                  -4.072
REMARK INTRA:                  -0.148
REMARK UNBOUND:                -0.137
REMARK SMILES O=C([O-])C=Cc1ccc(O)cc1
REMARK SMILES IDX 6 1 7 2 12 3 8 4 11 5 9 6 5 7 4 8 2 9 1 10 3 11 10 12
REMARK H PARENT 10 13
REMARK Flexibility Score: inf
ROOT
ATOM      1  C   UNL     1      16.016  21.515   4.878  1.00  0.00    -0.025 A 
ATOM      2  C   UNL     1      15.837  22.557   3.952  1.00  0.00     0.012 A 
ATOM      3  C   UNL     1      15.117  20.428   4.861  1.00  0.00     0.012 A 
ATOM      4  C   UNL     1      14.801  22.505   3.014  1.00  0.00     0.047 A 
ATOM      5  C   UNL     1      14.082  20.381   3.921  1.00  0.00     0.047 A 
ATOM      6  C   UNL     1      13.923  21.416   2.995  1.00  0.00     0.115 A 
ENDROOT
BRANCH   1   7
ATOM      7  C   UNL     1      17.122  21.620   5.861  1.00  0.00     0.010 C 
ATOM      8  C   UNL     1      17.553  22.780   6.376  1.00  0.00     0.025 C 
BRANCH   8   9
ATOM      9  C   UNL     1      18.646  22.836   7.359  1.00  0.00     0.064 C 
ATOM     10  O   UNL     1      19.275  23.913   7.529  1.00  0.00    -0.545 OA
ATOM     11  O   UNL     1      19.001  21.716   8.103  1.00  0.00    -0.545 OA
ENDBRANCH   8   9
ENDBRANCH   1   7
BRANCH   6  12
ATOM     12  O   UNL     1      12.887  21.353   2.065  1.00  0.00    -0.508 OA
ATOM     13  H   UNL     1      12.760  22.075   1.364  1.00  0.00     0.293 HD
ENDBRANCH   6  12
TORSDOF 3
ENDMDL
MODEL 9
REMARK VINA RESULT:    -3.490     17.260     19.144
REMARK INTER + INTRA:          -4.137
REMARK INTER:                  -3.995
REMARK INTRA:                  -0.141
REMARK UNBOUND:                -0.137
REMARK SMILES O=C([O-])C=Cc1ccc(O)cc1
REMARK SMILES IDX 6 1 7 2 12 3 8 4 11 5 9 6 5 7 4 8 2 9 1 10 3 11 10 12
REMARK H PARENT 10 13
REMARK Flexibility Score: inf
ROOT
ATOM      1  C   UNL     1      19.009  21.582  14.711  1.00  0.00    -0.025 A 
ATOM      2  C   UNL     1      17.647  21.836  14.944  1.00  0.00     0.012 A 
ATOM      3  C   UNL     1      19.855  21.343  15.814  1.00  0.00     0.012 A 
ATOM      4  C   UNL     1      17.134  21.826  16.245  1.00  0.00     0.047 A 
ATOM      5  C   UNL     1      19.338  21.335  17.113  1.00  0.00     0.047 A 
ATOM      6  C   UNL     1      17.978  21.573  17.332  1.00  0.00     0.115 A 
ENDROOT
BRANCH   1   7
ATOM      7  C   UNL     1      19.508  21.615  13.314  1.00  0.00     0.010 C 
ATOM      8  C   UNL     1      19.104  20.767  12.358  1.00  0.00     0.025 C 
BRANCH   8   9
ATOM      9  C   UNL     1      19.617  20.844  10.981  1.00  0.00     0.064 C 
ATOM     10  O   UNL     1      20.205  21.888  10.596  1.00  0.00    -0.545 OA
ATOM     11  O   UNL     1      19.462  19.784  10.096  1.00  0.00    -0.545 OA
ENDBRANCH   8   9
ENDBRANCH   1   7
BRANCH   6  12
ATOM     12  O   UNL     1      17.478  21.561  18.632  1.00  0.00    -0.508 OA
ATOM     13  H   UNL     1      17.843  22.181  19.346  1.00  0.00     0.293 HD
ENDBRANCH   6  12
TORSDOF 3
ENDMDL
