MODEL 1
REMARK VINA RESULT:    14.616      0.000      0.000
REMARK INTER + INTRA:          17.210
REMARK INTER:                  17.607
REMARK INTRA:                  -0.397
REMARK UNBOUND:                -0.397
REMARK SMILES Oc1cc(O)c2c(c1)O[C@@H](c1ccc(O)c(O)c1)[C@H](O)C2
REMARK SMILES IDX 21 1 19 2 10 3 9 4 7 5 8 6 2 7 3 8 4 9 6 10 20 11 11 13
REMARK SMILES IDX 18 14 12 15 16 16 13 17 14 18 17 19 15 21 5 23 1 25
REMARK H PARENT 20 12 17 20 15 22 5 24 1 26
REMARK Flexibility Score: inf
ROOT
ATOM      1  C   UNL     1     -10.134  -3.968  -0.052  1.00  0.00     0.079 C 
ATOM      2  C   UNL     1      -9.447  -5.233   0.483  1.00  0.00     0.164 C 
ATOM      3  C   UNL     1      -8.031  -5.440  -0.125  1.00  0.00     0.232 C 
ATOM      4  O   UNL     1      -7.281  -4.217  -0.093  1.00  0.00    -0.482 OA
ATOM      5  C   UNL     1      -7.841  -2.941   0.070  1.00  0.00     0.131 A 
ATOM      6  C   UNL     1      -6.990  -1.858   0.290  1.00  0.00     0.093 A 
ATOM      7  C   UNL     1      -7.521  -0.587   0.546  1.00  0.00     0.122 A 
ATOM      8  C   UNL     1      -8.901  -0.382   0.460  1.00  0.00     0.092 A 
ATOM      9  C   UNL     1      -9.762  -1.452   0.182  1.00  0.00     0.126 A 
ATOM     10  C   UNL     1      -9.237  -2.759   0.067  1.00  0.00     0.039 A 
ENDROOT
BRANCH   2  11
ATOM     11  O   UNL     1     -10.276  -6.346   0.252  1.00  0.00    -0.389 OA
ATOM     12  H   UNL     1     -10.064  -6.706  -0.650  1.00  0.00     0.211 HD
ENDBRANCH   2  11
BRANCH   3  13
ATOM     13  C   UNL     1      -7.277  -6.527   0.643  1.00  0.00    -0.001 A 
ATOM     14  C   UNL     1      -6.811  -7.693  -0.006  1.00  0.00     0.057 A 
ATOM     15  C   UNL     1      -6.946  -6.340   2.001  1.00  0.00     0.012 A 
ATOM     16  C   UNL     1      -5.984  -8.605   0.663  1.00  0.00     0.157 A 
ATOM     17  C   UNL     1      -6.103  -7.237   2.661  1.00  0.00     0.050 A 
ATOM     18  C   UNL     1      -5.626  -8.373   2.002  1.00  0.00     0.157 A 
BRANCH  16  19
ATOM     19  O   UNL     1      -5.517  -9.740   0.002  1.00  0.00    -0.504 OA
ATOM     20  H   UNL     1      -5.986 -10.635   0.083  1.00  0.00     0.293 HD
ENDBRANCH  16  19
BRANCH  18  21
ATOM     21  O   UNL     1      -4.805  -9.267   2.695  1.00  0.00    -0.504 OA
ATOM     22  H   UNL     1      -5.133  -9.792   3.499  1.00  0.00     0.293 HD
ENDBRANCH  18  21
ENDBRANCH   3  13
BRANCH   9  23
ATOM     23  O   UNL     1     -11.123  -1.175   0.009  1.00  0.00    -0.507 OA
ATOM     24  H   UNL     1     -11.504  -0.781  -0.839  1.00  0.00     0.293 HD
ENDBRANCH   9  23
BRANCH   7  25
ATOM     25  O   UNL     1      -6.685   0.467   0.904  1.00  0.00    -0.508 OA
ATOM     26  H   UNL     1      -6.246   1.042   0.196  1.00  0.00     0.293 HD
ENDBRANCH   7  25
TORSDOF 6
ENDMDL
MODEL 2
REMARK VINA RESULT:    15.541      1.418      6.745
REMARK INTER + INTRA:          18.324
REMARK INTER:                  18.427
REMARK INTRA:                  -0.102
REMARK UNBOUND:                -0.397
REMARK SMILES Oc1cc(O)c2c(c1)O[C@@H](c1ccc(O)c(O)c1)[C@H](O)C2
REMARK SMILES IDX 21 1 19 2 10 3 9 4 7 5 8 6 2 7 3 8 4 9 6 10 20 11 11 13
REMARK SMILES IDX 18 14 12 15 16 16 13 17 14 18 17 19 15 21 5 23 1 25
REMARK H PARENT 20 12 17 20 15 22 5 24 1 26
REMARK Flexibility Score: inf
ROOT
ATOM      1  C   UNL     1      -7.918  -7.671   0.552  1.00  0.00     0.079 C 
ATOM      2  C   UNL     1      -8.336  -6.237   0.196  1.00  0.00     0.164 C 
ATOM      3  C   UNL     1      -8.000  -5.224   1.327  1.00  0.00     0.232 C 
ATOM      4  O   UNL     1      -6.662  -5.423   1.806  1.00  0.00    -0.482 OA
ATOM      5  C   UNL     1      -5.906  -6.586   1.600  1.00  0.00     0.131 A 
ATOM      6  C   UNL     1      -4.552  -6.574   1.935  1.00  0.00     0.093 A 
ATOM      7  C   UNL     1      -3.749  -7.688   1.659  1.00  0.00     0.122 A 
ATOM      8  C   UNL     1      -4.331  -8.856   1.158  1.00  0.00     0.092 A 
ATOM      9  C   UNL     1      -5.702  -8.899   0.872  1.00  0.00     0.126 A 
ATOM     10  C   UNL     1      -6.483  -7.730   1.015  1.00  0.00     0.039 A 
ENDROOT
BRANCH   2  11
ATOM     11  O   UNL     1      -9.706  -6.217  -0.125  1.00  0.00    -0.389 OA
ATOM     12  H   UNL     1     -10.134  -5.489   0.399  1.00  0.00     0.211 HD
ENDBRANCH   2  11
BRANCH   3  13
ATOM     13  C   UNL     1      -8.159  -3.790   0.820  1.00  0.00    -0.001 A 
ATOM     14  C   UNL     1      -9.434  -3.251   0.535  1.00  0.00     0.057 A 
ATOM     15  C   UNL     1      -7.036  -2.942   0.719  1.00  0.00     0.012 A 
ATOM     16  C   UNL     1      -9.587  -1.892   0.229  1.00  0.00     0.157 A 
ATOM     17  C   UNL     1      -7.191  -1.583   0.436  1.00  0.00     0.050 A 
ATOM     18  C   UNL     1      -8.458  -1.054   0.182  1.00  0.00     0.157 A 
BRANCH  16  19
ATOM     19  O   UNL     1     -10.854  -1.372  -0.030  1.00  0.00    -0.504 OA
ATOM     20  H   UNL     1     -11.601  -1.424   0.655  1.00  0.00     0.293 HD
ENDBRANCH  16  19
BRANCH  18  21
ATOM     21  O   UNL     1      -8.581   0.304  -0.124  1.00  0.00    -0.504 OA
ATOM     22  H   UNL     1      -9.144   0.636  -0.900  1.00  0.00     0.293 HD
ENDBRANCH  18  21
ENDBRANCH   3  13
BRANCH   9  23
ATOM     23  O   UNL     1      -6.252 -10.121   0.467  1.00  0.00    -0.507 OA
ATOM     24  H   UNL     1      -5.732 -10.818  -0.048  1.00  0.00     0.293 HD
ENDBRANCH   9  23
BRANCH   7  25
ATOM     25  O   UNL     1      -2.372  -7.632   1.862  1.00  0.00    -0.508 OA
ATOM     26  H   UNL     1      -1.976  -7.011   2.556  1.00  0.00     0.293 HD
ENDBRANCH   7  25
TORSDOF 6
ENDMDL
