MODEL 1
REMARK VINA RESULT:    -3.918      0.000      0.000
REMARK INTER + INTRA:          -4.358
REMARK INTER:                  -4.262
REMARK INTRA:                  -0.097
REMARK UNBOUND:                -0.097
REMARK SMILES C=C(C)[C@H]1CC=C(C)[C@@H](O)C1
REMARK SMILES IDX 8 1 7 2 6 3 5 4 4 5 11 6 9 7 10 8 2 10 1 11 3 12
REMARK H PARENT 10 9
REMARK Flexibility Score: inf
ROOT
ATOM      1  C   UNL     1       9.206   0.446  24.191  1.00  0.00     0.042 C 
ATOM      2  C   UNL     1       8.205  -0.676  24.287  1.00  0.00    -0.049 C 
ATOM      3  C   UNL     1       6.926  -0.371  24.604  1.00  0.00    -0.025 C 
ATOM      4  C   UNL     1       5.838  -1.408  24.730  1.00  0.00     0.035 C 
ATOM      5  C   UNL     1       6.164  -2.678  23.929  1.00  0.00     0.021 C 
ATOM      6  C   UNL     1       7.584  -3.151  24.269  1.00  0.00     0.044 C 
ATOM      7  C   UNL     1       8.620  -2.081  23.875  1.00  0.00     0.140 C 
ENDROOT
BRANCH   7   8
ATOM      8  O   UNL     1       9.855  -2.395  24.462  1.00  0.00    -0.389 OA
ATOM      9  H   UNL     1      10.355  -2.944  23.803  1.00  0.00     0.211 HD
ENDBRANCH   7   8
BRANCH   5  10
ATOM     10  C   UNL     1       5.133  -3.770  24.179  1.00  0.00    -0.077 C 
ATOM     11  C   UNL     1       5.519  -4.963  24.661  1.00  0.00     0.008 C 
ATOM     12  C   UNL     1       3.668  -3.552  23.889  1.00  0.00     0.039 C 
ENDBRANCH   5  10
TORSDOF 2
ENDMDL
MODEL 2
REMARK VINA RESULT:    -3.365     18.775     21.372
REMARK INTER + INTRA:          -3.756
REMARK INTER:                  -3.670
REMARK INTRA:                  -0.086
REMARK UNBOUND:                -0.097
REMARK SMILES C=C(C)[C@H]1CC=C(C)[C@@H](O)C1
REMARK SMILES IDX 8 1 7 2 6 3 5 4 4 5 11 6 9 7 10 8 2 10 1 11 3 12
REMARK H PARENT 10 9
REMARK Flexibility Score: inf
ROOT
ATOM      1  C   UNL     1      13.370  12.575  33.596  1.00  0.00     0.042 C 
ATOM      2  C   UNL     1      13.935  12.720  34.985  1.00  0.00    -0.049 C 
ATOM      3  C   UNL     1      14.578  13.867  35.301  1.00  0.00    -0.025 C 
ATOM      4  C   UNL     1      15.186  14.125  36.657  1.00  0.00     0.035 C 
ATOM      5  C   UNL     1      14.524  13.273  37.751  1.00  0.00     0.021 C 
ATOM      6  C   UNL     1      14.480  11.805  37.304  1.00  0.00     0.044 C 
ATOM      7  C   UNL     1      13.632  11.653  36.028  1.00  0.00     0.140 C 
ENDROOT
BRANCH   7   8
ATOM      8  O   UNL     1      13.853  10.382  35.474  1.00  0.00    -0.389 OA
ATOM      9  H   UNL     1      14.000  10.515  34.500  1.00  0.00     0.211 HD
ENDBRANCH   7   8
BRANCH   5  10
ATOM     10  C   UNL     1      15.238  13.432  39.086  1.00  0.00    -0.077 C 
ATOM     11  C   UNL     1      14.660  14.122  40.082  1.00  0.00     0.008 C 
ATOM     12  C   UNL     1      16.604  12.835  39.324  1.00  0.00     0.039 C 
ENDBRANCH   5  10
TORSDOF 2
ENDMDL
MODEL 3
REMARK VINA RESULT:    -2.770     18.742     21.336
REMARK INTER + INTRA:          -3.109
REMARK INTER:                  -3.023
REMARK INTRA:                  -0.086
REMARK UNBOUND:                -0.097
REMARK SMILES C=C(C)[C@H]1CC=C(C)[C@@H](O)C1
REMARK SMILES IDX 8 1 7 2 6 3 5 4 4 5 11 6 9 7 10 8 2 10 1 11 3 12
REMARK H PARENT 10 9
REMARK Flexibility Score: inf
ROOT
ATOM      1  C   UNL     1      13.836  11.501  33.533  1.00  0.00     0.042 C 
ATOM      2  C   UNL     1      14.096  12.039  34.916  1.00  0.00    -0.049 C 
ATOM      3  C   UNL     1      14.452  11.170  35.888  1.00  0.00    -0.025 C 
ATOM      4  C   UNL     1      14.736  11.591  37.308  1.00  0.00     0.035 C 
ATOM      5  C   UNL     1      15.144  13.070  37.394  1.00  0.00     0.021 C 
ATOM      6  C   UNL     1      14.128  13.930  36.629  1.00  0.00     0.044 C 
ATOM      7  C   UNL     1      14.107  13.546  35.138  1.00  0.00     0.140 C 
ENDROOT
BRANCH   7   8
ATOM      8  O   UNL     1      12.979  14.116  34.529  1.00  0.00    -0.389 OA
ATOM      9  H   UNL     1      13.146  15.093  34.473  1.00  0.00     0.211 HD
ENDBRANCH   7   8
BRANCH   5  10
ATOM     10  C   UNL     1      15.287  13.523  38.841  1.00  0.00    -0.077 C 
ATOM     11  C   UNL     1      16.461  13.384  39.477  1.00  0.00     0.008 C 
ATOM     12  C   UNL     1      14.126  14.125  39.595  1.00  0.00     0.039 C 
ENDBRANCH   5  10
TORSDOF 2
ENDMDL
MODEL 4
REMARK VINA RESULT:    -2.343     19.546     21.983
REMARK INTER + INTRA:          -2.646
REMARK INTER:                  -2.551
REMARK INTRA:                  -0.095
REMARK UNBOUND:                -0.097
REMARK SMILES C=C(C)[C@H]1CC=C(C)[C@@H](O)C1
REMARK SMILES IDX 8 1 7 2 6 3 5 4 4 5 11 6 9 7 10 8 2 10 1 11 3 12
REMARK H PARENT 10 9
REMARK Flexibility Score: inf
ROOT
ATOM      1  C   UNL     1      16.663  13.172  40.532  1.00  0.00     0.042 C 
ATOM      2  C   UNL     1      15.977  13.174  39.190  1.00  0.00    -0.049 C 
ATOM      3  C   UNL     1      16.737  13.046  38.079  1.00  0.00    -0.025 C 
ATOM      4  C   UNL     1      16.163  13.037  36.685  1.00  0.00     0.035 C 
ATOM      5  C   UNL     1      14.688  12.606  36.677  1.00  0.00     0.021 C 
ATOM      6  C   UNL     1      13.908  13.422  37.718  1.00  0.00     0.044 C 
ATOM      7  C   UNL     1      14.456  13.159  39.133  1.00  0.00     0.140 C 
ENDROOT
BRANCH   7   8
ATOM      8  O   UNL     1      13.945  14.125  40.013  1.00  0.00    -0.389 OA
ATOM      9  H   UNL     1      14.609  14.864  40.045  1.00  0.00     0.211 HD
ENDBRANCH   7   8
BRANCH   5  10
ATOM     10  C   UNL     1      14.079  12.739  35.288  1.00  0.00    -0.077 C 
ATOM     11  C   UNL     1      13.757  13.951  34.807  1.00  0.00     0.008 C 
ATOM     12  C   UNL     1      13.815  11.529  34.424  1.00  0.00     0.039 C 
ENDBRANCH   5  10
TORSDOF 2
ENDMDL
MODEL 5
REMARK VINA RESULT:    -2.341     20.076     22.466
REMARK INTER + INTRA:          -2.643
REMARK INTER:                  -2.557
REMARK INTRA:                  -0.086
REMARK UNBOUND:                -0.097
REMARK SMILES C=C(C)[C@H]1CC=C(C)[C@@H](O)C1
REMARK SMILES IDX 8 1 7 2 6 3 5 4 4 5 11 6 9 7 10 8 2 10 1 11 3 12
REMARK H PARENT 10 9
REMARK Flexibility Score: inf
ROOT
ATOM      1  C   UNL     1      15.660  14.125  41.382  1.00  0.00     0.042 C 
ATOM      2  C   UNL     1      15.365  13.762  39.950  1.00  0.00    -0.049 C 
ATOM      3  C   UNL     1      14.138  14.044  39.455  1.00  0.00    -0.025 C 
ATOM      4  C   UNL     1      13.727  13.726  38.039  1.00  0.00     0.035 C 
ATOM      5  C   UNL     1      14.941  13.614  37.104  1.00  0.00     0.021 C 
ATOM      6  C   UNL     1      15.985  12.677  37.725  1.00  0.00     0.044 C 
ATOM      7  C   UNL     1      16.490  13.241  39.066  1.00  0.00     0.140 C 
ENDROOT
BRANCH   7   8
ATOM      8  O   UNL     1      17.198  12.243  39.752  1.00  0.00    -0.389 OA
ATOM      9  H   UNL     1      17.733  12.700  40.453  1.00  0.00     0.211 HD
ENDBRANCH   7   8
BRANCH   5  10
ATOM     10  C   UNL     1      14.528  13.152  35.713  1.00  0.00    -0.077 C 
ATOM     11  C   UNL     1      14.347  14.049  34.731  1.00  0.00     0.008 C 
ATOM     12  C   UNL     1      14.305  11.691  35.403  1.00  0.00     0.039 C 
ENDBRANCH   5  10
TORSDOF 2
ENDMDL
MODEL 6
REMARK VINA RESULT:    -2.112     18.601     21.013
REMARK INTER + INTRA:          -2.393
REMARK INTER:                  -2.297
REMARK INTRA:                  -0.097
REMARK UNBOUND:                -0.097
REMARK SMILES C=C(C)[C@H]1CC=C(C)[C@@H](O)C1
REMARK SMILES IDX 8 1 7 2 6 3 5 4 4 5 11 6 9 7 10 8 2 10 1 11 3 12
REMARK H PARENT 10 9
REMARK Flexibility Score: inf
ROOT
ATOM      1  C   UNL     1      15.544  13.595  39.506  1.00  0.00     0.042 C 
ATOM      2  C   UNL     1      15.029  13.332  38.115  1.00  0.00    -0.049 C 
ATOM      3  C   UNL     1      13.975  12.498  37.966  1.00  0.00    -0.025 C 
ATOM      4  C   UNL     1      13.376  12.158  36.625  1.00  0.00     0.035 C 
ATOM      5  C   UNL     1      13.668  13.242  35.577  1.00  0.00     0.021 C 
ATOM      6  C   UNL     1      15.169  13.567  35.578  1.00  0.00     0.044 C 
ATOM      7  C   UNL     1      15.601  14.124  36.947  1.00  0.00     0.140 C 
ENDROOT
BRANCH   7   8
ATOM      8  O   UNL     1      17.002  14.125  37.025  1.00  0.00    -0.389 OA
ATOM      9  H   UNL     1      17.301  15.049  36.816  1.00  0.00     0.211 HD
ENDBRANCH   7   8
BRANCH   5  10
ATOM     10  C   UNL     1      13.186  12.823  34.195  1.00  0.00    -0.077 C 
ATOM     11  C   UNL     1      13.498  11.610  33.712  1.00  0.00     0.008 C 
ATOM     12  C   UNL     1      12.359  13.748  33.335  1.00  0.00     0.039 C 
ENDBRANCH   5  10
TORSDOF 2
ENDMDL
MODEL 7
REMARK VINA RESULT:    -1.501     19.245     20.475
REMARK INTER + INTRA:          -1.729
REMARK INTER:                  -1.643
REMARK INTRA:                  -0.086
REMARK UNBOUND:                -0.097
REMARK SMILES C=C(C)[C@H]1CC=C(C)[C@@H](O)C1
REMARK SMILES IDX 8 1 7 2 6 3 5 4 4 5 11 6 9 7 10 8 2 10 1 11 3 12
REMARK H PARENT 10 9
REMARK Flexibility Score: inf
ROOT
ATOM      1  C   UNL     1      14.941  11.701  38.299  1.00  0.00     0.042 C 
ATOM      2  C   UNL     1      14.536  12.267  36.963  1.00  0.00    -0.049 C 
ATOM      3  C   UNL     1      13.868  11.467  36.102  1.00  0.00    -0.025 C 
ATOM      4  C   UNL     1      13.414  11.921  34.738  1.00  0.00     0.035 C 
ATOM      5  C   UNL     1      13.259  13.448  34.667  1.00  0.00     0.021 C 
ATOM      6  C   UNL     1      14.528  14.120  35.209  1.00  0.00     0.044 C 
ATOM      7  C   UNL     1      14.747  13.749  36.688  1.00  0.00     0.140 C 
ENDROOT
BRANCH   7   8
ATOM      8  O   UNL     1      16.047  14.115  37.069  1.00  0.00    -0.389 OA
ATOM      9  H   UNL     1      16.476  13.300  37.442  1.00  0.00     0.211 HD
ENDBRANCH   7   8
BRANCH   5  10
ATOM     10  C   UNL     1      12.942  13.908  33.250  1.00  0.00    -0.077 C 
ATOM     11  C   UNL     1      11.670  14.125  32.881  1.00  0.00     0.008 C 
ATOM     12  C   UNL     1      14.034  14.124  32.230  1.00  0.00     0.039 C 
ENDBRANCH   5  10
TORSDOF 2
ENDMDL
