MODEL 1
REMARK VINA RESULT:     7.763      0.000      0.000
REMARK INTER + INTRA:           9.130
REMARK INTER:                   9.351
REMARK INTRA:                  -0.221
REMARK UNBOUND:                -0.221
REMARK SMILES Oc1cc(O)c2c(c1)O[C@@H](c1ccc(O)c(O)c1)[C@H](O)C2
REMARK SMILES IDX 21 1 19 2 10 3 9 4 7 5 8 6 2 7 3 8 4 9 6 10 20 11 11 13
REMARK SMILES IDX 18 14 12 15 16 16 13 17 14 18 17 19 15 21 5 23 1 25
REMARK H PARENT 20 12 17 20 15 22 5 24 1 26
REMARK Flexibility Score: inf
ROOT
ATOM      1  C   UNL     1     -10.790 -34.269  11.621  1.00  0.00     0.079 C 
ATOM      2  C   UNL     1     -10.629 -32.931  10.882  1.00  0.00     0.164 C 
ATOM      3  C   UNL     1      -9.575 -32.063  11.597  1.00  0.00     0.232 C 
ATOM      4  O   UNL     1      -8.342 -32.775  11.686  1.00  0.00    -0.482 OA
ATOM      5  C   UNL     1      -8.287 -34.150  11.939  1.00  0.00     0.131 A 
ATOM      6  C   UNL     1      -7.048 -34.744  12.194  1.00  0.00     0.093 A 
ATOM      7  C   UNL     1      -6.964 -36.111  12.465  1.00  0.00     0.122 A 
ATOM      8  C   UNL     1      -8.128 -36.887  12.492  1.00  0.00     0.092 A 
ATOM      9  C   UNL     1      -9.378 -36.309  12.240  1.00  0.00     0.126 A 
ATOM     10  C   UNL     1      -9.462 -34.933  11.922  1.00  0.00     0.039 A 
ENDROOT
BRANCH   2  11
ATOM     11  O   UNL     1     -11.870 -32.273  10.856  1.00  0.00    -0.389 OA
ATOM     12  H   UNL     1     -12.020 -31.899  11.764  1.00  0.00     0.211 HD
ENDBRANCH   2  11
BRANCH   3  13
ATOM     13  C   UNL     1      -9.350 -30.758  10.871  1.00  0.00    -0.001 A 
ATOM     14  C   UNL     1      -8.400 -30.668   9.841  1.00  0.00     0.057 A 
ATOM     15  C   UNL     1     -10.124 -29.631  11.185  1.00  0.00     0.012 A 
ATOM     16  C   UNL     1      -8.206 -29.469   9.143  1.00  0.00     0.157 A 
ATOM     17  C   UNL     1      -9.937 -28.432  10.496  1.00  0.00     0.050 A 
ATOM     18  C   UNL     1      -8.982 -28.335   9.477  1.00  0.00     0.157 A 
BRANCH  16  19
ATOM     19  O   UNL     1      -7.240 -29.452   8.134  1.00  0.00    -0.504 OA
ATOM     20  H   UNL     1      -7.414 -29.737   7.181  1.00  0.00     0.293 HD
ENDBRANCH  16  19
BRANCH  18  21
ATOM     21  O   UNL     1      -8.843 -27.107   8.828  1.00  0.00    -0.504 OA
ATOM     22  H   UNL     1      -9.135 -26.224   9.222  1.00  0.00     0.293 HD
ENDBRANCH  18  21
ENDBRANCH   3  13
BRANCH   9  23
ATOM     23  O   UNL     1     -10.508 -37.125  12.327  1.00  0.00    -0.507 OA
ATOM     24  H   UNL     1     -11.414 -36.860  11.962  1.00  0.00     0.293 HD
ENDBRANCH   9  23
BRANCH   7  25
ATOM     25  O   UNL     1      -5.721 -36.687  12.715  1.00  0.00    -0.508 OA
ATOM     26  H   UNL     1      -4.899 -36.426  12.180  1.00  0.00     0.293 HD
ENDBRANCH   7  25
TORSDOF 6
ENDMDL
