MODEL 1
REMARK VINA RESULT:    -6.228      0.000      0.000
REMARK INTER + INTRA:          -7.553
REMARK INTER:                  -7.320
REMARK INTRA:                  -0.233
REMARK UNBOUND:                -0.233
REMARK SMILES O=c1c(O)c(-c2ccc(O)cc2)oc2cc(O)cc(O)c12
REMARK SMILES IDX 5 1 3 2 2 3 1 4 21 5 19 6 18 7 16 8 15 9 14 10 13 11 6 12
REMARK SMILES IDX 7 13 8 14 9 15 12 16 11 17 10 18 4 20 20 22 17 24
REMARK H PARENT 10 19 4 21 20 23 17 25
REMARK Flexibility Score: inf
ROOT
ATOM      1  C   UNL     1      68.405  48.885   8.921  1.00  0.00     0.180 A 
ATOM      2  C   UNL     1      67.475  49.854   9.345  1.00  0.00     0.208 A 
ATOM      3  C   UNL     1      66.112  49.519   9.375  1.00  0.00     0.238 A 
ATOM      4  O   UNL     1      65.269  50.382   9.742  1.00  0.00    -0.285 OA
ATOM      5  C   UNL     1      65.706  48.222   9.002  1.00  0.00     0.111 A 
ATOM      6  C   UNL     1      64.353  47.803   9.008  1.00  0.00     0.134 A 
ATOM      7  C   UNL     1      64.029  46.491   8.633  1.00  0.00     0.093 A 
ATOM      8  C   UNL     1      65.028  45.592   8.252  1.00  0.00     0.123 A 
ATOM      9  C   UNL     1      66.366  45.999   8.244  1.00  0.00     0.094 A 
ATOM     10  C   UNL     1      66.709  47.303   8.613  1.00  0.00     0.146 A 
ATOM     11  O   UNL     1      67.986  47.667   8.591  1.00  0.00    -0.452 OA
ENDROOT
BRANCH   1  12
ATOM     12  C   UNL     1      69.856  49.168   8.845  1.00  0.00     0.021 A 
ATOM     13  C   UNL     1      70.729  48.558   9.762  1.00  0.00     0.016 A 
ATOM     14  C   UNL     1      72.106  48.793   9.694  1.00  0.00     0.047 A 
ATOM     15  C   UNL     1      72.628  49.628   8.699  1.00  0.00     0.115 A 
ATOM     16  C   UNL     1      70.392  49.989   7.836  1.00  0.00     0.016 A 
ATOM     17  C   UNL     1      71.769  50.222   7.769  1.00  0.00     0.047 A 
BRANCH  15  18
ATOM     18  O   UNL     1      73.998  49.870   8.622  1.00  0.00    -0.508 OA
ATOM     19  H   UNL     1      74.614  49.268   8.087  1.00  0.00     0.293 HD
ENDBRANCH  15  18
ENDBRANCH   1  12
BRANCH   2  20
ATOM     20  O   UNL     1      67.909  51.117   9.757  1.00  0.00    -0.502 OA
ATOM     21  H   UNL     1      68.586  51.242  10.499  1.00  0.00     0.293 HD
ENDBRANCH   2  20
BRANCH   6  22
ATOM     22  O   UNL     1      63.331  48.677   9.383  1.00  0.00    -0.507 OA
ATOM     23  H   UNL     1      63.315  49.119  10.294  1.00  0.00     0.293 HD
ENDBRANCH   6  22
BRANCH   8  24
ATOM     24  O   UNL     1      64.680  44.293   7.884  1.00  0.00    -0.508 OA
ATOM     25  H   UNL     1      63.817  43.867   8.201  1.00  0.00     0.293 HD
ENDBRANCH   8  24
TORSDOF 5
ENDMDL
MODEL 2
REMARK VINA RESULT:    -6.011      1.907      6.822
REMARK INTER + INTRA:          -7.298
REMARK INTER:                  -7.465
REMARK INTRA:                   0.167
REMARK UNBOUND:                -0.233
REMARK SMILES O=c1c(O)c(-c2ccc(O)cc2)oc2cc(O)cc(O)c12
REMARK SMILES IDX 5 1 3 2 2 3 1 4 21 5 19 6 18 7 16 8 15 9 14 10 13 11 6 12
REMARK SMILES IDX 7 13 8 14 9 15 12 16 11 17 10 18 4 20 20 22 17 24
REMARK H PARENT 10 19 4 21 20 23 17 25
REMARK Flexibility Score: inf
ROOT
ATOM      1  C   UNL     1      65.135  47.714   8.956  1.00  0.00     0.180 A 
ATOM      2  C   UNL     1      65.115  48.995   9.541  1.00  0.00     0.208 A 
ATOM      3  C   UNL     1      66.280  49.778   9.498  1.00  0.00     0.238 A 
ATOM      4  O   UNL     1      66.277  50.923  10.028  1.00  0.00    -0.285 OA
ATOM      5  C   UNL     1      67.432  49.278   8.859  1.00  0.00     0.111 A 
ATOM      6  C   UNL     1      68.644  50.006   8.769  1.00  0.00     0.134 A 
ATOM      7  C   UNL     1      69.746  49.443   8.107  1.00  0.00     0.093 A 
ATOM      8  C   UNL     1      69.659  48.172   7.534  1.00  0.00     0.123 A 
ATOM      9  C   UNL     1      68.465  47.449   7.619  1.00  0.00     0.094 A 
ATOM     10  C   UNL     1      67.357  47.992   8.276  1.00  0.00     0.146 A 
ATOM     11  O   UNL     1      66.236  47.282   8.348  1.00  0.00    -0.452 OA
ENDROOT
BRANCH   1  12
ATOM     12  C   UNL     1      63.954  46.822   8.976  1.00  0.00     0.021 A 
ATOM     13  C   UNL     1      63.702  45.983   7.876  1.00  0.00     0.016 A 
ATOM     14  C   UNL     1      62.605  45.117   7.883  1.00  0.00     0.047 A 
ATOM     15  C   UNL     1      61.755  45.066   8.996  1.00  0.00     0.115 A 
ATOM     16  C   UNL     1      63.107  46.750  10.097  1.00  0.00     0.016 A 
ATOM     17  C   UNL     1      62.012  45.881  10.102  1.00  0.00     0.047 A 
BRANCH  15  18
ATOM     18  O   UNL     1      60.659  44.206   9.013  1.00  0.00    -0.508 OA
ATOM     19  H   UNL     1      59.908  44.319   9.684  1.00  0.00     0.293 HD
ENDBRANCH  15  18
ENDBRANCH   1  12
BRANCH   2  20
ATOM     20  O   UNL     1      63.945  49.487  10.125  1.00  0.00    -0.502 OA
ATOM     21  H   UNL     1      63.031  49.337   9.717  1.00  0.00     0.293 HD
ENDBRANCH   2  20
BRANCH   6  22
ATOM     22  O   UNL     1      68.763  51.278   9.331  1.00  0.00    -0.507 OA
ATOM     23  H   UNL     1      69.356  51.988   8.921  1.00  0.00     0.293 HD
ENDBRANCH   6  22
BRANCH   8  24
ATOM     24  O   UNL     1      70.767  47.637   6.880  1.00  0.00    -0.508 OA
ATOM     25  H   UNL     1      71.404  47.003   7.349  1.00  0.00     0.293 HD
ENDBRANCH   8  24
TORSDOF 5
ENDMDL
MODEL 3
REMARK VINA RESULT:    -5.874      2.779      3.949
REMARK INTER + INTRA:          -7.138
REMARK INTER:                  -6.850
REMARK INTRA:                  -0.287
REMARK UNBOUND:                -0.233
REMARK SMILES O=c1c(O)c(-c2ccc(O)cc2)oc2cc(O)cc(O)c12
REMARK SMILES IDX 5 1 3 2 2 3 1 4 21 5 19 6 18 7 16 8 15 9 14 10 13 11 6 12
REMARK SMILES IDX 7 13 8 14 9 15 12 16 11 17 10 18 4 20 20 22 17 24
REMARK H PARENT 10 19 4 21 20 23 17 25
REMARK Flexibility Score: inf
ROOT
ATOM      1  C   UNL     1      70.802  48.343   7.287  1.00  0.00     0.180 A 
ATOM      2  C   UNL     1      70.996  49.448   8.138  1.00  0.00     0.208 A 
ATOM      3  C   UNL     1      69.872  50.101   8.669  1.00  0.00     0.238 A 
ATOM      4  O   UNL     1      70.035  51.099   9.424  1.00  0.00    -0.285 OA
ATOM      5  C   UNL     1      68.581  49.630   8.357  1.00  0.00     0.111 A 
ATOM      6  C   UNL     1      67.398  50.230   8.854  1.00  0.00     0.134 A 
ATOM      7  C   UNL     1      66.149  49.695   8.506  1.00  0.00     0.093 A 
ATOM      8  C   UNL     1      66.059  48.577   7.674  1.00  0.00     0.123 A 
ATOM      9  C   UNL     1      67.224  47.980   7.181  1.00  0.00     0.094 A 
ATOM     10  C   UNL     1      68.478  48.499   7.514  1.00  0.00     0.146 A 
ATOM     11  O   UNL     1      69.569  47.917   7.028  1.00  0.00    -0.452 OA
ENDROOT
BRANCH   1  12
ATOM     12  C   UNL     1      71.935  47.613   6.674  1.00  0.00     0.021 A 
ATOM     13  C   UNL     1      72.362  46.399   7.238  1.00  0.00     0.016 A 
ATOM     14  C   UNL     1      73.415  45.682   6.663  1.00  0.00     0.047 A 
ATOM     15  C   UNL     1      74.044  46.162   5.507  1.00  0.00     0.115 A 
ATOM     16  C   UNL     1      72.558  48.077   5.502  1.00  0.00     0.016 A 
ATOM     17  C   UNL     1      73.611  47.358   4.927  1.00  0.00     0.047 A 
BRANCH  15  18
ATOM     18  O   UNL     1      75.094  45.456   4.925  1.00  0.00    -0.508 OA
ATOM     19  H   UNL     1      75.780  44.966   5.488  1.00  0.00     0.293 HD
ENDBRANCH  15  18
ENDBRANCH   1  12
BRANCH   2  20
ATOM     20  O   UNL     1      72.288  49.865   8.471  1.00  0.00    -0.502 OA
ATOM     21  H   UNL     1      72.695  49.693   9.382  1.00  0.00     0.293 HD
ENDBRANCH   2  20
BRANCH   6  22
ATOM     22  O   UNL     1      67.454  51.348   9.687  1.00  0.00    -0.507 OA
ATOM     23  H   UNL     1      68.298  51.600  10.186  1.00  0.00     0.293 HD
ENDBRANCH   6  22
BRANCH   8  24
ATOM     24  O   UNL     1      64.805  48.064   7.345  1.00  0.00    -0.508 OA
ATOM     25  H   UNL     1      64.705  47.170   6.880  1.00  0.00     0.293 HD
ENDBRANCH   8  24
TORSDOF 5
ENDMDL
MODEL 4
REMARK VINA RESULT:    -5.800      2.684      6.903
REMARK INTER + INTRA:          -7.050
REMARK INTER:                  -6.759
REMARK INTRA:                  -0.291
REMARK UNBOUND:                -0.233
REMARK SMILES O=c1c(O)c(-c2ccc(O)cc2)oc2cc(O)cc(O)c12
REMARK SMILES IDX 5 1 3 2 2 3 1 4 21 5 19 6 18 7 16 8 15 9 14 10 13 11 6 12
REMARK SMILES IDX 7 13 8 14 9 15 12 16 11 17 10 18 4 20 20 22 17 24
REMARK H PARENT 10 19 4 21 20 23 17 25
REMARK Flexibility Score: inf
ROOT
ATOM      1  C   UNL     1      66.301  46.717   8.238  1.00  0.00     0.180 A 
ATOM      2  C   UNL     1      66.687  47.721   7.329  1.00  0.00     0.208 A 
ATOM      3  C   UNL     1      68.055  47.934   7.096  1.00  0.00     0.238 A 
ATOM      4  O   UNL     1      68.412  48.838   6.292  1.00  0.00    -0.285 OA
ATOM      5  C   UNL     1      69.007  47.133   7.756  1.00  0.00     0.111 A 
ATOM      6  C   UNL     1      70.404  47.281   7.573  1.00  0.00     0.134 A 
ATOM      7  C   UNL     1      71.289  46.437   8.259  1.00  0.00     0.093 A 
ATOM      8  C   UNL     1      70.807  45.450   9.123  1.00  0.00     0.123 A 
ATOM      9  C   UNL     1      69.429  45.298   9.307  1.00  0.00     0.094 A 
ATOM     10  C   UNL     1      68.531  46.131   8.634  1.00  0.00     0.146 A 
ATOM     11  O   UNL     1      67.227  45.970   8.831  1.00  0.00    -0.452 OA
ENDROOT
BRANCH   1  12
ATOM     12  C   UNL     1      64.879  46.444   8.551  1.00  0.00     0.021 A 
ATOM     13  C   UNL     1      64.225  45.374   7.918  1.00  0.00     0.016 A 
ATOM     14  C   UNL     1      62.890  45.084   8.215  1.00  0.00     0.047 A 
ATOM     15  C   UNL     1      62.197  45.850   9.161  1.00  0.00     0.115 A 
ATOM     16  C   UNL     1      64.183  47.196   9.515  1.00  0.00     0.016 A 
ATOM     17  C   UNL     1      62.848  46.903   9.811  1.00  0.00     0.047 A 
BRANCH  15  18
ATOM     18  O   UNL     1      60.867  45.570   9.465  1.00  0.00    -0.508 OA
ATOM     19  H   UNL     1      60.343  44.867   8.956  1.00  0.00     0.293 HD
ENDBRANCH  15  18
ENDBRANCH   1  12
BRANCH   2  20
ATOM     20  O   UNL     1      65.721  48.469   6.650  1.00  0.00    -0.502 OA
ATOM     21  H   UNL     1      65.232  49.243   7.082  1.00  0.00     0.293 HD
ENDBRANCH   2  20
BRANCH   6  22
ATOM     22  O   UNL     1      70.917  48.257   6.718  1.00  0.00    -0.507 OA
ATOM     23  H   UNL     1      70.368  48.645   5.961  1.00  0.00     0.293 HD
ENDBRANCH   6  22
BRANCH   8  24
ATOM     24  O   UNL     1      71.708  44.623   9.791  1.00  0.00    -0.508 OA
ATOM     25  H   UNL     1      71.565  43.621   9.848  1.00  0.00     0.293 HD
ENDBRANCH   8  24
TORSDOF 5
ENDMDL
MODEL 5
REMARK VINA RESULT:    -5.773      2.033      7.349
REMARK INTER + INTRA:          -7.018
REMARK INTER:                  -7.066
REMARK INTRA:                   0.048
REMARK UNBOUND:                -0.233
REMARK SMILES O=c1c(O)c(-c2ccc(O)cc2)oc2cc(O)cc(O)c12
REMARK SMILES IDX 5 1 3 2 2 3 1 4 21 5 19 6 18 7 16 8 15 9 14 10 13 11 6 12
REMARK SMILES IDX 7 13 8 14 9 15 12 16 11 17 10 18 4 20 20 22 17 24
REMARK H PARENT 10 19 4 21 20 23 17 25
REMARK Flexibility Score: inf
ROOT
ATOM      1  C   UNL     1      65.401  46.910   8.858  1.00  0.00     0.180 A 
ATOM      2  C   UNL     1      66.579  46.229   8.496  1.00  0.00     0.208 A 
ATOM      3  C   UNL     1      67.782  46.950   8.420  1.00  0.00     0.238 A 
ATOM      4  O   UNL     1      68.842  46.352   8.086  1.00  0.00    -0.285 OA
ATOM      5  C   UNL     1      67.791  48.326   8.723  1.00  0.00     0.111 A 
ATOM      6  C   UNL     1      68.961  49.122   8.674  1.00  0.00     0.134 A 
ATOM      7  C   UNL     1      68.890  50.484   9.000  1.00  0.00     0.093 A 
ATOM      8  C   UNL     1      67.675  51.064   9.374  1.00  0.00     0.123 A 
ATOM      9  C   UNL     1      66.516  50.284   9.426  1.00  0.00     0.094 A 
ATOM     10  C   UNL     1      66.566  48.925   9.102  1.00  0.00     0.146 A 
ATOM     11  O   UNL     1      65.450  48.206   9.153  1.00  0.00    -0.452 OA
ENDROOT
BRANCH   1  12
ATOM     12  C   UNL     1      64.091  46.225   8.943  1.00  0.00     0.021 A 
ATOM     13  C   UNL     1      63.245  46.483  10.036  1.00  0.00     0.016 A 
ATOM     14  C   UNL     1      61.994  45.865  10.125  1.00  0.00     0.047 A 
ATOM     15  C   UNL     1      61.567  44.993   9.116  1.00  0.00     0.115 A 
ATOM     16  C   UNL     1      63.646  45.364   7.924  1.00  0.00     0.016 A 
ATOM     17  C   UNL     1      62.394  44.748   8.015  1.00  0.00     0.047 A 
BRANCH  15  18
ATOM     18  O   UNL     1      60.323  44.371   9.194  1.00  0.00    -0.508 OA
ATOM     19  H   UNL     1      59.643  44.633   9.898  1.00  0.00     0.293 HD
ENDBRANCH  15  18
ENDBRANCH   1  12
BRANCH   2  20
ATOM     20  O   UNL     1      66.553  44.854   8.249  1.00  0.00    -0.502 OA
ATOM     21  H   UNL     1      66.623  44.168   8.990  1.00  0.00     0.293 HD
ENDBRANCH   2  20
BRANCH   6  22
ATOM     22  O   UNL     1      70.190  48.572   8.304  1.00  0.00    -0.507 OA
ATOM     23  H   UNL     1      70.450  48.455   7.333  1.00  0.00     0.293 HD
ENDBRANCH   6  22
BRANCH   8  24
ATOM     24  O   UNL     1      67.633  52.420   9.695  1.00  0.00    -0.508 OA
ATOM     25  H   UNL     1      68.336  53.067   9.357  1.00  0.00     0.293 HD
ENDBRANCH   8  24
TORSDOF 5
ENDMDL
MODEL 6
REMARK VINA RESULT:    -5.697      2.726      6.962
REMARK INTER + INTRA:          -6.929
REMARK INTER:                  -6.679
REMARK INTRA:                  -0.250
REMARK UNBOUND:                -0.233
REMARK SMILES O=c1c(O)c(-c2ccc(O)cc2)oc2cc(O)cc(O)c12
REMARK SMILES IDX 5 1 3 2 2 3 1 4 21 5 19 6 18 7 16 8 15 9 14 10 13 11 6 12
REMARK SMILES IDX 7 13 8 14 9 15 12 16 11 17 10 18 4 20 20 22 17 24
REMARK H PARENT 10 19 4 21 20 23 17 25
REMARK Flexibility Score: inf
ROOT
ATOM      1  C   UNL     1      69.852  48.015   8.051  1.00  0.00     0.180 A 
ATOM      2  C   UNL     1      70.686  48.996   8.621  1.00  0.00     0.208 A 
ATOM      3  C   UNL     1      72.076  48.881   8.461  1.00  0.00     0.238 A 
ATOM      4  O   UNL     1      72.834  49.748   8.976  1.00  0.00    -0.285 OA
ATOM      5  C   UNL     1      72.605  47.804   7.721  1.00  0.00     0.111 A 
ATOM      6  C   UNL     1      73.993  47.619   7.510  1.00  0.00     0.134 A 
ATOM      7  C   UNL     1      74.442  46.526   6.752  1.00  0.00     0.093 A 
ATOM      8  C   UNL     1      73.532  45.618   6.204  1.00  0.00     0.123 A 
ATOM      9  C   UNL     1      72.160  45.797   6.409  1.00  0.00     0.094 A 
ATOM     10  C   UNL     1      71.694  46.878   7.162  1.00  0.00     0.146 A 
ATOM     11  O   UNL     1      70.386  47.021   7.346  1.00  0.00    -0.452 OA
ENDROOT
BRANCH   1  12
ATOM     12  C   UNL     1      68.379  48.057   8.192  1.00  0.00     0.021 A 
ATOM     13  C   UNL     1      67.588  48.408   7.084  1.00  0.00     0.016 A 
ATOM     14  C   UNL     1      66.194  48.432   7.189  1.00  0.00     0.047 A 
ATOM     15  C   UNL     1      65.573  48.090   8.396  1.00  0.00     0.115 A 
ATOM     16  C   UNL     1      67.746  47.695   9.395  1.00  0.00     0.016 A 
ATOM     17  C   UNL     1      66.352  47.718   9.496  1.00  0.00     0.047 A 
BRANCH  15  18
ATOM     18  O   UNL     1      64.185  48.110   8.512  1.00  0.00    -0.508 OA
ATOM     19  H   UNL     1      63.646  48.940   8.291  1.00  0.00     0.293 HD
ENDBRANCH  15  18
ENDBRANCH   1  12
BRANCH   2  20
ATOM     20  O   UNL     1      70.134  50.081   9.308  1.00  0.00    -0.502 OA
ATOM     21  H   UNL     1      69.554  49.964  10.129  1.00  0.00     0.293 HD
ENDBRANCH   2  20
BRANCH   6  22
ATOM     22  O   UNL     1      74.927  48.507   8.044  1.00  0.00    -0.507 OA
ATOM     23  H   UNL     1      75.791  48.726   7.562  1.00  0.00     0.293 HD
ENDBRANCH   6  22
BRANCH   8  24
ATOM     24  O   UNL     1      74.003  44.542   5.454  1.00  0.00    -0.508 OA
ATOM     25  H   UNL     1      73.640  43.606   5.586  1.00  0.00     0.293 HD
ENDBRANCH   8  24
TORSDOF 5
ENDMDL
MODEL 7
REMARK VINA RESULT:    -5.450      5.046      8.576
REMARK INTER + INTRA:          -6.639
REMARK INTER:                  -6.385
REMARK INTRA:                  -0.254
REMARK UNBOUND:                -0.233
REMARK SMILES O=c1c(O)c(-c2ccc(O)cc2)oc2cc(O)cc(O)c12
REMARK SMILES IDX 5 1 3 2 2 3 1 4 21 5 19 6 18 7 16 8 15 9 14 10 13 11 6 12
REMARK SMILES IDX 7 13 8 14 9 15 12 16 11 17 10 18 4 20 20 22 17 24
REMARK H PARENT 10 19 4 21 20 23 17 25
REMARK Flexibility Score: inf
ROOT
ATOM      1  C   UNL     1      71.362  44.721   6.790  1.00  0.00     0.180 A 
ATOM      2  C   UNL     1      71.845  44.777   5.468  1.00  0.00     0.208 A 
ATOM      3  C   UNL     1      72.671  45.849   5.093  1.00  0.00     0.238 A 
ATOM      4  O   UNL     1      73.100  45.915   3.909  1.00  0.00    -0.285 OA
ATOM      5  C   UNL     1      73.015  46.829   6.045  1.00  0.00     0.111 A 
ATOM      6  C   UNL     1      73.845  47.938   5.749  1.00  0.00     0.134 A 
ATOM      7  C   UNL     1      74.150  48.867   6.755  1.00  0.00     0.093 A 
ATOM      8  C   UNL     1      73.643  48.710   8.047  1.00  0.00     0.123 A 
ATOM      9  C   UNL     1      72.822  47.617   8.346  1.00  0.00     0.094 A 
ATOM     10  C   UNL     1      72.506  46.682   7.357  1.00  0.00     0.146 A 
ATOM     11  O   UNL     1      71.720  45.656   7.665  1.00  0.00    -0.452 OA
ENDROOT
BRANCH   1  12
ATOM     12  C   UNL     1      70.472  43.633   7.256  1.00  0.00     0.021 A 
ATOM     13  C   UNL     1      71.024  42.388   7.602  1.00  0.00     0.016 A 
ATOM     14  C   UNL     1      70.205  41.354   8.066  1.00  0.00     0.047 A 
ATOM     15  C   UNL     1      68.826  41.558   8.205  1.00  0.00     0.115 A 
ATOM     16  C   UNL     1      69.089  43.836   7.418  1.00  0.00     0.016 A 
ATOM     17  C   UNL     1      68.272  42.801   7.884  1.00  0.00     0.047 A 
BRANCH  15  18
ATOM     18  O   UNL     1      68.000  40.535   8.666  1.00  0.00    -0.508 OA
ATOM     19  H   UNL     1      66.992  40.588   8.580  1.00  0.00     0.293 HD
ENDBRANCH  15  18
ENDBRANCH   1  12
BRANCH   2  20
ATOM     20  O   UNL     1      71.529  43.766   4.557  1.00  0.00    -0.502 OA
ATOM     21  H   UNL     1      70.693  43.201   4.641  1.00  0.00     0.293 HD
ENDBRANCH   2  20
BRANCH   6  22
ATOM     22  O   UNL     1      74.368  48.123   4.468  1.00  0.00    -0.507 OA
ATOM     23  H   UNL     1      74.792  47.363   3.951  1.00  0.00     0.293 HD
ENDBRANCH   6  22
BRANCH   8  24
ATOM     24  O   UNL     1      73.962  49.646   9.029  1.00  0.00    -0.508 OA
ATOM     25  H   UNL     1      74.922  49.817   9.305  1.00  0.00     0.293 HD
ENDBRANCH   8  24
TORSDOF 5
ENDMDL
MODEL 8
REMARK VINA RESULT:    -5.447      2.463      7.301
REMARK INTER + INTRA:          -6.635
REMARK INTER:                  -6.340
REMARK INTRA:                  -0.296
REMARK UNBOUND:                -0.233
REMARK SMILES O=c1c(O)c(-c2ccc(O)cc2)oc2cc(O)cc(O)c12
REMARK SMILES IDX 5 1 3 2 2 3 1 4 21 5 19 6 18 7 16 8 15 9 14 10 13 11 6 12
REMARK SMILES IDX 7 13 8 14 9 15 12 16 11 17 10 18 4 20 20 22 17 24
REMARK H PARENT 10 19 4 21 20 23 17 25
REMARK Flexibility Score: inf
ROOT
ATOM      1  C   UNL     1      69.001  47.077   8.016  1.00  0.00     0.180 A 
ATOM      2  C   UNL     1      69.474  45.864   7.479  1.00  0.00     0.208 A 
ATOM      3  C   UNL     1      70.855  45.702   7.286  1.00  0.00     0.238 A 
ATOM      4  O   UNL     1      71.290  44.624   6.796  1.00  0.00    -0.285 OA
ATOM      5  C   UNL     1      71.736  46.741   7.647  1.00  0.00     0.111 A 
ATOM      6  C   UNL     1      73.141  46.655   7.488  1.00  0.00     0.134 A 
ATOM      7  C   UNL     1      73.952  47.729   7.882  1.00  0.00     0.093 A 
ATOM      8  C   UNL     1      73.389  48.884   8.431  1.00  0.00     0.123 A 
ATOM      9  C   UNL     1      72.002  48.975   8.591  1.00  0.00     0.094 A 
ATOM     10  C   UNL     1      71.177  47.916   8.203  1.00  0.00     0.146 A 
ATOM     11  O   UNL     1      69.862  48.029   8.360  1.00  0.00    -0.452 OA
ENDROOT
BRANCH   1  12
ATOM     12  C   UNL     1      67.558  47.331   8.232  1.00  0.00     0.021 A 
ATOM     13  C   UNL     1      66.976  47.004   9.469  1.00  0.00     0.016 A 
ATOM     14  C   UNL     1      65.621  47.255   9.703  1.00  0.00     0.047 A 
ATOM     15  C   UNL     1      64.835  47.852   8.710  1.00  0.00     0.115 A 
ATOM     16  C   UNL     1      66.766  47.948   7.248  1.00  0.00     0.016 A 
ATOM     17  C   UNL     1      65.411  48.200   7.485  1.00  0.00     0.047 A 
BRANCH  15  18
ATOM     18  O   UNL     1      63.483  48.107   8.932  1.00  0.00    -0.508 OA
ATOM     19  H   UNL     1      63.108  48.198   9.869  1.00  0.00     0.293 HD
ENDBRANCH  15  18
ENDBRANCH   1  12
BRANCH   2  20
ATOM     20  O   UNL     1      68.584  44.830   7.175  1.00  0.00    -0.502 OA
ATOM     21  H   UNL     1      67.631  44.818   7.515  1.00  0.00     0.293 HD
ENDBRANCH   2  20
BRANCH   6  22
ATOM     22  O   UNL     1      73.735  45.515   6.944  1.00  0.00    -0.507 OA
ATOM     23  H   UNL     1      73.595  44.597   7.348  1.00  0.00     0.293 HD
ENDBRANCH   6  22
BRANCH   8  24
ATOM     24  O   UNL     1      74.218  49.937   8.815  1.00  0.00    -0.508 OA
ATOM     25  H   UNL     1      74.100  50.404   9.707  1.00  0.00     0.293 HD
ENDBRANCH   8  24
TORSDOF 5
ENDMDL
MODEL 9
REMARK VINA RESULT:    -5.239      1.243      3.165
REMARK INTER + INTRA:          -6.390
REMARK INTER:                  -6.137
REMARK INTRA:                  -0.254
REMARK UNBOUND:                -0.233
REMARK SMILES O=c1c(O)c(-c2ccc(O)cc2)oc2cc(O)cc(O)c12
REMARK SMILES IDX 5 1 3 2 2 3 1 4 21 5 19 6 18 7 16 8 15 9 14 10 13 11 6 12
REMARK SMILES IDX 7 13 8 14 9 15 12 16 11 17 10 18 4 20 20 22 17 24
REMARK H PARENT 10 19 4 21 20 23 17 25
REMARK Flexibility Score: inf
ROOT
ATOM      1  C   UNL     1      68.702  47.782   8.971  1.00  0.00     0.180 A 
ATOM      2  C   UNL     1      68.426  46.416   8.768  1.00  0.00     0.208 A 
ATOM      3  C   UNL     1      67.104  45.965   8.903  1.00  0.00     0.238 A 
ATOM      4  O   UNL     1      66.846  44.741   8.735  1.00  0.00    -0.285 OA
ATOM      5  C   UNL     1      66.082  46.884   9.217  1.00  0.00     0.111 A 
ATOM      6  C   UNL     1      64.724  46.511   9.366  1.00  0.00     0.134 A 
ATOM      7  C   UNL     1      63.764  47.487   9.669  1.00  0.00     0.093 A 
ATOM      8  C   UNL     1      64.134  48.825   9.826  1.00  0.00     0.123 A 
ATOM      9  C   UNL     1      65.473  49.201   9.679  1.00  0.00     0.094 A 
ATOM     10  C   UNL     1      66.445  48.242   9.379  1.00  0.00     0.146 A 
ATOM     11  O   UNL     1      67.711  48.623   9.250  1.00  0.00    -0.452 OA
ENDROOT
BRANCH   1  12
ATOM     12  C   UNL     1      70.073  48.331   8.865  1.00  0.00     0.021 A 
ATOM     13  C   UNL     1      70.423  49.107   7.746  1.00  0.00     0.016 A 
ATOM     14  C   UNL     1      71.705  49.655   7.636  1.00  0.00     0.047 A 
ATOM     15  C   UNL     1      72.648  49.446   8.651  1.00  0.00     0.115 A 
ATOM     16  C   UNL     1      71.020  48.144   9.888  1.00  0.00     0.016 A 
ATOM     17  C   UNL     1      72.301  48.694   9.777  1.00  0.00     0.047 A 
BRANCH  15  18
ATOM     18  O   UNL     1      73.928  49.987   8.551  1.00  0.00    -0.508 OA
ATOM     19  H   UNL     1      74.715  49.432   8.236  1.00  0.00     0.293 HD
ENDBRANCH  15  18
ENDBRANCH   1  12
BRANCH   2  20
ATOM     20  O   UNL     1      69.449  45.534   8.409  1.00  0.00    -0.502 OA
ATOM     21  H   UNL     1      69.279  44.555   8.219  1.00  0.00     0.293 HD
ENDBRANCH   2  20
BRANCH   6  22
ATOM     22  O   UNL     1      64.323  45.182   9.216  1.00  0.00    -0.507 OA
ATOM     23  H   UNL     1      63.438  44.849   9.578  1.00  0.00     0.293 HD
ENDBRANCH   6  22
BRANCH   8  24
ATOM     24  O   UNL     1      63.159  49.776  10.125  1.00  0.00    -0.508 OA
ATOM     25  H   UNL     1      62.998  50.087  11.076  1.00  0.00     0.293 HD
ENDBRANCH   8  24
TORSDOF 5
ENDMDL
