MODEL 1
REMARK VINA RESULT:    -4.213      0.000      0.000
REMARK INTER + INTRA:          -7.556
REMARK INTER:                  -6.430
REMARK INTRA:                  -1.126
REMARK UNBOUND:                -1.126
REMARK SMILES CC(=O)CCC=C(C)CCC=C(C)CCC=C(C)C
REMARK SMILES IDX 10 1 11 2 12 3 13 4 14 5 15 6 16 7 18 8 17 9 19 10 9 11 7 12
REMARK SMILES IDX 6 13 8 14 5 15 4 16 2 17 3 18 1 19
REMARK H PARENT
REMARK Flexibility Score: inf
ROOT
ATOM      1  C   UNL     1      11.546 -17.045 -12.127  1.00  0.00     0.032 C 
ENDROOT
BRANCH   1   2
ATOM      2  C   UNL     1      12.000 -16.668 -13.519  1.00  0.00    -0.028 C 
ATOM      3  C   UNL     1      13.238 -16.224 -13.835  1.00  0.00    -0.077 C 
ATOM      4  C   UNL     1      14.304 -16.006 -12.789  1.00  0.00     0.039 C 
BRANCH   3   5
ATOM      5  C   UNL     1      13.561 -15.922 -15.284  1.00  0.00     0.034 C 
BRANCH   5   6
ATOM      6  C   UNL     1      15.069 -15.999 -15.558  1.00  0.00     0.032 C 
BRANCH   6   7
ATOM      7  C   UNL     1      15.458 -17.365 -16.076  1.00  0.00    -0.028 C 
ATOM      8  C   UNL     1      17.257 -17.706 -14.364  1.00  0.00     0.039 C 
ATOM      9  C   UNL     1      16.426 -18.145 -15.542  1.00  0.00    -0.080 C 
ATOM     10  C   UNL     1      16.672 -19.520 -16.107  1.00  0.00     0.039 C 
ENDBRANCH   6   7
ENDBRANCH   5   6
ENDBRANCH   3   5
ENDBRANCH   1   2
BRANCH   1  11
ATOM     11  C   UNL     1      10.805 -15.881 -11.458  1.00  0.00     0.034 C 
BRANCH  11  12
ATOM     12  C   UNL     1       9.355 -16.221 -11.190  1.00  0.00    -0.077 C 
ATOM     13  C   UNL     1       8.831 -15.966  -9.971  1.00  0.00    -0.028 C 
ATOM     14  C   UNL     1       8.529 -16.850 -12.287  1.00  0.00     0.039 C 
BRANCH  13  15
ATOM     15  C   UNL     1       7.403 -16.293  -9.604  1.00  0.00     0.035 C 
BRANCH  15  16
ATOM     16  C   UNL     1       7.310 -16.844  -8.178  1.00  0.00     0.079 C 
BRANCH  16  17
ATOM     17  C   UNL     1       7.542 -18.332  -8.165  1.00  0.00     0.130 C 
ATOM     18  O   UNL     1       7.981 -18.864  -7.157  1.00  0.00    -0.300 OA
ATOM     19  C   UNL     1       7.238 -19.181  -9.363  1.00  0.00     0.087 C 
ENDBRANCH  16  17
ENDBRANCH  15  16
ENDBRANCH  13  15
ENDBRANCH  11  12
ENDBRANCH   1  11
TORSDOF 9
ENDMDL
MODEL 2
REMARK VINA RESULT:    -4.082      3.148      9.096
REMARK INTER + INTRA:          -7.355
REMARK INTER:                  -6.461
REMARK INTRA:                  -0.894
REMARK UNBOUND:                -1.126
REMARK SMILES CC(=O)CCC=C(C)CCC=C(C)CCC=C(C)C
REMARK SMILES IDX 10 1 11 2 12 3 13 4 14 5 15 6 16 7 18 8 17 9 19 10 9 11 7 12
REMARK SMILES IDX 6 13 8 14 5 15 4 16 2 17 3 18 1 19
REMARK H PARENT
REMARK Flexibility Score: inf
ROOT
ATOM      1  C   UNL     1      11.164 -16.608 -12.518  1.00  0.00     0.032 C 
ENDROOT
BRANCH   1   2
ATOM      2  C   UNL     1       9.942 -15.971 -11.896  1.00  0.00    -0.028 C 
ATOM      3  C   UNL     1       8.868 -16.649 -11.430  1.00  0.00    -0.077 C 
ATOM      4  C   UNL     1       8.760 -18.151 -11.536  1.00  0.00     0.039 C 
BRANCH   3   5
ATOM      5  C   UNL     1       7.731 -15.875 -10.795  1.00  0.00     0.034 C 
BRANCH   5   6
ATOM      6  C   UNL     1       6.951 -16.734  -9.791  1.00  0.00     0.032 C 
BRANCH   6   7
ATOM      7  C   UNL     1       7.042 -16.157  -8.396  1.00  0.00    -0.028 C 
ATOM      8  C   UNL     1       7.405 -18.381  -7.299  1.00  0.00     0.039 C 
ATOM      9  C   UNL     1       7.258 -16.881  -7.274  1.00  0.00    -0.080 C 
ATOM     10  C   UNL     1       7.400 -16.180  -5.948  1.00  0.00     0.039 C 
ENDBRANCH   6   7
ENDBRANCH   5   6
ENDBRANCH   3   5
ENDBRANCH   1   2
BRANCH   1  11
ATOM     11  C   UNL     1      11.148 -16.451 -14.043  1.00  0.00     0.034 C 
BRANCH  11  12
ATOM     12  C   UNL     1      12.541 -16.248 -14.599  1.00  0.00    -0.077 C 
ATOM     13  C   UNL     1      13.594 -16.231 -13.753  1.00  0.00    -0.028 C 
ATOM     14  C   UNL     1      12.722 -16.054 -16.086  1.00  0.00     0.039 C 
BRANCH  13  15
ATOM     15  C   UNL     1      15.015 -16.010 -14.212  1.00  0.00     0.035 C 
BRANCH  15  16
ATOM     16  C   UNL     1      15.854 -17.282 -14.049  1.00  0.00     0.079 C 
BRANCH  16  17
ATOM     17  C   UNL     1      16.586 -17.604 -15.325  1.00  0.00     0.130 C 
ATOM     18  O   UNL     1      17.187 -16.719 -15.913  1.00  0.00    -0.300 OA
ATOM     19  C   UNL     1      16.601 -18.994 -15.888  1.00  0.00     0.087 C 
ENDBRANCH  16  17
ENDBRANCH  15  16
ENDBRANCH  13  15
ENDBRANCH  11  12
ENDBRANCH   1  11
TORSDOF 9
ENDMDL
MODEL 3
REMARK VINA RESULT:    -4.017      3.012      8.764
REMARK INTER + INTRA:          -7.257
REMARK INTER:                  -6.725
REMARK INTRA:                  -0.532
REMARK UNBOUND:                -1.126
REMARK SMILES CC(=O)CCC=C(C)CCC=C(C)CCC=C(C)C
REMARK SMILES IDX 10 1 11 2 12 3 13 4 14 5 15 6 16 7 18 8 17 9 19 10 9 11 7 12
REMARK SMILES IDX 6 13 8 14 5 15 4 16 2 17 3 18 1 19
REMARK H PARENT
REMARK Flexibility Score: inf
ROOT
ATOM      1  C   UNL     1      11.305 -17.228 -12.278  1.00  0.00     0.032 C 
ENDROOT
BRANCH   1   2
ATOM      2  C   UNL     1      10.020 -16.694 -11.686  1.00  0.00    -0.028 C 
ATOM      3  C   UNL     1       8.811 -16.739 -12.291  1.00  0.00    -0.077 C 
ATOM      4  C   UNL     1       8.631 -17.299 -13.681  1.00  0.00     0.039 C 
BRANCH   3   5
ATOM      5  C   UNL     1       7.603 -16.197 -11.556  1.00  0.00     0.034 C 
BRANCH   5   6
ATOM      6  C   UNL     1       7.888 -16.006 -10.060  1.00  0.00     0.032 C 
BRANCH   6   7
ATOM      7  C   UNL     1       7.838 -17.326  -9.324  1.00  0.00    -0.028 C 
ATOM      8  C   UNL     1       7.547 -16.270  -7.070  1.00  0.00     0.039 C 
ATOM      9  C   UNL     1       7.672 -17.459  -7.988  1.00  0.00    -0.080 C 
ATOM     10  C   UNL     1       7.567 -18.834  -7.383  1.00  0.00     0.039 C 
ENDBRANCH   6   7
ENDBRANCH   5   6
ENDBRANCH   3   5
ENDBRANCH   1   2
BRANCH   1  11
ATOM     11  C   UNL     1      12.369 -16.127 -12.365  1.00  0.00     0.034 C 
BRANCH  11  12
ATOM     12  C   UNL     1      13.045 -16.108 -13.719  1.00  0.00    -0.077 C 
ATOM     13  C   UNL     1      14.393 -16.162 -13.785  1.00  0.00    -0.028 C 
ATOM     14  C   UNL     1      12.198 -16.013 -14.966  1.00  0.00     0.039 C 
BRANCH  13  15
ATOM     15  C   UNL     1      15.156 -16.123 -15.087  1.00  0.00     0.035 C 
BRANCH  15  16
ATOM     16  C   UNL     1      15.567 -17.531 -15.531  1.00  0.00     0.079 C 
BRANCH  16  17
ATOM     17  C   UNL     1      16.851 -17.946 -14.863  1.00  0.00     0.130 C 
ATOM     18  O   UNL     1      17.389 -18.993 -15.194  1.00  0.00    -0.300 OA
ATOM     19  C   UNL     1      17.491 -17.100 -13.804  1.00  0.00     0.087 C 
ENDBRANCH  16  17
ENDBRANCH  15  16
ENDBRANCH  13  15
ENDBRANCH  11  12
ENDBRANCH   1  11
TORSDOF 9
ENDMDL
MODEL 4
REMARK VINA RESULT:    -3.996      1.423      1.978
REMARK INTER + INTRA:          -7.225
REMARK INTER:                  -7.043
REMARK INTRA:                  -0.181
REMARK UNBOUND:                -1.126
REMARK SMILES CC(=O)CCC=C(C)CCC=C(C)CCC=C(C)C
REMARK SMILES IDX 10 1 11 2 12 3 13 4 14 5 15 6 16 7 18 8 17 9 19 10 9 11 7 12
REMARK SMILES IDX 6 13 8 14 5 15 4 16 2 17 3 18 1 19
REMARK H PARENT
REMARK Flexibility Score: inf
ROOT
ATOM      1  C   UNL     1      10.571 -16.844 -12.070  1.00  0.00     0.032 C 
ENDROOT
BRANCH   1   2
ATOM      2  C   UNL     1      11.354 -16.472 -13.308  1.00  0.00    -0.028 C 
ATOM      3  C   UNL     1      12.698 -16.569 -13.433  1.00  0.00    -0.077 C 
ATOM      4  C   UNL     1      13.578 -17.025 -12.295  1.00  0.00     0.039 C 
BRANCH   3   5
ATOM      5  C   UNL     1      13.340 -16.196 -14.753  1.00  0.00     0.034 C 
BRANCH   5   6
ATOM      6  C   UNL     1      14.702 -16.880 -14.935  1.00  0.00     0.032 C 
BRANCH   6   7
ATOM      7  C   UNL     1      15.758 -16.227 -14.072  1.00  0.00    -0.028 C 
ATOM      8  C   UNL     1      17.440 -18.051 -14.427  1.00  0.00     0.039 C 
ATOM      9  C   UNL     1      16.992 -16.733 -13.848  1.00  0.00    -0.080 C 
ATOM     10  C   UNL     1      17.982 -15.950 -13.025  1.00  0.00     0.039 C 
ENDBRANCH   6   7
ENDBRANCH   5   6
ENDBRANCH   3   5
ENDBRANCH   1   2
BRANCH   1  11
ATOM     11  C   UNL     1       9.482 -17.873 -12.397  1.00  0.00     0.034 C 
BRANCH  11  12
ATOM     12  C   UNL     1       8.208 -17.604 -11.626  1.00  0.00    -0.077 C 
ATOM     13  C   UNL     1       8.287 -17.152 -10.356  1.00  0.00    -0.028 C 
ATOM     14  C   UNL     1       6.875 -17.860 -12.290  1.00  0.00     0.039 C 
BRANCH  13  15
ATOM     15  C   UNL     1       7.072 -16.879  -9.502  1.00  0.00     0.035 C 
BRANCH  15  16
ATOM     16  C   UNL     1       7.442 -16.069  -8.255  1.00  0.00     0.079 C 
BRANCH  16  17
ATOM     17  C   UNL     1       7.356 -16.925  -7.019  1.00  0.00     0.130 C 
ATOM     18  O   UNL     1       7.198 -16.394  -5.930  1.00  0.00    -0.300 OA
ATOM     19  C   UNL     1       7.454 -18.419  -7.094  1.00  0.00     0.087 C 
ENDBRANCH  16  17
ENDBRANCH  15  16
ENDBRANCH  13  15
ENDBRANCH  11  12
ENDBRANCH   1  11
TORSDOF 9
ENDMDL
MODEL 5
REMARK VINA RESULT:    -2.205      3.465      9.358
REMARK INTER + INTRA:          -4.490
REMARK INTER:                  -3.712
REMARK INTRA:                  -0.778
REMARK UNBOUND:                -1.126
REMARK SMILES CC(=O)CCC=C(C)CCC=C(C)CCC=C(C)C
REMARK SMILES IDX 10 1 11 2 12 3 13 4 14 5 15 6 16 7 18 8 17 9 19 10 9 11 7 12
REMARK SMILES IDX 6 13 8 14 5 15 4 16 2 17 3 18 1 19
REMARK H PARENT
REMARK Flexibility Score: inf
ROOT
ATOM      1  C   UNL     1      10.810 -17.495 -12.607  1.00  0.00     0.032 C 
ENDROOT
BRANCH   1   2
ATOM      2  C   UNL     1       9.437 -17.107 -12.105  1.00  0.00    -0.028 C 
ATOM      3  C   UNL     1       8.670 -17.864 -11.287  1.00  0.00    -0.077 C 
ATOM      4  C   UNL     1       9.102 -19.233 -10.823  1.00  0.00     0.039 C 
BRANCH   3   5
ATOM      5  C   UNL     1       7.329 -17.325 -10.834  1.00  0.00     0.034 C 
BRANCH   5   6
ATOM      6  C   UNL     1       6.915 -17.902  -9.474  1.00  0.00     0.032 C 
BRANCH   6   7
ATOM      7  C   UNL     1       6.935 -16.835  -8.403  1.00  0.00    -0.028 C 
ATOM      8  C   UNL     1       7.662 -18.406  -6.590  1.00  0.00     0.039 C 
ATOM      9  C   UNL     1       7.280 -17.044  -7.111  1.00  0.00    -0.080 C 
ATOM     10  C   UNL     1       7.328 -15.882  -6.154  1.00  0.00     0.039 C 
ENDBRANCH   6   7
ENDBRANCH   5   6
ENDBRANCH   3   5
ENDBRANCH   1   2
BRANCH   1  11
ATOM     11  C   UNL     1      11.600 -16.259 -13.054  1.00  0.00     0.034 C 
BRANCH  11  12
ATOM     12  C   UNL     1      13.093 -16.474 -12.925  1.00  0.00    -0.077 C 
ATOM     13  C   UNL     1      13.797 -16.885 -14.002  1.00  0.00    -0.028 C 
ATOM     14  C   UNL     1      13.761 -16.237 -11.591  1.00  0.00     0.039 C 
BRANCH  13  15
ATOM     15  C   UNL     1      15.283 -17.149 -13.964  1.00  0.00     0.035 C 
BRANCH  15  16
ATOM     16  C   UNL     1      15.951 -16.747 -15.282  1.00  0.00     0.079 C 
BRANCH  16  17
ATOM     17  C   UNL     1      17.350 -16.245 -15.039  1.00  0.00     0.130 C 
ATOM     18  O   UNL     1      18.075 -16.002 -15.992  1.00  0.00    -0.300 OA
ATOM     19  C   UNL     1      17.872 -16.028 -13.651  1.00  0.00     0.087 C 
ENDBRANCH  16  17
ENDBRANCH  15  16
ENDBRANCH  13  15
ENDBRANCH  11  12
ENDBRANCH   1  11
TORSDOF 9
ENDMDL
MODEL 6
REMARK VINA RESULT:    -2.048      2.764      8.332
REMARK INTER + INTRA:          -4.251
REMARK INTER:                  -3.695
REMARK INTRA:                  -0.557
REMARK UNBOUND:                -1.126
REMARK SMILES CC(=O)CCC=C(C)CCC=C(C)CCC=C(C)C
REMARK SMILES IDX 10 1 11 2 12 3 13 4 14 5 15 6 16 7 18 8 17 9 19 10 9 11 7 12
REMARK SMILES IDX 6 13 8 14 5 15 4 16 2 17 3 18 1 19
REMARK H PARENT
REMARK Flexibility Score: inf
ROOT
ATOM      1  C   UNL     1       8.176 -18.062 -13.502  1.00  0.00     0.032 C 
ENDROOT
BRANCH   1   2
ATOM      2  C   UNL     1       7.391 -17.411 -12.386  1.00  0.00    -0.028 C 
ATOM      3  C   UNL     1       7.742 -17.429 -11.080  1.00  0.00    -0.077 C 
ATOM      4  C   UNL     1       8.963 -18.169 -10.588  1.00  0.00     0.039 C 
BRANCH   3   5
ATOM      5  C   UNL     1       6.875 -16.697 -10.077  1.00  0.00     0.034 C 
BRANCH   5   6
ATOM      6  C   UNL     1       7.717 -15.875  -9.092  1.00  0.00     0.032 C 
BRANCH   6   7
ATOM      7  C   UNL     1       7.253 -16.091  -7.669  1.00  0.00    -0.028 C 
ATOM      8  C   UNL     1       7.825 -18.531  -7.655  1.00  0.00     0.039 C 
ATOM      9  C   UNL     1       7.309 -17.270  -7.009  1.00  0.00    -0.080 C 
ATOM     10  C   UNL     1       6.880 -17.340  -5.567  1.00  0.00     0.039 C 
ENDBRANCH   6   7
ENDBRANCH   5   6
ENDBRANCH   3   5
ENDBRANCH   1   2
BRANCH   1  11
ATOM     11  C   UNL     1       8.519 -17.046 -14.598  1.00  0.00     0.034 C 
BRANCH  11  12
ATOM     12  C   UNL     1       9.940 -16.540 -14.467  1.00  0.00    -0.077 C 
ATOM     13  C   UNL     1      10.537 -16.555 -13.255  1.00  0.00    -0.028 C 
ATOM     14  C   UNL     1      10.653 -16.015 -15.691  1.00  0.00     0.039 C 
BRANCH  13  15
ATOM     15  C   UNL     1      11.940 -16.049 -13.023  1.00  0.00     0.035 C 
BRANCH  15  16
ATOM     16  C   UNL     1      12.918 -17.207 -12.801  1.00  0.00     0.079 C 
BRANCH  16  17
ATOM     17  C   UNL     1      14.275 -16.874 -13.361  1.00  0.00     0.130 C 
ATOM     18  O   UNL     1      15.234 -16.800 -12.608  1.00  0.00    -0.300 OA
ATOM     19  C   UNL     1      14.479 -16.638 -14.827  1.00  0.00     0.087 C 
ENDBRANCH  16  17
ENDBRANCH  15  16
ENDBRANCH  13  15
ENDBRANCH  11  12
ENDBRANCH   1  11
TORSDOF 9
ENDMDL
