MODEL 1
REMARK VINA RESULT:    11.004      0.000      0.000
REMARK INTER + INTRA:          12.070
REMARK INTER:                  12.290
REMARK INTRA:                  -0.220
REMARK UNBOUND:                -0.220
REMARK SMILES CC(C)c1ccc(C(=O)[O-])cc1
REMARK SMILES IDX 7 1 6 2 11 3 5 4 12 5 4 6 8 7 9 8 10 9 2 10 1 11 3 12
REMARK H PARENT
REMARK Flexibility Score: inf
ROOT
ATOM      1  C   UNL     1      -1.806  -5.949  15.741  1.00  0.00    -0.003 A 
ATOM      2  C   UNL     1      -2.977  -5.997  16.517  1.00  0.00     0.010 A 
ATOM      3  C   UNL     1      -0.830  -6.944  15.921  1.00  0.00     0.010 A 
ATOM      4  C   UNL     1      -3.166  -7.017  17.453  1.00  0.00     0.004 A 
ATOM      5  C   UNL     1      -1.019  -7.964  16.857  1.00  0.00     0.004 A 
ATOM      6  C   UNL     1      -2.192  -8.012  17.634  1.00  0.00    -0.045 A 
ENDROOT
BRANCH   1   7
ATOM      7  C   UNL     1      -1.608  -4.867  14.752  1.00  0.00     0.071 C 
ATOM      8  O   UNL     1      -2.233  -3.778  14.860  1.00  0.00    -0.545 OA
ATOM      9  O   UNL     1      -0.729  -5.036  13.688  1.00  0.00    -0.545 OA
ENDBRANCH   1   7
BRANCH   6  10
ATOM     10  C   UNL     1      -2.412  -9.113  18.654  1.00  0.00     0.013 C 
ATOM     11  C   UNL     1      -1.082  -9.582  19.256  1.00  0.00     0.012 C 
ATOM     12  C   UNL     1      -3.385  -8.665  19.751  1.00  0.00     0.012 C 
ENDBRANCH   6  10
TORSDOF 2
ENDMDL
MODEL 2
REMARK VINA RESULT:    11.052      0.037      1.398
REMARK INTER + INTRA:          12.124
REMARK INTER:                  12.344
REMARK INTRA:                  -0.220
REMARK UNBOUND:                -0.220
REMARK SMILES CC(C)c1ccc(C(=O)[O-])cc1
REMARK SMILES IDX 7 1 6 2 11 3 5 4 12 5 4 6 8 7 9 8 10 9 2 10 1 11 3 12
REMARK H PARENT
REMARK Flexibility Score: inf
ROOT
ATOM      1  C   UNL     1      -1.798  -5.935  15.740  1.00  0.00    -0.003 A 
ATOM      2  C   UNL     1      -0.836  -6.941  15.930  1.00  0.00     0.010 A 
ATOM      3  C   UNL     1      -2.972  -5.963  16.511  1.00  0.00     0.010 A 
ATOM      4  C   UNL     1      -1.044  -7.954  16.871  1.00  0.00     0.004 A 
ATOM      5  C   UNL     1      -3.180  -6.976  17.453  1.00  0.00     0.004 A 
ATOM      6  C   UNL     1      -2.216  -7.983  17.643  1.00  0.00    -0.045 A 
ENDROOT
BRANCH   1   7
ATOM      7  C   UNL     1      -1.575  -4.866  14.743  1.00  0.00     0.071 C 
ATOM      8  O   UNL     1      -2.191  -3.770  14.829  1.00  0.00    -0.545 OA
ATOM      9  O   UNL     1      -0.680  -5.054  13.695  1.00  0.00    -0.545 OA
ENDBRANCH   1   7
BRANCH   6  10
ATOM     10  C   UNL     1      -2.428  -9.088  18.660  1.00  0.00     0.013 C 
ATOM     11  C   UNL     1      -1.095  -9.541  19.270  1.00  0.00     0.012 C 
ATOM     12  C   UNL     1      -3.413  -8.653  19.751  1.00  0.00     0.012 C 
ENDBRANCH   6  10
TORSDOF 2
ENDMDL
MODEL 3
REMARK VINA RESULT:    11.780      3.263      5.221
REMARK INTER + INTRA:          12.937
REMARK INTER:                  13.152
REMARK INTRA:                  -0.216
REMARK UNBOUND:                -0.220
REMARK SMILES CC(C)c1ccc(C(=O)[O-])cc1
REMARK SMILES IDX 7 1 6 2 11 3 5 4 12 5 4 6 8 7 9 8 10 9 2 10 1 11 3 12
REMARK H PARENT
REMARK Flexibility Score: inf
ROOT
ATOM      1  C   UNL     1      -1.468  -8.605  17.936  1.00  0.00    -0.003 A 
ATOM      2  C   UNL     1      -0.531  -8.265  16.945  1.00  0.00     0.010 A 
ATOM      3  C   UNL     1      -2.657  -7.862  18.031  1.00  0.00     0.010 A 
ATOM      4  C   UNL     1      -0.778  -7.205  16.069  1.00  0.00     0.004 A 
ATOM      5  C   UNL     1      -2.904  -6.801  17.155  1.00  0.00     0.004 A 
ATOM      6  C   UNL     1      -1.966  -6.461  16.162  1.00  0.00    -0.045 A 
ENDROOT
BRANCH   1   7
ATOM      7  C   UNL     1      -1.203  -9.727  18.862  1.00  0.00     0.071 C 
ATOM      8  O   UNL     1      -1.617  -9.689  20.051  1.00  0.00    -0.545 OA
ATOM      9  O   UNL     1      -0.492 -10.842  18.433  1.00  0.00    -0.545 OA
ENDBRANCH   1   7
BRANCH   6  10
ATOM     10  C   UNL     1      -2.220  -5.313  15.204  1.00  0.00     0.013 C 
ATOM     11  C   UNL     1      -2.519  -4.015  15.964  1.00  0.00     0.012 C 
ATOM     12  C   UNL     1      -1.042  -5.127  14.239  1.00  0.00     0.012 C 
ENDBRANCH   6  10
TORSDOF 2
ENDMDL
MODEL 4
REMARK VINA RESULT:    12.095      3.079      4.971
REMARK INTER + INTRA:          13.290
REMARK INTER:                  13.506
REMARK INTRA:                  -0.216
REMARK UNBOUND:                -0.220
REMARK SMILES CC(C)c1ccc(C(=O)[O-])cc1
REMARK SMILES IDX 7 1 6 2 11 3 5 4 12 5 4 6 8 7 9 8 10 9 2 10 1 11 3 12
REMARK H PARENT
REMARK Flexibility Score: inf
ROOT
ATOM      1  C   UNL     1      -1.929  -8.121  17.855  1.00  0.00    -0.003 A 
ATOM      2  C   UNL     1      -2.889  -7.158  17.497  1.00  0.00     0.010 A 
ATOM      3  C   UNL     1      -0.691  -8.126  17.191  1.00  0.00     0.010 A 
ATOM      4  C   UNL     1      -2.615  -6.221  16.496  1.00  0.00     0.004 A 
ATOM      5  C   UNL     1      -0.417  -7.190  16.190  1.00  0.00     0.004 A 
ATOM      6  C   UNL     1      -1.378  -6.225  15.831  1.00  0.00    -0.045 A 
ENDROOT
BRANCH   1   7
ATOM      7  C   UNL     1      -2.223  -9.111  18.914  1.00  0.00     0.071 C 
ATOM      8  O   UNL     1      -3.321  -9.081  19.532  1.00  0.00    -0.545 OA
ATOM      9  O   UNL     1      -1.293 -10.090  19.241  1.00  0.00    -0.545 OA
ENDBRANCH   1   7
BRANCH   6  10
ATOM     10  C   UNL     1      -1.095  -5.203  14.748  1.00  0.00     0.013 C 
ATOM     11  C   UNL     1      -0.930  -5.877  13.380  1.00  0.00     0.012 C 
ATOM     12  C   UNL     1      -2.187  -4.127  14.704  1.00  0.00     0.012 C 
ENDBRANCH   6  10
TORSDOF 2
ENDMDL
