MODEL 1
REMARK VINA RESULT:    -4.359      0.000      0.000
REMARK INTER + INTRA:          -4.690
REMARK INTER:                  -4.869
REMARK INTRA:                   0.179
REMARK UNBOUND:                 0.179
REMARK SMILES O=C([O-])c1ccccc1C(=O)[O-]
REMARK SMILES IDX 4 1 9 2 5 3 8 4 6 5 7 6 2 7 1 8 3 9 10 10 11 11 12 12
REMARK H PARENT
REMARK Flexibility Score: inf
ROOT
ATOM      1  C   UNL     1      25.403   3.835  -0.519  1.00  0.00     0.006 A 
ATOM      2  C   UNL     1      24.044   4.241  -0.407  1.00  0.00     0.006 A 
ATOM      3  C   UNL     1      25.990   3.753  -1.796  1.00  0.00     0.010 A 
ATOM      4  C   UNL     1      23.342   4.613  -1.569  1.00  0.00     0.010 A 
ATOM      5  C   UNL     1      25.268   4.105  -2.936  1.00  0.00     0.001 A 
ATOM      6  C   UNL     1      23.952   4.545  -2.822  1.00  0.00     0.001 A 
ENDROOT
BRANCH   1   7
ATOM      7  C   UNL     1      26.262   3.558   0.656  1.00  0.00     0.072 C 
ATOM      8  O   UNL     1      26.131   4.220   1.719  1.00  0.00    -0.545 OA
ATOM      9  O   UNL     1      27.269   2.603   0.574  1.00  0.00    -0.545 OA
ENDBRANCH   1   7
BRANCH   2  10
ATOM     10  C   UNL     1      23.307   4.222   0.878  1.00  0.00     0.072 C 
ATOM     11  O   UNL     1      23.036   5.301   1.468  1.00  0.00    -0.545 OA
ATOM     12  O   UNL     1      22.848   3.025   1.415  1.00  0.00    -0.545 OA
ENDBRANCH   2  10
TORSDOF 2
ENDMDL
MODEL 2
REMARK VINA RESULT:    -4.357      0.306      3.141
REMARK INTER + INTRA:          -4.687
REMARK INTER:                  -4.841
REMARK INTRA:                   0.154
REMARK UNBOUND:                 0.179
REMARK SMILES O=C([O-])c1ccccc1C(=O)[O-]
REMARK SMILES IDX 4 1 9 2 5 3 8 4 6 5 7 6 2 7 1 8 3 9 10 10 11 11 12 12
REMARK H PARENT
REMARK Flexibility Score: inf
ROOT
ATOM      1  C   UNL     1      24.098   4.363  -0.651  1.00  0.00     0.006 A 
ATOM      2  C   UNL     1      25.444   3.901  -0.664  1.00  0.00     0.006 A 
ATOM      3  C   UNL     1      23.495   4.750  -1.863  1.00  0.00     0.010 A 
ATOM      4  C   UNL     1      26.115   3.784  -1.896  1.00  0.00     0.010 A 
ATOM      5  C   UNL     1      24.188   4.645  -3.069  1.00  0.00     0.001 A 
ATOM      6  C   UNL     1      25.490   4.152  -3.087  1.00  0.00     0.001 A 
ENDROOT
BRANCH   1   7
ATOM      7  C   UNL     1      23.267   4.391   0.575  1.00  0.00     0.072 C 
ATOM      8  O   UNL     1      22.696   3.347   0.990  1.00  0.00    -0.545 OA
ATOM      9  O   UNL     1      23.055   5.589   1.246  1.00  0.00    -0.545 OA
ENDBRANCH   1   7
BRANCH   2  10
ATOM     10  C   UNL     1      26.200   3.606   0.575  1.00  0.00     0.072 C 
ATOM     11  O   UNL     1      27.065   2.690   0.585  1.00  0.00    -0.545 OA
ATOM     12  O   UNL     1      26.016   4.374   1.718  1.00  0.00    -0.545 OA
ENDBRANCH   2  10
TORSDOF 2
ENDMDL
MODEL 3
REMARK VINA RESULT:    -4.185      2.112      3.314
REMARK INTER + INTRA:          -4.495
REMARK INTER:                  -4.274
REMARK INTRA:                  -0.221
REMARK UNBOUND:                 0.179
REMARK SMILES O=C([O-])c1ccccc1C(=O)[O-]
REMARK SMILES IDX 4 1 9 2 5 3 8 4 6 5 7 6 2 7 1 8 3 9 10 10 11 11 12 12
REMARK H PARENT
REMARK Flexibility Score: inf
ROOT
ATOM      1  C   UNL     1      24.631   5.155  -0.619  1.00  0.00     0.006 A 
ATOM      2  C   UNL     1      24.762   4.738   0.735  1.00  0.00     0.006 A 
ATOM      3  C   UNL     1      25.512   4.634  -1.585  1.00  0.00     0.010 A 
ATOM      4  C   UNL     1      25.728   3.766   1.061  1.00  0.00     0.010 A 
ATOM      5  C   UNL     1      26.476   3.688  -1.234  1.00  0.00     0.001 A 
ATOM      6  C   UNL     1      26.576   3.247   0.083  1.00  0.00     0.001 A 
ENDROOT
BRANCH   1   7
ATOM      7  C   UNL     1      23.558   6.066  -1.082  1.00  0.00     0.072 C 
ATOM      8  O   UNL     1      22.509   5.610  -1.608  1.00  0.00    -0.545 OA
ATOM      9  O   UNL     1      23.729   7.443  -0.998  1.00  0.00    -0.545 OA
ENDBRANCH   1   7
BRANCH   2  10
ATOM     10  C   UNL     1      23.973   5.336   1.836  1.00  0.00     0.072 C 
ATOM     11  O   UNL     1      24.393   6.365   2.430  1.00  0.00    -0.545 OA
ATOM     12  O   UNL     1      22.733   4.814   2.186  1.00  0.00    -0.545 OA
ENDBRANCH   2  10
TORSDOF 2
ENDMDL
MODEL 4
REMARK VINA RESULT:    -4.181      2.107      3.261
REMARK INTER + INTRA:          -4.491
REMARK INTER:                  -4.272
REMARK INTRA:                  -0.220
REMARK UNBOUND:                 0.179
REMARK SMILES O=C([O-])c1ccccc1C(=O)[O-]
REMARK SMILES IDX 4 1 9 2 5 3 8 4 6 5 7 6 2 7 1 8 3 9 10 10 11 11 12 12
REMARK H PARENT
REMARK Flexibility Score: inf
ROOT
ATOM      1  C   UNL     1      24.731   4.737   0.674  1.00  0.00     0.006 A 
ATOM      2  C   UNL     1      24.634   5.155  -0.682  1.00  0.00     0.006 A 
ATOM      3  C   UNL     1      25.682   3.760   1.023  1.00  0.00     0.010 A 
ATOM      4  C   UNL     1      25.535   4.627  -1.627  1.00  0.00     0.010 A 
ATOM      5  C   UNL     1      26.549   3.235   0.065  1.00  0.00     0.001 A 
ATOM      6  C   UNL     1      26.484   3.676  -1.253  1.00  0.00     0.001 A 
ENDROOT
BRANCH   1   7
ATOM      7  C   UNL     1      23.922   5.335   1.762  1.00  0.00     0.072 C 
ATOM      8  O   UNL     1      24.331   6.349   2.386  1.00  0.00    -0.545 OA
ATOM      9  O   UNL     1      22.727   4.740   2.149  1.00  0.00    -0.545 OA
ENDBRANCH   1   7
BRANCH   2  10
ATOM     10  C   UNL     1      23.575   6.072  -1.163  1.00  0.00     0.072 C 
ATOM     11  O   UNL     1      22.499   5.608  -1.627  1.00  0.00    -0.545 OA
ATOM     12  O   UNL     1      23.723   7.449  -1.050  1.00  0.00    -0.545 OA
ENDBRANCH   2  10
TORSDOF 2
ENDMDL
MODEL 5
REMARK VINA RESULT:    -4.145      2.484      3.707
REMARK INTER + INTRA:          -4.451
REMARK INTER:                  -4.228
REMARK INTRA:                  -0.222
REMARK UNBOUND:                 0.179
REMARK SMILES O=C([O-])c1ccccc1C(=O)[O-]
REMARK SMILES IDX 4 1 9 2 5 3 8 4 6 5 7 6 2 7 1 8 3 9 10 10 11 11 12 12
REMARK H PARENT
REMARK Flexibility Score: inf
ROOT
ATOM      1  C   UNL     1      24.711   4.306  -0.271  1.00  0.00     0.006 A 
ATOM      2  C   UNL     1      24.301   5.663  -0.145  1.00  0.00     0.006 A 
ATOM      3  C   UNL     1      24.347   3.385   0.729  1.00  0.00     0.010 A 
ATOM      4  C   UNL     1      23.486   6.034   0.942  1.00  0.00     0.010 A 
ATOM      5  C   UNL     1      23.557   3.781   1.809  1.00  0.00     0.001 A 
ATOM      6  C   UNL     1      23.118   5.098   1.909  1.00  0.00     0.001 A 
ENDROOT
BRANCH   1   7
ATOM      7  C   UNL     1      25.452   3.794  -1.447  1.00  0.00     0.072 C 
ATOM      8  O   UNL     1      26.706   3.684  -1.420  1.00  0.00    -0.545 OA
ATOM      9  O   UNL     1      24.771   3.490  -2.620  1.00  0.00    -0.545 OA
ENDBRANCH   1   7
BRANCH   2  10
ATOM     10  C   UNL     1      24.754   6.725  -1.072  1.00  0.00     0.072 C 
ATOM     11  O   UNL     1      24.061   7.021  -2.082  1.00  0.00    -0.545 OA
ATOM     12  O   UNL     1      25.908   7.452  -0.809  1.00  0.00    -0.545 OA
ENDBRANCH   2  10
TORSDOF 2
ENDMDL
MODEL 6
REMARK VINA RESULT:    -4.120      2.492      4.132
REMARK INTER + INTRA:          -4.423
REMARK INTER:                  -4.204
REMARK INTRA:                  -0.219
REMARK UNBOUND:                 0.179
REMARK SMILES O=C([O-])c1ccccc1C(=O)[O-]
REMARK SMILES IDX 4 1 9 2 5 3 8 4 6 5 7 6 2 7 1 8 3 9 10 10 11 11 12 12
REMARK H PARENT
REMARK Flexibility Score: inf
ROOT
ATOM      1  C   UNL     1      24.357   5.681  -0.112  1.00  0.00     0.006 A 
ATOM      2  C   UNL     1      24.695   4.307  -0.261  1.00  0.00     0.006 A 
ATOM      3  C   UNL     1      23.543   6.072   0.968  1.00  0.00     0.010 A 
ATOM      4  C   UNL     1      24.260   3.386   0.711  1.00  0.00     0.010 A 
ATOM      5  C   UNL     1      23.106   5.138   1.907  1.00  0.00     0.001 A 
ATOM      6  C   UNL     1      23.474   3.801   1.786  1.00  0.00     0.001 A 
ENDROOT
BRANCH   1   7
ATOM      7  C   UNL     1      24.879   6.742  -1.004  1.00  0.00     0.072 C 
ATOM      8  O   UNL     1      25.900   7.407  -0.685  1.00  0.00    -0.545 OA
ATOM      9  O   UNL     1      24.207   7.059  -2.179  1.00  0.00    -0.545 OA
ENDBRANCH   1   7
BRANCH   2  10
ATOM     10  C   UNL     1      25.427   3.787  -1.439  1.00  0.00     0.072 C 
ATOM     11  O   UNL     1      26.663   3.556  -1.365  1.00  0.00    -0.545 OA
ATOM     12  O   UNL     1      24.753   3.485  -2.616  1.00  0.00    -0.545 OA
ENDBRANCH   2  10
TORSDOF 2
ENDMDL
MODEL 7
REMARK VINA RESULT:    -4.064     10.644     12.207
REMARK INTER + INTRA:          -4.361
REMARK INTER:                  -4.149
REMARK INTRA:                  -0.212
REMARK UNBOUND:                 0.179
REMARK SMILES O=C([O-])c1ccccc1C(=O)[O-]
REMARK SMILES IDX 4 1 9 2 5 3 8 4 6 5 7 6 2 7 1 8 3 9 10 10 11 11 12 12
REMARK H PARENT
REMARK Flexibility Score: inf
ROOT
ATOM      1  C   UNL     1      16.575   4.927   7.813  1.00  0.00     0.006 A 
ATOM      2  C   UNL     1      15.578   5.905   8.089  1.00  0.00     0.006 A 
ATOM      3  C   UNL     1      16.183   3.682   7.287  1.00  0.00     0.010 A 
ATOM      4  C   UNL     1      14.236   5.625   7.768  1.00  0.00     0.010 A 
ATOM      5  C   UNL     1      14.844   3.418   6.997  1.00  0.00     0.001 A 
ATOM      6  C   UNL     1      13.875   4.392   7.226  1.00  0.00     0.001 A 
ENDROOT
BRANCH   1   7
ATOM      7  C   UNL     1      18.024   5.180   7.987  1.00  0.00     0.072 C 
ATOM      8  O   UNL     1      18.724   5.601   7.028  1.00  0.00    -0.545 OA
ATOM      9  O   UNL     1      18.640   4.893   9.199  1.00  0.00    -0.545 OA
ENDBRANCH   1   7
BRANCH   2  10
ATOM     10  C   UNL     1      15.881   7.185   8.770  1.00  0.00     0.072 C 
ATOM     11  O   UNL     1      15.853   8.267   8.124  1.00  0.00    -0.545 OA
ATOM     12  O   UNL     1      16.135   7.220  10.135  1.00  0.00    -0.545 OA
ENDBRANCH   2  10
TORSDOF 2
ENDMDL
MODEL 8
REMARK VINA RESULT:    -4.025     10.552     12.438
REMARK INTER + INTRA:          -4.317
REMARK INTER:                  -4.139
REMARK INTRA:                  -0.178
REMARK UNBOUND:                 0.179
REMARK SMILES O=C([O-])c1ccccc1C(=O)[O-]
REMARK SMILES IDX 4 1 9 2 5 3 8 4 6 5 7 6 2 7 1 8 3 9 10 10 11 11 12 12
REMARK H PARENT
REMARK Flexibility Score: inf
ROOT
ATOM      1  C   UNL     1      15.716   6.087   8.120  1.00  0.00     0.006 A 
ATOM      2  C   UNL     1      16.629   5.038   7.816  1.00  0.00     0.006 A 
ATOM      3  C   UNL     1      14.345   5.897   7.865  1.00  0.00     0.010 A 
ATOM      4  C   UNL     1      16.128   3.815   7.331  1.00  0.00     0.010 A 
ATOM      5  C   UNL     1      13.875   4.683   7.363  1.00  0.00     0.001 A 
ATOM      6  C   UNL     1      14.762   3.641   7.108  1.00  0.00     0.001 A 
ENDROOT
BRANCH   1   7
ATOM      7  C   UNL     1      16.132   7.357   8.761  1.00  0.00     0.072 C 
ATOM      8  O   UNL     1      16.124   8.437   8.114  1.00  0.00    -0.545 OA
ATOM      9  O   UNL     1      16.598   7.356  10.070  1.00  0.00    -0.545 OA
ENDBRANCH   1   7
BRANCH   2  10
ATOM     10  C   UNL     1      18.098   5.200   7.920  1.00  0.00     0.072 C 
ATOM     11  O   UNL     1      18.762   5.601   6.927  1.00  0.00    -0.545 OA
ATOM     12  O   UNL     1      18.753   4.979   9.125  1.00  0.00    -0.545 OA
ENDBRANCH   2  10
TORSDOF 2
ENDMDL
MODEL 9
REMARK VINA RESULT:    -4.000      1.632      2.296
REMARK INTER + INTRA:          -4.289
REMARK INTER:                  -4.181
REMARK INTRA:                  -0.108
REMARK UNBOUND:                 0.179
REMARK SMILES O=C([O-])c1ccccc1C(=O)[O-]
REMARK SMILES IDX 4 1 9 2 5 3 8 4 6 5 7 6 2 7 1 8 3 9 10 10 11 11 12 12
REMARK H PARENT
REMARK Flexibility Score: inf
ROOT
ATOM      1  C   UNL     1      24.404   4.550  -1.527  1.00  0.00     0.006 A 
ATOM      2  C   UNL     1      23.748   5.663  -0.931  1.00  0.00     0.006 A 
ATOM      3  C   UNL     1      24.095   4.205  -2.856  1.00  0.00     0.010 A 
ATOM      4  C   UNL     1      22.855   6.427  -1.706  1.00  0.00     0.010 A 
ATOM      5  C   UNL     1      23.191   4.965  -3.598  1.00  0.00     0.001 A 
ATOM      6  C   UNL     1      22.582   6.080  -3.029  1.00  0.00     0.001 A 
ENDROOT
BRANCH   1   7
ATOM      7  C   UNL     1      25.458   3.771  -0.837  1.00  0.00     0.072 C 
ATOM      8  O   UNL     1      26.634   3.737  -1.288  1.00  0.00    -0.545 OA
ATOM      9  O   UNL     1      25.143   3.013   0.285  1.00  0.00    -0.545 OA
ENDBRANCH   1   7
BRANCH   2  10
ATOM     10  C   UNL     1      23.906   6.012   0.500  1.00  0.00     0.072 C 
ATOM     11  O   UNL     1      23.125   5.526   1.361  1.00  0.00    -0.545 OA
ATOM     12  O   UNL     1      24.953   6.824   0.920  1.00  0.00    -0.545 OA
ENDBRANCH   2  10
TORSDOF 2
ENDMDL
