MODEL 1
REMARK VINA RESULT:    -3.086      0.000      0.000
REMARK INTER + INTRA:          -3.601
REMARK INTER:                  -3.537
REMARK INTRA:                  -0.063
REMARK UNBOUND:                -0.063
REMARK SMILES CC(C)[C@H]([NH3+])C(=O)[O-]
REMARK SMILES IDX 4 1 5 2 6 6 7 7 8 8 2 9 1 10 3 11
REMARK H PARENT 5 3 5 4 5 5
REMARK Flexibility Score: inf
ROOT
ATOM      1  C   UNL     1     163.489 178.534 167.310  1.00  0.00     0.230 C 
ENDROOT
BRANCH   1   2
ATOM      2  N   UNL     1     163.645 179.879 166.732  1.00  0.00    -0.350 N 
ATOM      3  H   UNL     1     162.884 180.509 167.075  1.00  0.00     0.345 HD
ATOM      4  H   UNL     1     163.622 179.838 165.688  1.00  0.00     0.345 HD
ATOM      5  H   UNL     1     164.553 180.299 167.037  1.00  0.00     0.345 HD
ENDBRANCH   1   2
BRANCH   1   6
ATOM      6  C   UNL     1     162.535 178.597 168.477  1.00  0.00     0.099 C 
ATOM      7  O   UNL     1     162.802 177.997 169.553  1.00  0.00    -0.544 OA
ATOM      8  O   UNL     1     161.350 179.313 168.368  1.00  0.00    -0.544 OA
ENDBRANCH   1   6
BRANCH   1   9
ATOM      9  C   UNL     1     164.858 177.926 167.743  1.00  0.00     0.047 C 
ATOM     10  C   UNL     1     165.168 176.639 166.958  1.00  0.00     0.014 C 
ATOM     11  C   UNL     1     166.014 178.922 167.552  1.00  0.00     0.014 C 
ENDBRANCH   1   9
TORSDOF 3
ENDMDL
MODEL 2
REMARK VINA RESULT:    -3.032      1.858      2.017
REMARK INTER + INTRA:          -3.539
REMARK INTER:                  -3.637
REMARK INTRA:                   0.098
REMARK UNBOUND:                -0.063
REMARK SMILES CC(C)[C@H]([NH3+])C(=O)[O-]
REMARK SMILES IDX 4 1 5 2 6 6 7 7 8 8 2 9 1 10 3 11
REMARK H PARENT 5 3 5 4 5 5
REMARK Flexibility Score: inf
ROOT
ATOM      1  C   UNL     1     163.589 178.522 168.198  1.00  0.00     0.230 C 
ENDROOT
BRANCH   1   2
ATOM      2  N   UNL     1     162.867 177.771 169.239  1.00  0.00    -0.350 N 
ATOM      3  H   UNL     1     163.295 176.826 169.365  1.00  0.00     0.345 HD
ATOM      4  H   UNL     1     161.856 177.669 168.988  1.00  0.00     0.345 HD
ATOM      5  H   UNL     1     162.941 178.267 170.157  1.00  0.00     0.345 HD
ENDBRANCH   1   2
BRANCH   1   6
ATOM      6  C   UNL     1     162.781 178.514 166.924  1.00  0.00     0.099 C 
ATOM      7  O   UNL     1     161.850 177.680 166.762  1.00  0.00    -0.544 OA
ATOM      8  O   UNL     1     163.068 179.425 165.916  1.00  0.00    -0.544 OA
ENDBRANCH   1   6
BRANCH   1   9
ATOM      9  C   UNL     1     165.018 177.948 167.955  1.00  0.00     0.047 C 
ATOM     10  C   UNL     1     164.998 176.839 166.888  1.00  0.00     0.014 C 
ATOM     11  C   UNL     1     166.009 179.043 167.524  1.00  0.00     0.014 C 
ENDBRANCH   1   9
TORSDOF 3
ENDMDL
MODEL 3
REMARK VINA RESULT:    -2.983      2.427      3.486
REMARK INTER + INTRA:          -3.483
REMARK INTER:                  -3.407
REMARK INTRA:                  -0.075
REMARK UNBOUND:                -0.063
REMARK SMILES CC(C)[C@H]([NH3+])C(=O)[O-]
REMARK SMILES IDX 4 1 5 2 6 6 7 7 8 8 2 9 1 10 3 11
REMARK H PARENT 5 3 5 4 5 5
REMARK Flexibility Score: inf
ROOT
ATOM      1  C   UNL     1     163.581 178.221 166.925  1.00  0.00     0.230 C 
ENDROOT
BRANCH   1   2
ATOM      2  N   UNL     1     162.775 177.068 166.494  1.00  0.00    -0.350 N 
ATOM      3  H   UNL     1     161.792 177.367 166.298  1.00  0.00     0.345 HD
ATOM      4  H   UNL     1     162.775 176.321 167.226  1.00  0.00     0.345 HD
ATOM      5  H   UNL     1     163.159 176.673 165.604  1.00  0.00     0.345 HD
ENDBRANCH   1   2
BRANCH   1   6
ATOM      6  C   UNL     1     164.950 177.747 167.345  1.00  0.00     0.099 C 
ATOM      7  O   UNL     1     165.815 178.569 167.751  1.00  0.00    -0.544 OA
ATOM      8  O   UNL     1     165.268 176.397 167.277  1.00  0.00    -0.544 OA
ENDBRANCH   1   6
BRANCH   1   9
ATOM      9  C   UNL     1     162.891 179.015 168.076  1.00  0.00     0.047 C 
ATOM     10  C   UNL     1     161.559 179.628 167.609  1.00  0.00     0.014 C 
ATOM     11  C   UNL     1     162.633 178.130 169.308  1.00  0.00     0.014 C 
ENDBRANCH   1   9
TORSDOF 3
ENDMDL
MODEL 4
REMARK VINA RESULT:    -2.979      2.072      2.727
REMARK INTER + INTRA:          -3.478
REMARK INTER:                  -3.427
REMARK INTRA:                  -0.051
REMARK UNBOUND:                -0.063
REMARK SMILES CC(C)[C@H]([NH3+])C(=O)[O-]
REMARK SMILES IDX 4 1 5 2 6 6 7 7 8 8 2 9 1 10 3 11
REMARK H PARENT 5 3 5 4 5 5
REMARK Flexibility Score: inf
ROOT
ATOM      1  C   UNL     1     162.289 178.640 168.918  1.00  0.00     0.230 C 
ENDROOT
BRANCH   1   2
ATOM      2  N   UNL     1     162.509 177.526 169.854  1.00  0.00    -0.350 N 
ATOM      3  H   UNL     1     163.519 177.474 170.122  1.00  0.00     0.345 HD
ATOM      4  H   UNL     1     162.213 176.619 169.426  1.00  0.00     0.345 HD
ATOM      5  H   UNL     1     161.965 177.681 170.734  1.00  0.00     0.345 HD
ENDBRANCH   1   2
BRANCH   1   6
ATOM      6  C   UNL     1     160.872 178.589 168.403  1.00  0.00     0.099 C 
ATOM      7  O   UNL     1     160.172 179.637 168.352  1.00  0.00    -0.544 OA
ATOM      8  O   UNL     1     160.326 177.381 167.990  1.00  0.00    -0.544 OA
ENDBRANCH   1   6
BRANCH   1   9
ATOM      9  C   UNL     1     163.309 178.621 167.739  1.00  0.00     0.047 C 
ATOM     10  C   UNL     1     163.544 180.036 167.183  1.00  0.00     0.014 C 
ATOM     11  C   UNL     1     164.659 178.014 168.160  1.00  0.00     0.014 C 
ENDBRANCH   1   9
TORSDOF 3
ENDMDL
MODEL 5
REMARK VINA RESULT:    -2.912      1.569      2.288
REMARK INTER + INTRA:          -3.401
REMARK INTER:                  -3.338
REMARK INTRA:                  -0.062
REMARK UNBOUND:                -0.063
REMARK SMILES CC(C)[C@H]([NH3+])C(=O)[O-]
REMARK SMILES IDX 4 1 5 2 6 6 7 7 8 8 2 9 1 10 3 11
REMARK H PARENT 5 3 5 4 5 5
REMARK Flexibility Score: inf
ROOT
ATOM      1  C   UNL     1     164.558 178.148 168.086  1.00  0.00     0.230 C 
ENDROOT
BRANCH   1   2
ATOM      2  N   UNL     1     164.566 176.808 167.477  1.00  0.00    -0.350 N 
ATOM      3  H   UNL     1     165.397 176.701 166.851  1.00  0.00     0.345 HD
ATOM      4  H   UNL     1     163.691 176.646 166.928  1.00  0.00     0.345 HD
ATOM      5  H   UNL     1     164.643 176.075 168.220  1.00  0.00     0.345 HD
ENDBRANCH   1   2
BRANCH   1   6
ATOM      6  C   UNL     1     163.171 178.462 168.589  1.00  0.00     0.099 C 
ATOM      7  O   UNL     1     162.478 179.357 168.034  1.00  0.00    -0.544 OA
ATOM      8  O   UNL     1     162.653 177.769 169.675  1.00  0.00    -0.544 OA
ENDBRANCH   1   6
BRANCH   1   9
ATOM      9  C   UNL     1     165.050 179.243 167.090  1.00  0.00     0.047 C 
ATOM     10  C   UNL     1     166.368 179.878 167.567  1.00  0.00     0.014 C 
ATOM     11  C   UNL     1     165.246 178.681 165.672  1.00  0.00     0.014 C 
ENDBRANCH   1   9
TORSDOF 3
ENDMDL
MODEL 6
REMARK VINA RESULT:    -2.819      2.722      3.295
REMARK INTER + INTRA:          -3.295
REMARK INTER:                  -3.217
REMARK INTRA:                  -0.078
REMARK UNBOUND:                -0.063
REMARK SMILES CC(C)[C@H]([NH3+])C(=O)[O-]
REMARK SMILES IDX 4 1 5 2 6 6 7 7 8 8 2 9 1 10 3 11
REMARK H PARENT 5 3 5 4 5 5
REMARK Flexibility Score: inf
ROOT
ATOM      1  C   UNL     1     165.655 179.002 166.608  1.00  0.00     0.230 C 
ENDROOT
BRANCH   1   2
ATOM      2  N   UNL     1     166.786 178.573 167.448  1.00  0.00    -0.350 N 
ATOM      3  H   UNL     1     167.555 179.280 167.406  1.00  0.00     0.345 HD
ATOM      4  H   UNL     1     167.147 177.643 167.136  1.00  0.00     0.345 HD
ATOM      5  H   UNL     1     166.486 178.504 168.448  1.00  0.00     0.345 HD
ENDBRANCH   1   2
BRANCH   1   6
ATOM      6  C   UNL     1     165.335 180.447 166.898  1.00  0.00     0.099 C 
ATOM      7  O   UNL     1     164.450 181.051 166.235  1.00  0.00    -0.544 OA
ATOM      8  O   UNL     1     166.025 181.125 167.895  1.00  0.00    -0.544 OA
ENDBRANCH   1   6
BRANCH   1   9
ATOM      9  C   UNL     1     164.400 178.102 166.820  1.00  0.00     0.047 C 
ATOM     10  C   UNL     1     164.670 176.655 166.370  1.00  0.00     0.014 C 
ATOM     11  C   UNL     1     163.941 178.095 168.288  1.00  0.00     0.014 C 
ENDBRANCH   1   9
TORSDOF 3
ENDMDL
MODEL 7
REMARK VINA RESULT:    -2.794      2.740      3.363
REMARK INTER + INTRA:          -3.266
REMARK INTER:                  -3.192
REMARK INTRA:                  -0.074
REMARK UNBOUND:                -0.063
REMARK SMILES CC(C)[C@H]([NH3+])C(=O)[O-]
REMARK SMILES IDX 4 1 5 2 6 6 7 7 8 8 2 9 1 10 3 11
REMARK H PARENT 5 3 5 4 5 5
REMARK Flexibility Score: inf
ROOT
ATOM      1  C   UNL     1     165.294 177.454 166.459  1.00  0.00     0.230 C 
ENDROOT
BRANCH   1   2
ATOM      2  N   UNL     1     164.951 176.130 167.002  1.00  0.00    -0.350 N 
ATOM      3  H   UNL     1     164.098 176.196 167.603  1.00  0.00     0.345 HD
ATOM      4  H   UNL     1     165.745 175.742 167.561  1.00  0.00     0.345 HD
ATOM      5  H   UNL     1     164.727 175.468 166.223  1.00  0.00     0.345 HD
ENDBRANCH   1   2
BRANCH   1   6
ATOM      6  C   UNL     1     165.255 178.476 167.568  1.00  0.00     0.099 C 
ATOM      7  O   UNL     1     166.290 179.129 167.872  1.00  0.00    -0.544 OA
ATOM      8  O   UNL     1     164.076 178.697 168.268  1.00  0.00    -0.544 OA
ENDBRANCH   1   6
BRANCH   1   9
ATOM      9  C   UNL     1     164.348 177.866 165.290  1.00  0.00     0.047 C 
ATOM     10  C   UNL     1     164.831 179.161 164.613  1.00  0.00     0.014 C 
ATOM     11  C   UNL     1     164.229 176.758 164.231  1.00  0.00     0.014 C 
ENDBRANCH   1   9
TORSDOF 3
ENDMDL
MODEL 8
REMARK VINA RESULT:    -2.784     10.834     11.688
REMARK INTER + INTRA:          -3.255
REMARK INTER:                  -3.193
REMARK INTRA:                  -0.062
REMARK UNBOUND:                -0.063
REMARK SMILES CC(C)[C@H]([NH3+])C(=O)[O-]
REMARK SMILES IDX 4 1 5 2 6 6 7 7 8 8 2 9 1 10 3 11
REMARK H PARENT 5 3 5 4 5 5
REMARK Flexibility Score: inf
ROOT
ATOM      1  C   UNL     1     170.162 170.016 164.033  1.00  0.00     0.230 C 
ENDROOT
BRANCH   1   2
ATOM      2  N   UNL     1     171.615 170.248 164.083  1.00  0.00    -0.350 N 
ATOM      3  H   UNL     1     172.017 170.231 163.119  1.00  0.00     0.345 HD
ATOM      4  H   UNL     1     172.085 169.523 164.673  1.00  0.00     0.345 HD
ATOM      5  H   UNL     1     171.815 171.194 164.483  1.00  0.00     0.345 HD
ENDBRANCH   1   2
BRANCH   1   6
ATOM      6  C   UNL     1     169.888 168.691 163.366  1.00  0.00     0.099 C 
ATOM      7  O   UNL     1     170.174 168.517 162.150  1.00  0.00    -0.544 OA
ATOM      8  O   UNL     1     169.310 167.656 164.089  1.00  0.00    -0.544 OA
ENDBRANCH   1   6
BRANCH   1   9
ATOM      9  C   UNL     1     169.414 171.172 163.301  1.00  0.00     0.047 C 
ATOM     10  C   UNL     1     167.966 171.305 163.804  1.00  0.00     0.014 C 
ATOM     11  C   UNL     1     170.133 172.521 163.475  1.00  0.00     0.014 C 
ENDBRANCH   1   9
TORSDOF 3
ENDMDL
MODEL 9
REMARK VINA RESULT:    -2.761     11.193     12.432
REMARK INTER + INTRA:          -3.228
REMARK INTER:                  -3.181
REMARK INTRA:                  -0.046
REMARK UNBOUND:                -0.063
REMARK SMILES CC(C)[C@H]([NH3+])C(=O)[O-]
REMARK SMILES IDX 4 1 5 2 6 6 7 7 8 8 2 9 1 10 3 11
REMARK H PARENT 5 3 5 4 5 5
REMARK Flexibility Score: inf
ROOT
ATOM      1  C   UNL     1     170.303 169.273 162.741  1.00  0.00     0.230 C 
ENDROOT
BRANCH   1   2
ATOM      2  N   UNL     1     169.283 169.733 161.784  1.00  0.00    -0.350 N 
ATOM      3  H   UNL     1     168.337 169.395 162.074  1.00  0.00     0.345 HD
ATOM      4  H   UNL     1     169.498 169.390 160.820  1.00  0.00     0.345 HD
ATOM      5  H   UNL     1     169.246 170.779 161.773  1.00  0.00     0.345 HD
ENDBRANCH   1   2
BRANCH   1   6
ATOM      6  C   UNL     1     170.001 167.852 163.150  1.00  0.00     0.099 C 
ATOM      7  O   UNL     1     169.285 167.617 164.160  1.00  0.00    -0.544 OA
ATOM      8  O   UNL     1     170.521 166.793 162.417  1.00  0.00    -0.544 OA
ENDBRANCH   1   6
BRANCH   1   9
ATOM      9  C   UNL     1     170.392 170.204 163.988  1.00  0.00     0.047 C 
ATOM     10  C   UNL     1     171.679 171.046 163.963  1.00  0.00     0.014 C 
ATOM     11  C   UNL     1     169.178 171.143 164.090  1.00  0.00     0.014 C 
ENDBRANCH   1   9
TORSDOF 3
ENDMDL
