MODEL 1
REMARK VINA RESULT:    -4.034      0.000      0.000
REMARK INTER + INTRA:          -6.642
REMARK INTER:                  -6.156
REMARK INTRA:                  -0.486
REMARK UNBOUND:                -0.486
REMARK SMILES CC1=CCC[C@@H](C)C(=O)C[C@@H](C(C)C)C(=O)C1
REMARK SMILES IDX 8 1 9 2 6 3 7 4 5 5 4 6 3 7 2 8 1 9 10 11 11 12 15 13 16 14
REMARK SMILES IDX 17 15 12 17 13 18 14 19
REMARK H PARENT
REMARK Flexibility Score: 70.00
ROOT
ATOM      1  C   UNL     1       8.961 -15.841  21.003  1.00  0.00     0.136 C 
ATOM      2  O   UNL     1       9.004 -14.622  20.934  1.00  0.00    -0.299 OA
ENDROOT
BRANCH   1   3
ATOM      3  C   UNL     1       8.605 -16.487  22.350  1.00  0.00     0.053 C 
ATOM      4  C   UNL     1       7.926 -15.474  23.273  1.00  0.00     0.016 C 
BRANCH   3   5
ATOM      5  C   UNL     1       9.904 -17.006  22.935  1.00  0.00     0.015 C 
BRANCH   5   6
ATOM      6  C   UNL     1      11.290 -16.711  22.426  1.00  0.00     0.028 C 
BRANCH   6   7
ATOM      7  C   UNL     1      12.035 -18.039  22.264  1.00  0.00    -0.028 C 
ATOM      8  C   UNL     1      12.214 -18.798  21.127  1.00  0.00    -0.070 CG0
ATOM      9  C   UNL     1      13.128 -19.994  21.260  1.00  0.00     0.039 C 
ATOM     10  G   UNL     1      11.555 -18.573  19.747  1.00  0.00     0.000 G0
ENDBRANCH   6   7
ENDBRANCH   5   6
ENDBRANCH   3   5
ENDBRANCH   1   3
BRANCH   1  11
ATOM     11  C   UNL     1       9.257 -16.662  19.733  1.00  0.00     0.087 C 
BRANCH  11  12
ATOM     12  C   UNL     1       8.899 -18.201  19.824  1.00  0.00     0.066 C 
BRANCH  12  13
ATOM     13  C   UNL     1      10.140 -19.091  19.570  1.00  0.00     0.140 C 
ATOM     14  O   UNL     1       9.975 -20.267  19.281  1.00  0.00    -0.299 OA
BRANCH  13  15
ATOM     15  C   UNL     1      11.574 -18.568  19.723  1.00  0.00     0.106 CG0
ATOM     16  G   UNL     1      12.200 -18.786  21.120  1.00  0.00     0.000 G0
ENDBRANCH  13  15
ENDBRANCH  12  13
BRANCH  12  17
ATOM     17  C   UNL     1       7.735 -18.578  18.850  1.00  0.00    -0.006 C 
ATOM     18  C   UNL     1       7.780 -17.724  17.566  1.00  0.00     0.008 C 
ATOM     19  C   UNL     1       6.347 -18.400  19.497  1.00  0.00     0.008 C 
ENDBRANCH  12  17
ENDBRANCH  11  12
ENDBRANCH   1  11
TORSDOF 1
ENDMDL
MODEL 2
REMARK VINA RESULT:    -3.993      2.281      4.104
REMARK INTER + INTRA:          -6.580
REMARK INTER:                  -6.089
REMARK INTRA:                  -0.491
REMARK UNBOUND:                -0.486
REMARK SMILES CC1=CCC[C@@H](C)C(=O)C[C@@H](C(C)C)C(=O)C1
REMARK SMILES IDX 8 1 9 2 6 3 7 4 5 5 4 6 3 7 2 8 1 9 10 11 11 12 15 13 16 14
REMARK SMILES IDX 17 15 12 17 13 18 14 19
REMARK H PARENT
REMARK Flexibility Score: 70.00
ROOT
ATOM      1  C   UNL     1       8.886 -19.259  19.098  1.00  0.00     0.136 C 
ATOM      2  O   UNL     1       7.889 -19.933  18.885  1.00  0.00    -0.299 OA
ENDROOT
BRANCH   1   3
ATOM      3  C   UNL     1       8.934 -17.827  18.547  1.00  0.00     0.053 C 
ATOM      4  C   UNL     1       7.708 -17.539  17.679  1.00  0.00     0.016 C 
BRANCH   3   5
ATOM      5  C   UNL     1      10.226 -17.713  17.761  1.00  0.00     0.015 C 
BRANCH   5   6
ATOM      6  C   UNL     1      11.163 -16.534  17.754  1.00  0.00     0.028 C 
BRANCH   6   7
ATOM      7  C   UNL     1      12.599 -17.062  17.802  1.00  0.00    -0.028 C 
ATOM      8  C   UNL     1      13.305 -17.555  18.879  1.00  0.00    -0.070 CG0
ATOM      9  C   UNL     1      14.664 -18.139  18.575  1.00  0.00     0.039 C 
ATOM     10  G   UNL     1      12.866 -17.541  20.360  1.00  0.00     0.000 G0
ENDBRANCH   6   7
ENDBRANCH   5   6
ENDBRANCH   3   5
ENDBRANCH   1   3
BRANCH   1  11
ATOM     11  C   UNL     1      10.034 -19.881  19.916  1.00  0.00     0.087 C 
BRANCH  11  12
ATOM     12  C   UNL     1      10.655 -18.943  21.030  1.00  0.00     0.066 C 
BRANCH  12  13
ATOM     13  C   UNL     1      12.191 -18.823  20.881  1.00  0.00     0.140 C 
ATOM     14  O   UNL     1      12.894 -19.764  21.222  1.00  0.00    -0.299 OA
BRANCH  13  15
ATOM     15  C   UNL     1      12.873 -17.545  20.375  1.00  0.00     0.106 CG0
ATOM     16  G   UNL     1      13.280 -17.573  18.884  1.00  0.00     0.000 G0
ENDBRANCH  13  15
ENDBRANCH  12  13
BRANCH  12  17
ATOM     17  C   UNL     1      10.272 -19.427  22.467  1.00  0.00    -0.006 C 
ATOM     18  C   UNL     1       9.492 -20.757  22.422  1.00  0.00     0.008 C 
ATOM     19  C   UNL     1       9.416 -18.393  23.225  1.00  0.00     0.008 C 
ENDBRANCH  12  17
ENDBRANCH  11  12
ENDBRANCH   1  11
TORSDOF 1
ENDMDL
MODEL 3
REMARK VINA RESULT:    -3.951      3.950      6.007
REMARK INTER + INTRA:          -6.516
REMARK INTER:                  -6.258
REMARK INTRA:                  -0.257
REMARK UNBOUND:                -0.486
REMARK SMILES CC1=CCC[C@@H](C)C(=O)C[C@@H](C(C)C)C(=O)C1
REMARK SMILES IDX 8 1 9 2 6 3 7 4 5 5 4 6 3 7 2 8 1 9 10 11 11 12 15 13 16 14
REMARK SMILES IDX 17 15 12 17 13 18 14 19
REMARK H PARENT
REMARK Flexibility Score: 70.00
ROOT
ATOM      1  C   UNL     1       5.869 -14.236  24.425  1.00  0.00     0.136 C 
ATOM      2  O   UNL     1       5.023 -14.164  23.546  1.00  0.00    -0.299 OA
ENDROOT
BRANCH   1   3
ATOM      3  C   UNL     1       5.820 -15.427  25.393  1.00  0.00     0.053 C 
ATOM      4  C   UNL     1       6.430 -15.052  26.744  1.00  0.00     0.016 C 
BRANCH   3   5
ATOM      5  C   UNL     1       6.575 -16.558  24.723  1.00  0.00     0.015 C 
BRANCH   5   6
ATOM      6  C   UNL     1       7.035 -16.596  23.290  1.00  0.00     0.028 C 
BRANCH   6   7
ATOM      7  C   UNL     1       8.538 -16.884  23.276  1.00  0.00    -0.028 C 
ATOM      8  C   UNL     1       9.579 -16.076  23.682  1.00  0.00    -0.070 CG0
ATOM      9  C   UNL     1      10.953 -16.705  23.680  1.00  0.00     0.039 C 
ATOM     10  G   UNL     1       9.491 -14.592  24.105  1.00  0.00     0.000 G0
ENDBRANCH   6   7
ENDBRANCH   5   6
ENDBRANCH   3   5
ENDBRANCH   1   3
BRANCH   1  11
ATOM     11  C   UNL     1       6.942 -13.134  24.506  1.00  0.00     0.087 C 
BRANCH  11  12
ATOM     12  C   UNL     1       7.684 -12.811  23.146  1.00  0.00     0.066 C 
BRANCH  12  13
ATOM     13  C   UNL     1       8.997 -13.620  23.008  1.00  0.00     0.140 C 
ATOM     14  O   UNL     1       9.639 -13.532  21.972  1.00  0.00    -0.299 OA
BRANCH  13  15
ATOM     15  C   UNL     1       9.496 -14.574  24.101  1.00  0.00     0.106 CG0
ATOM     16  G   UNL     1       9.554 -16.062  23.687  1.00  0.00     0.000 G0
ENDBRANCH  13  15
ENDBRANCH  12  13
BRANCH  12  17
ATOM     17  C   UNL     1       7.956 -11.279  22.989  1.00  0.00    -0.006 C 
ATOM     18  C   UNL     1       9.053 -10.802  23.962  1.00  0.00     0.008 C 
ATOM     19  C   UNL     1       6.691 -10.432  23.238  1.00  0.00     0.008 C 
ENDBRANCH  12  17
ENDBRANCH  11  12
ENDBRANCH   1  11
TORSDOF 1
ENDMDL
MODEL 4
REMARK VINA RESULT:    -3.859      2.122      4.676
REMARK INTER + INTRA:          -6.375
REMARK INTER:                  -5.903
REMARK INTRA:                  -0.472
REMARK UNBOUND:                -0.486
REMARK SMILES CC1=CCC[C@@H](C)C(=O)C[C@@H](C(C)C)C(=O)C1
REMARK SMILES IDX 8 1 9 2 6 3 7 4 5 5 4 6 3 7 2 8 1 9 10 11 11 12 15 13 16 14
REMARK SMILES IDX 17 15 12 17 13 18 14 19
REMARK H PARENT
REMARK Flexibility Score: 70.00
ROOT
ATOM      1  C   UNL     1       8.875 -16.693  17.495  1.00  0.00     0.136 C 
ATOM      2  O   UNL     1       8.405 -15.579  17.677  1.00  0.00    -0.299 OA
ENDROOT
BRANCH   1   3
ATOM      3  C   UNL     1       7.914 -17.884  17.381  1.00  0.00     0.053 C 
ATOM      4  C   UNL     1       6.907 -17.662  16.252  1.00  0.00     0.016 C 
BRANCH   3   5
ATOM      5  C   UNL     1       7.234 -18.020  18.729  1.00  0.00     0.015 C 
BRANCH   5   6
ATOM      6  C   UNL     1       7.840 -18.605  19.977  1.00  0.00     0.028 C 
BRANCH   6   7
ATOM      7  C   UNL     1       7.783 -17.546  21.081  1.00  0.00    -0.028 C 
ATOM      8  C   UNL     1       8.800 -16.761  21.581  1.00  0.00    -0.070 CG0
ATOM      9  C   UNL     1       8.395 -15.697  22.575  1.00  0.00     0.039 C 
ATOM     10  G   UNL     1      10.307 -16.877  21.258  1.00  0.00     0.000 G0
ENDBRANCH   6   7
ENDBRANCH   5   6
ENDBRANCH   3   5
ENDBRANCH   1   3
BRANCH   1  11
ATOM     11  C   UNL     1      10.405 -16.837  17.383  1.00  0.00     0.087 C 
BRANCH  11  12
ATOM     12  C   UNL     1      11.144 -17.260  18.718  1.00  0.00     0.066 C 
BRANCH  12  13
ATOM     13  C   UNL     1      10.760 -16.334  19.898  1.00  0.00     0.140 C 
ATOM     14  O   UNL     1      10.848 -15.124  19.754  1.00  0.00    -0.299 OA
BRANCH  13  15
ATOM     15  C   UNL     1      10.326 -16.880  21.265  1.00  0.00     0.106 CG0
ATOM     16  G   UNL     1       8.817 -16.745  21.570  1.00  0.00     0.000 G0
ENDBRANCH  13  15
ENDBRANCH  12  13
BRANCH  12  17
ATOM     17  C   UNL     1      12.695 -17.302  18.527  1.00  0.00    -0.006 C 
ATOM     18  C   UNL     1      13.083 -17.127  17.044  1.00  0.00     0.008 C 
ATOM     19  C   UNL     1      13.313 -18.621  19.033  1.00  0.00     0.008 C 
ENDBRANCH  12  17
ENDBRANCH  11  12
ENDBRANCH   1  11
TORSDOF 1
ENDMDL
MODEL 5
REMARK VINA RESULT:    -3.840      1.993      3.969
REMARK INTER + INTRA:          -6.346
REMARK INTER:                  -5.844
REMARK INTRA:                  -0.503
REMARK UNBOUND:                -0.486
REMARK SMILES CC1=CCC[C@@H](C)C(=O)C[C@@H](C(C)C)C(=O)C1
REMARK SMILES IDX 8 1 9 2 6 3 7 4 5 5 4 6 3 7 2 8 1 9 10 11 11 12 15 13 16 14
REMARK SMILES IDX 17 15 12 17 13 18 14 19
REMARK H PARENT
REMARK Flexibility Score: 70.00
ROOT
ATOM      1  C   UNL     1      10.169 -19.379  20.359  1.00  0.00     0.136 C 
ATOM      2  O   UNL     1       9.627 -20.381  19.915  1.00  0.00    -0.299 OA
ENDROOT
BRANCH   1   3
ATOM      3  C   UNL     1      11.630 -19.479  20.820  1.00  0.00     0.053 C 
ATOM      4  C   UNL     1      11.892 -18.539  21.997  1.00  0.00     0.016 C 
BRANCH   3   5
ATOM      5  C   UNL     1      12.486 -19.135  19.617  1.00  0.00     0.015 C 
BRANCH   5   6
ATOM      6  C   UNL     1      13.502 -18.027  19.534  1.00  0.00     0.028 C 
BRANCH   6   7
ATOM      7  C   UNL     1      13.145 -17.136  18.342  1.00  0.00    -0.028 C 
ATOM      8  C   UNL     1      12.269 -16.073  18.287  1.00  0.00    -0.070 CG0
ATOM      9  C   UNL     1      12.243 -15.295  16.993  1.00  0.00     0.039 C 
ATOM     10  G   UNL     1      11.291 -15.618  19.394  1.00  0.00     0.000 G0
ENDBRANCH   6   7
ENDBRANCH   5   6
ENDBRANCH   3   5
ENDBRANCH   1   3
BRANCH   1  11
ATOM     11  C   UNL     1       9.358 -18.071  20.422  1.00  0.00     0.087 C 
BRANCH  11  12
ATOM     12  C   UNL     1       9.207 -17.302  19.046  1.00  0.00     0.066 C 
BRANCH  12  13
ATOM     13  C   UNL     1       9.800 -15.874  19.125  1.00  0.00     0.140 C 
ATOM     14  O   UNL     1       9.069 -14.918  18.908  1.00  0.00    -0.299 OA
BRANCH  13  15
ATOM     15  C   UNL     1      11.285 -15.612  19.407  1.00  0.00     0.106 CG0
ATOM     16  G   UNL     1      12.248 -16.051  18.281  1.00  0.00     0.000 G0
ENDBRANCH  13  15
ENDBRANCH  12  13
BRANCH  12  17
ATOM     17  C   UNL     1       7.718 -17.261  18.572  1.00  0.00    -0.006 C 
ATOM     18  C   UNL     1       6.883 -18.368  19.248  1.00  0.00     0.008 C 
ATOM     19  C   UNL     1       7.584 -17.424  17.044  1.00  0.00     0.008 C 
ENDBRANCH  12  17
ENDBRANCH  11  12
ENDBRANCH   1  11
TORSDOF 1
ENDMDL
MODEL 6
REMARK VINA RESULT:    -3.795      4.445      7.133
REMARK INTER + INTRA:          -6.278
REMARK INTER:                  -5.803
REMARK INTRA:                  -0.475
REMARK UNBOUND:                -0.486
REMARK SMILES CC1=CCC[C@@H](C)C(=O)C[C@@H](C(C)C)C(=O)C1
REMARK SMILES IDX 8 1 9 2 6 3 7 4 5 5 4 6 3 7 2 8 1 9 10 11 11 12 15 13 16 14
REMARK SMILES IDX 17 15 12 17 13 18 14 19
REMARK H PARENT
REMARK Flexibility Score: 70.00
ROOT
ATOM      1  C   UNL     1       8.982 -14.388  22.371  1.00  0.00     0.136 C 
ATOM      2  O   UNL     1       9.506 -14.279  21.273  1.00  0.00    -0.299 OA
ENDROOT
BRANCH   1   3
ATOM      3  C   UNL     1       9.570 -15.397  23.368  1.00  0.00     0.053 C 
ATOM      4  C   UNL     1      11.055 -15.631  23.088  1.00  0.00     0.016 C 
BRANCH   3   5
ATOM      5  C   UNL     1       8.758 -16.669  23.222  1.00  0.00     0.015 C 
BRANCH   5   6
ATOM      6  C   UNL     1       7.257 -16.773  23.237  1.00  0.00     0.028 C 
BRANCH   6   7
ATOM      7  C   UNL     1       6.782 -16.660  24.688  1.00  0.00    -0.028 C 
ATOM      8  C   UNL     1       6.052 -15.653  25.284  1.00  0.00    -0.070 CG0
ATOM      9  C   UNL     1       5.610 -15.902  26.707  1.00  0.00     0.039 C 
ATOM     10  G   UNL     1       5.671 -14.291  24.663  1.00  0.00     0.000 G0
ENDBRANCH   6   7
ENDBRANCH   5   6
ENDBRANCH   3   5
ENDBRANCH   1   3
BRANCH   1  11
ATOM     11  C   UNL     1       7.765 -13.500  22.698  1.00  0.00     0.087 C 
BRANCH  11  12
ATOM     12  C   UNL     1       7.826 -12.758  24.096  1.00  0.00     0.066 C 
BRANCH  12  13
ATOM     13  C   UNL     1       6.612 -13.119  24.985  1.00  0.00     0.140 C 
ATOM     14  O   UNL     1       6.422 -12.484  26.012  1.00  0.00    -0.299 OA
BRANCH  13  15
ATOM     15  C   UNL     1       5.667 -14.283  24.658  1.00  0.00     0.106 CG0
ATOM     16  G   UNL     1       6.062 -15.637  25.288  1.00  0.00     0.000 G0
ENDBRANCH  13  15
ENDBRANCH  12  13
BRANCH  12  17
ATOM     17  C   UNL     1       7.945 -11.209  23.918  1.00  0.00    -0.006 C 
ATOM     18  C   UNL     1       6.833 -10.663  22.998  1.00  0.00     0.008 C 
ATOM     19  C   UNL     1       9.306 -10.789  23.328  1.00  0.00     0.008 C 
ENDBRANCH  12  17
ENDBRANCH  11  12
ENDBRANCH   1  11
TORSDOF 1
ENDMDL
MODEL 7
REMARK VINA RESULT:    -3.728      1.523      3.857
REMARK INTER + INTRA:          -6.175
REMARK INTER:                  -5.576
REMARK INTRA:                  -0.599
REMARK UNBOUND:                -0.486
REMARK SMILES CC1=CCC[C@@H](C)C(=O)C[C@@H](C(C)C)C(=O)C1
REMARK SMILES IDX 8 1 9 2 6 3 7 4 5 5 4 6 3 7 2 8 1 9 10 11 11 12 15 13 16 14
REMARK SMILES IDX 17 15 12 17 13 18 14 19
REMARK H PARENT
REMARK Flexibility Score: 70.00
ROOT
ATOM      1  C   UNL     1       8.173 -18.101  19.981  1.00  0.00     0.136 C 
ATOM      2  O   UNL     1       8.235 -19.316  20.094  1.00  0.00    -0.299 OA
ENDROOT
BRANCH   1   3
ATOM      3  C   UNL     1       8.436 -17.478  18.602  1.00  0.00     0.053 C 
ATOM      4  C   UNL     1       7.392 -17.949  17.588  1.00  0.00     0.016 C 
BRANCH   3   5
ATOM      5  C   UNL     1       9.840 -17.890  18.204  1.00  0.00     0.015 C 
BRANCH   5   6
ATOM      6  C   UNL     1      11.122 -17.275  18.698  1.00  0.00     0.028 C 
BRANCH   6   7
ATOM      7  C   UNL     1      11.899 -18.341  19.474  1.00  0.00    -0.028 C 
ATOM      8  C   UNL     1      12.043 -18.488  20.837  1.00  0.00    -0.070 CG0
ATOM      9  C   UNL     1      12.756 -19.736  21.303  1.00  0.00     0.039 C 
ATOM     10  G   UNL     1      11.583 -17.497  21.931  1.00  0.00     0.000 G0
ENDBRANCH   6   7
ENDBRANCH   5   6
ENDBRANCH   3   5
ENDBRANCH   1   3
BRANCH   1  11
ATOM     11  C   UNL     1       7.828 -17.262  21.227  1.00  0.00     0.087 C 
BRANCH  11  12
ATOM     12  C   UNL     1       9.061 -16.567  21.936  1.00  0.00     0.066 C 
BRANCH  12  13
ATOM     13  C   UNL     1      10.126 -17.603  22.370  1.00  0.00     0.140 C 
ATOM     14  O   UNL     1       9.797 -18.511  23.118  1.00  0.00    -0.299 OA
BRANCH  13  15
ATOM     15  C   UNL     1      11.597 -17.501  21.944  1.00  0.00     0.106 CG0
ATOM     16  G   UNL     1      12.023 -18.492  20.837  1.00  0.00     0.000 G0
ENDBRANCH  13  15
ENDBRANCH  12  13
BRANCH  12  17
ATOM     17  C   UNL     1       8.606 -15.694  23.151  1.00  0.00    -0.006 C 
ATOM     18  C   UNL     1       7.196 -16.093  23.633  1.00  0.00     0.008 C 
ATOM     19  C   UNL     1       8.592 -14.188  22.819  1.00  0.00     0.008 C 
ENDBRANCH  12  17
ENDBRANCH  11  12
ENDBRANCH   1  11
TORSDOF 1
ENDMDL
MODEL 8
REMARK VINA RESULT:    -3.710      3.543      5.802
REMARK INTER + INTRA:          -6.149
REMARK INTER:                  -5.478
REMARK INTRA:                  -0.671
REMARK UNBOUND:                -0.486
REMARK SMILES CC1=CCC[C@@H](C)C(=O)C[C@@H](C(C)C)C(=O)C1
REMARK SMILES IDX 8 1 9 2 6 3 7 4 5 5 4 6 3 7 2 8 1 9 10 11 11 12 15 13 16 14
REMARK SMILES IDX 17 15 12 17 13 18 14 19
REMARK H PARENT
REMARK Flexibility Score: 70.00
ROOT
ATOM      1  C   UNL     1       9.780 -13.566  24.349  1.00  0.00     0.136 C 
ATOM      2  O   UNL     1       9.887 -13.431  25.559  1.00  0.00    -0.299 OA
ENDROOT
BRANCH   1   3
ATOM      3  C   UNL     1       9.118 -12.441  23.541  1.00  0.00     0.053 C 
ATOM      4  C   UNL     1       9.980 -11.178  23.565  1.00  0.00     0.016 C 
BRANCH   3   5
ATOM      5  C   UNL     1       7.755 -12.209  24.162  1.00  0.00     0.015 C 
BRANCH   5   6
ATOM      6  C   UNL     1       6.467 -12.876  23.757  1.00  0.00     0.028 C 
BRANCH   6   7
ATOM      7  C   UNL     1       6.170 -13.996  24.757  1.00  0.00    -0.028 C 
ATOM      8  C   UNL     1       6.391 -15.351  24.631  1.00  0.00    -0.070 CG0
ATOM      9  C   UNL     1       6.124 -16.188  25.860  1.00  0.00     0.039 C 
ATOM     10  G   UNL     1       6.846 -16.103  23.359  1.00  0.00     0.000 G0
ENDBRANCH   6   7
ENDBRANCH   5   6
ENDBRANCH   3   5
ENDBRANCH   1   3
BRANCH   1  11
ATOM     11  C   UNL     1      10.322 -14.855  23.701  1.00  0.00     0.087 C 
BRANCH  11  12
ATOM     12  C   UNL     1       9.373 -15.520  22.623  1.00  0.00     0.066 C 
BRANCH  12  13
ATOM     13  C   UNL     1       8.333 -16.459  23.282  1.00  0.00     0.140 C 
ATOM     14  O   UNL     1       8.704 -17.538  23.719  1.00  0.00    -0.299 OA
BRANCH  13  15
ATOM     15  C   UNL     1       6.840 -16.111  23.356  1.00  0.00     0.106 CG0
ATOM     16  G   UNL     1       6.411 -15.356  24.634  1.00  0.00     0.000 G0
ENDBRANCH  13  15
ENDBRANCH  12  13
BRANCH  12  17
ATOM     17  C   UNL     1      10.192 -16.279  21.528  1.00  0.00    -0.006 C 
ATOM     18  C   UNL     1      11.356 -15.417  20.999  1.00  0.00     0.008 C 
ATOM     19  C   UNL     1       9.319 -16.698  20.328  1.00  0.00     0.008 C 
ENDBRANCH  12  17
ENDBRANCH  11  12
ENDBRANCH   1  11
TORSDOF 1
ENDMDL
MODEL 9
REMARK VINA RESULT:    -3.702      2.734      4.664
REMARK INTER + INTRA:          -6.136
REMARK INTER:                  -5.603
REMARK INTRA:                  -0.533
REMARK UNBOUND:                -0.486
REMARK SMILES CC1=CCC[C@@H](C)C(=O)C[C@@H](C(C)C)C(=O)C1
REMARK SMILES IDX 8 1 9 2 6 3 7 4 5 5 4 6 3 7 2 8 1 9 10 11 11 12 15 13 16 14
REMARK SMILES IDX 17 15 12 17 13 18 14 19
REMARK H PARENT
REMARK Flexibility Score: 70.00
ROOT
ATOM      1  C   UNL     1      11.147 -16.343  17.460  1.00  0.00     0.136 C 
ATOM      2  O   UNL     1      11.083 -16.682  16.288  1.00  0.00    -0.299 OA
ENDROOT
BRANCH   1   3
ATOM      3  C   UNL     1       9.838 -16.082  18.220  1.00  0.00     0.053 C 
ATOM      4  C   UNL     1      10.123 -15.509  19.608  1.00  0.00     0.016 C 
BRANCH   3   5
ATOM      5  C   UNL     1       9.110 -17.410  18.292  1.00  0.00     0.015 C 
BRANCH   5   6
ATOM      6  C   UNL     1       9.744 -18.766  18.446  1.00  0.00     0.028 C 
BRANCH   6   7
ATOM      7  C   UNL     1       9.775 -19.117  19.935  1.00  0.00    -0.028 C 
ATOM      8  C   UNL     1      10.865 -19.283  20.764  1.00  0.00    -0.070 CG0
ATOM      9  C   UNL     1      10.564 -19.483  22.230  1.00  0.00     0.039 C 
ATOM     10  G   UNL     1      12.352 -19.320  20.344  1.00  0.00     0.000 G0
ENDBRANCH   6   7
ENDBRANCH   5   6
ENDBRANCH   3   5
ENDBRANCH   1   3
BRANCH   1  11
ATOM     11  C   UNL     1      12.536 -16.206  18.113  1.00  0.00     0.087 C 
BRANCH  11  12
ATOM     12  C   UNL     1      13.243 -17.572  18.488  1.00  0.00     0.066 C 
BRANCH  12  13
ATOM     13  C   UNL     1      12.971 -17.969  19.959  1.00  0.00     0.140 C 
ATOM     14  O   UNL     1      13.294 -17.196  20.850  1.00  0.00    -0.299 OA
BRANCH  13  15
ATOM     15  C   UNL     1      12.361 -19.322  20.349  1.00  0.00     0.106 CG0
ATOM     16  G   UNL     1      10.871 -19.271  20.754  1.00  0.00     0.000 G0
ENDBRANCH  13  15
ENDBRANCH  12  13
BRANCH  12  17
ATOM     17  C   UNL     1      14.780 -17.519  18.202  1.00  0.00    -0.006 C 
ATOM     18  C   UNL     1      15.064 -17.155  16.731  1.00  0.00     0.008 C 
ATOM     19  C   UNL     1      15.480 -18.859  18.510  1.00  0.00     0.008 C 
ENDBRANCH  12  17
ENDBRANCH  11  12
ENDBRANCH   1  11
TORSDOF 1
ENDMDL
