MODEL 1
REMARK VINA RESULT:    -6.201      0.000      0.000
REMARK INTER + INTRA:          -7.812
REMARK INTER:                  -7.651
REMARK INTRA:                  -0.161
REMARK UNBOUND:                -0.161
REMARK SMILES COc1cc(-c2oc3cc(O)cc(O)c3c(=O)c2O)ccc1O
REMARK SMILES IDX 6 1 18 2 16 3 17 4 15 5 13 6 12 7 10 8 9 9 8 10 7 11 5 12
REMARK SMILES IDX 3 13 22 14 4 15 21 16 20 17 2 18 1 19 23 20 19 22 14 24
REMARK SMILES IDX 11 26
REMARK H PARENT 23 21 19 23 14 25 11 27
REMARK Flexibility Score: inf
ROOT
ATOM      1  C   UNL     1       1.731   4.394   8.088  1.00  0.00     0.180 A 
ATOM      2  C   UNL     1       1.167   3.131   7.846  1.00  0.00     0.208 A 
ATOM      3  C   UNL     1       2.016   2.040   7.603  1.00  0.00     0.238 A 
ATOM      4  O   UNL     1       1.506   0.901   7.441  1.00  0.00    -0.285 OA
ATOM      5  C   UNL     1       3.419   2.229   7.589  1.00  0.00     0.111 A 
ATOM      6  C   UNL     1       4.373   1.204   7.315  1.00  0.00     0.134 A 
ATOM      7  C   UNL     1       5.740   1.475   7.457  1.00  0.00     0.093 A 
ATOM      8  C   UNL     1       6.189   2.753   7.801  1.00  0.00     0.123 A 
ATOM      9  C   UNL     1       5.267   3.775   8.012  1.00  0.00     0.094 A 
ATOM     10  C   UNL     1       3.896   3.527   7.914  1.00  0.00     0.146 A 
ATOM     11  O   UNL     1       3.051   4.527   8.134  1.00  0.00    -0.452 OA
ENDROOT
BRANCH   1  12
ATOM     12  C   UNL     1       0.899   5.596   8.327  1.00  0.00     0.025 A 
ATOM     13  C   UNL     1       0.212   7.872   7.750  1.00  0.00     0.161 A 
ATOM     14  C   UNL     1      -0.659   7.879   8.849  1.00  0.00     0.157 A 
ATOM     15  C   UNL     1       0.995   6.728   7.497  1.00  0.00     0.062 A 
ATOM     16  C   UNL     1      -0.739   6.761   9.689  1.00  0.00     0.051 A 
ATOM     17  C   UNL     1       0.040   5.631   9.434  1.00  0.00     0.016 A 
BRANCH  13  18
ATOM     18  O   UNL     1       0.272   9.015   6.939  1.00  0.00    -0.493 OA
ATOM     19  C   UNL     1       1.234  10.056   7.082  1.00  0.00     0.278 C 
ENDBRANCH  13  18
BRANCH  14  20
ATOM     20  O   UNL     1      -1.439   9.006   9.103  1.00  0.00    -0.504 OA
ATOM     21  H   UNL     1      -2.195   8.986   9.777  1.00  0.00     0.293 HD
ENDBRANCH  14  20
ENDBRANCH   1  12
BRANCH   2  22
ATOM     22  O   UNL     1      -0.220   2.962   7.885  1.00  0.00    -0.502 OA
ATOM     23  H   UNL     1      -0.743   2.569   7.111  1.00  0.00     0.293 HD
ENDBRANCH   2  22
BRANCH   6  24
ATOM     24  O   UNL     1       4.034  -0.080   6.875  1.00  0.00    -0.507 OA
ATOM     25  H   UNL     1       3.692  -0.299   5.952  1.00  0.00     0.293 HD
ENDBRANCH   6  24
BRANCH   8  26
ATOM     26  O   UNL     1       7.551   3.018   7.925  1.00  0.00    -0.508 OA
ATOM     27  H   UNL     1       8.243   2.284   7.835  1.00  0.00     0.293 HD
ENDBRANCH   8  26
TORSDOF 6
ENDMDL
MODEL 2
REMARK VINA RESULT:    -5.285      1.494      7.053
REMARK INTER + INTRA:          -6.682
REMARK INTER:                  -7.083
REMARK INTRA:                   0.401
REMARK UNBOUND:                -0.161
REMARK SMILES COc1cc(-c2oc3cc(O)cc(O)c3c(=O)c2O)ccc1O
REMARK SMILES IDX 6 1 18 2 16 3 17 4 15 5 13 6 12 7 10 8 9 9 8 10 7 11 5 12
REMARK SMILES IDX 3 13 22 14 4 15 21 16 20 17 2 18 1 19 23 20 19 22 14 24
REMARK SMILES IDX 11 26
REMARK H PARENT 23 21 19 23 14 25 11 27
REMARK Flexibility Score: inf
ROOT
ATOM      1  C   UNL     1       1.685   4.696   7.674  1.00  0.00     0.180 A 
ATOM      2  C   UNL     1       0.452   4.103   7.354  1.00  0.00     0.208 A 
ATOM      3  C   UNL     1      -0.706   4.896   7.352  1.00  0.00     0.238 A 
ATOM      4  O   UNL     1      -1.798   4.369   7.012  1.00  0.00    -0.285 OA
ATOM      5  C   UNL     1      -0.621   6.269   7.684  1.00  0.00     0.111 A 
ATOM      6  C   UNL     1      -1.735   7.158   7.752  1.00  0.00     0.134 A 
ATOM      7  C   UNL     1      -1.516   8.525   7.963  1.00  0.00     0.093 A 
ATOM      8  C   UNL     1      -0.228   9.025   8.173  1.00  0.00     0.123 A 
ATOM      9  C   UNL     1       0.859   8.156   8.168  1.00  0.00     0.094 A 
ATOM     10  C   UNL     1       0.678   6.793   7.924  1.00  0.00     0.146 A 
ATOM     11  O   UNL     1       1.743   6.000   7.917  1.00  0.00    -0.452 OA
ENDROOT
BRANCH   1  12
ATOM     12  C   UNL     1       2.945   3.919   7.723  1.00  0.00     0.025 A 
ATOM     13  C   UNL     1       4.205   1.860   7.334  1.00  0.00     0.161 A 
ATOM     14  C   UNL     1       5.345   2.462   7.883  1.00  0.00     0.157 A 
ATOM     15  C   UNL     1       3.003   2.591   7.262  1.00  0.00     0.062 A 
ATOM     16  C   UNL     1       5.283   3.777   8.362  1.00  0.00     0.051 A 
ATOM     17  C   UNL     1       4.090   4.498   8.289  1.00  0.00     0.016 A 
BRANCH  13  18
ATOM     18  O   UNL     1       4.305   0.537   6.875  1.00  0.00    -0.493 OA
ATOM     19  C   UNL     1       3.929  -0.609   7.633  1.00  0.00     0.278 C 
ENDBRANCH  13  18
BRANCH  14  20
ATOM     20  O   UNL     1       6.538   1.745   7.954  1.00  0.00    -0.504 OA
ATOM     21  H   UNL     1       6.555   0.735   7.870  1.00  0.00     0.293 HD
ENDBRANCH  14  20
ENDBRANCH   1  12
BRANCH   2  22
ATOM     22  O   UNL     1       0.393   2.750   7.009  1.00  0.00    -0.502 OA
ATOM     23  H   UNL     1      -0.453   2.200   7.104  1.00  0.00     0.293 HD
ENDBRANCH   2  22
BRANCH   6  24
ATOM     24  O   UNL     1      -3.067   6.748   7.648  1.00  0.00    -0.507 OA
ATOM     25  H   UNL     1      -3.588   6.294   8.383  1.00  0.00     0.293 HD
ENDBRANCH   6  24
BRANCH   8  26
ATOM     26  O   UNL     1      -0.021  10.384   8.397  1.00  0.00    -0.508 OA
ATOM     27  H   UNL     1      -0.541  11.090   7.889  1.00  0.00     0.293 HD
ENDBRANCH   8  26
TORSDOF 6
ENDMDL
MODEL 3
REMARK VINA RESULT:    -5.210      2.163      7.985
REMARK INTER + INTRA:          -6.590
REMARK INTER:                  -6.762
REMARK INTRA:                   0.171
REMARK UNBOUND:                -0.161
REMARK SMILES COc1cc(-c2oc3cc(O)cc(O)c3c(=O)c2O)ccc1O
REMARK SMILES IDX 6 1 18 2 16 3 17 4 15 5 13 6 12 7 10 8 9 9 8 10 7 11 5 12
REMARK SMILES IDX 3 13 22 14 4 15 21 16 20 17 2 18 1 19 23 20 19 22 14 24
REMARK SMILES IDX 11 26
REMARK H PARENT 23 21 19 23 14 25 11 27
REMARK Flexibility Score: inf
ROOT
ATOM      1  C   UNL     1       3.201   2.097   7.695  1.00  0.00     0.180 A 
ATOM      2  C   UNL     1       3.745   3.250   8.286  1.00  0.00     0.208 A 
ATOM      3  C   UNL     1       2.931   4.382   8.446  1.00  0.00     0.238 A 
ATOM      4  O   UNL     1       3.409   5.393   9.024  1.00  0.00    -0.285 OA
ATOM      5  C   UNL     1       1.588   4.354   8.000  1.00  0.00     0.111 A 
ATOM      6  C   UNL     1       0.685   5.456   8.076  1.00  0.00     0.134 A 
ATOM      7  C   UNL     1      -0.659   5.274   7.724  1.00  0.00     0.093 A 
ATOM      8  C   UNL     1      -1.116   4.047   7.238  1.00  0.00     0.123 A 
ATOM      9  C   UNL     1      -0.228   2.982   7.104  1.00  0.00     0.094 A 
ATOM     10  C   UNL     1       1.109   3.122   7.481  1.00  0.00     0.146 A 
ATOM     11  O   UNL     1       1.920   2.078   7.348  1.00  0.00    -0.452 OA
ENDROOT
BRANCH   1  12
ATOM     12  C   UNL     1       4.004   0.873   7.470  1.00  0.00     0.025 A 
ATOM     13  C   UNL     1       4.248  -1.560   7.497  1.00  0.00     0.161 A 
ATOM     14  C   UNL     1       5.580  -1.424   7.082  1.00  0.00     0.157 A 
ATOM     15  C   UNL     1       3.465  -0.406   7.696  1.00  0.00     0.062 A 
ATOM     16  C   UNL     1       6.125  -0.149   6.877  1.00  0.00     0.051 A 
ATOM     17  C   UNL     1       5.345   0.991   7.076  1.00  0.00     0.016 A 
BRANCH  13  18
ATOM     18  O   UNL     1       3.743  -2.854   7.703  1.00  0.00    -0.493 OA
ATOM     19  C   UNL     1       3.888  -3.593   8.911  1.00  0.00     0.278 C 
ENDBRANCH  13  18
BRANCH  14  20
ATOM     20  O   UNL     1       6.359  -2.561   6.879  1.00  0.00    -0.504 OA
ATOM     21  H   UNL     1       6.008  -3.488   7.089  1.00  0.00     0.293 HD
ENDBRANCH  14  20
ENDBRANCH   1  12
BRANCH   2  22
ATOM     22  O   UNL     1       5.067   3.250   8.738  1.00  0.00    -0.502 OA
ATOM     23  H   UNL     1       5.435   3.973   9.346  1.00  0.00     0.293 HD
ENDBRANCH   2  22
BRANCH   6  24
ATOM     24  O   UNL     1       1.060   6.747   8.459  1.00  0.00    -0.507 OA
ATOM     25  H   UNL     1       1.241   7.507   7.821  1.00  0.00     0.293 HD
ENDBRANCH   6  24
BRANCH   8  26
ATOM     26  O   UNL     1      -2.451   3.878   6.875  1.00  0.00    -0.508 OA
ATOM     27  H   UNL     1      -2.782   4.119   5.948  1.00  0.00     0.293 HD
ENDBRANCH   8  26
TORSDOF 6
ENDMDL
MODEL 4
REMARK VINA RESULT:    -5.121      1.564      3.299
REMARK INTER + INTRA:          -6.480
REMARK INTER:                  -6.397
REMARK INTRA:                  -0.082
REMARK UNBOUND:                -0.161
REMARK SMILES COc1cc(-c2oc3cc(O)cc(O)c3c(=O)c2O)ccc1O
REMARK SMILES IDX 6 1 18 2 16 3 17 4 15 5 13 6 12 7 10 8 9 9 8 10 7 11 5 12
REMARK SMILES IDX 3 13 22 14 4 15 21 16 20 17 2 18 1 19 23 20 19 22 14 24
REMARK SMILES IDX 11 26
REMARK H PARENT 23 21 19 23 14 25 11 27
REMARK Flexibility Score: inf
ROOT
ATOM      1  C   UNL     1       3.359   3.368   8.032  1.00  0.00     0.180 A 
ATOM      2  C   UNL     1       4.650   3.889   7.850  1.00  0.00     0.208 A 
ATOM      3  C   UNL     1       5.703   3.012   7.545  1.00  0.00     0.238 A 
ATOM      4  O   UNL     1       6.847   3.492   7.330  1.00  0.00    -0.285 OA
ATOM      5  C   UNL     1       5.454   1.622   7.440  1.00  0.00     0.111 A 
ATOM      6  C   UNL     1       6.452   0.638   7.174  1.00  0.00     0.134 A 
ATOM      7  C   UNL     1       6.071  -0.693   6.963  1.00  0.00     0.093 A 
ATOM      8  C   UNL     1       4.734  -1.086   7.073  1.00  0.00     0.123 A 
ATOM      9  C   UNL     1       3.761  -0.142   7.391  1.00  0.00     0.094 A 
ATOM     10  C   UNL     1       4.105   1.199   7.571  1.00  0.00     0.146 A 
ATOM     11  O   UNL     1       3.144   2.068   7.862  1.00  0.00    -0.452 OA
ENDROOT
BRANCH   1  12
ATOM     12  C   UNL     1       2.204   4.227   8.381  1.00  0.00     0.025 A 
ATOM     13  C   UNL     1       0.783   6.175   7.968  1.00  0.00     0.161 A 
ATOM     14  C   UNL     1       0.035   5.862   9.111  1.00  0.00     0.157 A 
ATOM     15  C   UNL     1       1.873   5.356   7.610  1.00  0.00     0.062 A 
ATOM     16  C   UNL     1       0.376   4.750   9.892  1.00  0.00     0.051 A 
ATOM     17  C   UNL     1       1.456   3.942   9.533  1.00  0.00     0.016 A 
BRANCH  13  18
ATOM     18  O   UNL     1       0.417   7.303   7.218  1.00  0.00    -0.493 OA
ATOM     19  C   UNL     1       0.972   8.603   7.395  1.00  0.00     0.278 C 
ENDBRANCH  13  18
BRANCH  14  20
ATOM     20  O   UNL     1      -1.047   6.665   9.467  1.00  0.00    -0.504 OA
ATOM     21  H   UNL     1      -0.925   7.502  10.026  1.00  0.00     0.293 HD
ENDBRANCH  14  20
ENDBRANCH   1  12
BRANCH   2  22
ATOM     22  O   UNL     1       4.870   5.267   7.937  1.00  0.00    -0.502 OA
ATOM     23  H   UNL     1       5.722   5.704   7.606  1.00  0.00     0.293 HD
ENDBRANCH   2  22
BRANCH   6  24
ATOM     24  O   UNL     1       7.823   0.908   7.136  1.00  0.00    -0.507 OA
ATOM     25  H   UNL     1       8.368   1.233   7.920  1.00  0.00     0.293 HD
ENDBRANCH   6  24
BRANCH   8  26
ATOM     26  O   UNL     1       4.366  -2.415   6.876  1.00  0.00    -0.508 OA
ATOM     27  H   UNL     1       4.017  -2.741   5.983  1.00  0.00     0.293 HD
ENDBRANCH   8  26
TORSDOF 6
ENDMDL
MODEL 5
REMARK VINA RESULT:    -5.095      1.494      2.087
REMARK INTER + INTRA:          -6.448
REMARK INTER:                  -6.936
REMARK INTRA:                   0.488
REMARK UNBOUND:                -0.161
REMARK SMILES COc1cc(-c2oc3cc(O)cc(O)c3c(=O)c2O)ccc1O
REMARK SMILES IDX 6 1 18 2 16 3 17 4 15 5 13 6 12 7 10 8 9 9 8 10 7 11 5 12
REMARK SMILES IDX 3 13 22 14 4 15 21 16 20 17 2 18 1 19 23 20 19 22 14 24
REMARK SMILES IDX 11 26
REMARK H PARENT 23 21 19 23 14 25 11 27
REMARK Flexibility Score: inf
ROOT
ATOM      1  C   UNL     1       2.177   2.905   7.179  1.00  0.00     0.180 A 
ATOM      2  C   UNL     1       2.008   1.517   7.034  1.00  0.00     0.208 A 
ATOM      3  C   UNL     1       3.140   0.688   7.049  1.00  0.00     0.238 A 
ATOM      4  O   UNL     1       2.977  -0.559   6.972  1.00  0.00    -0.285 OA
ATOM      5  C   UNL     1       4.429   1.255   7.193  1.00  0.00     0.111 A 
ATOM      6  C   UNL     1       5.648   0.514   7.183  1.00  0.00     0.134 A 
ATOM      7  C   UNL     1       6.855   1.165   7.465  1.00  0.00     0.093 A 
ATOM      8  C   UNL     1       6.895   2.543   7.694  1.00  0.00     0.123 A 
ATOM      9  C   UNL     1       5.717   3.284   7.647  1.00  0.00     0.094 A 
ATOM     10  C   UNL     1       4.492   2.658   7.404  1.00  0.00     0.146 A 
ATOM     11  O   UNL     1       3.392   3.401   7.379  1.00  0.00    -0.452 OA
ENDROOT
BRANCH   1  12
ATOM     12  C   UNL     1       1.034   3.846   7.148  1.00  0.00     0.025 A 
ATOM     13  C   UNL     1       0.118   6.106   7.333  1.00  0.00     0.161 A 
ATOM     14  C   UNL     1      -1.171   5.592   7.135  1.00  0.00     0.157 A 
ATOM     15  C   UNL     1       1.219   5.226   7.346  1.00  0.00     0.062 A 
ATOM     16  C   UNL     1      -1.358   4.215   6.959  1.00  0.00     0.051 A 
ATOM     17  C   UNL     1      -0.265   3.347   6.973  1.00  0.00     0.016 A 
BRANCH  13  18
ATOM     18  O   UNL     1       0.263   7.490   7.517  1.00  0.00    -0.493 OA
ATOM     19  C   UNL     1       0.305   8.135   8.786  1.00  0.00     0.278 C 
ENDBRANCH  13  18
BRANCH  14  20
ATOM     20  O   UNL     1      -2.263   6.457   7.118  1.00  0.00    -0.504 OA
ATOM     21  H   UNL     1      -2.248   7.339   7.615  1.00  0.00     0.293 HD
ENDBRANCH  14  20
ENDBRANCH   1  12
BRANCH   2  22
ATOM     22  O   UNL     1       0.725   0.975   6.913  1.00  0.00    -0.502 OA
ATOM     23  H   UNL     1       0.458   0.105   7.358  1.00  0.00     0.293 HD
ENDBRANCH   2  22
BRANCH   6  24
ATOM     24  O   UNL     1       5.730  -0.847   6.875  1.00  0.00    -0.507 OA
ATOM     25  H   UNL     1       5.136  -1.324   6.214  1.00  0.00     0.293 HD
ENDBRANCH   6  24
BRANCH   8  26
ATOM     26  O   UNL     1       8.102   3.185   7.959  1.00  0.00    -0.508 OA
ATOM     27  H   UNL     1       8.273   3.646   8.845  1.00  0.00     0.293 HD
ENDBRANCH   8  26
TORSDOF 6
ENDMDL
MODEL 6
REMARK VINA RESULT:    -4.853      1.819      3.952
REMARK INTER + INTRA:          -6.150
REMARK INTER:                  -6.452
REMARK INTRA:                   0.302
REMARK UNBOUND:                -0.161
REMARK SMILES COc1cc(-c2oc3cc(O)cc(O)c3c(=O)c2O)ccc1O
REMARK SMILES IDX 6 1 18 2 16 3 17 4 15 5 13 6 12 7 10 8 9 9 8 10 7 11 5 12
REMARK SMILES IDX 3 13 22 14 4 15 21 16 20 17 2 18 1 19 23 20 19 22 14 24
REMARK SMILES IDX 11 26
REMARK H PARENT 23 21 19 23 14 25 11 27
REMARK Flexibility Score: inf
ROOT
ATOM      1  C   UNL     1       3.059   2.488   7.223  1.00  0.00     0.180 A 
ATOM      2  C   UNL     1       4.179   3.336   7.229  1.00  0.00     0.208 A 
ATOM      3  C   UNL     1       5.463   2.770   7.267  1.00  0.00     0.238 A 
ATOM      4  O   UNL     1       6.462   3.535   7.218  1.00  0.00    -0.285 OA
ATOM      5  C   UNL     1       5.612   1.363   7.314  1.00  0.00     0.111 A 
ATOM      6  C   UNL     1       6.864   0.683   7.394  1.00  0.00     0.134 A 
ATOM      7  C   UNL     1       6.898  -0.715   7.303  1.00  0.00     0.093 A 
ATOM      8  C   UNL     1       5.720  -1.459   7.199  1.00  0.00     0.123 A 
ATOM      9  C   UNL     1       4.490  -0.806   7.179  1.00  0.00     0.094 A 
ATOM     10  C   UNL     1       4.425   0.588   7.232  1.00  0.00     0.146 A 
ATOM     11  O   UNL     1       3.232   1.171   7.200  1.00  0.00    -0.452 OA
ENDROOT
BRANCH   1  12
ATOM     12  C   UNL     1       1.674   3.010   7.210  1.00  0.00     0.025 A 
ATOM     13  C   UNL     1       0.063   4.813   7.582  1.00  0.00     0.161 A 
ATOM     14  C   UNL     1      -0.978   3.947   7.223  1.00  0.00     0.157 A 
ATOM     15  C   UNL     1       1.390   4.337   7.580  1.00  0.00     0.062 A 
ATOM     16  C   UNL     1      -0.699   2.619   6.875  1.00  0.00     0.051 A 
ATOM     17  C   UNL     1       0.616   2.152   6.875  1.00  0.00     0.016 A 
BRANCH  13  18
ATOM     18  O   UNL     1      -0.258   6.133   7.935  1.00  0.00    -0.493 OA
ATOM     19  C   UNL     1      -0.373   6.604   9.275  1.00  0.00     0.278 C 
ENDBRANCH  13  18
BRANCH  14  20
ATOM     20  O   UNL     1      -2.292   4.412   7.219  1.00  0.00    -0.504 OA
ATOM     21  H   UNL     1      -3.048   3.864   6.826  1.00  0.00     0.293 HD
ENDBRANCH  14  20
ENDBRANCH   1  12
BRANCH   2  22
ATOM     22  O   UNL     1       4.010   4.722   7.162  1.00  0.00    -0.502 OA
ATOM     23  H   UNL     1       3.655   5.265   7.939  1.00  0.00     0.293 HD
ENDBRANCH   2  22
BRANCH   6  24
ATOM     24  O   UNL     1       8.090   1.325   7.591  1.00  0.00    -0.507 OA
ATOM     25  H   UNL     1       8.992   0.891   7.470  1.00  0.00     0.293 HD
ENDBRANCH   6  24
BRANCH   8  26
ATOM     26  O   UNL     1       5.761  -2.849   7.124  1.00  0.00    -0.508 OA
ATOM     27  H   UNL     1       5.698  -3.333   6.236  1.00  0.00     0.293 HD
ENDBRANCH   8  26
TORSDOF 6
ENDMDL
MODEL 7
REMARK VINA RESULT:    -4.839      1.641      6.903
REMARK INTER + INTRA:          -6.132
REMARK INTER:                  -6.654
REMARK INTRA:                   0.522
REMARK UNBOUND:                -0.161
REMARK SMILES COc1cc(-c2oc3cc(O)cc(O)c3c(=O)c2O)ccc1O
REMARK SMILES IDX 6 1 18 2 16 3 17 4 15 5 13 6 12 7 10 8 9 9 8 10 7 11 5 12
REMARK SMILES IDX 3 13 22 14 4 15 21 16 20 17 2 18 1 19 23 20 19 22 14 24
REMARK SMILES IDX 11 26
REMARK H PARENT 23 21 19 23 14 25 11 27
REMARK Flexibility Score: inf
ROOT
ATOM      1  C   UNL     1       0.883   4.231   7.493  1.00  0.00     0.180 A 
ATOM      2  C   UNL     1      -0.456   3.885   7.243  1.00  0.00     0.208 A 
ATOM      3  C   UNL     1      -1.444   4.877   7.332  1.00  0.00     0.238 A 
ATOM      4  O   UNL     1      -2.634   4.573   7.054  1.00  0.00    -0.285 OA
ATOM      5  C   UNL     1      -1.085   6.201   7.684  1.00  0.00     0.111 A 
ATOM      6  C   UNL     1      -2.008   7.277   7.842  1.00  0.00     0.134 A 
ATOM      7  C   UNL     1      -1.527   8.574   8.065  1.00  0.00     0.093 A 
ATOM      8  C   UNL     1      -0.158   8.821   8.200  1.00  0.00     0.123 A 
ATOM      9  C   UNL     1       0.747   7.766   8.106  1.00  0.00     0.094 A 
ATOM     10  C   UNL     1       0.300   6.468   7.848  1.00  0.00     0.146 A 
ATOM     11  O   UNL     1       1.198   5.494   7.756  1.00  0.00    -0.452 OA
ENDROOT
BRANCH   1  12
ATOM     12  C   UNL     1       1.977   3.234   7.444  1.00  0.00     0.025 A 
ATOM     13  C   UNL     1       4.343   2.642   7.634  1.00  0.00     0.161 A 
ATOM     14  C   UNL     1       4.033   1.321   7.285  1.00  0.00     0.157 A 
ATOM     15  C   UNL     1       3.310   3.599   7.705  1.00  0.00     0.062 A 
ATOM     16  C   UNL     1       2.709   0.961   7.003  1.00  0.00     0.051 A 
ATOM     17  C   UNL     1       1.689   1.912   7.075  1.00  0.00     0.016 A 
BRANCH  13  18
ATOM     18  O   UNL     1       5.683   2.966   7.899  1.00  0.00    -0.493 OA
ATOM     19  C   UNL     1       6.631   3.346   6.906  1.00  0.00     0.278 C 
ENDBRANCH  13  18
BRANCH  14  20
ATOM     20  O   UNL     1       5.049   0.369   7.217  1.00  0.00    -0.504 OA
ATOM     21  H   UNL     1       6.018   0.616   7.383  1.00  0.00     0.293 HD
ENDBRANCH  14  20
ENDBRANCH   1  12
BRANCH   2  22
ATOM     22  O   UNL     1      -0.786   2.577   6.876  1.00  0.00    -0.502 OA
ATOM     23  H   UNL     1      -0.314   1.768   7.262  1.00  0.00     0.293 HD
ENDBRANCH   2  22
BRANCH   6  24
ATOM     24  O   UNL     1      -3.397   7.123   7.818  1.00  0.00    -0.507 OA
ATOM     25  H   UNL     1      -4.060   7.883   7.800  1.00  0.00     0.293 HD
ENDBRANCH   6  24
BRANCH   8  26
ATOM     26  O   UNL     1       0.311  10.111   8.436  1.00  0.00    -0.508 OA
ATOM     27  H   UNL     1       0.069  10.882   7.826  1.00  0.00     0.293 HD
ENDBRANCH   8  26
TORSDOF 6
ENDMDL
MODEL 8
REMARK VINA RESULT:    -4.783      2.123      7.674
REMARK INTER + INTRA:          -6.063
REMARK INTER:                  -6.288
REMARK INTRA:                   0.225
REMARK UNBOUND:                -0.161
REMARK SMILES COc1cc(-c2oc3cc(O)cc(O)c3c(=O)c2O)ccc1O
REMARK SMILES IDX 6 1 18 2 16 3 17 4 15 5 13 6 12 7 10 8 9 9 8 10 7 11 5 12
REMARK SMILES IDX 3 13 22 14 4 15 21 16 20 17 2 18 1 19 23 20 19 22 14 24
REMARK SMILES IDX 11 26
REMARK H PARENT 23 21 19 23 14 25 11 27
REMARK Flexibility Score: inf
ROOT
ATOM      1  C   UNL     1       3.387   2.227   7.659  1.00  0.00     0.180 A 
ATOM      2  C   UNL     1       3.777   3.469   8.187  1.00  0.00     0.208 A 
ATOM      3  C   UNL     1       2.820   4.487   8.313  1.00  0.00     0.238 A 
ATOM      4  O   UNL     1       3.165   5.579   8.836  1.00  0.00    -0.285 OA
ATOM      5  C   UNL     1       1.487   4.257   7.896  1.00  0.00     0.111 A 
ATOM      6  C   UNL     1       0.444   5.230   7.941  1.00  0.00     0.134 A 
ATOM      7  C   UNL     1      -0.868   4.852   7.624  1.00  0.00     0.093 A 
ATOM      8  C   UNL     1      -1.161   3.553   7.203  1.00  0.00     0.123 A 
ATOM      9  C   UNL     1      -0.139   2.613   7.098  1.00  0.00     0.094 A 
ATOM     10  C   UNL     1       1.172   2.949   7.442  1.00  0.00     0.146 A 
ATOM     11  O   UNL     1       2.115   2.019   7.338  1.00  0.00    -0.452 OA
ENDROOT
BRANCH   1  12
ATOM     12  C   UNL     1       4.345   1.113   7.472  1.00  0.00     0.025 A 
ATOM     13  C   UNL     1       6.611   0.284   7.073  1.00  0.00     0.161 A 
ATOM     14  C   UNL     1       6.121  -1.030   7.065  1.00  0.00     0.157 A 
ATOM     15  C   UNL     1       5.716   1.354   7.270  1.00  0.00     0.062 A 
ATOM     16  C   UNL     1       4.753  -1.270   7.244  1.00  0.00     0.051 A 
ATOM     17  C   UNL     1       3.870  -0.206   7.439  1.00  0.00     0.016 A 
BRANCH  13  18
ATOM     18  O   UNL     1       7.987   0.485   6.880  1.00  0.00    -0.493 OA
ATOM     19  C   UNL     1       8.645   1.740   7.019  1.00  0.00     0.278 C 
ENDBRANCH  13  18
BRANCH  14  20
ATOM     20  O   UNL     1       7.002  -2.093   6.875  1.00  0.00    -0.504 OA
ATOM     21  H   UNL     1       7.977  -2.027   7.144  1.00  0.00     0.293 HD
ENDBRANCH  14  20
ENDBRANCH   1  12
BRANCH   2  22
ATOM     22  O   UNL     1       5.094   3.668   8.612  1.00  0.00    -0.502 OA
ATOM     23  H   UNL     1       5.686   2.907   8.923  1.00  0.00     0.293 HD
ENDBRANCH   2  22
BRANCH   6  24
ATOM     24  O   UNL     1       0.646   6.576   8.259  1.00  0.00    -0.507 OA
ATOM     25  H   UNL     1       0.386   7.005   9.134  1.00  0.00     0.293 HD
ENDBRANCH   6  24
BRANCH   8  26
ATOM     26  O   UNL     1      -2.466   3.190   6.875  1.00  0.00    -0.508 OA
ATOM     27  H   UNL     1      -2.937   3.580   6.067  1.00  0.00     0.293 HD
ENDBRANCH   8  26
TORSDOF 6
ENDMDL
MODEL 9
REMARK VINA RESULT:    -4.091      1.617      7.225
REMARK INTER + INTRA:          -5.209
REMARK INTER:                  -5.362
REMARK INTRA:                   0.153
REMARK UNBOUND:                -0.161
REMARK SMILES COc1cc(-c2oc3cc(O)cc(O)c3c(=O)c2O)ccc1O
REMARK SMILES IDX 6 1 18 2 16 3 17 4 15 5 13 6 12 7 10 8 9 9 8 10 7 11 5 12
REMARK SMILES IDX 3 13 22 14 4 15 21 16 20 17 2 18 1 19 23 20 19 22 14 24
REMARK SMILES IDX 11 26
REMARK H PARENT 23 21 19 23 14 25 11 27
REMARK Flexibility Score: inf
ROOT
ATOM      1  C   UNL     1       3.056   3.348   8.097  1.00  0.00     0.180 A 
ATOM      2  C   UNL     1       1.943   3.021   8.889  1.00  0.00     0.208 A 
ATOM      3  C   UNL     1       1.003   4.020   9.189  1.00  0.00     0.238 A 
ATOM      4  O   UNL     1      -0.020   3.707   9.853  1.00  0.00    -0.285 OA
ATOM      5  C   UNL     1       1.196   5.337   8.707  1.00  0.00     0.111 A 
ATOM      6  C   UNL     1       0.329   6.436   8.981  1.00  0.00     0.134 A 
ATOM      7  C   UNL     1       0.546   7.665   8.345  1.00  0.00     0.093 A 
ATOM      8  C   UNL     1       1.638   7.851   7.493  1.00  0.00     0.123 A 
ATOM      9  C   UNL     1       2.523   6.800   7.265  1.00  0.00     0.094 A 
ATOM     10  C   UNL     1       2.313   5.553   7.857  1.00  0.00     0.146 A 
ATOM     11  O   UNL     1       3.175   4.575   7.604  1.00  0.00    -0.452 OA
ENDROOT
BRANCH   1  12
ATOM     12  C   UNL     1       4.103   2.356   7.760  1.00  0.00     0.025 A 
ATOM     13  C   UNL     1       4.794   0.068   7.239  1.00  0.00     0.161 A 
ATOM     14  C   UNL     1       6.128   0.493   7.175  1.00  0.00     0.157 A 
ATOM     15  C   UNL     1       3.784   1.004   7.539  1.00  0.00     0.062 A 
ATOM     16  C   UNL     1       6.450   1.835   7.417  1.00  0.00     0.051 A 
ATOM     17  C   UNL     1       5.445   2.758   7.713  1.00  0.00     0.016 A 
BRANCH  13  18
ATOM     18  O   UNL     1       4.513  -1.287   7.002  1.00  0.00    -0.493 OA
ATOM     19  C   UNL     1       4.254  -2.246   8.023  1.00  0.00     0.278 C 
ENDBRANCH  13  18
BRANCH  14  20
ATOM     20  O   UNL     1       7.131  -0.427   6.875  1.00  0.00    -0.504 OA
ATOM     21  H   UNL     1       8.088  -0.134   6.715  1.00  0.00     0.293 HD
ENDBRANCH  14  20
ENDBRANCH   1  12
BRANCH   2  22
ATOM     22  O   UNL     1       1.761   1.710   9.337  1.00  0.00    -0.502 OA
ATOM     23  H   UNL     1       2.184   1.363  10.190  1.00  0.00     0.293 HD
ENDBRANCH   2  22
BRANCH   6  24
ATOM     24  O   UNL     1      -0.735   6.383   9.887  1.00  0.00    -0.507 OA
ATOM     25  H   UNL     1      -1.315   7.168  10.140  1.00  0.00     0.293 HD
ENDBRANCH   6  24
BRANCH   8  26
ATOM     26  O   UNL     1       1.856   9.080   6.875  1.00  0.00    -0.508 OA
ATOM     27  H   UNL     1       2.764   9.331   6.501  1.00  0.00     0.293 HD
ENDBRANCH   8  26
TORSDOF 6
ENDMDL
