MODEL 1
REMARK VINA RESULT:    -3.894      0.000      0.000
REMARK INTER + INTRA:         -12.677
REMARK INTER:                  -9.814
REMARK INTRA:                  -2.863
REMARK UNBOUND:                -2.863
REMARK SMILES CCCCCCCCCCCCCCCCCCCCCCCCCCCC(=O)[O-]
REMARK SMILES IDX 15 1 16 2 17 3 18 4 19 5 20 6 21 7 22 8 23 9 24 10 25 11
REMARK SMILES IDX 26 12 27 13 28 14 29 15 30 16 14 17 13 18 12 19 11 20 10 21
REMARK SMILES IDX 9 22 8 23 7 24 6 25 5 26 4 27 3 28 2 29 1 30
REMARK H PARENT
REMARK Flexibility Score: inf
ROOT
ATOM      1  C   UNL     1      -5.378  16.315  -7.159  1.00  0.00     0.000 C 
ENDROOT
BRANCH   1   2
ATOM      2  C   UNL     1      -4.728  17.257  -6.123  1.00  0.00     0.000 C 
BRANCH   2   3
ATOM      3  C   UNL     1      -3.875  18.397  -6.711  1.00  0.00     0.000 C 
BRANCH   3   4
ATOM      4  C   UNL     1      -4.725  19.536  -7.301  1.00  0.00     0.000 C 
BRANCH   4   5
ATOM      5  C   UNL     1      -5.147  20.572  -6.243  1.00  0.00     0.000 C 
BRANCH   5   6
ATOM      6  C   UNL     1      -4.245  20.636  -4.994  1.00  0.00     0.000 C 
BRANCH   6   7
ATOM      7  C   UNL     1      -4.973  20.949  -3.671  1.00  0.00     0.000 C 
BRANCH   7   8
ATOM      8  C   UNL     1      -4.473  20.166  -2.444  1.00  0.00     0.000 C 
BRANCH   8   9
ATOM      9  C   UNL     1      -4.868  20.820  -1.110  1.00  0.00     0.000 C 
BRANCH   9  10
ATOM     10  C   UNL     1      -5.318  19.795  -0.055  1.00  0.00     0.000 C 
BRANCH  10  11
ATOM     11  C   UNL     1      -4.155  19.192   0.762  1.00  0.00     0.000 C 
BRANCH  11  12
ATOM     12  C   UNL     1      -4.487  19.097   2.263  1.00  0.00     0.006 C 
BRANCH  12  13
ATOM     13  C   UNL     1      -5.569  20.101   2.682  1.00  0.00     0.053 C 
BRANCH  13  14
ATOM     14  C   UNL     1      -6.527  19.506   3.668  1.00  0.00     0.041 C 
ATOM     15  O   UNL     1      -6.473  18.278   3.944  1.00  0.00    -0.550 OA
ATOM     16  O   UNL     1      -7.500  20.303   4.260  1.00  0.00    -0.550 OA
ENDBRANCH  13  14
ENDBRANCH  12  13
ENDBRANCH  11  12
ENDBRANCH  10  11
ENDBRANCH   9  10
ENDBRANCH   8   9
ENDBRANCH   7   8
ENDBRANCH   6   7
ENDBRANCH   5   6
ENDBRANCH   4   5
ENDBRANCH   3   4
ENDBRANCH   2   3
ENDBRANCH   1   2
BRANCH   1  17
ATOM     17  C   UNL     1      -6.869  16.574  -7.438  1.00  0.00     0.000 C 
BRANCH  17  18
ATOM     18  C   UNL     1      -7.164  16.797  -8.932  1.00  0.00     0.000 C 
BRANCH  18  19
ATOM     19  C   UNL     1      -5.900  16.744  -9.806  1.00  0.00     0.000 C 
BRANCH  19  20
ATOM     20  C   UNL     1      -5.705  17.941 -10.755  1.00  0.00     0.000 C 
BRANCH  20  21
ATOM     21  C   UNL     1      -6.539  19.186 -10.381  1.00  0.00     0.000 C 
BRANCH  21  22
ATOM     22  C   UNL     1      -7.655  19.479 -11.400  1.00  0.00    -0.000 C 
BRANCH  22  23
ATOM     23  C   UNL     1      -7.219  19.208 -12.848  1.00  0.00    -0.000 C 
BRANCH  23  24
ATOM     24  C   UNL     1      -7.774  20.246 -13.838  1.00  0.00    -0.000 C 
BRANCH  24  25
ATOM     25  C   UNL     1      -9.253  20.575 -13.579  1.00  0.00    -0.000 C 
BRANCH  25  26
ATOM     26  C   UNL     1     -10.210  19.671 -14.377  1.00  0.00    -0.000 C 
BRANCH  26  27
ATOM     27  C   UNL     1     -10.654  18.433 -13.569  1.00  0.00    -0.000 C 
BRANCH  27  28
ATOM     28  C   UNL     1     -11.355  18.782 -12.241  1.00  0.00    -0.000 C 
BRANCH  28  29
ATOM     29  C   UNL     1     -11.034  17.827 -11.079  1.00  0.00    -0.003 C 
ATOM     30  C   UNL     1     -10.172  16.640 -11.509  1.00  0.00     0.004 C 
ENDBRANCH  28  29
ENDBRANCH  27  28
ENDBRANCH  26  27
ENDBRANCH  25  26
ENDBRANCH  24  25
ENDBRANCH  23  24
ENDBRANCH  22  23
ENDBRANCH  21  22
ENDBRANCH  20  21
ENDBRANCH  19  20
ENDBRANCH  18  19
ENDBRANCH  17  18
ENDBRANCH   1  17
TORSDOF 26
ENDMDL
MODEL 2
REMARK VINA RESULT:    -2.893      5.601      9.549
REMARK INTER + INTRA:         -10.153
REMARK INTER:                  -6.839
REMARK INTRA:                  -3.314
REMARK UNBOUND:                -2.863
REMARK SMILES CCCCCCCCCCCCCCCCCCCCCCCCCCCC(=O)[O-]
REMARK SMILES IDX 15 1 16 2 17 3 18 4 19 5 20 6 21 7 22 8 23 9 24 10 25 11
REMARK SMILES IDX 26 12 27 13 28 14 29 15 30 16 14 17 13 18 12 19 11 20 10 21
REMARK SMILES IDX 9 22 8 23 7 24 6 25 5 26 4 27 3 28 2 29 1 30
REMARK H PARENT
REMARK Flexibility Score: inf
ROOT
ATOM      1  C   UNL     1     -11.307  17.786 -11.539  1.00  0.00     0.000 C 
ENDROOT
BRANCH   1   2
ATOM      2  C   UNL     1     -10.282  16.679 -11.216  1.00  0.00     0.000 C 
BRANCH   2   3
ATOM      3  C   UNL     1      -8.995  17.155 -10.515  1.00  0.00     0.000 C 
BRANCH   3   4
ATOM      4  C   UNL     1      -8.154  18.101 -11.389  1.00  0.00     0.000 C 
BRANCH   4   5
ATOM      5  C   UNL     1      -8.663  18.180 -12.840  1.00  0.00     0.000 C 
BRANCH   5   6
ATOM      6  C   UNL     1      -8.528  19.564 -13.507  1.00  0.00     0.000 C 
BRANCH   6   7
ATOM      7  C   UNL     1      -7.499  20.511 -12.856  1.00  0.00     0.000 C 
BRANCH   7   8
ATOM      8  C   UNL     1      -6.236  20.784 -13.693  1.00  0.00     0.000 C 
BRANCH   8   9
ATOM      9  C   UNL     1      -5.762  19.556 -14.487  1.00  0.00     0.000 C 
BRANCH   9  10
ATOM     10  C   UNL     1      -4.842  18.635 -13.666  1.00  0.00     0.000 C 
BRANCH  10  11
ATOM     11  C   UNL     1      -4.458  19.211 -12.285  1.00  0.00     0.000 C 
BRANCH  11  12
ATOM     12  C   UNL     1      -3.877  18.136 -11.349  1.00  0.00     0.006 C 
BRANCH  12  13
ATOM     13  C   UNL     1      -4.965  17.228 -10.762  1.00  0.00     0.053 C 
BRANCH  13  14
ATOM     14  C   UNL     1      -4.384  15.993 -10.144  1.00  0.00     0.041 C 
ATOM     15  O   UNL     1      -4.077  15.006 -10.865  1.00  0.00    -0.550 OA
ATOM     16  O   UNL     1      -4.210  15.920  -8.767  1.00  0.00    -0.550 OA
ENDBRANCH  13  14
ENDBRANCH  12  13
ENDBRANCH  11  12
ENDBRANCH  10  11
ENDBRANCH   9  10
ENDBRANCH   8   9
ENDBRANCH   7   8
ENDBRANCH   6   7
ENDBRANCH   5   6
ENDBRANCH   4   5
ENDBRANCH   3   4
ENDBRANCH   2   3
ENDBRANCH   1   2
BRANCH   1  17
ATOM     17  C   UNL     1     -12.275  17.469 -12.693  1.00  0.00     0.000 C 
BRANCH  17  18
ATOM     18  C   UNL     1     -11.804  18.045 -14.039  1.00  0.00     0.000 C 
BRANCH  18  19
ATOM     19  C   UNL     1     -12.528  19.347 -14.421  1.00  0.00     0.000 C 
BRANCH  19  20
ATOM     20  C   UNL     1     -13.788  19.666 -13.594  1.00  0.00     0.000 C 
BRANCH  20  21
ATOM     21  C   UNL     1     -13.565  20.717 -12.485  1.00  0.00     0.000 C 
BRANCH  21  22
ATOM     22  C   UNL     1     -12.087  21.125 -12.344  1.00  0.00    -0.000 C 
BRANCH  22  23
ATOM     23  C   UNL     1     -11.603  21.099 -10.886  1.00  0.00    -0.000 C 
BRANCH  23  24
ATOM     24  C   UNL     1     -10.093  20.833 -10.768  1.00  0.00    -0.000 C 
BRANCH  24  25
ATOM     25  C   UNL     1      -9.555  21.110  -9.354  1.00  0.00    -0.000 C 
BRANCH  25  26
ATOM     26  C   UNL     1      -8.017  21.119  -9.297  1.00  0.00    -0.000 C 
BRANCH  26  27
ATOM     27  C   UNL     1      -7.476  20.433  -8.024  1.00  0.00    -0.000 C 
BRANCH  27  28
ATOM     28  C   UNL     1      -6.502  19.274  -8.313  1.00  0.00    -0.000 C 
BRANCH  28  29
ATOM     29  C   UNL     1      -5.483  19.001  -7.194  1.00  0.00    -0.003 C 
ATOM     30  C   UNL     1      -4.036  19.113  -7.673  1.00  0.00     0.004 C 
ENDBRANCH  28  29
ENDBRANCH  27  28
ENDBRANCH  26  27
ENDBRANCH  25  26
ENDBRANCH  24  25
ENDBRANCH  23  24
ENDBRANCH  22  23
ENDBRANCH  21  22
ENDBRANCH  20  21
ENDBRANCH  19  20
ENDBRANCH  18  19
ENDBRANCH  17  18
ENDBRANCH   1  17
TORSDOF 26
ENDMDL
MODEL 3
REMARK VINA RESULT:    -2.623      4.615      7.101
REMARK INTER + INTRA:          -9.473
REMARK INTER:                  -6.452
REMARK INTRA:                  -3.022
REMARK UNBOUND:                -2.863
REMARK SMILES CCCCCCCCCCCCCCCCCCCCCCCCCCCC(=O)[O-]
REMARK SMILES IDX 15 1 16 2 17 3 18 4 19 5 20 6 21 7 22 8 23 9 24 10 25 11
REMARK SMILES IDX 26 12 27 13 28 14 29 15 30 16 14 17 13 18 12 19 11 20 10 21
REMARK SMILES IDX 9 22 8 23 7 24 6 25 5 26 4 27 3 28 2 29 1 30
REMARK H PARENT
REMARK Flexibility Score: inf
ROOT
ATOM      1  C   UNL     1     -10.557  17.001 -11.633  1.00  0.00     0.000 C 
ENDROOT
BRANCH   1   2
ATOM      2  C   UNL     1      -9.627  18.183 -11.287  1.00  0.00     0.000 C 
BRANCH   2   3
ATOM      3  C   UNL     1      -8.130  17.838 -11.183  1.00  0.00     0.000 C 
BRANCH   3   4
ATOM      4  C   UNL     1      -7.685  17.532  -9.743  1.00  0.00     0.000 C 
BRANCH   4   5
ATOM      5  C   UNL     1      -6.285  16.895  -9.675  1.00  0.00     0.000 C 
BRANCH   5   6
ATOM      6  C   UNL     1      -5.122  17.891  -9.484  1.00  0.00     0.000 C 
BRANCH   6   7
ATOM      7  C   UNL     1      -3.897  17.335  -8.731  1.00  0.00     0.000 C 
BRANCH   7   8
ATOM      8  C   UNL     1      -4.201  16.681  -7.370  1.00  0.00     0.000 C 
BRANCH   8   9
ATOM      9  C   UNL     1      -4.988  17.601  -6.422  1.00  0.00     0.000 C 
BRANCH   9  10
ATOM     10  C   UNL     1      -4.111  18.196  -5.308  1.00  0.00     0.000 C 
BRANCH  10  11
ATOM     11  C   UNL     1      -4.135  19.740  -5.255  1.00  0.00     0.000 C 
BRANCH  11  12
ATOM     12  C   UNL     1      -4.600  20.358  -6.586  1.00  0.00     0.006 C 
BRANCH  12  13
ATOM     13  C   UNL     1      -6.044  20.871  -6.514  1.00  0.00     0.053 C 
BRANCH  13  14
ATOM     14  C   UNL     1      -6.714  20.835  -7.854  1.00  0.00     0.041 C 
ATOM     15  O   UNL     1      -7.964  20.701  -7.936  1.00  0.00    -0.550 OA
ATOM     16  O   UNL     1      -5.953  20.918  -9.014  1.00  0.00    -0.550 OA
ENDBRANCH  13  14
ENDBRANCH  12  13
ENDBRANCH  11  12
ENDBRANCH  10  11
ENDBRANCH   9  10
ENDBRANCH   8   9
ENDBRANCH   7   8
ENDBRANCH   6   7
ENDBRANCH   5   6
ENDBRANCH   4   5
ENDBRANCH   3   4
ENDBRANCH   2   3
ENDBRANCH   1   2
BRANCH   1  17
ATOM     17  C   UNL     1     -11.780  17.357 -12.496  1.00  0.00     0.000 C 
BRANCH  17  18
ATOM     18  C   UNL     1     -11.729  18.798 -13.033  1.00  0.00     0.000 C 
BRANCH  18  19
ATOM     19  C   UNL     1     -11.575  18.863 -14.562  1.00  0.00     0.000 C 
BRANCH  19  20
ATOM     20  C   UNL     1     -10.127  18.791 -15.082  1.00  0.00     0.000 C 
BRANCH  20  21
ATOM     21  C   UNL     1      -9.199  19.889 -14.519  1.00  0.00     0.000 C 
BRANCH  21  22
ATOM     22  C   UNL     1      -7.784  19.836 -15.125  1.00  0.00    -0.000 C 
BRANCH  22  23
ATOM     23  C   UNL     1      -6.934  21.058 -14.747  1.00  0.00    -0.000 C 
BRANCH  23  24
ATOM     24  C   UNL     1      -5.426  20.801 -14.905  1.00  0.00    -0.000 C 
BRANCH  24  25
ATOM     25  C   UNL     1      -5.030  19.364 -14.527  1.00  0.00    -0.000 C 
BRANCH  25  26
ATOM     26  C   UNL     1      -4.527  19.251 -13.076  1.00  0.00    -0.000 C 
BRANCH  26  27
ATOM     27  C   UNL     1      -4.579  17.799 -12.552  1.00  0.00    -0.000 C 
BRANCH  27  28
ATOM     28  C   UNL     1      -4.522  16.738 -13.668  1.00  0.00    -0.000 C 
BRANCH  28  29
ATOM     29  C   UNL     1      -3.881  15.404 -13.249  1.00  0.00    -0.003 C 
ATOM     30  C   UNL     1      -4.029  15.119 -11.755  1.00  0.00     0.004 C 
ENDBRANCH  28  29
ENDBRANCH  27  28
ENDBRANCH  26  27
ENDBRANCH  25  26
ENDBRANCH  24  25
ENDBRANCH  23  24
ENDBRANCH  22  23
ENDBRANCH  21  22
ENDBRANCH  20  21
ENDBRANCH  19  20
ENDBRANCH  18  19
ENDBRANCH  17  18
ENDBRANCH   1  17
TORSDOF 26
ENDMDL
MODEL 4
REMARK VINA RESULT:    -2.431      1.865      2.724
REMARK INTER + INTRA:          -8.989
REMARK INTER:                  -6.778
REMARK INTRA:                  -2.211
REMARK UNBOUND:                -2.863
REMARK SMILES CCCCCCCCCCCCCCCCCCCCCCCCCCCC(=O)[O-]
REMARK SMILES IDX 15 1 16 2 17 3 18 4 19 5 20 6 21 7 22 8 23 9 24 10 25 11
REMARK SMILES IDX 26 12 27 13 28 14 29 15 30 16 14 17 13 18 12 19 11 20 10 21
REMARK SMILES IDX 9 22 8 23 7 24 6 25 5 26 4 27 3 28 2 29 1 30
REMARK H PARENT
REMARK Flexibility Score: inf
ROOT
ATOM      1  C   UNL     1      -5.360  19.653  -7.957  1.00  0.00     0.000 C 
ENDROOT
BRANCH   1   2
ATOM      2  C   UNL     1      -5.526  20.066  -6.479  1.00  0.00     0.000 C 
BRANCH   2   3
ATOM      3  C   UNL     1      -4.495  21.085  -5.958  1.00  0.00     0.000 C 
BRANCH   3   4
ATOM      4  C   UNL     1      -3.946  20.721  -4.568  1.00  0.00     0.000 C 
BRANCH   4   5
ATOM      5  C   UNL     1      -4.087  19.222  -4.246  1.00  0.00     0.000 C 
BRANCH   5   6
ATOM      6  C   UNL     1      -3.875  18.847  -2.765  1.00  0.00     0.000 C 
BRANCH   6   7
ATOM      7  C   UNL     1      -3.932  20.026  -1.773  1.00  0.00     0.000 C 
BRANCH   7   8
ATOM      8  C   UNL     1      -5.132  20.016  -0.808  1.00  0.00     0.000 C 
BRANCH   8   9
ATOM      9  C   UNL     1      -4.778  19.477   0.587  1.00  0.00     0.000 C 
BRANCH   9  10
ATOM     10  C   UNL     1      -5.078  20.486   1.709  1.00  0.00     0.000 C 
BRANCH  10  11
ATOM     11  C   UNL     1      -3.914  20.670   2.707  1.00  0.00     0.000 C 
BRANCH  11  12
ATOM     12  C   UNL     1      -4.215  20.028   4.074  1.00  0.00     0.006 C 
BRANCH  12  13
ATOM     13  C   UNL     1      -5.527  19.232   4.065  1.00  0.00     0.053 C 
BRANCH  13  14
ATOM     14  C   UNL     1      -5.290  17.767   4.267  1.00  0.00     0.041 C 
ATOM     15  O   UNL     1      -4.233  17.230   3.840  1.00  0.00    -0.550 OA
ATOM     16  O   UNL     1      -6.250  16.988   4.901  1.00  0.00    -0.550 OA
ENDBRANCH  13  14
ENDBRANCH  12  13
ENDBRANCH  11  12
ENDBRANCH  10  11
ENDBRANCH   9  10
ENDBRANCH   8   9
ENDBRANCH   7   8
ENDBRANCH   6   7
ENDBRANCH   5   6
ENDBRANCH   4   5
ENDBRANCH   3   4
ENDBRANCH   2   3
ENDBRANCH   1   2
BRANCH   1  17
ATOM     17  C   UNL     1      -5.414  20.808  -8.973  1.00  0.00     0.000 C 
BRANCH  17  18
ATOM     18  C   UNL     1      -5.925  20.361 -10.354  1.00  0.00     0.000 C 
BRANCH  18  19
ATOM     19  C   UNL     1      -4.883  19.551 -11.144  1.00  0.00     0.000 C 
BRANCH  19  20
ATOM     20  C   UNL     1      -5.456  18.620 -12.229  1.00  0.00     0.000 C 
BRANCH  20  21
ATOM     21  C   UNL     1      -5.082  19.026 -13.671  1.00  0.00     0.000 C 
BRANCH  21  22
ATOM     22  C   UNL     1      -6.272  19.622 -14.446  1.00  0.00    -0.000 C 
BRANCH  22  23
ATOM     23  C   UNL     1      -6.814  20.905 -13.800  1.00  0.00    -0.000 C 
BRANCH  23  24
ATOM     24  C   UNL     1      -8.323  20.831 -13.511  1.00  0.00    -0.000 C 
BRANCH  24  25
ATOM     25  C   UNL     1      -8.752  19.456 -12.972  1.00  0.00    -0.000 C 
BRANCH  25  26
ATOM     26  C   UNL     1      -9.114  19.492 -11.477  1.00  0.00    -0.000 C 
BRANCH  26  27
ATOM     27  C   UNL     1      -8.801  18.157 -10.768  1.00  0.00    -0.000 C 
BRANCH  27  28
ATOM     28  C   UNL     1      -9.704  16.992 -11.218  1.00  0.00    -0.000 C 
BRANCH  28  29
ATOM     29  C   UNL     1     -11.212  17.285 -11.142  1.00  0.00    -0.003 C 
ATOM     30  C   UNL     1     -11.907  17.163 -12.497  1.00  0.00     0.004 C 
ENDBRANCH  28  29
ENDBRANCH  27  28
ENDBRANCH  26  27
ENDBRANCH  25  26
ENDBRANCH  24  25
ENDBRANCH  23  24
ENDBRANCH  22  23
ENDBRANCH  21  22
ENDBRANCH  20  21
ENDBRANCH  19  20
ENDBRANCH  18  19
ENDBRANCH  17  18
ENDBRANCH   1  17
TORSDOF 26
ENDMDL
MODEL 5
REMARK VINA RESULT:    -2.372      4.598     11.718
REMARK INTER + INTRA:          -8.840
REMARK INTER:                  -8.059
REMARK INTRA:                  -0.781
REMARK UNBOUND:                -2.863
REMARK SMILES CCCCCCCCCCCCCCCCCCCCCCCCCCCC(=O)[O-]
REMARK SMILES IDX 15 1 16 2 17 3 18 4 19 5 20 6 21 7 22 8 23 9 24 10 25 11
REMARK SMILES IDX 26 12 27 13 28 14 29 15 30 16 14 17 13 18 12 19 11 20 10 21
REMARK SMILES IDX 9 22 8 23 7 24 6 25 5 26 4 27 3 28 2 29 1 30
REMARK H PARENT
REMARK Flexibility Score: inf
ROOT
ATOM      1  C   UNL     1      -7.729  18.037 -10.116  1.00  0.00     0.000 C 
ENDROOT
BRANCH   1   2
ATOM      2  C   UNL     1      -8.447  17.772 -11.456  1.00  0.00     0.000 C 
BRANCH   2   3
ATOM      3  C   UNL     1      -8.266  18.861 -12.530  1.00  0.00     0.000 C 
BRANCH   3   4
ATOM      4  C   UNL     1      -7.762  20.194 -11.950  1.00  0.00     0.000 C 
BRANCH   4   5
ATOM      5  C   UNL     1      -8.910  21.124 -11.514  1.00  0.00     0.000 C 
BRANCH   5   6
ATOM      6  C   UNL     1      -9.936  20.491 -10.553  1.00  0.00     0.000 C 
BRANCH   6   7
ATOM      7  C   UNL     1     -11.403  20.899 -10.793  1.00  0.00     0.000 C 
BRANCH   7   8
ATOM      8  C   UNL     1     -11.837  20.958 -12.269  1.00  0.00     0.000 C 
BRANCH   8   9
ATOM      9  C   UNL     1     -13.362  21.037 -12.446  1.00  0.00     0.000 C 
BRANCH   9  10
ATOM     10  C   UNL     1     -13.797  20.907 -13.916  1.00  0.00     0.000 C 
BRANCH  10  11
ATOM     11  C   UNL     1     -13.614  19.487 -14.495  1.00  0.00     0.000 C 
BRANCH  11  12
ATOM     12  C   UNL     1     -13.299  18.451 -13.402  1.00  0.00     0.006 C 
BRANCH  12  13
ATOM     13  C   UNL     1     -11.838  17.984 -13.449  1.00  0.00     0.053 C 
BRANCH  13  14
ATOM     14  C   UNL     1     -11.513  17.059 -12.315  1.00  0.00     0.041 C 
ATOM     15  O   UNL     1     -11.072  15.902 -12.546  1.00  0.00    -0.550 OA
ATOM     16  O   UNL     1     -11.727  17.466 -11.004  1.00  0.00    -0.550 OA
ENDBRANCH  13  14
ENDBRANCH  12  13
ENDBRANCH  11  12
ENDBRANCH  10  11
ENDBRANCH   9  10
ENDBRANCH   8   9
ENDBRANCH   7   8
ENDBRANCH   6   7
ENDBRANCH   5   6
ENDBRANCH   4   5
ENDBRANCH   3   4
ENDBRANCH   2   3
ENDBRANCH   1   2
BRANCH   1  17
ATOM     17  C   UNL     1      -7.263  16.781  -9.359  1.00  0.00     0.000 C 
BRANCH  17  18
ATOM     18  C   UNL     1      -5.812  16.392  -9.690  1.00  0.00     0.000 C 
BRANCH  18  19
ATOM     19  C   UNL     1      -5.007  15.966  -8.451  1.00  0.00     0.000 C 
BRANCH  19  20
ATOM     20  C   UNL     1      -4.268  17.104  -7.722  1.00  0.00     0.000 C 
BRANCH  20  21
ATOM     21  C   UNL     1      -4.787  17.382  -6.295  1.00  0.00     0.000 C 
BRANCH  21  22
ATOM     22  C   UNL     1      -4.073  18.571  -5.627  1.00  0.00    -0.000 C 
BRANCH  22  23
ATOM     23  C   UNL     1      -4.826  19.896  -5.819  1.00  0.00    -0.000 C 
BRANCH  23  24
ATOM     24  C   UNL     1      -4.364  20.987  -4.838  1.00  0.00    -0.000 C 
BRANCH  24  25
ATOM     25  C   UNL     1      -4.985  20.823  -3.440  1.00  0.00    -0.000 C 
BRANCH  25  26
ATOM     26  C   UNL     1      -3.927  20.784  -2.323  1.00  0.00    -0.000 C 
BRANCH  26  27
ATOM     27  C   UNL     1      -4.220  19.684  -1.280  1.00  0.00    -0.000 C 
BRANCH  27  28
ATOM     28  C   UNL     1      -4.978  20.196  -0.040  1.00  0.00    -0.000 C 
BRANCH  28  29
ATOM     29  C   UNL     1      -4.399  19.722   1.304  1.00  0.00    -0.003 C 
ATOM     30  C   UNL     1      -5.273  20.115   2.496  1.00  0.00     0.004 C 
ENDBRANCH  28  29
ENDBRANCH  27  28
ENDBRANCH  26  27
ENDBRANCH  25  26
ENDBRANCH  24  25
ENDBRANCH  23  24
ENDBRANCH  22  23
ENDBRANCH  21  22
ENDBRANCH  20  21
ENDBRANCH  19  20
ENDBRANCH  18  19
ENDBRANCH  17  18
ENDBRANCH   1  17
TORSDOF 26
ENDMDL
MODEL 6
REMARK VINA RESULT:    -2.273      5.656     10.354
REMARK INTER + INTRA:          -8.592
REMARK INTER:                  -5.639
REMARK INTRA:                  -2.952
REMARK UNBOUND:                -2.863
REMARK SMILES CCCCCCCCCCCCCCCCCCCCCCCCCCCC(=O)[O-]
REMARK SMILES IDX 15 1 16 2 17 3 18 4 19 5 20 6 21 7 22 8 23 9 24 10 25 11
REMARK SMILES IDX 26 12 27 13 28 14 29 15 30 16 14 17 13 18 12 19 11 20 10 21
REMARK SMILES IDX 9 22 8 23 7 24 6 25 5 26 4 27 3 28 2 29 1 30
REMARK H PARENT
REMARK Flexibility Score: inf
ROOT
ATOM      1  C   UNL     1     -13.229  18.195 -12.720  1.00  0.00     0.000 C 
ENDROOT
BRANCH   1   2
ATOM      2  C   UNL     1     -12.858  18.022 -14.208  1.00  0.00     0.000 C 
BRANCH   2   3
ATOM      3  C   UNL     1     -11.659  18.859 -14.692  1.00  0.00     0.000 C 
BRANCH   3   4
ATOM      4  C   UNL     1     -11.873  20.371 -14.508  1.00  0.00     0.000 C 
BRANCH   4   5
ATOM      5  C   UNL     1     -10.603  21.098 -14.027  1.00  0.00     0.000 C 
BRANCH   5   6
ATOM      6  C   UNL     1      -9.439  21.119 -15.038  1.00  0.00     0.000 C 
BRANCH   6   7
ATOM      7  C   UNL     1      -8.050  20.798 -14.451  1.00  0.00     0.000 C 
BRANCH   7   8
ATOM      8  C   UNL     1      -7.972  20.791 -12.913  1.00  0.00     0.000 C 
BRANCH   8   9
ATOM      9  C   UNL     1      -6.664  20.184 -12.379  1.00  0.00     0.000 C 
BRANCH   9  10
ATOM     10  C   UNL     1      -5.986  21.070 -11.320  1.00  0.00     0.000 C 
BRANCH  10  11
ATOM     11  C   UNL     1      -4.447  21.117 -11.441  1.00  0.00     0.000 C 
BRANCH  11  12
ATOM     12  C   UNL     1      -3.880  19.858 -12.120  1.00  0.00     0.006 C 
BRANCH  12  13
ATOM     13  C   UNL     1      -4.122  18.591 -11.289  1.00  0.00     0.053 C 
BRANCH  13  14
ATOM     14  C   UNL     1      -4.092  17.356 -12.137  1.00  0.00     0.041 C 
ATOM     15  O   UNL     1      -4.224  17.441 -13.387  1.00  0.00    -0.550 OA
ATOM     16  O   UNL     1      -3.949  16.108 -11.543  1.00  0.00    -0.550 OA
ENDBRANCH  13  14
ENDBRANCH  12  13
ENDBRANCH  11  12
ENDBRANCH  10  11
ENDBRANCH   9  10
ENDBRANCH   8   9
ENDBRANCH   7   8
ENDBRANCH   6   7
ENDBRANCH   5   6
ENDBRANCH   4   5
ENDBRANCH   3   4
ENDBRANCH   2   3
ENDBRANCH   1   2
BRANCH   1  17
ATOM     17  C   UNL     1     -12.336  17.433 -11.726  1.00  0.00     0.000 C 
BRANCH  17  18
ATOM     18  C   UNL     1     -10.924  18.035 -11.613  1.00  0.00     0.000 C 
BRANCH  18  19
ATOM     19  C   UNL     1      -9.922  17.089 -10.931  1.00  0.00     0.000 C 
BRANCH  19  20
ATOM     20  C   UNL     1      -8.525  17.684 -10.671  1.00  0.00     0.000 C 
BRANCH  20  21
ATOM     21  C   UNL     1      -7.583  16.757  -9.872  1.00  0.00     0.000 C 
BRANCH  21  22
ATOM     22  C   UNL     1      -6.428  17.524  -9.202  1.00  0.00    -0.000 C 
BRANCH  22  23
ATOM     23  C   UNL     1      -6.332  17.248  -7.694  1.00  0.00    -0.000 C 
BRANCH  23  24
ATOM     24  C   UNL     1      -4.950  16.719  -7.276  1.00  0.00    -0.000 C 
BRANCH  24  25
ATOM     25  C   UNL     1      -3.925  17.847  -7.070  1.00  0.00    -0.000 C 
BRANCH  25  26
ATOM     26  C   UNL     1      -4.465  18.983  -6.183  1.00  0.00    -0.000 C 
BRANCH  26  27
ATOM     27  C   UNL     1      -4.056  20.377  -6.706  1.00  0.00    -0.000 C 
BRANCH  27  28
ATOM     28  C   UNL     1      -5.174  21.097  -7.484  1.00  0.00    -0.000 C 
BRANCH  28  29
ATOM     29  C   UNL     1      -6.587  20.545  -7.231  1.00  0.00    -0.003 C 
ATOM     30  C   UNL     1      -7.602  21.018  -8.272  1.00  0.00     0.004 C 
ENDBRANCH  28  29
ENDBRANCH  27  28
ENDBRANCH  26  27
ENDBRANCH  25  26
ENDBRANCH  24  25
ENDBRANCH  23  24
ENDBRANCH  22  23
ENDBRANCH  21  22
ENDBRANCH  20  21
ENDBRANCH  19  20
ENDBRANCH  18  19
ENDBRANCH  17  18
ENDBRANCH   1  17
TORSDOF 26
ENDMDL
MODEL 7
REMARK VINA RESULT:    -2.268      5.093      9.660
REMARK INTER + INTRA:          -8.577
REMARK INTER:                  -6.413
REMARK INTRA:                  -2.164
REMARK UNBOUND:                -2.863
REMARK SMILES CCCCCCCCCCCCCCCCCCCCCCCCCCCC(=O)[O-]
REMARK SMILES IDX 15 1 16 2 17 3 18 4 19 5 20 6 21 7 22 8 23 9 24 10 25 11
REMARK SMILES IDX 26 12 27 13 28 14 29 15 30 16 14 17 13 18 12 19 11 20 10 21
REMARK SMILES IDX 9 22 8 23 7 24 6 25 5 26 4 27 3 28 2 29 1 30
REMARK H PARENT
REMARK Flexibility Score: inf
ROOT
ATOM      1  C   UNL     1     -12.765  18.460 -13.077  1.00  0.00     0.000 C 
ENDROOT
BRANCH   1   2
ATOM      2  C   UNL     1     -11.999  19.412 -14.019  1.00  0.00     0.000 C 
BRANCH   2   3
ATOM      3  C   UNL     1     -10.702  18.841 -14.623  1.00  0.00     0.000 C 
BRANCH   3   4
ATOM      4  C   UNL     1      -9.744  19.935 -15.125  1.00  0.00     0.000 C 
BRANCH   4   5
ATOM      5  C   UNL     1      -8.279  19.670 -14.732  1.00  0.00     0.000 C 
BRANCH   5   6
ATOM      6  C   UNL     1      -7.493  20.910 -14.263  1.00  0.00     0.000 C 
BRANCH   6   7
ATOM      7  C   UNL     1      -6.043  21.006 -14.781  1.00  0.00     0.000 C 
BRANCH   7   8
ATOM      8  C   UNL     1      -4.957  20.568 -13.782  1.00  0.00     0.000 C 
BRANCH   8   9
ATOM      9  C   UNL     1      -5.314  19.273 -13.034  1.00  0.00     0.000 C 
BRANCH   9  10
ATOM     10  C   UNL     1      -4.391  18.099 -13.403  1.00  0.00     0.000 C 
BRANCH  10  11
ATOM     11  C   UNL     1      -4.055  17.174 -12.213  1.00  0.00     0.000 C 
BRANCH  11  12
ATOM     12  C   UNL     1      -4.539  17.755 -10.872  1.00  0.00     0.006 C 
BRANCH  12  13
ATOM     13  C   UNL     1      -6.014  17.434 -10.600  1.00  0.00     0.053 C 
BRANCH  13  14
ATOM     14  C   UNL     1      -6.178  16.548  -9.402  1.00  0.00     0.041 C 
ATOM     15  O   UNL     1      -7.265  16.536  -8.766  1.00  0.00    -0.550 OA
ATOM     16  O   UNL     1      -5.119  15.758  -8.972  1.00  0.00    -0.550 OA
ENDBRANCH  13  14
ENDBRANCH  12  13
ENDBRANCH  11  12
ENDBRANCH  10  11
ENDBRANCH   9  10
ENDBRANCH   8   9
ENDBRANCH   7   8
ENDBRANCH   6   7
ENDBRANCH   5   6
ENDBRANCH   4   5
ENDBRANCH   3   4
ENDBRANCH   2   3
ENDBRANCH   1   2
BRANCH   1  17
ATOM     17  C   UNL     1     -12.143  17.063 -12.904  1.00  0.00     0.000 C 
BRANCH  17  18
ATOM     18  C   UNL     1     -10.613  17.110 -12.752  1.00  0.00     0.000 C 
BRANCH  18  19
ATOM     19  C   UNL     1     -10.161  17.339 -11.300  1.00  0.00     0.000 C 
BRANCH  19  20
ATOM     20  C   UNL     1     -10.889  18.473 -10.555  1.00  0.00     0.000 C 
BRANCH  20  21
ATOM     21  C   UNL     1     -10.263  19.870 -10.765  1.00  0.00     0.000 C 
BRANCH  21  22
ATOM     22  C   UNL     1      -8.742  19.808 -10.999  1.00  0.00    -0.000 C 
BRANCH  22  23
ATOM     23  C   UNL     1      -8.035  21.122 -10.637  1.00  0.00    -0.000 C 
BRANCH  23  24
ATOM     24  C   UNL     1      -6.518  20.948 -10.457  1.00  0.00    -0.000 C 
BRANCH  24  25
ATOM     25  C   UNL     1      -6.112  20.798  -8.981  1.00  0.00    -0.000 C 
BRANCH  25  26
ATOM     26  C   UNL     1      -4.587  20.836  -8.779  1.00  0.00    -0.000 C 
BRANCH  26  27
ATOM     27  C   UNL     1      -4.181  20.492  -7.330  1.00  0.00    -0.000 C 
BRANCH  27  28
ATOM     28  C   UNL     1      -4.969  19.310  -6.732  1.00  0.00    -0.000 C 
BRANCH  28  29
ATOM     29  C   UNL     1      -4.211  17.972  -6.728  1.00  0.00    -0.003 C 
ATOM     30  C   UNL     1      -4.703  17.017  -5.640  1.00  0.00     0.004 C 
ENDBRANCH  28  29
ENDBRANCH  27  28
ENDBRANCH  26  27
ENDBRANCH  25  26
ENDBRANCH  24  25
ENDBRANCH  23  24
ENDBRANCH  22  23
ENDBRANCH  21  22
ENDBRANCH  20  21
ENDBRANCH  19  20
ENDBRANCH  18  19
ENDBRANCH  17  18
ENDBRANCH   1  17
TORSDOF 26
ENDMDL
MODEL 8
REMARK VINA RESULT:    -2.150      5.135      7.695
REMARK INTER + INTRA:          -8.282
REMARK INTER:                  -5.760
REMARK INTRA:                  -2.522
REMARK UNBOUND:                -2.863
REMARK SMILES CCCCCCCCCCCCCCCCCCCCCCCCCCCC(=O)[O-]
REMARK SMILES IDX 15 1 16 2 17 3 18 4 19 5 20 6 21 7 22 8 23 9 24 10 25 11
REMARK SMILES IDX 26 12 27 13 28 14 29 15 30 16 14 17 13 18 12 19 11 20 10 21
REMARK SMILES IDX 9 22 8 23 7 24 6 25 5 26 4 27 3 28 2 29 1 30
REMARK H PARENT
REMARK Flexibility Score: inf
ROOT
ATOM      1  C   UNL     1     -11.199  20.407 -10.840  1.00  0.00     0.000 C 
ENDROOT
BRANCH   1   2
ATOM      2  C   UNL     1      -9.991  20.403  -9.879  1.00  0.00     0.000 C 
BRANCH   2   3
ATOM      3  C   UNL     1      -8.668  19.900 -10.485  1.00  0.00     0.000 C 
BRANCH   3   4
ATOM      4  C   UNL     1      -7.454  20.738 -10.048  1.00  0.00     0.000 C 
BRANCH   4   5
ATOM      5  C   UNL     1      -6.297  20.684 -11.064  1.00  0.00     0.000 C 
BRANCH   5   6
ATOM      6  C   UNL     1      -4.921  21.104 -10.510  1.00  0.00     0.000 C 
BRANCH   6   7
ATOM      7  C   UNL     1      -4.243  20.077  -9.581  1.00  0.00     0.000 C 
BRANCH   7   8
ATOM      8  C   UNL     1      -4.153  20.489  -8.100  1.00  0.00     0.000 C 
BRANCH   8   9
ATOM      9  C   UNL     1      -5.370  20.041  -7.274  1.00  0.00     0.000 C 
BRANCH   9  10
ATOM     10  C   UNL     1      -5.007  19.011  -6.191  1.00  0.00     0.000 C 
BRANCH  10  11
ATOM     11  C   UNL     1      -4.113  17.860  -6.702  1.00  0.00     0.000 C 
BRANCH  11  12
ATOM     12  C   UNL     1      -4.940  16.650  -7.176  1.00  0.00     0.006 C 
BRANCH  12  13
ATOM     13  C   UNL     1      -4.651  16.286  -8.638  1.00  0.00     0.053 C 
BRANCH  13  14
ATOM     14  C   UNL     1      -5.697  16.829  -9.563  1.00  0.00     0.041 C 
ATOM     15  O   UNL     1      -5.436  17.010 -10.782  1.00  0.00    -0.550 OA
ATOM     16  O   UNL     1      -6.953  17.163  -9.071  1.00  0.00    -0.550 OA
ENDBRANCH  13  14
ENDBRANCH  12  13
ENDBRANCH  11  12
ENDBRANCH  10  11
ENDBRANCH   9  10
ENDBRANCH   8   9
ENDBRANCH   7   8
ENDBRANCH   6   7
ENDBRANCH   5   6
ENDBRANCH   4   5
ENDBRANCH   3   4
ENDBRANCH   2   3
ENDBRANCH   1   2
BRANCH   1  17
ATOM     17  C   UNL     1     -10.970  21.125 -12.182  1.00  0.00     0.000 C 
BRANCH  17  18
ATOM     18  C   UNL     1     -11.554  20.350 -13.376  1.00  0.00     0.000 C 
BRANCH  18  19
ATOM     19  C   UNL     1     -13.090  20.294 -13.361  1.00  0.00     0.000 C 
BRANCH  19  20
ATOM     20  C   UNL     1     -13.696  18.891 -13.171  1.00  0.00     0.000 C 
BRANCH  20  21
ATOM     21  C   UNL     1     -12.687  17.737 -13.355  1.00  0.00     0.000 C 
BRANCH  21  22
ATOM     22  C   UNL     1     -11.846  17.479 -12.091  1.00  0.00    -0.000 C 
BRANCH  22  23
ATOM     23  C   UNL     1     -10.488  16.834 -12.407  1.00  0.00    -0.000 C 
BRANCH  23  24
ATOM     24  C   UNL     1      -9.930  17.267 -13.773  1.00  0.00    -0.000 C 
BRANCH  24  25
ATOM     25  C   UNL     1      -9.340  18.686 -13.746  1.00  0.00    -0.000 C 
BRANCH  25  26
ATOM     26  C   UNL     1      -8.066  18.815 -14.601  1.00  0.00    -0.000 C 
BRANCH  26  27
ATOM     27  C   UNL     1      -7.305  20.128 -14.321  1.00  0.00    -0.000 C 
BRANCH  27  28
ATOM     28  C   UNL     1      -5.851  20.120 -14.834  1.00  0.00    -0.000 C 
BRANCH  28  29
ATOM     29  C   UNL     1      -4.904  19.191 -14.057  1.00  0.00    -0.003 C 
ATOM     30  C   UNL     1      -4.443  17.991 -14.885  1.00  0.00     0.004 C 
ENDBRANCH  28  29
ENDBRANCH  27  28
ENDBRANCH  26  27
ENDBRANCH  25  26
ENDBRANCH  24  25
ENDBRANCH  23  24
ENDBRANCH  22  23
ENDBRANCH  21  22
ENDBRANCH  20  21
ENDBRANCH  19  20
ENDBRANCH  18  19
ENDBRANCH  17  18
ENDBRANCH   1  17
TORSDOF 26
ENDMDL
