MODEL 1
REMARK VINA RESULT:    -4.085      0.000      0.000
REMARK INTER + INTRA:          -5.409
REMARK INTER:                  -4.920
REMARK INTRA:                  -0.488
REMARK UNBOUND:                -0.488
REMARK SMILES NC(=O)C[C@@H]([NH3+])C(=O)[O-]
REMARK SMILES IDX 4 1 5 2 6 3 7 7 8 8 9 9 2 10 3 11 1 12
REMARK H PARENT 6 4 6 5 6 6 1 13 1 14
REMARK Flexibility Score: inf
ROOT
ATOM      1  C   UNL     1     158.327 151.819 149.276  1.00  0.00     0.171 C 
ENDROOT
BRANCH   1   2
ATOM      2  C   UNL     1     157.694 150.447 149.590  1.00  0.00     0.237 C 
BRANCH   2   3
ATOM      3  N   UNL     1     158.525 149.671 150.520  1.00  0.00    -0.350 N 
ATOM      4  H   UNL     1     158.088 148.743 150.723  1.00  0.00     0.345 HD
ATOM      5  H   UNL     1     158.647 150.196 151.416  1.00  0.00     0.345 HD
ATOM      6  H   UNL     1     159.475 149.520 150.107  1.00  0.00     0.345 HD
ENDBRANCH   2   3
BRANCH   2   7
ATOM      7  C   UNL     1     156.314 150.640 150.160  1.00  0.00     0.100 C 
ATOM      8  O   UNL     1     155.491 149.686 150.177  1.00  0.00    -0.544 OA
ATOM      9  O   UNL     1     155.946 151.871 150.688  1.00  0.00    -0.544 OA
ENDBRANCH   2   7
ENDBRANCH   1   2
BRANCH   1  10
ATOM     10  C   UNL     1     159.266 152.258 150.362  1.00  0.00     0.223 C 
ATOM     11  O   UNL     1     160.478 151.914 150.317  1.00  0.00    -0.275 OA
ATOM     12  N   UNL     1     158.790 153.032 151.463  1.00  0.00    -0.369 N 
ATOM     13  H   UNL     1     159.446 153.327 152.221  1.00  0.00     0.159 HD
ATOM     14  H   UNL     1     157.785 153.306 151.529  1.00  0.00     0.159 HD
ENDBRANCH   1  10
TORSDOF 4
ENDMDL
MODEL 2
REMARK VINA RESULT:    -4.084     17.241     17.897
REMARK INTER + INTRA:          -5.408
REMARK INTER:                  -4.919
REMARK INTRA:                  -0.488
REMARK UNBOUND:                -0.488
REMARK SMILES NC(=O)C[C@@H]([NH3+])C(=O)[O-]
REMARK SMILES IDX 4 1 5 2 6 3 7 7 8 8 9 9 2 10 3 11 1 12
REMARK H PARENT 6 4 6 5 6 6 1 13 1 14
REMARK Flexibility Score: inf
ROOT
ATOM      1  C   UNL     1     159.666 151.823 168.727  1.00  0.00     0.171 C 
ENDROOT
BRANCH   1   2
ATOM      2  C   UNL     1     160.300 150.452 168.414  1.00  0.00     0.237 C 
BRANCH   2   3
ATOM      3  N   UNL     1     159.471 149.674 167.483  1.00  0.00    -0.350 N 
ATOM      4  H   UNL     1     158.931 148.938 167.993  1.00  0.00     0.345 HD
ATOM      5  H   UNL     1     160.074 149.220 166.760  1.00  0.00     0.345 HD
ATOM      6  H   UNL     1     158.803 150.309 166.987  1.00  0.00     0.345 HD
ENDBRANCH   2   3
BRANCH   2   7
ATOM      7  C   UNL     1     161.680 150.647 167.845  1.00  0.00     0.100 C 
ATOM      8  O   UNL     1     162.498 149.688 167.810  1.00  0.00    -0.544 OA
ATOM      9  O   UNL     1     162.054 151.884 167.337  1.00  0.00    -0.544 OA
ENDBRANCH   2   7
ENDBRANCH   1   2
BRANCH   1  10
ATOM     10  C   UNL     1     158.727 152.261 167.640  1.00  0.00     0.223 C 
ATOM     11  O   UNL     1     157.515 151.919 167.685  1.00  0.00    -0.275 OA
ATOM     12  N   UNL     1     159.204 153.032 166.536  1.00  0.00    -0.369 N 
ATOM     13  H   UNL     1     158.550 153.325 165.778  1.00  0.00     0.159 HD
ATOM     14  H   UNL     1     160.210 153.303 166.470  1.00  0.00     0.159 HD
ENDBRANCH   1  10
TORSDOF 4
ENDMDL
MODEL 3
REMARK VINA RESULT:    -4.081     22.435     23.469
REMARK INTER + INTRA:          -5.404
REMARK INTER:                  -4.916
REMARK INTRA:                  -0.488
REMARK UNBOUND:                -0.488
REMARK SMILES NC(=O)C[C@@H]([NH3+])C(=O)[O-]
REMARK SMILES IDX 4 1 5 2 6 3 7 7 8 8 9 9 2 10 3 11 1 12
REMARK H PARENT 6 4 6 5 6 6 1 13 1 14
REMARK Flexibility Score: inf
ROOT
ATOM      1  C   UNL     1     158.338 166.212 168.732  1.00  0.00     0.171 C 
ENDROOT
BRANCH   1   2
ATOM      2  C   UNL     1     157.717 167.586 168.409  1.00  0.00     0.237 C 
BRANCH   2   3
ATOM      3  N   UNL     1     158.556 168.351 167.476  1.00  0.00    -0.350 N 
ATOM      4  H   UNL     1     159.294 168.884 167.991  1.00  0.00     0.345 HD
ATOM      5  H   UNL     1     157.966 169.021 166.931  1.00  0.00     0.345 HD
ATOM      6  H   UNL     1     159.013 167.702 166.795  1.00  0.00     0.345 HD
ENDBRANCH   2   3
BRANCH   2   7
ATOM      7  C   UNL     1     156.337 167.400 167.836  1.00  0.00     0.100 C 
ATOM      8  O   UNL     1     155.523 168.362 167.805  1.00  0.00    -0.544 OA
ATOM      9  O   UNL     1     155.959 166.167 167.321  1.00  0.00    -0.544 OA
ENDBRANCH   2   7
ENDBRANCH   1   2
BRANCH   1  10
ATOM     10  C   UNL     1     159.265 165.753 167.643  1.00  0.00     0.223 C 
ATOM     11  O   UNL     1     160.484 166.072 167.684  1.00  0.00    -0.275 OA
ATOM     12  N   UNL     1     158.770 164.987 166.545  1.00  0.00    -0.369 N 
ATOM     13  H   UNL     1     159.417 164.679 165.785  1.00  0.00     0.159 HD
ATOM     14  H   UNL     1     157.759 164.734 166.483  1.00  0.00     0.159 HD
ENDBRANCH   1  10
TORSDOF 4
ENDMDL
MODEL 4
REMARK VINA RESULT:    -4.080     14.561     16.111
REMARK INTER + INTRA:          -5.403
REMARK INTER:                  -4.915
REMARK INTRA:                  -0.487
REMARK UNBOUND:                -0.488
REMARK SMILES NC(=O)C[C@@H]([NH3+])C(=O)[O-]
REMARK SMILES IDX 4 1 5 2 6 3 7 7 8 8 9 9 2 10 3 11 1 12
REMARK H PARENT 6 4 6 5 6 6 1 13 1 14
REMARK Flexibility Score: inf
ROOT
ATOM      1  C   UNL     1     159.660 166.191 149.262  1.00  0.00     0.171 C 
ENDROOT
BRANCH   1   2
ATOM      2  C   UNL     1     160.302 167.558 149.578  1.00  0.00     0.237 C 
BRANCH   2   3
ATOM      3  N   UNL     1     159.469 168.345 150.499  1.00  0.00    -0.350 N 
ATOM      4  H   UNL     1     158.841 167.721 151.056  1.00  0.00     0.345 HD
ATOM      5  H   UNL     1     158.888 169.027 149.962  1.00  0.00     0.345 HD
ATOM      6  H   UNL     1     160.079 168.889 151.153  1.00  0.00     0.345 HD
ENDBRANCH   2   3
BRANCH   2   7
ATOM      7  C   UNL     1     161.675 167.354 150.163  1.00  0.00     0.100 C 
ATOM      8  O   UNL     1     162.508 168.300 150.181  1.00  0.00    -0.544 OA
ATOM      9  O   UNL     1     162.024 166.124 150.702  1.00  0.00    -0.544 OA
ENDBRANCH   2   7
ENDBRANCH   1   2
BRANCH   1  10
ATOM     10  C   UNL     1     158.732 165.748 150.356  1.00  0.00     0.223 C 
ATOM     11  O   UNL     1     157.522 166.097 150.328  1.00  0.00    -0.275 OA
ATOM     12  N   UNL     1     159.218 164.964 151.446  1.00  0.00    -0.369 N 
ATOM     13  H   UNL     1     158.571 164.667 152.209  1.00  0.00     0.159 HD
ATOM     14  H   UNL     1     160.224 164.686 151.497  1.00  0.00     0.159 HD
ENDBRANCH   1  10
TORSDOF 4
ENDMDL
MODEL 5
REMARK VINA RESULT:    -3.915     17.516     17.913
REMARK INTER + INTRA:          -5.205
REMARK INTER:                  -4.750
REMARK INTRA:                  -0.455
REMARK UNBOUND:                -0.488
REMARK SMILES NC(=O)C[C@@H]([NH3+])C(=O)[O-]
REMARK SMILES IDX 4 1 5 2 6 3 7 7 8 8 9 9 2 10 3 11 1 12
REMARK H PARENT 6 4 6 5 6 6 1 13 1 14
REMARK Flexibility Score: inf
ROOT
ATOM      1  C   UNL     1     160.131 151.270 169.032  1.00  0.00     0.171 C 
ENDROOT
BRANCH   1   2
ATOM      2  C   UNL     1     159.585 152.591 168.449  1.00  0.00     0.237 C 
BRANCH   2   3
ATOM      3  N   UNL     1     160.420 153.077 167.342  1.00  0.00    -0.350 N 
ATOM      4  H   UNL     1     159.958 153.877 166.852  1.00  0.00     0.345 HD
ATOM      5  H   UNL     1     160.590 152.306 166.657  1.00  0.00     0.345 HD
ATOM      6  H   UNL     1     161.349 153.389 167.708  1.00  0.00     0.345 HD
ENDBRANCH   2   3
BRANCH   2   7
ATOM      7  C   UNL     1     158.166 152.395 167.985  1.00  0.00     0.100 C 
ATOM      8  O   UNL     1     157.804 151.298 167.481  1.00  0.00    -0.544 OA
ATOM      9  O   UNL     1     157.241 153.421 168.126  1.00  0.00    -0.544 OA
ENDBRANCH   2   7
ENDBRANCH   1   2
BRANCH   1  10
ATOM     10  C   UNL     1     160.932 150.506 168.018  1.00  0.00     0.223 C 
ATOM     11  O   UNL     1     162.148 150.786 167.843  1.00  0.00    -0.275 OA
ATOM     12  N   UNL     1     160.319 149.489 167.225  1.00  0.00    -0.369 N 
ATOM     13  H   UNL     1     160.878 148.968 166.514  1.00  0.00     0.159 HD
ATOM     14  H   UNL     1     159.306 149.261 167.340  1.00  0.00     0.159 HD
ENDBRANCH   1  10
TORSDOF 4
ENDMDL
MODEL 6
REMARK VINA RESULT:    -3.872     14.107     15.169
REMARK INTER + INTRA:          -5.153
REMARK INTER:                  -4.678
REMARK INTRA:                  -0.475
REMARK UNBOUND:                -0.488
REMARK SMILES NC(=O)C[C@@H]([NH3+])C(=O)[O-]
REMARK SMILES IDX 4 1 5 2 6 3 7 7 8 8 9 9 2 10 3 11 1 12
REMARK H PARENT 6 4 6 5 6 6 1 13 1 14
REMARK Flexibility Score: inf
ROOT
ATOM      1  C   UNL     1     160.320 166.516 149.078  1.00  0.00     0.171 C 
ENDROOT
BRANCH   1   2
ATOM      2  C   UNL     1     159.711 165.280 149.773  1.00  0.00     0.237 C 
BRANCH   2   3
ATOM      3  N   UNL     1     160.404 164.973 151.032  1.00  0.00    -0.350 N 
ATOM      4  H   UNL     1     159.735 164.596 151.742  1.00  0.00     0.345 HD
ATOM      5  H   UNL     1     160.857 165.836 151.411  1.00  0.00     0.345 HD
ATOM      6  H   UNL     1     161.157 164.267 150.860  1.00  0.00     0.345 HD
ENDBRANCH   2   3
BRANCH   2   7
ATOM      7  C   UNL     1     158.245 165.510 150.028  1.00  0.00     0.100 C 
ATOM      8  O   UNL     1     157.836 166.627 150.445  1.00  0.00    -0.544 OA
ATOM      9  O   UNL     1     157.330 164.493 149.787  1.00  0.00    -0.544 OA
ENDBRANCH   2   7
ENDBRANCH   1   2
BRANCH   1  10
ATOM     10  C   UNL     1     161.050 167.395 150.051  1.00  0.00     0.223 C 
ATOM     11  O   UNL     1     162.280 167.214 150.257  1.00  0.00    -0.275 OA
ATOM     12  N   UNL     1     160.355 168.414 150.771  1.00  0.00    -0.369 N 
ATOM     13  H   UNL     1     160.865 169.016 151.455  1.00  0.00     0.159 HD
ATOM     14  H   UNL     1     159.331 168.562 150.631  1.00  0.00     0.159 HD
ENDBRANCH   1  10
TORSDOF 4
ENDMDL
MODEL 7
REMARK VINA RESULT:    -3.852      0.946      3.793
REMARK INTER + INTRA:          -5.128
REMARK INTER:                  -4.704
REMARK INTRA:                  -0.424
REMARK UNBOUND:                -0.488
REMARK SMILES NC(=O)C[C@@H]([NH3+])C(=O)[O-]
REMARK SMILES IDX 4 1 5 2 6 3 7 7 8 8 9 9 2 10 3 11 1 12
REMARK H PARENT 6 4 6 5 6 6 1 13 1 14
REMARK Flexibility Score: inf
ROOT
ATOM      1  C   UNL     1     157.725 151.505 149.318  1.00  0.00     0.171 C 
ENDROOT
BRANCH   1   2
ATOM      2  C   UNL     1     158.334 152.529 150.299  1.00  0.00     0.237 C 
BRANCH   2   3
ATOM      3  N   UNL     1     157.897 152.279 151.679  1.00  0.00    -0.350 N 
ATOM      4  H   UNL     1     158.685 151.907 152.257  1.00  0.00     0.345 HD
ATOM      5  H   UNL     1     157.111 151.590 151.686  1.00  0.00     0.345 HD
ATOM      6  H   UNL     1     157.547 153.167 152.107  1.00  0.00     0.345 HD
ENDBRANCH   2   3
BRANCH   2   7
ATOM      7  C   UNL     1     159.837 152.486 150.212  1.00  0.00     0.100 C 
ATOM      8  O   UNL     1     160.465 151.443 150.536  1.00  0.00    -0.544 OA
ATOM      9  O   UNL     1     160.538 153.594 149.757  1.00  0.00    -0.544 OA
ENDBRANCH   2   7
ENDBRANCH   1   2
BRANCH   1  10
ATOM     10  C   UNL     1     157.270 150.262 150.026  1.00  0.00     0.223 C 
ATOM     11  O   UNL     1     156.050 150.113 150.304  1.00  0.00    -0.275 OA
ATOM     12  N   UNL     1     158.213 149.264 150.417  1.00  0.00    -0.369 N 
ATOM     13  H   UNL     1     157.893 148.406 150.918  1.00  0.00     0.159 HD
ATOM     14  H   UNL     1     159.230 149.383 150.215  1.00  0.00     0.159 HD
ENDBRANCH   1  10
TORSDOF 4
ENDMDL
MODEL 8
REMARK VINA RESULT:    -3.848     22.423     23.392
REMARK INTER + INTRA:          -5.124
REMARK INTER:                  -4.702
REMARK INTRA:                  -0.421
REMARK UNBOUND:                -0.488
REMARK SMILES NC(=O)C[C@@H]([NH3+])C(=O)[O-]
REMARK SMILES IDX 4 1 5 2 6 3 7 7 8 8 9 9 2 10 3 11 1 12
REMARK H PARENT 6 4 6 5 6 6 1 13 1 14
REMARK Flexibility Score: inf
ROOT
ATOM      1  C   UNL     1     157.720 166.483 168.665  1.00  0.00     0.171 C 
ENDROOT
BRANCH   1   2
ATOM      2  C   UNL     1     158.365 165.481 167.684  1.00  0.00     0.237 C 
BRANCH   2   3
ATOM      3  N   UNL     1     157.904 165.704 166.306  1.00  0.00    -0.350 N 
ATOM      4  H   UNL     1     157.705 166.717 166.141  1.00  0.00     0.345 HD
ATOM      5  H   UNL     1     157.036 165.150 166.125  1.00  0.00     0.345 HD
ATOM      6  H   UNL     1     158.635 165.383 165.630  1.00  0.00     0.345 HD
ENDBRANCH   2   3
BRANCH   2   7
ATOM      7  C   UNL     1     159.865 165.590 167.755  1.00  0.00     0.100 C 
ATOM      8  O   UNL     1     160.552 164.645 168.229  1.00  0.00    -0.544 OA
ATOM      9  O   UNL     1     160.502 166.729 167.283  1.00  0.00    -0.544 OA
ENDBRANCH   2   7
ENDBRANCH   1   2
BRANCH   1  10
ATOM     10  C   UNL     1     157.250 167.723 167.962  1.00  0.00     0.223 C 
ATOM     11  O   UNL     1     156.026 167.865 167.698  1.00  0.00    -0.275 OA
ATOM     12  N   UNL     1     158.182 168.726 167.560  1.00  0.00    -0.369 N 
ATOM     13  H   UNL     1     157.851 169.583 167.062  1.00  0.00     0.159 HD
ATOM     14  H   UNL     1     159.203 168.614 167.749  1.00  0.00     0.159 HD
ENDBRANCH   1  10
TORSDOF 4
ENDMDL
MODEL 9
REMARK VINA RESULT:    -3.774     16.197     17.032
REMARK INTER + INTRA:          -5.035
REMARK INTER:                  -4.758
REMARK INTRA:                  -0.276
REMARK UNBOUND:                -0.488
REMARK SMILES NC(=O)C[C@@H]([NH3+])C(=O)[O-]
REMARK SMILES IDX 4 1 5 2 6 3 7 7 8 8 9 9 2 10 3 11 1 12
REMARK H PARENT 6 4 6 5 6 6 1 13 1 14
REMARK Flexibility Score: inf
ROOT
ATOM      1  C   UNL     1     160.190 151.471 167.087  1.00  0.00     0.171 C 
ENDROOT
BRANCH   1   2
ATOM      2  C   UNL     1     160.447 152.628 166.098  1.00  0.00     0.237 C 
BRANCH   2   3
ATOM      3  N   UNL     1     159.422 153.674 166.215  1.00  0.00    -0.350 N 
ATOM      4  H   UNL     1     159.067 153.954 165.272  1.00  0.00     0.345 HD
ATOM      5  H   UNL     1     159.819 154.513 166.695  1.00  0.00     0.345 HD
ATOM      6  H   UNL     1     158.622 153.325 166.792  1.00  0.00     0.345 HD
ENDBRANCH   2   3
BRANCH   2   7
ATOM      7  C   UNL     1     161.815 153.209 166.337  1.00  0.00     0.100 C 
ATOM      8  O   UNL     1     162.737 153.041 165.494  1.00  0.00    -0.544 OA
ATOM      9  O   UNL     1     162.063 153.952 167.483  1.00  0.00    -0.544 OA
ENDBRANCH   2   7
ENDBRANCH   1   2
BRANCH   1  10
ATOM     10  C   UNL     1     158.754 151.035 167.069  1.00  0.00     0.223 C 
ATOM     11  O   UNL     1     157.946 151.510 167.912  1.00  0.00    -0.275 OA
ATOM     12  N   UNL     1     158.303 150.061 166.128  1.00  0.00    -0.369 N 
ATOM     13  H   UNL     1     157.305 149.753 166.126  1.00  0.00     0.159 HD
ATOM     14  H   UNL     1     158.964 149.639 165.438  1.00  0.00     0.159 HD
ENDBRANCH   1  10
TORSDOF 4
ENDMDL
