MODEL 1
REMARK VINA RESULT:    -4.761      0.000      0.000
REMARK INTER + INTRA:          -9.055
REMARK INTER:                  -8.101
REMARK INTRA:                  -0.954
REMARK UNBOUND:                -0.954
REMARK SMILES CCCCCCCCCCCCCC(=O)[O-]
REMARK SMILES IDX 8 1 9 2 10 3 11 4 12 5 13 6 14 7 15 8 16 9 7 10 6 11 5 12
REMARK SMILES IDX 4 13 3 14 2 15 1 16
REMARK H PARENT
REMARK Flexibility Score: inf
ROOT
ATOM      1  C   UNL     1      10.099   5.331  11.129  1.00  0.00     0.000 C 
ENDROOT
BRANCH   1   2
ATOM      2  C   UNL     1      10.271   5.725  12.607  1.00  0.00     0.000 C 
BRANCH   2   3
ATOM      3  C   UNL     1      10.873   7.127  12.788  1.00  0.00     0.000 C 
BRANCH   3   4
ATOM      4  C   UNL     1      11.511   7.625  11.484  1.00  0.00     0.000 C 
BRANCH   4   5
ATOM      5  C   UNL     1      11.443   9.154  11.324  1.00  0.00     0.006 C 
BRANCH   5   6
ATOM      6  C   UNL     1      12.222   9.690  10.110  1.00  0.00     0.053 C 
BRANCH   6   7
ATOM      7  C   UNL     1      12.456  11.169  10.183  1.00  0.00     0.041 C 
ATOM      8  O   UNL     1      12.473  11.860   9.131  1.00  0.00    -0.550 OA
ATOM      9  O   UNL     1      12.618  11.791  11.416  1.00  0.00    -0.550 OA
ENDBRANCH   6   7
ENDBRANCH   5   6
ENDBRANCH   4   5
ENDBRANCH   3   4
ENDBRANCH   2   3
ENDBRANCH   1   2
BRANCH   1  10
ATOM     10  C   UNL     1      10.763   4.001  10.731  1.00  0.00     0.000 C 
BRANCH  10  11
ATOM     11  C   UNL     1      12.255   4.156  10.391  1.00  0.00    -0.000 C 
BRANCH  11  12
ATOM     12  C   UNL     1      13.162   3.371  11.349  1.00  0.00    -0.000 C 
BRANCH  12  13
ATOM     13  C   UNL     1      12.394   2.293  12.137  1.00  0.00    -0.000 C 
BRANCH  13  14
ATOM     14  C   UNL     1      12.485   2.497  13.657  1.00  0.00    -0.000 C 
BRANCH  14  15
ATOM     15  C   UNL     1      13.507   1.561  14.318  1.00  0.00    -0.003 C 
ATOM     16  C   UNL     1      13.985   2.124  15.653  1.00  0.00     0.004 C 
ENDBRANCH  14  15
ENDBRANCH  13  14
ENDBRANCH  12  13
ENDBRANCH  11  12
ENDBRANCH  10  11
ENDBRANCH   1  10
TORSDOF 12
ENDMDL
MODEL 2
REMARK VINA RESULT:    -4.654      3.794      7.801
REMARK INTER + INTRA:          -8.872
REMARK INTER:                  -7.585
REMARK INTRA:                  -1.287
REMARK UNBOUND:                -0.954
REMARK SMILES CCCCCCCCCCCCCC(=O)[O-]
REMARK SMILES IDX 8 1 9 2 10 3 11 4 12 5 13 6 14 7 15 8 16 9 7 10 6 11 5 12
REMARK SMILES IDX 4 13 3 14 2 15 1 16
REMARK H PARENT
REMARK Flexibility Score: inf
ROOT
ATOM      1  C   UNL     1      12.777  10.739  10.444  1.00  0.00     0.000 C 
ENDROOT
BRANCH   1   2
ATOM      2  C   UNL     1      11.892   9.495  10.247  1.00  0.00     0.000 C 
BRANCH   2   3
ATOM      3  C   UNL     1      11.302   8.964  11.563  1.00  0.00     0.000 C 
BRANCH   3   4
ATOM      4  C   UNL     1      11.574   7.461  11.722  1.00  0.00     0.000 C 
BRANCH   4   5
ATOM      5  C   UNL     1      11.949   6.772  10.398  1.00  0.00     0.006 C 
BRANCH   5   6
ATOM      6  C   UNL     1      12.348   5.294  10.555  1.00  0.00     0.053 C 
BRANCH   6   7
ATOM      7  C   UNL     1      11.506   4.378   9.718  1.00  0.00     0.041 C 
ATOM      8  O   UNL     1      10.412   4.781   9.246  1.00  0.00    -0.550 OA
ATOM      9  O   UNL     1      11.948   3.093   9.429  1.00  0.00    -0.550 OA
ENDBRANCH   6   7
ENDBRANCH   5   6
ENDBRANCH   4   5
ENDBRANCH   3   4
ENDBRANCH   2   3
ENDBRANCH   1   2
BRANCH   1  10
ATOM     10  C   UNL     1      12.387  11.955   9.586  1.00  0.00     0.000 C 
BRANCH  10  11
ATOM     11  C   UNL     1      11.928  13.159  10.427  1.00  0.00    -0.000 C 
BRANCH  11  12
ATOM     12  C   UNL     1      12.422  13.086  11.878  1.00  0.00    -0.000 C 
BRANCH  12  13
ATOM     13  C   UNL     1      11.265  13.016  12.892  1.00  0.00    -0.000 C 
BRANCH  13  14
ATOM     14  C   UNL     1       9.900  12.816  12.217  1.00  0.00    -0.000 C 
BRANCH  14  15
ATOM     15  C   UNL     1       9.105  11.653  12.826  1.00  0.00    -0.003 C 
ATOM     16  C   UNL     1       9.746  11.169  14.123  1.00  0.00     0.004 C 
ENDBRANCH  14  15
ENDBRANCH  13  14
ENDBRANCH  12  13
ENDBRANCH  11  12
ENDBRANCH  10  11
ENDBRANCH   1  10
TORSDOF 12
ENDMDL
MODEL 3
REMARK VINA RESULT:    -4.564      1.104      1.707
REMARK INTER + INTRA:          -8.720
REMARK INTER:                  -8.140
REMARK INTRA:                  -0.580
REMARK UNBOUND:                -0.954
REMARK SMILES CCCCCCCCCCCCCC(=O)[O-]
REMARK SMILES IDX 8 1 9 2 10 3 11 4 12 5 13 6 14 7 15 8 16 9 7 10 6 11 5 12
REMARK SMILES IDX 4 13 3 14 2 15 1 16
REMARK H PARENT
REMARK Flexibility Score: inf
ROOT
ATOM      1  C   UNL     1      11.357   6.276  10.867  1.00  0.00     0.000 C 
ENDROOT
BRANCH   1   2
ATOM      2  C   UNL     1      11.297   7.170  12.119  1.00  0.00     0.000 C 
BRANCH   2   3
ATOM      3  C   UNL     1      11.368   8.669  11.790  1.00  0.00     0.000 C 
BRANCH   3   4
ATOM      4  C   UNL     1      11.980   8.900  10.401  1.00  0.00     0.000 C 
BRANCH   4   5
ATOM      5  C   UNL     1      12.394  10.362  10.159  1.00  0.00     0.006 C 
BRANCH   5   6
ATOM      6  C   UNL     1      12.236  11.268  11.393  1.00  0.00     0.053 C 
BRANCH   6   7
ATOM      7  C   UNL     1      12.269  12.725  11.045  1.00  0.00     0.041 C 
ATOM      8  O   UNL     1      12.622  13.574  11.905  1.00  0.00    -0.550 OA
ATOM      9  O   UNL     1      11.948  13.144   9.759  1.00  0.00    -0.550 OA
ENDBRANCH   6   7
ENDBRANCH   5   6
ENDBRANCH   4   5
ENDBRANCH   3   4
ENDBRANCH   2   3
ENDBRANCH   1   2
BRANCH   1  10
ATOM     10  C   UNL     1      12.427   5.170  10.911  1.00  0.00     0.000 C 
BRANCH  10  11
ATOM     11  C   UNL     1      11.996   3.892  10.170  1.00  0.00    -0.000 C 
BRANCH  11  12
ATOM     12  C   UNL     1      12.671   2.632  10.729  1.00  0.00    -0.000 C 
BRANCH  12  13
ATOM     13  C   UNL     1      13.188   2.828  12.166  1.00  0.00    -0.000 C 
BRANCH  13  14
ATOM     14  C   UNL     1      12.465   1.930  13.182  1.00  0.00    -0.000 C 
BRANCH  14  15
ATOM     15  C   UNL     1      13.435   1.192  14.114  1.00  0.00    -0.003 C 
ATOM     16  C   UNL     1      13.801   2.054  15.319  1.00  0.00     0.004 C 
ENDBRANCH  14  15
ENDBRANCH  13  14
ENDBRANCH  12  13
ENDBRANCH  11  12
ENDBRANCH  10  11
ENDBRANCH   1  10
TORSDOF 12
ENDMDL
MODEL 4
REMARK VINA RESULT:    -4.563      3.567      5.355
REMARK INTER + INTRA:          -8.718
REMARK INTER:                  -7.036
REMARK INTRA:                  -1.681
REMARK UNBOUND:                -0.954
REMARK SMILES CCCCCCCCCCCCCC(=O)[O-]
REMARK SMILES IDX 8 1 9 2 10 3 11 4 12 5 13 6 14 7 15 8 16 9 7 10 6 11 5 12
REMARK SMILES IDX 4 13 3 14 2 15 1 16
REMARK H PARENT
REMARK Flexibility Score: inf
ROOT
ATOM      1  C   UNL     1      11.701   6.521  11.008  1.00  0.00     0.000 C 
ENDROOT
BRANCH   1   2
ATOM      2  C   UNL     1      12.672   5.538  10.331  1.00  0.00     0.000 C 
BRANCH   2   3
ATOM      3  C   UNL     1      13.231   4.484  11.299  1.00  0.00     0.000 C 
BRANCH   3   4
ATOM      4  C   UNL     1      12.819   3.068  10.871  1.00  0.00     0.000 C 
BRANCH   4   5
ATOM      5  C   UNL     1      11.941   3.051   9.608  1.00  0.00     0.006 C 
BRANCH   5   6
ATOM      6  C   UNL     1      10.487   2.616   9.865  1.00  0.00     0.053 C 
BRANCH   6   7
ATOM      7  C   UNL     1       9.559   3.027   8.762  1.00  0.00     0.041 C 
ATOM      8  O   UNL     1       9.034   2.157   8.020  1.00  0.00    -0.550 OA
ATOM      9  O   UNL     1       9.246   4.369   8.576  1.00  0.00    -0.550 OA
ENDBRANCH   6   7
ENDBRANCH   5   6
ENDBRANCH   4   5
ENDBRANCH   3   4
ENDBRANCH   2   3
ENDBRANCH   1   2
BRANCH   1  10
ATOM     10  C   UNL     1      10.482   5.867  11.683  1.00  0.00     0.000 C 
BRANCH  10  11
ATOM     11  C   UNL     1      10.389   6.182  13.186  1.00  0.00    -0.000 C 
BRANCH  11  12
ATOM     12  C   UNL     1       9.773   5.029  13.992  1.00  0.00    -0.000 C 
BRANCH  12  13
ATOM     13  C   UNL     1      10.424   3.671  13.670  1.00  0.00    -0.000 C 
BRANCH  13  14
ATOM     14  C   UNL     1      11.393   3.206  14.768  1.00  0.00    -0.000 C 
BRANCH  14  15
ATOM     15  C   UNL     1      12.339   2.096  14.289  1.00  0.00    -0.003 C 
ATOM     16  C   UNL     1      13.642   2.104  15.084  1.00  0.00     0.004 C 
ENDBRANCH  14  15
ENDBRANCH  13  14
ENDBRANCH  12  13
ENDBRANCH  11  12
ENDBRANCH  10  11
ENDBRANCH   1  10
TORSDOF 12
ENDMDL
MODEL 5
REMARK VINA RESULT:    -4.527      4.016      7.742
REMARK INTER + INTRA:          -8.657
REMARK INTER:                  -7.747
REMARK INTRA:                  -0.910
REMARK UNBOUND:                -0.954
REMARK SMILES CCCCCCCCCCCCCC(=O)[O-]
REMARK SMILES IDX 8 1 9 2 10 3 11 4 12 5 13 6 14 7 15 8 16 9 7 10 6 11 5 12
REMARK SMILES IDX 4 13 3 14 2 15 1 16
REMARK H PARENT
REMARK Flexibility Score: inf
ROOT
ATOM      1  C   UNL     1      10.621   5.782  11.159  1.00  0.00     0.000 C 
ENDROOT
BRANCH   1   2
ATOM      2  C   UNL     1       9.677   4.718  10.571  1.00  0.00     0.000 C 
BRANCH   2   3
ATOM      3  C   UNL     1       9.997   4.374   9.108  1.00  0.00     0.000 C 
BRANCH   3   4
ATOM      4  C   UNL     1       9.288   3.082   8.678  1.00  0.00     0.000 C 
BRANCH   4   5
ATOM      5  C   UNL     1       9.957   1.813   9.233  1.00  0.00     0.006 C 
BRANCH   5   6
ATOM      6  C   UNL     1      11.485   1.783   9.054  1.00  0.00     0.053 C 
BRANCH   6   7
ATOM      7  C   UNL     1      12.214   1.633  10.355  1.00  0.00     0.041 C 
ATOM      8  O   UNL     1      12.492   2.648  11.046  1.00  0.00    -0.550 OA
ATOM      9  O   UNL     1      12.554   0.369  10.823  1.00  0.00    -0.550 OA
ENDBRANCH   6   7
ENDBRANCH   5   6
ENDBRANCH   4   5
ENDBRANCH   3   4
ENDBRANCH   2   3
ENDBRANCH   1   2
BRANCH   1  10
ATOM     10  C   UNL     1      11.871   6.079  10.311  1.00  0.00     0.000 C 
BRANCH  10  11
ATOM     11  C   UNL     1      12.218   7.577  10.262  1.00  0.00    -0.000 C 
BRANCH  11  12
ATOM     12  C   UNL     1      11.594   8.364  11.423  1.00  0.00    -0.000 C 
BRANCH  12  13
ATOM     13  C   UNL     1      11.370   9.848  11.076  1.00  0.00    -0.000 C 
BRANCH  13  14
ATOM     14  C   UNL     1      12.437  10.397  10.116  1.00  0.00    -0.000 C 
BRANCH  14  15
ATOM     15  C   UNL     1      12.411  11.928  10.018  1.00  0.00    -0.003 C 
ATOM     16  C   UNL     1      12.786  12.396   8.615  1.00  0.00     0.004 C 
ENDBRANCH  14  15
ENDBRANCH  13  14
ENDBRANCH  12  13
ENDBRANCH  11  12
ENDBRANCH  10  11
ENDBRANCH   1  10
TORSDOF 12
ENDMDL
MODEL 6
REMARK VINA RESULT:    -4.526      3.554      7.867
REMARK INTER + INTRA:          -8.654
REMARK INTER:                  -7.894
REMARK INTRA:                  -0.761
REMARK UNBOUND:                -0.954
REMARK SMILES CCCCCCCCCCCCCC(=O)[O-]
REMARK SMILES IDX 8 1 9 2 10 3 11 4 12 5 13 6 14 7 15 8 16 9 7 10 6 11 5 12
REMARK SMILES IDX 4 13 3 14 2 15 1 16
REMARK H PARENT
REMARK Flexibility Score: inf
ROOT
ATOM      1  C   UNL     1      12.125   6.534  10.297  1.00  0.00     0.000 C 
ENDROOT
BRANCH   1   2
ATOM      2  C   UNL     1      12.748   5.128  10.364  1.00  0.00     0.000 C 
BRANCH   2   3
ATOM      3  C   UNL     1      12.187   4.278  11.515  1.00  0.00     0.000 C 
BRANCH   3   4
ATOM      4  C   UNL     1      11.922   2.837  11.058  1.00  0.00     0.000 C 
BRANCH   4   5
ATOM      5  C   UNL     1      11.716   2.713   9.538  1.00  0.00     0.006 C 
BRANCH   5   6
ATOM      6  C   UNL     1      10.331   2.173   9.138  1.00  0.00     0.053 C 
BRANCH   6   7
ATOM      7  C   UNL     1       9.444   3.235   8.561  1.00  0.00     0.041 C 
ATOM      8  O   UNL     1       9.784   4.446   8.621  1.00  0.00    -0.550 OA
ATOM      9  O   UNL     1       8.260   2.886   7.923  1.00  0.00    -0.550 OA
ENDBRANCH   6   7
ENDBRANCH   5   6
ENDBRANCH   4   5
ENDBRANCH   3   4
ENDBRANCH   2   3
ENDBRANCH   1   2
BRANCH   1  10
ATOM     10  C   UNL     1      11.427   6.997  11.588  1.00  0.00     0.000 C 
BRANCH  10  11
ATOM     11  C   UNL     1      11.332   8.528  11.701  1.00  0.00    -0.000 C 
BRANCH  11  12
ATOM     12  C   UNL     1      11.869   9.245  10.454  1.00  0.00    -0.000 C 
BRANCH  12  13
ATOM     13  C   UNL     1      12.103  10.748  10.693  1.00  0.00    -0.000 C 
BRANCH  13  14
ATOM     14  C   UNL     1      12.742  11.446   9.483  1.00  0.00    -0.000 C 
BRANCH  14  15
ATOM     15  C   UNL     1      12.365  12.931   9.390  1.00  0.00    -0.003 C 
ATOM     16  C   UNL     1      12.653  13.486   7.999  1.00  0.00     0.004 C 
ENDBRANCH  14  15
ENDBRANCH  13  14
ENDBRANCH  12  13
ENDBRANCH  11  12
ENDBRANCH  10  11
ENDBRANCH   1  10
TORSDOF 12
ENDMDL
MODEL 7
REMARK VINA RESULT:    -4.516      2.541      3.964
REMARK INTER + INTRA:          -8.638
REMARK INTER:                  -6.921
REMARK INTRA:                  -1.718
REMARK UNBOUND:                -0.954
REMARK SMILES CCCCCCCCCCCCCC(=O)[O-]
REMARK SMILES IDX 8 1 9 2 10 3 11 4 12 5 13 6 14 7 15 8 16 9 7 10 6 11 5 12
REMARK SMILES IDX 4 13 3 14 2 15 1 16
REMARK H PARENT
REMARK Flexibility Score: inf
ROOT
ATOM      1  C   UNL     1      11.783   1.999   9.317  1.00  0.00     0.000 C 
ENDROOT
BRANCH   1   2
ATOM      2  C   UNL     1      10.325   2.443   9.099  1.00  0.00     0.000 C 
BRANCH   2   3
ATOM      3  C   UNL     1       9.446   2.250  10.344  1.00  0.00     0.000 C 
BRANCH   3   4
ATOM      4  C   UNL     1       9.633   3.407  11.335  1.00  0.00     0.000 C 
BRANCH   4   5
ATOM      5  C   UNL     1       9.719   4.782  10.650  1.00  0.00     0.006 C 
BRANCH   5   6
ATOM      6  C   UNL     1      10.566   5.811  11.419  1.00  0.00     0.053 C 
BRANCH   6   7
ATOM      7  C   UNL     1      11.759   6.273  10.637  1.00  0.00     0.041 C 
ATOM      8  O   UNL     1      12.565   5.433  10.157  1.00  0.00    -0.550 OA
ATOM      9  O   UNL     1      11.962   7.629  10.407  1.00  0.00    -0.550 OA
ENDBRANCH   6   7
ENDBRANCH   5   6
ENDBRANCH   4   5
ENDBRANCH   3   4
ENDBRANCH   2   3
ENDBRANCH   1   2
BRANCH   1  10
ATOM     10  C   UNL     1      11.950   0.698  10.122  1.00  0.00     0.000 C 
BRANCH  10  11
ATOM     11  C   UNL     1      12.685   0.910  11.457  1.00  0.00    -0.000 C 
BRANCH  11  12
ATOM     12  C   UNL     1      13.215   2.343  11.616  1.00  0.00    -0.000 C 
BRANCH  12  13
ATOM     13  C   UNL     1      13.161   2.832  13.075  1.00  0.00    -0.000 C 
BRANCH  13  14
ATOM     14  C   UNL     1      12.002   2.206  13.865  1.00  0.00    -0.000 C 
BRANCH  14  15
ATOM     15  C   UNL     1      12.387   1.870  15.313  1.00  0.00    -0.003 C 
ATOM     16  C   UNL     1      13.898   1.949  15.511  1.00  0.00     0.004 C 
ENDBRANCH  14  15
ENDBRANCH  13  14
ENDBRANCH  12  13
ENDBRANCH  11  12
ENDBRANCH  10  11
ENDBRANCH   1  10
TORSDOF 12
ENDMDL
MODEL 8
REMARK VINA RESULT:    -4.505      2.158      3.181
REMARK INTER + INTRA:          -8.620
REMARK INTER:                  -7.503
REMARK INTRA:                  -1.117
REMARK UNBOUND:                -0.954
REMARK SMILES CCCCCCCCCCCCCC(=O)[O-]
REMARK SMILES IDX 8 1 9 2 10 3 11 4 12 5 13 6 14 7 15 8 16 9 7 10 6 11 5 12
REMARK SMILES IDX 4 13 3 14 2 15 1 16
REMARK H PARENT
REMARK Flexibility Score: inf
ROOT
ATOM      1  C   UNL     1      11.968   6.931  10.634  1.00  0.00     0.000 C 
ENDROOT
BRANCH   1   2
ATOM      2  C   UNL     1      11.323   7.777  11.746  1.00  0.00     0.000 C 
BRANCH   2   3
ATOM      3  C   UNL     1      11.403   9.287  11.475  1.00  0.00     0.000 C 
BRANCH   3   4
ATOM      4  C   UNL     1      12.173   9.574  10.178  1.00  0.00     0.000 C 
BRANCH   4   5
ATOM      5  C   UNL     1      12.577  11.051  10.029  1.00  0.00     0.006 C 
BRANCH   5   6
ATOM      6  C   UNL     1      12.352  11.891  11.299  1.00  0.00     0.053 C 
BRANCH   6   7
ATOM      7  C   UNL     1      12.163  13.347  11.000  1.00  0.00     0.041 C 
ATOM      8  O   UNL     1      11.153  13.736  10.359  1.00  0.00    -0.550 OA
ATOM      9  O   UNL     1      13.085  14.280  11.462  1.00  0.00    -0.550 OA
ENDBRANCH   6   7
ENDBRANCH   5   6
ENDBRANCH   4   5
ENDBRANCH   3   4
ENDBRANCH   2   3
ENDBRANCH   1   2
BRANCH   1  10
ATOM     10  C   UNL     1      11.690   5.420  10.724  1.00  0.00     0.000 C 
BRANCH  10  11
ATOM     11  C   UNL     1      10.188   5.088  10.732  1.00  0.00    -0.000 C 
BRANCH  11  12
ATOM     12  C   UNL     1       9.741   4.411  12.036  1.00  0.00    -0.000 C 
BRANCH  12  13
ATOM     13  C   UNL     1      10.908   4.193  13.016  1.00  0.00    -0.000 C 
BRANCH  13  14
ATOM     14  C   UNL     1      10.499   4.420  14.480  1.00  0.00    -0.000 C 
BRANCH  14  15
ATOM     15  C   UNL     1       9.502   5.576  14.642  1.00  0.00    -0.003 C 
ATOM     16  C   UNL     1      10.206   6.847  15.111  1.00  0.00     0.004 C 
ENDBRANCH  14  15
ENDBRANCH  13  14
ENDBRANCH  12  13
ENDBRANCH  11  12
ENDBRANCH  10  11
ENDBRANCH   1  10
TORSDOF 12
ENDMDL
MODEL 9
REMARK VINA RESULT:    -4.455      3.796      5.064
REMARK INTER + INTRA:          -8.534
REMARK INTER:                  -7.053
REMARK INTRA:                  -1.481
REMARK UNBOUND:                -0.954
REMARK SMILES CCCCCCCCCCCCCC(=O)[O-]
REMARK SMILES IDX 8 1 9 2 10 3 11 4 12 5 13 6 14 7 15 8 16 9 7 10 6 11 5 12
REMARK SMILES IDX 4 13 3 14 2 15 1 16
REMARK H PARENT
REMARK Flexibility Score: inf
ROOT
ATOM      1  C   UNL     1      10.643   7.000  12.907  1.00  0.00     0.000 C 
ENDROOT
BRANCH   1   2
ATOM      2  C   UNL     1      10.722   6.196  11.597  1.00  0.00     0.000 C 
BRANCH   2   3
ATOM      3  C   UNL     1      11.882   6.637  10.691  1.00  0.00     0.000 C 
BRANCH   3   4
ATOM      4  C   UNL     1      12.740   5.435  10.270  1.00  0.00     0.000 C 
BRANCH   4   5
ATOM      5  C   UNL     1      13.089   4.502  11.443  1.00  0.00     0.006 C 
BRANCH   5   6
ATOM      6  C   UNL     1      13.015   3.005  11.092  1.00  0.00     0.053 C 
BRANCH   6   7
ATOM      7  C   UNL     1      11.797   2.661  10.289  1.00  0.00     0.041 C 
ATOM      8  O   UNL     1      11.914   2.275   9.097  1.00  0.00    -0.550 OA
ATOM      9  O   UNL     1      10.536   2.730  10.868  1.00  0.00    -0.550 OA
ENDBRANCH   6   7
ENDBRANCH   5   6
ENDBRANCH   4   5
ENDBRANCH   3   4
ENDBRANCH   2   3
ENDBRANCH   1   2
BRANCH   1  10
ATOM     10  C   UNL     1      10.433   6.154  14.175  1.00  0.00     0.000 C 
BRANCH  10  11
ATOM     11  C   UNL     1      10.178   4.669  13.868  1.00  0.00    -0.000 C 
BRANCH  11  12
ATOM     12  C   UNL     1      10.790   3.736  14.923  1.00  0.00    -0.000 C 
BRANCH  12  13
ATOM     13  C   UNL     1      11.545   2.550  14.295  1.00  0.00    -0.000 C 
BRANCH  13  14
ATOM     14  C   UNL     1      12.970   2.396  14.850  1.00  0.00    -0.000 C 
BRANCH  14  15
ATOM     15  C   UNL     1      13.353   0.930  15.093  1.00  0.00    -0.003 C 
ATOM     16  C   UNL     1      12.255   0.193  15.854  1.00  0.00     0.004 C 
ENDBRANCH  14  15
ENDBRANCH  13  14
ENDBRANCH  12  13
ENDBRANCH  11  12
ENDBRANCH  10  11
ENDBRANCH   1  10
TORSDOF 12
ENDMDL
