MODEL 1
REMARK VINA RESULT:     7.124      0.000      0.000
REMARK INTER + INTRA:           7.626
REMARK INTER:                   7.749
REMARK INTRA:                  -0.123
REMARK UNBOUND:                -0.123
REMARK SMILES Cc1ccc(C(C)C)cc1O
REMARK SMILES IDX 1 1 2 2 10 3 9 4 5 5 4 6 3 7 11 8 6 10 7 11 8 12
REMARK H PARENT 11 9
REMARK Flexibility Score: inf
ROOT
ATOM      1  C   UNL     1       3.913  42.737  25.045  1.00  0.00     0.048 C 
ATOM      2  C   UNL     1       5.327  42.364  24.695  1.00  0.00    -0.009 A 
ATOM      3  C   UNL     1       6.077  43.125  23.770  1.00  0.00     0.118 A 
ATOM      4  C   UNL     1       7.391  42.752  23.465  1.00  0.00     0.050 A 
ATOM      5  C   UNL     1       7.981  41.627  24.065  1.00  0.00    -0.042 A 
ATOM      6  C   UNL     1       7.229  40.875  24.985  1.00  0.00     0.004 A 
ATOM      7  C   UNL     1       5.917  41.240  25.295  1.00  0.00     0.007 A 
ENDROOT
BRANCH   3   8
ATOM      8  O   UNL     1       5.547  44.253  23.140  1.00  0.00    -0.508 OA
ATOM      9  H   UNL     1       4.756  44.212  22.510  1.00  0.00     0.293 HD
ENDBRANCH   3   8
BRANCH   5  10
ATOM     10  C   UNL     1       9.407  41.241  23.719  1.00  0.00     0.013 C 
ATOM     11  C   UNL     1      10.094  42.343  22.902  1.00  0.00     0.012 C 
ATOM     12  C   UNL     1      10.211  40.908  24.980  1.00  0.00     0.012 C 
ENDBRANCH   5  10
TORSDOF 2
ENDMDL
MODEL 2
REMARK VINA RESULT:     9.790      1.512      4.182
REMARK INTER + INTRA:          10.526
REMARK INTER:                  10.651
REMARK INTRA:                  -0.125
REMARK UNBOUND:                -0.123
REMARK SMILES Cc1ccc(C(C)C)cc1O
REMARK SMILES IDX 1 1 2 2 10 3 9 4 5 5 4 6 3 7 11 8 6 10 7 11 8 12
REMARK H PARENT 11 9
REMARK Flexibility Score: inf
ROOT
ATOM      1  C   UNL     1      10.228  40.881  24.370  1.00  0.00     0.048 C 
ATOM      2  C   UNL     1       8.782  41.281  24.472  1.00  0.00    -0.009 A 
ATOM      3  C   UNL     1       8.165  42.060  23.467  1.00  0.00     0.118 A 
ATOM      4  C   UNL     1       6.817  42.416  23.591  1.00  0.00     0.050 A 
ATOM      5  C   UNL     1       6.062  42.010  24.705  1.00  0.00    -0.042 A 
ATOM      6  C   UNL     1       6.682  41.235  25.700  1.00  0.00     0.004 A 
ATOM      7  C   UNL     1       8.026  40.876  25.584  1.00  0.00     0.007 A 
ENDROOT
BRANCH   3   8
ATOM      8  O   UNL     1       8.862  42.494  22.337  1.00  0.00    -0.508 OA
ATOM      9  H   UNL     1       9.871  42.552  22.301  1.00  0.00     0.293 HD
ENDBRANCH   3   8
BRANCH   5  10
ATOM     10  C   UNL     1       4.602  42.408  24.817  1.00  0.00     0.013 C 
ATOM     11  C   UNL     1       4.022  42.776  23.446  1.00  0.00     0.012 C 
ATOM     12  C   UNL     1       3.778  41.303  25.487  1.00  0.00     0.012 C 
ENDBRANCH   5  10
TORSDOF 2
ENDMDL
