MODEL 1
REMARK VINA RESULT:    28.505      0.000      0.000
REMARK INTER + INTRA:          28.505
REMARK INTER:                  28.505
REMARK INTRA:                   0.000
REMARK UNBOUND:                 0.000
REMARK SMILES Cc1cc2cc3c(C)cc(=O)oc3c(C)c2o1
REMARK SMILES IDX 8 1 7 2 9 3 10 4 11 5 12 6 13 7 6 8 5 9 4 10 3 11 2 12 17 13
REMARK SMILES IDX 16 14 14 15 15 16 1 17
REMARK H PARENT
REMARK Flexibility Score: inf
ROOT
ATOM      1  C   UNL     1     -24.940  26.320  -7.881  1.00  0.00     0.045 C 
ATOM      2  C   UNL     1     -25.966  27.398  -7.642  1.00  0.00    -0.033 A 
ATOM      3  C   UNL     1     -27.238  27.040  -7.180  1.00  0.00     0.098 A 
ATOM      4  C   UNL     1     -28.196  28.032  -6.956  1.00  0.00     0.336 A 
ATOM      5  O   UNL     1     -29.341  27.716  -6.543  1.00  0.00    -0.246 OA
ATOM      6  O   UNL     1     -27.908  29.309  -7.177  1.00  0.00    -0.422 OA
ATOM      7  C   UNL     1     -26.720  29.718  -7.614  1.00  0.00     0.145 A 
ATOM      8  C   UNL     1     -25.685  28.763  -7.871  1.00  0.00     0.022 A 
ATOM      9  C   UNL     1     -24.426  29.208  -8.345  1.00  0.00     0.024 A 
ATOM     10  C   UNL     1     -24.248  30.571  -8.548  1.00  0.00     0.022 A 
ATOM     11  C   UNL     1     -23.153  31.270  -9.003  1.00  0.00     0.054 A 
ATOM     12  C   UNL     1     -23.572  32.596  -9.005  1.00  0.00     0.102 A 
ATOM     13  O   UNL     1     -24.818  32.695  -8.579  1.00  0.00    -0.461 OA
ATOM     14  C   UNL     1     -25.237  31.483  -8.302  1.00  0.00     0.140 A 
ATOM     15  C   UNL     1     -26.492  31.099  -7.822  1.00  0.00     0.036 A 
ATOM     16  C   UNL     1     -27.576  32.113  -7.584  1.00  0.00     0.052 C 
ATOM     17  C   UNL     1     -22.735  33.762  -9.409  1.00  0.00     0.087 C 
ENDROOT
TORSDOF 0
ENDMDL
