MODEL 1
REMARK VINA RESULT:    -3.749      0.000      0.000
REMARK INTER + INTRA:          -4.205
REMARK INTER:                  -4.187
REMARK INTRA:                  -0.018
REMARK UNBOUND:                -0.018
REMARK SMILES CCCC(=O)[O-]
REMARK SMILES IDX 3 1 4 2 5 3 6 4 2 5 1 6
REMARK H PARENT
REMARK Flexibility Score: inf
ROOT
ATOM      1  C   UNL     1     154.057 167.470 149.345  1.00  0.00     0.052 C 
ENDROOT
BRANCH   1   2
ATOM      2  C   UNL     1     152.905 168.346 149.733  1.00  0.00     0.041 C 
ATOM      3  O   UNL     1     152.553 169.297 148.985  1.00  0.00    -0.550 OA
ATOM      4  O   UNL     1     152.200 168.093 150.901  1.00  0.00    -0.550 OA
ENDBRANCH   1   2
BRANCH   1   5
ATOM      5  C   UNL     1     154.616 167.842 147.966  1.00  0.00     0.003 C 
ATOM      6  C   UNL     1     155.013 166.613 147.148  1.00  0.00     0.004 C 
ENDBRANCH   1   5
TORSDOF 2
ENDMDL
MODEL 2
REMARK VINA RESULT:    -3.533      1.447      1.719
REMARK INTER + INTRA:          -3.964
REMARK INTER:                  -3.929
REMARK INTRA:                  -0.035
REMARK UNBOUND:                -0.018
REMARK SMILES CCCC(=O)[O-]
REMARK SMILES IDX 3 1 4 2 5 3 6 4 2 5 1 6
REMARK H PARENT
REMARK Flexibility Score: inf
ROOT
ATOM      1  C   UNL     1     153.202 167.859 147.151  1.00  0.00     0.052 C 
ENDROOT
BRANCH   1   2
ATOM      2  C   UNL     1     153.157 168.170 148.616  1.00  0.00     0.041 C 
ATOM      3  O   UNL     1     152.426 169.103 149.043  1.00  0.00    -0.550 OA
ATOM      4  O   UNL     1     153.895 167.409 149.512  1.00  0.00    -0.550 OA
ENDBRANCH   1   2
BRANCH   1   5
ATOM      5  C   UNL     1     153.504 166.377 146.893  1.00  0.00     0.003 C 
ATOM      6  C   UNL     1     154.920 166.156 146.361  1.00  0.00     0.004 C 
ENDBRANCH   1   5
TORSDOF 2
ENDMDL
MODEL 3
REMARK VINA RESULT:    -3.501      2.309      3.303
REMARK INTER + INTRA:          -3.928
REMARK INTER:                  -3.873
REMARK INTRA:                  -0.055
REMARK UNBOUND:                -0.018
REMARK SMILES CCCC(=O)[O-]
REMARK SMILES IDX 3 1 4 2 5 3 6 4 2 5 1 6
REMARK H PARENT
REMARK Flexibility Score: inf
ROOT
ATOM      1  C   UNL     1     154.233 167.957 148.036  1.00  0.00     0.052 C 
ENDROOT
BRANCH   1   2
ATOM      2  C   UNL     1     153.253 167.447 147.023  1.00  0.00     0.041 C 
ATOM      3  O   UNL     1     153.175 166.214 146.782  1.00  0.00    -0.550 OA
ATOM      4  O   UNL     1     152.403 168.330 146.371  1.00  0.00    -0.550 OA
ENDBRANCH   1   2
BRANCH   1   5
ATOM      5  C   UNL     1     153.842 167.546 149.462  1.00  0.00     0.003 C 
ATOM      6  C   UNL     1     152.770 168.459 150.057  1.00  0.00     0.004 C 
ENDBRANCH   1   5
TORSDOF 2
ENDMDL
MODEL 4
REMARK VINA RESULT:    -2.974     13.036     13.801
REMARK INTER + INTRA:          -3.340
REMARK INTER:                  -3.282
REMARK INTRA:                  -0.057
REMARK UNBOUND:                -0.018
REMARK SMILES CCCC(=O)[O-]
REMARK SMILES IDX 3 1 4 2 5 3 6 4 2 5 1 6
REMARK H PARENT
REMARK Flexibility Score: inf
ROOT
ATOM      1  C   UNL     1     159.038 166.080 161.038  1.00  0.00     0.052 C 
ENDROOT
BRANCH   1   2
ATOM      2  C   UNL     1     159.845 166.721 159.951  1.00  0.00     0.041 C 
ATOM      3  O   UNL     1     159.982 167.973 159.919  1.00  0.00    -0.550 OA
ATOM      4  O   UNL     1     160.474 165.935 158.995  1.00  0.00    -0.550 OA
ENDBRANCH   1   2
BRANCH   1   5
ATOM      5  C   UNL     1     159.772 166.108 162.385  1.00  0.00     0.003 C 
ATOM      6  C   UNL     1     160.880 165.057 162.466  1.00  0.00     0.004 C 
ENDBRANCH   1   5
TORSDOF 2
ENDMDL
MODEL 5
REMARK VINA RESULT:    -2.926     14.200     15.006
REMARK INTER + INTRA:          -3.286
REMARK INTER:                  -3.250
REMARK INTRA:                  -0.035
REMARK UNBOUND:                -0.018
REMARK SMILES CCCC(=O)[O-]
REMARK SMILES IDX 3 1 4 2 5 3 6 4 2 5 1 6
REMARK H PARENT
REMARK Flexibility Score: inf
ROOT
ATOM      1  C   UNL     1     160.081 166.041 162.360  1.00  0.00     0.052 C 
ENDROOT
BRANCH   1   2
ATOM      2  C   UNL     1     160.995 164.854 162.399  1.00  0.00     0.041 C 
ATOM      3  O   UNL     1     161.304 164.330 163.501  1.00  0.00    -0.550 OA
ATOM      4  O   UNL     1     161.476 164.307 161.218  1.00  0.00    -0.550 OA
ENDBRANCH   1   2
BRANCH   1   5
ATOM      5  C   UNL     1     159.233 166.065 161.082  1.00  0.00     0.003 C 
ATOM      6  C   UNL     1     159.685 167.150 160.104  1.00  0.00     0.004 C 
ENDBRANCH   1   5
TORSDOF 2
ENDMDL
MODEL 6
REMARK VINA RESULT:    -2.898     12.986     13.574
REMARK INTER + INTRA:          -3.254
REMARK INTER:                  -3.213
REMARK INTRA:                  -0.041
REMARK UNBOUND:                -0.018
REMARK SMILES CCCC(=O)[O-]
REMARK SMILES IDX 3 1 4 2 5 3 6 4 2 5 1 6
REMARK H PARENT
REMARK Flexibility Score: inf
ROOT
ATOM      1  C   UNL     1     163.538 165.735 158.018  1.00  0.00     0.052 C 
ENDROOT
BRANCH   1   2
ATOM      2  C   UNL     1     163.052 165.871 159.429  1.00  0.00     0.041 C 
ATOM      3  O   UNL     1     162.215 165.053 159.892  1.00  0.00    -0.550 OA
ATOM      4  O   UNL     1     163.551 166.880 160.243  1.00  0.00    -0.550 OA
ENDBRANCH   1   2
BRANCH   1   5
ATOM      5  C   UNL     1     163.005 166.861 157.122  1.00  0.00     0.003 C 
ATOM      6  C   UNL     1     161.672 166.500 156.466  1.00  0.00     0.004 C 
ENDBRANCH   1   5
TORSDOF 2
ENDMDL
MODEL 7
REMARK VINA RESULT:    -2.894     13.372     13.901
REMARK INTER + INTRA:          -3.250
REMARK INTER:                  -3.230
REMARK INTRA:                  -0.021
REMARK UNBOUND:                -0.018
REMARK SMILES CCCC(=O)[O-]
REMARK SMILES IDX 3 1 4 2 5 3 6 4 2 5 1 6
REMARK H PARENT
REMARK Flexibility Score: inf
ROOT
ATOM      1  C   UNL     1     161.141 166.859 159.454  1.00  0.00     0.052 C 
ENDROOT
BRANCH   1   2
ATOM      2  C   UNL     1     162.270 167.604 160.098  1.00  0.00     0.041 C 
ATOM      3  O   UNL     1     162.098 168.782 160.508  1.00  0.00    -0.550 OA
ATOM      4  O   UNL     1     163.501 166.987 160.275  1.00  0.00    -0.550 OA
ENDBRANCH   1   2
BRANCH   1   5
ATOM      5  C   UNL     1     159.777 167.328 159.977  1.00  0.00     0.003 C 
ATOM      6  C   UNL     1     159.002 166.206 160.669  1.00  0.00     0.004 C 
ENDBRANCH   1   5
TORSDOF 2
ENDMDL
MODEL 8
REMARK VINA RESULT:    -2.891     11.904     12.559
REMARK INTER + INTRA:          -3.247
REMARK INTER:                  -3.214
REMARK INTRA:                  -0.032
REMARK UNBOUND:                -0.018
REMARK SMILES CCCC(=O)[O-]
REMARK SMILES IDX 3 1 4 2 5 3 6 4 2 5 1 6
REMARK H PARENT
REMARK Flexibility Score: inf
ROOT
ATOM      1  C   UNL     1     162.810 166.889 157.288  1.00  0.00     0.052 C 
ENDROOT
BRANCH   1   2
ATOM      2  C   UNL     1     161.533 166.276 156.802  1.00  0.00     0.041 C 
ATOM      3  O   UNL     1     160.939 165.412 157.499  1.00  0.00    -0.550 OA
ATOM      4  O   UNL     1     160.979 166.685 155.596  1.00  0.00    -0.550 OA
ENDBRANCH   1   2
BRANCH   1   5
ATOM      5  C   UNL     1     163.560 165.956 158.248  1.00  0.00     0.003 C 
ATOM      6  C   UNL     1     163.489 166.435 159.698  1.00  0.00     0.004 C 
ENDBRANCH   1   5
TORSDOF 2
ENDMDL
MODEL 9
REMARK VINA RESULT:    -2.799     11.780     12.399
REMARK INTER + INTRA:          -3.145
REMARK INTER:                  -3.073
REMARK INTRA:                  -0.071
REMARK UNBOUND:                -0.018
REMARK SMILES CCCC(=O)[O-]
REMARK SMILES IDX 3 1 4 2 5 3 6 4 2 5 1 6
REMARK H PARENT
REMARK Flexibility Score: inf
ROOT
ATOM      1  C   UNL     1     161.123 165.383 157.551  1.00  0.00     0.052 C 
ENDROOT
BRANCH   1   2
ATOM      2  C   UNL     1     161.057 165.834 158.979  1.00  0.00     0.041 C 
ATOM      3  O   UNL     1     161.750 165.256 159.858  1.00  0.00    -0.550 OA
ATOM      4  O   UNL     1     160.257 166.912 159.333  1.00  0.00    -0.550 OA
ENDBRANCH   1   2
BRANCH   1   5
ATOM      5  C   UNL     1     161.610 166.503 156.623  1.00  0.00     0.003 C 
ATOM      6  C   UNL     1     163.047 166.929 156.929  1.00  0.00     0.004 C 
ENDBRANCH   1   5
TORSDOF 2
ENDMDL
