MODEL 1
REMARK VINA RESULT:    -3.939      0.000      0.000
REMARK INTER + INTRA:          -6.854
REMARK INTER:                  -5.666
REMARK INTRA:                  -1.188
REMARK UNBOUND:                -1.188
REMARK SMILES O=C(CO)[C@H](O)[C@H](O)[C@H](O)CO
REMARK SMILES IDX 7 1 9 2 11 3 12 4 10 6 5 8 2 9 1 10 3 11 4 12 6 14 8 16
REMARK H PARENT 12 5 10 7 4 13 6 15 8 17
REMARK Flexibility Score: inf
ROOT
ATOM      1  C   UNL     1      14.584   8.530   8.426  1.00  0.00     0.181 C 
ENDROOT
BRANCH   1   2
ATOM      2  C   UNL     1      13.390   8.221   7.491  1.00  0.00     0.171 C 
BRANCH   2   3
ATOM      3  C   UNL     1      13.820   8.170   6.012  1.00  0.00     0.190 C 
BRANCH   3   4
ATOM      4  O   UNL     1      14.205   9.439   5.552  1.00  0.00    -0.394 OA
ATOM      5  H   UNL     1      14.607   9.914   6.325  1.00  0.00     0.210 HD
ENDBRANCH   3   4
ENDBRANCH   2   3
BRANCH   2   6
ATOM      6  O   UNL     1      12.806   6.996   7.855  1.00  0.00    -0.388 OA
ATOM      7  H   UNL     1      12.518   6.552   7.014  1.00  0.00     0.211 HD
ENDBRANCH   2   6
ENDBRANCH   1   2
BRANCH   1   8
ATOM      8  C   UNL     1      14.323   9.766   9.329  1.00  0.00     0.214 C 
BRANCH   8   9
ATOM      9  C   UNL     1      14.814  11.051   8.700  1.00  0.00     0.189 C 
ATOM     10  O   UNL     1      14.274  11.463   7.683  1.00  0.00    -0.294 OA
BRANCH   9  11
ATOM     11  C   UNL     1      15.966  11.830   9.279  1.00  0.00     0.234 C 
BRANCH  11  12
ATOM     12  O   UNL     1      17.176  11.181   9.000  1.00  0.00    -0.388 OA
ATOM     13  H   UNL     1      17.142  10.911   8.044  1.00  0.00     0.211 HD
ENDBRANCH  11  12
ENDBRANCH   9  11
ENDBRANCH   8   9
BRANCH   8  14
ATOM     14  O   UNL     1      14.942   9.596  10.578  1.00  0.00    -0.382 OA
ATOM     15  H   UNL     1      14.574   8.762  10.973  1.00  0.00     0.211 HD
ENDBRANCH   8  14
ENDBRANCH   1   8
BRANCH   1  16
ATOM     16  O   UNL     1      15.744   8.725   7.657  1.00  0.00    -0.387 OA
ATOM     17  H   UNL     1      15.495   9.314   6.898  1.00  0.00     0.211 HD
ENDBRANCH   1  16
TORSDOF 10
ENDMDL
MODEL 2
REMARK VINA RESULT:    -3.833     13.718     14.895
REMARK INTER + INTRA:          -6.701
REMARK INTER:                  -5.659
REMARK INTRA:                  -1.042
REMARK UNBOUND:                -1.188
REMARK SMILES O=C(CO)[C@H](O)[C@H](O)[C@H](O)CO
REMARK SMILES IDX 7 1 9 2 11 3 12 4 10 6 5 8 2 9 1 10 3 11 4 12 6 14 8 16
REMARK H PARENT 12 5 10 7 4 13 6 15 8 17
REMARK Flexibility Score: inf
ROOT
ATOM      1  C   UNL     1       7.286   2.972  19.267  1.00  0.00     0.181 C 
ENDROOT
BRANCH   1   2
ATOM      2  C   UNL     1       6.451   1.882  18.554  1.00  0.00     0.171 C 
BRANCH   2   3
ATOM      3  C   UNL     1       6.627   1.938  17.024  1.00  0.00     0.190 C 
BRANCH   3   4
ATOM      4  O   UNL     1       7.985   1.935  16.669  1.00  0.00    -0.394 OA
ATOM      5  H   UNL     1       8.304   2.871  16.753  1.00  0.00     0.210 HD
ENDBRANCH   3   4
ENDBRANCH   2   3
BRANCH   2   6
ATOM      6  O   UNL     1       6.822   0.613  19.026  1.00  0.00    -0.388 OA
ATOM      7  H   UNL     1       6.264   0.427  19.826  1.00  0.00     0.211 HD
ENDBRANCH   2   6
ENDBRANCH   1   2
BRANCH   1   8
ATOM      8  C   UNL     1       8.370   2.369  20.201  1.00  0.00     0.214 C 
BRANCH   8   9
ATOM      9  C   UNL     1       8.989   3.408  21.110  1.00  0.00     0.189 C 
ATOM     10  O   UNL     1       8.353   3.814  22.072  1.00  0.00    -0.294 OA
BRANCH   9  11
ATOM     11  C   UNL     1      10.359   3.976  20.852  1.00  0.00     0.234 C 
BRANCH  11  12
ATOM     12  O   UNL     1      10.408   4.559  19.579  1.00  0.00    -0.388 OA
ATOM     13  H   UNL     1      10.234   5.529  19.701  1.00  0.00     0.211 HD
ENDBRANCH  11  12
ENDBRANCH   9  11
ENDBRANCH   8   9
BRANCH   8  14
ATOM     14  O   UNL     1       9.382   1.757  19.443  1.00  0.00    -0.382 OA
ATOM     15  H   UNL     1       8.935   1.278  18.696  1.00  0.00     0.211 HD
ENDBRANCH   8  14
ENDBRANCH   1   8
BRANCH   1  16
ATOM     16  O   UNL     1       6.432   3.817  19.995  1.00  0.00    -0.387 OA
ATOM     17  H   UNL     1       6.738   3.797  20.939  1.00  0.00     0.211 HD
ENDBRANCH   1  16
TORSDOF 10
ENDMDL
MODEL 3
REMARK VINA RESULT:    -3.832     14.064     15.877
REMARK INTER + INTRA:          -6.700
REMARK INTER:                  -5.464
REMARK INTRA:                  -1.235
REMARK UNBOUND:                -1.188
REMARK SMILES O=C(CO)[C@H](O)[C@H](O)[C@H](O)CO
REMARK SMILES IDX 7 1 9 2 11 3 12 4 10 6 5 8 2 9 1 10 3 11 4 12 6 14 8 16
REMARK H PARENT 12 5 10 7 4 13 6 15 8 17
REMARK Flexibility Score: inf
ROOT
ATOM      1  C   UNL     1       8.991   2.465  19.531  1.00  0.00     0.181 C 
ENDROOT
BRANCH   1   2
ATOM      2  C   UNL     1       9.300   3.680  20.438  1.00  0.00     0.171 C 
BRANCH   2   3
ATOM      3  C   UNL     1       9.420   3.273  21.918  1.00  0.00     0.190 C 
BRANCH   3   4
ATOM      4  O   UNL     1       8.160   2.998  22.473  1.00  0.00    -0.394 OA
ATOM      5  H   UNL     1       7.535   2.870  21.713  1.00  0.00     0.210 HD
ENDBRANCH   3   4
ENDBRANCH   2   3
BRANCH   2   6
ATOM      6  O   UNL     1      10.491   4.295  20.019  1.00  0.00    -0.388 OA
ATOM      7  H   UNL     1      10.368   5.274  20.135  1.00  0.00     0.211 HD
ENDBRANCH   2   6
ENDBRANCH   1   2
BRANCH   1   8
ATOM      8  C   UNL     1       7.744   2.697  18.635  1.00  0.00     0.214 C 
BRANCH   8   9
ATOM      9  C   UNL     1       6.471   2.200  19.282  1.00  0.00     0.189 C 
ATOM     10  O   UNL     1       6.081   2.726  20.314  1.00  0.00    -0.294 OA
BRANCH   9  11
ATOM     11  C   UNL     1       5.678   1.058  18.704  1.00  0.00     0.234 C 
BRANCH  11  12
ATOM     12  O   UNL     1       6.439  -0.118  18.724  1.00  0.00    -0.388 OA
ATOM     13  H   UNL     1       7.192   0.018  18.091  1.00  0.00     0.211 HD
ENDBRANCH  11  12
ENDBRANCH   9  11
ENDBRANCH   8   9
BRANCH   8  14
ATOM     14  O   UNL     1       7.911   2.061  17.394  1.00  0.00    -0.382 OA
ATOM     15  H   UNL     1       8.488   2.651  16.841  1.00  0.00     0.211 HD
ENDBRANCH   8  14
ENDBRANCH   1   8
BRANCH   1  16
ATOM     16  O   UNL     1       8.812   1.319  20.327  1.00  0.00    -0.387 OA
ATOM     17  H   UNL     1       8.537   1.631  21.228  1.00  0.00     0.211 HD
ENDBRANCH   1  16
TORSDOF 10
ENDMDL
MODEL 4
REMARK VINA RESULT:    -3.747     14.428     15.419
REMARK INTER + INTRA:          -6.578
REMARK INTER:                  -5.735
REMARK INTRA:                  -0.843
REMARK UNBOUND:                -1.188
REMARK SMILES O=C(CO)[C@H](O)[C@H](O)[C@H](O)CO
REMARK SMILES IDX 7 1 9 2 11 3 12 4 10 6 5 8 2 9 1 10 3 11 4 12 6 14 8 16
REMARK H PARENT 12 5 10 7 4 13 6 15 8 17
REMARK Flexibility Score: inf
ROOT
ATOM      1  C   UNL     1       7.461   2.053  19.159  1.00  0.00     0.181 C 
ENDROOT
BRANCH   1   2
ATOM      2  C   UNL     1       5.947   2.288  18.938  1.00  0.00     0.171 C 
BRANCH   2   3
ATOM      3  C   UNL     1       5.531   2.005  17.482  1.00  0.00     0.190 C 
BRANCH   3   4
ATOM      4  O   UNL     1       6.157   0.849  16.991  1.00  0.00    -0.394 OA
ATOM      5  H   UNL     1       5.667   0.075  17.373  1.00  0.00     0.210 HD
ENDBRANCH   3   4
ENDBRANCH   2   3
BRANCH   2   6
ATOM      6  O   UNL     1       5.207   1.469  19.808  1.00  0.00    -0.388 OA
ATOM      7  H   UNL     1       4.451   2.016  20.146  1.00  0.00     0.211 HD
ENDBRANCH   2   6
ENDBRANCH   1   2
BRANCH   1   8
ATOM      8  C   UNL     1       8.011   2.846  20.375  1.00  0.00     0.214 C 
BRANCH   8   9
ATOM      9  C   UNL     1       9.523   2.840  20.428  1.00  0.00     0.189 C 
ATOM     10  O   UNL     1      10.143   3.747  19.892  1.00  0.00    -0.294 OA
BRANCH   9  11
ATOM     11  C   UNL     1      10.290   1.735  21.105  1.00  0.00     0.234 C 
BRANCH  11  12
ATOM     12  O   UNL     1       9.724   0.492  20.792  1.00  0.00    -0.388 OA
ATOM     13  H   UNL     1       9.134   0.246  21.553  1.00  0.00     0.211 HD
ENDBRANCH  11  12
ENDBRANCH   9  11
ENDBRANCH   8   9
BRANCH   8  14
ATOM     14  O   UNL     1       7.504   2.317  21.573  1.00  0.00    -0.382 OA
ATOM     15  H   UNL     1       7.158   3.082  22.104  1.00  0.00     0.211 HD
ENDBRANCH   8  14
ENDBRANCH   1   8
BRANCH   1  16
ATOM     16  O   UNL     1       8.165   2.400  17.992  1.00  0.00    -0.387 OA
ATOM     17  H   UNL     1       8.424   1.552  17.547  1.00  0.00     0.211 HD
ENDBRANCH   1  16
TORSDOF 10
ENDMDL
MODEL 5
REMARK VINA RESULT:    -3.744     14.233     15.634
REMARK INTER + INTRA:          -6.574
REMARK INTER:                  -5.763
REMARK INTRA:                  -0.811
REMARK UNBOUND:                -1.188
REMARK SMILES O=C(CO)[C@H](O)[C@H](O)[C@H](O)CO
REMARK SMILES IDX 7 1 9 2 11 3 12 4 10 6 5 8 2 9 1 10 3 11 4 12 6 14 8 16
REMARK H PARENT 12 5 10 7 4 13 6 15 8 17
REMARK Flexibility Score: inf
ROOT
ATOM      1  C   UNL     1       6.229   2.765  19.585  1.00  0.00     0.181 C 
ENDROOT
BRANCH   1   2
ATOM      2  C   UNL     1       6.570   1.842  18.391  1.00  0.00     0.171 C 
BRANCH   2   3
ATOM      3  C   UNL     1       7.823   2.324  17.636  1.00  0.00     0.190 C 
BRANCH   3   4
ATOM      4  O   UNL     1       7.850   1.822  16.325  1.00  0.00    -0.394 OA
ATOM      5  H   UNL     1       8.421   2.438  15.795  1.00  0.00     0.210 HD
ENDBRANCH   3   4
ENDBRANCH   2   3
BRANCH   2   6
ATOM      6  O   UNL     1       6.770   0.528  18.847  1.00  0.00    -0.388 OA
ATOM      7  H   UNL     1       6.117  -0.047  18.368  1.00  0.00     0.211 HD
ENDBRANCH   2   6
ENDBRANCH   1   2
BRANCH   1   8
ATOM      8  C   UNL     1       7.468   3.548  20.099  1.00  0.00     0.214 C 
BRANCH   8   9
ATOM      9  C   UNL     1       8.161   2.839  21.242  1.00  0.00     0.189 C 
ATOM     10  O   UNL     1       7.662   2.873  22.357  1.00  0.00    -0.294 OA
BRANCH   9  11
ATOM     11  C   UNL     1       9.464   2.108  21.050  1.00  0.00     0.234 C 
BRANCH  11  12
ATOM     12  O   UNL     1       9.227   0.818  20.558  1.00  0.00    -0.388 OA
ATOM     13  H   UNL     1       8.412   0.873  19.991  1.00  0.00     0.211 HD
ENDBRANCH  11  12
ENDBRANCH   9  11
ENDBRANCH   8   9
BRANCH   8  14
ATOM     14  O   UNL     1       7.093   4.836  20.514  1.00  0.00    -0.382 OA
ATOM     15  H   UNL     1       7.119   5.418  19.710  1.00  0.00     0.211 HD
ENDBRANCH   8  14
ENDBRANCH   1   8
BRANCH   1  16
ATOM     16  O   UNL     1       5.669   2.002  20.624  1.00  0.00    -0.387 OA
ATOM     17  H   UNL     1       4.714   1.858  20.396  1.00  0.00     0.211 HD
ENDBRANCH   1  16
TORSDOF 10
ENDMDL
MODEL 6
REMARK VINA RESULT:    -3.714      1.104      4.386
REMARK INTER + INTRA:          -6.530
REMARK INTER:                  -5.502
REMARK INTRA:                  -1.028
REMARK UNBOUND:                -1.188
REMARK SMILES O=C(CO)[C@H](O)[C@H](O)[C@H](O)CO
REMARK SMILES IDX 7 1 9 2 11 3 12 4 10 6 5 8 2 9 1 10 3 11 4 12 6 14 8 16
REMARK H PARENT 12 5 10 7 4 13 6 15 8 17
REMARK Flexibility Score: inf
ROOT
ATOM      1  C   UNL     1      13.870  10.028   8.369  1.00  0.00     0.181 C 
ENDROOT
BRANCH   1   2
ATOM      2  C   UNL     1      14.881  10.909   9.143  1.00  0.00     0.171 C 
BRANCH   2   3
ATOM      3  C   UNL     1      14.700  10.782  10.667  1.00  0.00     0.190 C 
BRANCH   3   4
ATOM      4  O   UNL     1      14.985   9.479  11.106  1.00  0.00    -0.394 OA
ATOM      5  H   UNL     1      15.970   9.368  11.049  1.00  0.00     0.210 HD
ENDBRANCH   3   4
ENDBRANCH   2   3
BRANCH   2   6
ATOM      6  O   UNL     1      16.193  10.548   8.792  1.00  0.00    -0.388 OA
ATOM      7  H   UNL     1      16.209   9.558   8.714  1.00  0.00     0.211 HD
ENDBRANCH   2   6
ENDBRANCH   1   2
BRANCH   1   8
ATOM      8  C   UNL     1      14.569   8.924   7.531  1.00  0.00     0.214 C 
BRANCH   8   9
ATOM      9  C   UNL     1      13.614   8.229   6.586  1.00  0.00     0.189 C 
ATOM     10  O   UNL     1      13.234   8.816   5.583  1.00  0.00    -0.294 OA
BRANCH   9  11
ATOM     11  C   UNL     1      13.098   6.841   6.856  1.00  0.00     0.234 C 
BRANCH  11  12
ATOM     12  O   UNL     1      12.525   6.778   8.134  1.00  0.00    -0.388 OA
ATOM     13  H   UNL     1      12.204   7.694   8.348  1.00  0.00     0.211 HD
ENDBRANCH  11  12
ENDBRANCH   9  11
ENDBRANCH   8   9
BRANCH   8  14
ATOM     14  O   UNL     1      15.159   7.970   8.376  1.00  0.00    -0.382 OA
ATOM     15  H   UNL     1      15.236   8.388   9.275  1.00  0.00     0.211 HD
ENDBRANCH   8  14
ENDBRANCH   1   8
BRANCH   1  16
ATOM     16  O   UNL     1      13.078  10.841   7.540  1.00  0.00    -0.387 OA
ATOM     17  H   UNL     1      13.683  11.507   7.121  1.00  0.00     0.211 HD
ENDBRANCH   1  16
TORSDOF 10
ENDMDL
MODEL 7
REMARK VINA RESULT:    -3.701     14.306     15.844
REMARK INTER + INTRA:          -6.512
REMARK INTER:                  -5.553
REMARK INTRA:                  -0.959
REMARK UNBOUND:                -1.188
REMARK SMILES O=C(CO)[C@H](O)[C@H](O)[C@H](O)CO
REMARK SMILES IDX 7 1 9 2 11 3 12 4 10 6 5 8 2 9 1 10 3 11 4 12 6 14 8 16
REMARK H PARENT 12 5 10 7 4 13 6 15 8 17
REMARK Flexibility Score: inf
ROOT
ATOM      1  C   UNL     1      10.088   3.759  20.956  1.00  0.00     0.181 C 
ENDROOT
BRANCH   1   2
ATOM      2  C   UNL     1      10.918   2.993  22.013  1.00  0.00     0.171 C 
BRANCH   2   3
ATOM      3  C   UNL     1      11.909   3.919  22.743  1.00  0.00     0.190 C 
BRANCH   3   4
ATOM      4  O   UNL     1      13.192   3.834  22.179  1.00  0.00    -0.394 OA
ATOM      5  H   UNL     1      13.131   3.191  21.426  1.00  0.00     0.210 HD
ENDBRANCH   3   4
ENDBRANCH   2   3
BRANCH   2   6
ATOM      6  O   UNL     1      10.058   2.391  22.948  1.00  0.00    -0.388 OA
ATOM      7  H   UNL     1       9.159   2.351  22.529  1.00  0.00     0.211 HD
ENDBRANCH   2   6
ENDBRANCH   1   2
BRANCH   1   8
ATOM      8  C   UNL     1       9.342   2.805  19.983  1.00  0.00     0.214 C 
BRANCH   8   9
ATOM      9  C   UNL     1       7.857   2.745  20.263  1.00  0.00     0.189 C 
ATOM     10  O   UNL     1       7.444   3.065  21.368  1.00  0.00    -0.294 OA
BRANCH   9  11
ATOM     11  C   UNL     1       6.871   2.279  19.225  1.00  0.00     0.234 C 
BRANCH  11  12
ATOM     12  O   UNL     1       7.062   0.918  18.952  1.00  0.00    -0.388 OA
ATOM     13  H   UNL     1       6.280   0.621  18.417  1.00  0.00     0.211 HD
ENDBRANCH  11  12
ENDBRANCH   9  11
ENDBRANCH   8   9
BRANCH   8  14
ATOM     14  O   UNL     1       9.880   1.510  20.063  1.00  0.00    -0.382 OA
ATOM     15  H   UNL     1       9.710   1.182  20.986  1.00  0.00     0.211 HD
ENDBRANCH   8  14
ENDBRANCH   1   8
BRANCH   1  16
ATOM     16  O   UNL     1      10.928   4.627  20.237  1.00  0.00    -0.387 OA
ATOM     17  H   UNL     1      11.860   4.415  20.504  1.00  0.00     0.211 HD
ENDBRANCH   1  16
TORSDOF 10
ENDMDL
MODEL 8
REMARK VINA RESULT:    -3.657     13.876     15.407
REMARK INTER + INTRA:          -6.449
REMARK INTER:                  -5.284
REMARK INTRA:                  -1.165
REMARK UNBOUND:                -1.188
REMARK SMILES O=C(CO)[C@H](O)[C@H](O)[C@H](O)CO
REMARK SMILES IDX 7 1 9 2 11 3 12 4 10 6 5 8 2 9 1 10 3 11 4 12 6 14 8 16
REMARK H PARENT 12 5 10 7 4 13 6 15 8 17
REMARK Flexibility Score: inf
ROOT
ATOM      1  C   UNL     1       7.888   4.201  20.347  1.00  0.00     0.181 C 
ENDROOT
BRANCH   1   2
ATOM      2  C   UNL     1       6.725   3.261  19.949  1.00  0.00     0.171 C 
BRANCH   2   3
ATOM      3  C   UNL     1       7.069   2.422  18.704  1.00  0.00     0.190 C 
BRANCH   3   4
ATOM      4  O   UNL     1       7.115   1.054  19.010  1.00  0.00    -0.394 OA
ATOM      5  H   UNL     1       8.012   0.878  19.399  1.00  0.00     0.210 HD
ENDBRANCH   3   4
ENDBRANCH   2   3
BRANCH   2   6
ATOM      6  O   UNL     1       6.414   2.408  21.021  1.00  0.00    -0.388 OA
ATOM      7  H   UNL     1       5.799   2.908  21.619  1.00  0.00     0.211 HD
ENDBRANCH   2   6
ENDBRANCH   1   2
BRANCH   1   8
ATOM      8  C   UNL     1       9.225   3.810  19.662  1.00  0.00     0.214 C 
BRANCH   8   9
ATOM      9  C   UNL     1      10.169   3.101  20.608  1.00  0.00     0.189 C 
ATOM     10  O   UNL     1      10.987   3.756  21.238  1.00  0.00    -0.294 OA
BRANCH   9  11
ATOM     11  C   UNL     1      10.147   1.605  20.781  1.00  0.00     0.234 C 
BRANCH  11  12
ATOM     12  O   UNL     1       9.062   1.228  21.583  1.00  0.00    -0.388 OA
ATOM     13  H   UNL     1       8.761   2.045  22.061  1.00  0.00     0.211 HD
ENDBRANCH  11  12
ENDBRANCH   9  11
ENDBRANCH   8   9
BRANCH   8  14
ATOM     14  O   UNL     1       9.860   4.950  19.144  1.00  0.00    -0.382 OA
ATOM     15  H   UNL     1       9.509   5.084  18.224  1.00  0.00     0.211 HD
ENDBRANCH   8  14
ENDBRANCH   1   8
BRANCH   1  16
ATOM     16  O   UNL     1       8.037   4.197  21.745  1.00  0.00    -0.387 OA
ATOM     17  H   UNL     1       7.173   4.498  22.130  1.00  0.00     0.211 HD
ENDBRANCH   1  16
TORSDOF 10
ENDMDL
MODEL 9
REMARK VINA RESULT:    -3.654     14.823     15.944
REMARK INTER + INTRA:          -6.444
REMARK INTER:                  -5.809
REMARK INTRA:                  -0.635
REMARK UNBOUND:                -1.188
REMARK SMILES O=C(CO)[C@H](O)[C@H](O)[C@H](O)CO
REMARK SMILES IDX 7 1 9 2 11 3 12 4 10 6 5 8 2 9 1 10 3 11 4 12 6 14 8 16
REMARK H PARENT 12 5 10 7 4 13 6 15 8 17
REMARK Flexibility Score: inf
ROOT
ATOM      1  C   UNL     1       9.723   1.924  21.281  1.00  0.00     0.181 C 
ENDROOT
BRANCH   1   2
ATOM      2  C   UNL     1       8.467   2.721  20.852  1.00  0.00     0.171 C 
BRANCH   2   3
ATOM      3  C   UNL     1       8.093   2.451  19.383  1.00  0.00     0.190 C 
BRANCH   3   4
ATOM      4  O   UNL     1       7.323   1.283  19.262  1.00  0.00    -0.394 OA
ATOM      5  H   UNL     1       6.836   1.351  18.399  1.00  0.00     0.210 HD
ENDBRANCH   3   4
ENDBRANCH   2   3
BRANCH   2   6
ATOM      6  O   UNL     1       7.385   2.388  21.684  1.00  0.00    -0.388 OA
ATOM      7  H   UNL     1       6.557   2.613  21.185  1.00  0.00     0.211 HD
ENDBRANCH   2   6
ENDBRANCH   1   2
BRANCH   1   8
ATOM      8  C   UNL     1      10.923   2.848  21.620  1.00  0.00     0.214 C 
BRANCH   8   9
ATOM      9  C   UNL     1      11.028   3.134  23.101  1.00  0.00     0.189 C 
ATOM     10  O   UNL     1      10.292   2.542  23.877  1.00  0.00    -0.294 OA
BRANCH   9  11
ATOM     11  C   UNL     1      12.000   4.145  23.649  1.00  0.00     0.234 C 
BRANCH  11  12
ATOM     12  O   UNL     1      13.173   4.152  22.883  1.00  0.00    -0.388 OA
ATOM     13  H   UNL     1      13.126   3.364  22.280  1.00  0.00     0.211 HD
ENDBRANCH  11  12
ENDBRANCH   9  11
ENDBRANCH   8   9
BRANCH   8  14
ATOM     14  O   UNL     1      10.816   4.062  20.922  1.00  0.00    -0.382 OA
ATOM     15  H   UNL     1      11.732   4.442  20.859  1.00  0.00     0.211 HD
ENDBRANCH   8  14
ENDBRANCH   1   8
BRANCH   1  16
ATOM     16  O   UNL     1      10.075   1.020  20.264  1.00  0.00    -0.387 OA
ATOM     17  H   UNL     1       9.234   0.607  19.938  1.00  0.00     0.211 HD
ENDBRANCH   1  16
TORSDOF 10
ENDMDL
