MODEL 1
REMARK VINA RESULT:    -9.142      0.000      0.000
REMARK INTER + INTRA:         -10.577
REMARK INTER:                 -11.013
REMARK INTRA:                   0.436
REMARK UNBOUND:                 0.436
REMARK SMILES O=c1c(O)c(-c2ccc(O)c(O)c2)oc2cc(O)cc(O)c12
REMARK SMILES IDX 5 1 3 2 2 3 1 4 22 5 20 6 19 7 17 8 16 9 15 10 14 11 6 12
REMARK SMILES IDX 7 13 8 14 9 15 13 16 11 17 10 18 12 20 4 22 21 24 18 26
REMARK H PARENT 10 19 12 21 4 23 21 25 18 27
REMARK Flexibility Score: inf
ROOT
ATOM      1  C   UNL     1     -63.890 -40.648 -30.289  1.00  0.00     0.180 A 
ATOM      2  C   UNL     1     -64.343 -41.429 -31.365  1.00  0.00     0.208 A 
ATOM      3  C   UNL     1     -63.502 -41.615 -32.475  1.00  0.00     0.238 A 
ATOM      4  O   UNL     1     -63.893 -42.360 -33.410  1.00  0.00    -0.285 OA
ATOM      5  C   UNL     1     -62.226 -41.004 -32.501  1.00  0.00     0.111 A 
ATOM      6  C   UNL     1     -61.308 -41.091 -33.589  1.00  0.00     0.134 A 
ATOM      7  C   UNL     1     -60.021 -40.556 -33.453  1.00  0.00     0.093 A 
ATOM      8  C   UNL     1     -59.641 -39.880 -32.295  1.00  0.00     0.123 A 
ATOM      9  C   UNL     1     -60.551 -39.736 -31.246  1.00  0.00     0.094 A 
ATOM     10  C   UNL     1     -61.830 -40.292 -31.339  1.00  0.00     0.146 A 
ATOM     11  O   UNL     1     -62.662 -40.142 -30.315  1.00  0.00    -0.452 OA
ENDROOT
BRANCH   1  12
ATOM     12  C   UNL     1     -64.728 -40.386 -29.097  1.00  0.00     0.025 A 
ATOM     13  C   UNL     1     -64.169 -39.734 -27.990  1.00  0.00     0.016 A 
ATOM     14  C   UNL     1     -64.948 -39.459 -26.863  1.00  0.00     0.051 A 
ATOM     15  C   UNL     1     -66.300 -39.816 -26.826  1.00  0.00     0.157 A 
ATOM     16  C   UNL     1     -66.092 -40.725 -29.072  1.00  0.00     0.062 A 
ATOM     17  C   UNL     1     -66.882 -40.452 -27.948  1.00  0.00     0.158 A 
BRANCH  15  18
ATOM     18  O   UNL     1     -67.021 -39.521 -25.667  1.00  0.00    -0.504 OA
ATOM     19  H   UNL     1     -66.600 -39.195 -24.808  1.00  0.00     0.293 HD
ENDBRANCH  15  18
BRANCH  17  20
ATOM     20  O   UNL     1     -68.228 -40.819 -27.993  1.00  0.00    -0.504 OA
ATOM     21  H   UNL     1     -68.594 -41.550 -28.586  1.00  0.00     0.293 HD
ENDBRANCH  17  20
ENDBRANCH   1  12
BRANCH   2  22
ATOM     22  O   UNL     1     -65.599 -42.042 -31.309  1.00  0.00    -0.502 OA
ATOM     23  H   UNL     1     -66.315 -41.753 -30.654  1.00  0.00     0.293 HD
ENDBRANCH   2  22
BRANCH   6  24
ATOM     24  O   UNL     1     -61.616 -41.665 -34.827  1.00  0.00    -0.507 OA
ATOM     25  H   UNL     1     -62.246 -41.262 -35.506  1.00  0.00     0.293 HD
ENDBRANCH   6  24
BRANCH   8  26
ATOM     26  O   UNL     1     -58.358 -39.346 -32.199  1.00  0.00    -0.508 OA
ATOM     27  H   UNL     1     -58.175 -38.498 -31.675  1.00  0.00     0.293 HD
ENDBRANCH   8  26
TORSDOF 6
ENDMDL
MODEL 2
REMARK VINA RESULT:    -8.887      1.708      6.696
REMARK INTER + INTRA:         -10.269
REMARK INTER:                  -9.936
REMARK INTRA:                  -0.333
REMARK UNBOUND:                 0.436
REMARK SMILES O=c1c(O)c(-c2ccc(O)c(O)c2)oc2cc(O)cc(O)c12
REMARK SMILES IDX 5 1 3 2 2 3 1 4 22 5 20 6 19 7 17 8 16 9 15 10 14 11 6 12
REMARK SMILES IDX 7 13 8 14 9 15 13 16 11 17 10 18 12 20 4 22 21 24 18 26
REMARK H PARENT 10 19 12 21 4 23 21 25 18 27
REMARK Flexibility Score: inf
ROOT
ATOM      1  C   UNL     1     -64.050 -41.353 -30.885  1.00  0.00     0.180 A 
ATOM      2  C   UNL     1     -65.403 -41.683 -31.069  1.00  0.00     0.208 A 
ATOM      3  C   UNL     1     -66.339 -41.291 -30.098  1.00  0.00     0.238 A 
ATOM      4  O   UNL     1     -67.556 -41.542 -30.296  1.00  0.00    -0.285 OA
ATOM      5  C   UNL     1     -65.907 -40.590 -28.947  1.00  0.00     0.111 A 
ATOM      6  C   UNL     1     -66.761 -40.178 -27.881  1.00  0.00     0.134 A 
ATOM      7  C   UNL     1     -66.247 -39.376 -26.854  1.00  0.00     0.093 A 
ATOM      8  C   UNL     1     -64.900 -39.024 -26.821  1.00  0.00     0.123 A 
ATOM      9  C   UNL     1     -64.042 -39.471 -27.827  1.00  0.00     0.094 A 
ATOM     10  C   UNL     1     -64.532 -40.242 -28.884  1.00  0.00     0.146 A 
ATOM     11  O   UNL     1     -63.686 -40.638 -29.827  1.00  0.00    -0.452 OA
ENDROOT
BRANCH   1  12
ATOM     12  C   UNL     1     -63.002 -41.753 -31.852  1.00  0.00     0.025 A 
ATOM     13  C   UNL     1     -62.635 -40.870 -32.876  1.00  0.00     0.016 A 
ATOM     14  C   UNL     1     -61.635 -41.219 -33.787  1.00  0.00     0.051 A 
ATOM     15  C   UNL     1     -60.973 -42.447 -33.684  1.00  0.00     0.157 A 
ATOM     16  C   UNL     1     -62.324 -42.978 -31.731  1.00  0.00     0.062 A 
ATOM     17  C   UNL     1     -61.318 -43.337 -32.638  1.00  0.00     0.158 A 
BRANCH  15  18
ATOM     18  O   UNL     1     -59.990 -42.739 -34.630  1.00  0.00    -0.504 OA
ATOM     19  H   UNL     1     -59.192 -43.332 -34.451  1.00  0.00     0.293 HD
ENDBRANCH  15  18
BRANCH  17  20
ATOM     20  O   UNL     1     -60.688 -44.570 -32.459  1.00  0.00    -0.504 OA
ATOM     21  H   UNL     1     -59.784 -44.802 -32.845  1.00  0.00     0.293 HD
ENDBRANCH  17  20
ENDBRANCH   1  12
BRANCH   2  22
ATOM     22  O   UNL     1     -65.811 -42.357 -32.224  1.00  0.00    -0.502 OA
ATOM     23  H   UNL     1     -66.417 -41.933 -32.916  1.00  0.00     0.293 HD
ENDBRANCH   2  22
BRANCH   6  24
ATOM     24  O   UNL     1     -68.104 -40.551 -27.768  1.00  0.00    -0.507 OA
ATOM     25  H   UNL     1     -68.534 -40.903 -26.925  1.00  0.00     0.293 HD
ENDBRANCH   6  24
BRANCH   8  26
ATOM     26  O   UNL     1     -64.419 -38.238 -25.776  1.00  0.00    -0.508 OA
ATOM     27  H   UNL     1     -65.030 -37.899 -25.043  1.00  0.00     0.293 HD
ENDBRANCH   8  26
TORSDOF 6
ENDMDL
MODEL 3
REMARK VINA RESULT:    -8.247      1.686      2.835
REMARK INTER + INTRA:          -9.498
REMARK INTER:                  -9.444
REMARK INTRA:                  -0.054
REMARK UNBOUND:                 0.436
REMARK SMILES O=c1c(O)c(-c2ccc(O)c(O)c2)oc2cc(O)cc(O)c12
REMARK SMILES IDX 5 1 3 2 2 3 1 4 22 5 20 6 19 7 17 8 16 9 15 10 14 11 6 12
REMARK SMILES IDX 7 13 8 14 9 15 13 16 11 17 10 18 12 20 4 22 21 24 18 26
REMARK H PARENT 10 19 12 21 4 23 21 25 18 27
REMARK Flexibility Score: inf
ROOT
ATOM      1  C   UNL     1     -63.351 -40.929 -30.577  1.00  0.00     0.180 A 
ATOM      2  C   UNL     1     -62.073 -41.276 -30.107  1.00  0.00     0.208 A 
ATOM      3  C   UNL     1     -61.115 -41.748 -31.019  1.00  0.00     0.238 A 
ATOM      4  O   UNL     1     -59.957 -42.005 -30.601  1.00  0.00    -0.285 OA
ATOM      5  C   UNL     1     -61.453 -41.882 -32.387  1.00  0.00     0.111 A 
ATOM      6  C   UNL     1     -60.575 -42.386 -33.393  1.00  0.00     0.134 A 
ATOM      7  C   UNL     1     -60.971 -42.352 -34.736  1.00  0.00     0.093 A 
ATOM      8  C   UNL     1     -62.234 -41.893 -35.103  1.00  0.00     0.123 A 
ATOM      9  C   UNL     1     -63.124 -41.453 -34.122  1.00  0.00     0.094 A 
ATOM     10  C   UNL     1     -62.744 -41.440 -32.778  1.00  0.00     0.146 A 
ATOM     11  O   UNL     1     -63.616 -41.004 -31.876  1.00  0.00    -0.452 OA
ENDROOT
BRANCH   1  12
ATOM     12  C   UNL     1     -64.419 -40.449 -29.672  1.00  0.00     0.025 A 
ATOM     13  C   UNL     1     -64.202 -39.304 -28.893  1.00  0.00     0.016 A 
ATOM     14  C   UNL     1     -65.204 -38.822 -28.048  1.00  0.00     0.051 A 
ATOM     15  C   UNL     1     -66.446 -39.463 -27.976  1.00  0.00     0.157 A 
ATOM     16  C   UNL     1     -65.674 -41.081 -29.620  1.00  0.00     0.062 A 
ATOM     17  C   UNL     1     -66.687 -40.604 -28.778  1.00  0.00     0.158 A 
BRANCH  15  18
ATOM     18  O   UNL     1     -67.402 -38.936 -27.106  1.00  0.00    -0.504 OA
ATOM     19  H   UNL     1     -67.228 -38.166 -26.476  1.00  0.00     0.293 HD
ENDBRANCH  15  18
BRANCH  17  20
ATOM     20  O   UNL     1     -67.906 -41.283 -28.775  1.00  0.00    -0.504 OA
ATOM     21  H   UNL     1     -68.111 -42.071 -28.178  1.00  0.00     0.293 HD
ENDBRANCH  17  20
ENDBRANCH   1  12
BRANCH   2  22
ATOM     22  O   UNL     1     -61.754 -41.115 -28.755  1.00  0.00    -0.502 OA
ATOM     23  H   UNL     1     -60.803 -40.981 -28.433  1.00  0.00     0.293 HD
ENDBRANCH   2  22
BRANCH   6  24
ATOM     24  O   UNL     1     -59.325 -42.954 -33.125  1.00  0.00    -0.507 OA
ATOM     25  H   UNL     1     -58.887 -42.977 -32.216  1.00  0.00     0.293 HD
ENDBRANCH   6  24
BRANCH   8  26
ATOM     26  O   UNL     1     -62.601 -41.887 -36.447  1.00  0.00    -0.508 OA
ATOM     27  H   UNL     1     -61.964 -41.571 -37.169  1.00  0.00     0.293 HD
ENDBRANCH   8  26
TORSDOF 6
ENDMDL
MODEL 4
REMARK VINA RESULT:    -8.195      1.828      3.890
REMARK INTER + INTRA:          -9.436
REMARK INTER:                  -9.707
REMARK INTRA:                   0.271
REMARK UNBOUND:                 0.436
REMARK SMILES O=c1c(O)c(-c2ccc(O)c(O)c2)oc2cc(O)cc(O)c12
REMARK SMILES IDX 5 1 3 2 2 3 1 4 22 5 20 6 19 7 17 8 16 9 15 10 14 11 6 12
REMARK SMILES IDX 7 13 8 14 9 15 13 16 11 17 10 18 12 20 4 22 21 24 18 26
REMARK H PARENT 10 19 12 21 4 23 21 25 18 27
REMARK Flexibility Score: inf
ROOT
ATOM      1  C   UNL     1     -64.609 -41.039 -30.305  1.00  0.00     0.180 A 
ATOM      2  C   UNL     1     -63.328 -40.672 -30.752  1.00  0.00     0.208 A 
ATOM      3  C   UNL     1     -62.844 -41.213 -31.955  1.00  0.00     0.238 A 
ATOM      4  O   UNL     1     -61.719 -40.838 -32.376  1.00  0.00    -0.285 OA
ATOM      5  C   UNL     1     -63.640 -42.126 -32.686  1.00  0.00     0.111 A 
ATOM      6  C   UNL     1     -63.235 -42.767 -33.895  1.00  0.00     0.134 A 
ATOM      7  C   UNL     1     -64.154 -43.552 -34.603  1.00  0.00     0.093 A 
ATOM      8  C   UNL     1     -65.440 -43.771 -34.114  1.00  0.00     0.123 A 
ATOM      9  C   UNL     1     -65.828 -43.199 -32.901  1.00  0.00     0.094 A 
ATOM     10  C   UNL     1     -64.946 -42.381 -32.191  1.00  0.00     0.146 A 
ATOM     11  O   UNL     1     -65.357 -41.847 -31.047  1.00  0.00    -0.452 OA
ENDROOT
BRANCH   1  12
ATOM     12  C   UNL     1     -65.177 -40.530 -29.036  1.00  0.00     0.025 A 
ATOM     13  C   UNL     1     -66.568 -40.463 -28.880  1.00  0.00     0.016 A 
ATOM     14  C   UNL     1     -67.124 -40.005 -27.684  1.00  0.00     0.051 A 
ATOM     15  C   UNL     1     -66.305 -39.621 -26.616  1.00  0.00     0.157 A 
ATOM     16  C   UNL     1     -64.351 -40.167 -27.958  1.00  0.00     0.062 A 
ATOM     17  C   UNL     1     -64.899 -39.709 -26.753  1.00  0.00     0.158 A 
BRANCH  15  18
ATOM     18  O   UNL     1     -66.923 -39.165 -25.451  1.00  0.00    -0.504 OA
ATOM     19  H   UNL     1     -67.924 -39.098 -25.332  1.00  0.00     0.293 HD
ENDBRANCH  15  18
BRANCH  17  20
ATOM     20  O   UNL     1     -64.019 -39.363 -25.726  1.00  0.00    -0.504 OA
ATOM     21  H   UNL     1     -64.297 -39.237 -24.764  1.00  0.00     0.293 HD
ENDBRANCH  17  20
ENDBRANCH   1  12
BRANCH   2  22
ATOM     22  O   UNL     1     -62.567 -39.751 -30.025  1.00  0.00    -0.502 OA
ATOM     23  H   UNL     1     -62.726 -38.752 -30.079  1.00  0.00     0.293 HD
ENDBRANCH   2  22
BRANCH   6  24
ATOM     24  O   UNL     1     -61.944 -42.688 -34.426  1.00  0.00    -0.507 OA
ATOM     25  H   UNL     1     -61.132 -43.139 -34.031  1.00  0.00     0.293 HD
ENDBRANCH   6  24
BRANCH   8  26
ATOM     26  O   UNL     1     -66.324 -44.571 -34.836  1.00  0.00    -0.508 OA
ATOM     27  H   UNL     1     -66.562 -44.362 -35.798  1.00  0.00     0.293 HD
ENDBRANCH   8  26
TORSDOF 6
ENDMDL
MODEL 5
REMARK VINA RESULT:    -8.057      1.985      2.701
REMARK INTER + INTRA:          -9.270
REMARK INTER:                  -9.032
REMARK INTRA:                  -0.237
REMARK UNBOUND:                 0.436
REMARK SMILES O=c1c(O)c(-c2ccc(O)c(O)c2)oc2cc(O)cc(O)c12
REMARK SMILES IDX 5 1 3 2 2 3 1 4 22 5 20 6 19 7 17 8 16 9 15 10 14 11 6 12
REMARK SMILES IDX 7 13 8 14 9 15 13 16 11 17 10 18 12 20 4 22 21 24 18 26
REMARK H PARENT 10 19 12 21 4 23 21 25 18 27
REMARK Flexibility Score: inf
ROOT
ATOM      1  C   UNL     1     -64.855 -41.127 -30.861  1.00  0.00     0.180 A 
ATOM      2  C   UNL     1     -65.826 -41.976 -31.419  1.00  0.00     0.208 A 
ATOM      3  C   UNL     1     -65.509 -42.709 -32.574  1.00  0.00     0.238 A 
ATOM      4  O   UNL     1     -66.364 -43.508 -33.036  1.00  0.00    -0.285 OA
ATOM      5  C   UNL     1     -64.230 -42.572 -33.165  1.00  0.00     0.111 A 
ATOM      6  C   UNL     1     -63.814 -43.236 -34.358  1.00  0.00     0.134 A 
ATOM      7  C   UNL     1     -62.483 -43.127 -34.780  1.00  0.00     0.093 A 
ATOM      8  C   UNL     1     -61.572 -42.330 -34.091  1.00  0.00     0.123 A 
ATOM      9  C   UNL     1     -61.983 -41.628 -32.957  1.00  0.00     0.094 A 
ATOM     10  C   UNL     1     -63.294 -41.745 -32.490  1.00  0.00     0.146 A 
ATOM     11  O   UNL     1     -63.644 -41.070 -31.402  1.00  0.00    -0.452 OA
ENDROOT
BRANCH   1  12
ATOM     12  C   UNL     1     -65.124 -40.304 -29.660  1.00  0.00     0.025 A 
ATOM     13  C   UNL     1     -65.981 -39.200 -29.758  1.00  0.00     0.016 A 
ATOM     14  C   UNL     1     -66.264 -38.422 -28.633  1.00  0.00     0.051 A 
ATOM     15  C   UNL     1     -65.711 -38.740 -27.388  1.00  0.00     0.157 A 
ATOM     16  C   UNL     1     -64.584 -40.640 -28.406  1.00  0.00     0.062 A 
ATOM     17  C   UNL     1     -64.864 -39.868 -27.271  1.00  0.00     0.158 A 
BRANCH  15  18
ATOM     18  O   UNL     1     -66.027 -37.917 -26.305  1.00  0.00    -0.504 OA
ATOM     19  H   UNL     1     -66.401 -38.255 -25.430  1.00  0.00     0.293 HD
ENDBRANCH  15  18
BRANCH  17  20
ATOM     20  O   UNL     1     -64.292 -40.258 -26.060  1.00  0.00    -0.504 OA
ATOM     21  H   UNL     1     -64.514 -41.120 -25.583  1.00  0.00     0.293 HD
ENDBRANCH  17  20
ENDBRANCH   1  12
BRANCH   2  22
ATOM     22  O   UNL     1     -67.075 -42.113 -30.805  1.00  0.00    -0.502 OA
ATOM     23  H   UNL     1     -67.862 -41.519 -31.037  1.00  0.00     0.293 HD
ENDBRANCH   2  22
BRANCH   6  24
ATOM     24  O   UNL     1     -64.668 -43.985 -35.173  1.00  0.00    -0.507 OA
ATOM     25  H   UNL     1     -65.638 -44.173 -34.970  1.00  0.00     0.293 HD
ENDBRANCH   6  24
BRANCH   8  26
ATOM     26  O   UNL     1     -60.259 -42.232 -34.548  1.00  0.00    -0.508 OA
ATOM     27  H   UNL     1     -59.830 -41.335 -34.741  1.00  0.00     0.293 HD
ENDBRANCH   8  26
TORSDOF 6
ENDMDL
MODEL 6
REMARK VINA RESULT:    -7.904      1.880      3.304
REMARK INTER + INTRA:          -9.086
REMARK INTER:                  -9.513
REMARK INTRA:                   0.427
REMARK UNBOUND:                 0.436
REMARK SMILES O=c1c(O)c(-c2ccc(O)c(O)c2)oc2cc(O)cc(O)c12
REMARK SMILES IDX 5 1 3 2 2 3 1 4 22 5 20 6 19 7 17 8 16 9 15 10 14 11 6 12
REMARK SMILES IDX 7 13 8 14 9 15 13 16 11 17 10 18 12 20 4 22 21 24 18 26
REMARK H PARENT 10 19 12 21 4 23 21 25 18 27
REMARK Flexibility Score: inf
ROOT
ATOM      1  C   UNL     1     -63.235 -41.141 -30.766  1.00  0.00     0.180 A 
ATOM      2  C   UNL     1     -61.915 -41.439 -30.387  1.00  0.00     0.208 A 
ATOM      3  C   UNL     1     -61.039 -41.988 -31.339  1.00  0.00     0.238 A 
ATOM      4  O   UNL     1     -59.844 -42.202 -31.007  1.00  0.00    -0.285 OA
ATOM      5  C   UNL     1     -61.499 -42.246 -32.652  1.00  0.00     0.111 A 
ATOM      6  C   UNL     1     -60.711 -42.836 -33.685  1.00  0.00     0.134 A 
ATOM      7  C   UNL     1     -61.229 -42.925 -34.984  1.00  0.00     0.093 A 
ATOM      8  C   UNL     1     -62.526 -42.505 -35.272  1.00  0.00     0.123 A 
ATOM      9  C   UNL     1     -63.327 -41.982 -34.256  1.00  0.00     0.094 A 
ATOM     10  C   UNL     1     -62.826 -41.847 -32.959  1.00  0.00     0.146 A 
ATOM     11  O   UNL     1     -63.617 -41.335 -32.023  1.00  0.00    -0.452 OA
ENDROOT
BRANCH   1  12
ATOM     12  C   UNL     1     -64.222 -40.586 -29.813  1.00  0.00     0.025 A 
ATOM     13  C   UNL     1     -65.462 -40.137 -30.287  1.00  0.00     0.016 A 
ATOM     14  C   UNL     1     -66.415 -39.629 -29.403  1.00  0.00     0.051 A 
ATOM     15  C   UNL     1     -66.156 -39.572 -28.029  1.00  0.00     0.157 A 
ATOM     16  C   UNL     1     -63.967 -40.552 -28.432  1.00  0.00     0.062 A 
ATOM     17  C   UNL     1     -64.917 -40.045 -27.536  1.00  0.00     0.158 A 
BRANCH  15  18
ATOM     18  O   UNL     1     -67.147 -39.044 -27.199  1.00  0.00    -0.504 OA
ATOM     19  H   UNL     1     -67.601 -39.564 -26.461  1.00  0.00     0.293 HD
ENDBRANCH  15  18
BRANCH  17  20
ATOM     20  O   UNL     1     -64.595 -40.039 -26.177  1.00  0.00    -0.504 OA
ATOM     21  H   UNL     1     -65.279 -40.075 -25.435  1.00  0.00     0.293 HD
ENDBRANCH  17  20
ENDBRANCH   1  12
BRANCH   2  22
ATOM     22  O   UNL     1     -61.475 -41.156 -29.090  1.00  0.00    -0.502 OA
ATOM     23  H   UNL     1     -60.500 -41.213 -28.823  1.00  0.00     0.293 HD
ENDBRANCH   2  22
BRANCH   6  24
ATOM     24  O   UNL     1     -59.435 -43.372 -33.485  1.00  0.00    -0.507 OA
ATOM     25  H   UNL     1     -58.710 -42.939 -32.931  1.00  0.00     0.293 HD
ENDBRANCH   6  24
BRANCH   8  26
ATOM     26  O   UNL     1     -63.014 -42.623 -36.571  1.00  0.00    -0.508 OA
ATOM     27  H   UNL     1     -63.731 -43.298 -36.809  1.00  0.00     0.293 HD
ENDBRANCH   8  26
TORSDOF 6
ENDMDL
MODEL 7
REMARK VINA RESULT:    -7.877      2.281      3.804
REMARK INTER + INTRA:          -9.053
REMARK INTER:                  -8.792
REMARK INTRA:                  -0.260
REMARK UNBOUND:                 0.436
REMARK SMILES O=c1c(O)c(-c2ccc(O)c(O)c2)oc2cc(O)cc(O)c12
REMARK SMILES IDX 5 1 3 2 2 3 1 4 22 5 20 6 19 7 17 8 16 9 15 10 14 11 6 12
REMARK SMILES IDX 7 13 8 14 9 15 13 16 11 17 10 18 12 20 4 22 21 24 18 26
REMARK H PARENT 10 19 12 21 4 23 21 25 18 27
REMARK Flexibility Score: inf
ROOT
ATOM      1  C   UNL     1     -63.410 -41.519 -30.753  1.00  0.00     0.180 A 
ATOM      2  C   UNL     1     -62.149 -41.014 -31.115  1.00  0.00     0.208 A 
ATOM      3  C   UNL     1     -61.342 -41.758 -31.992  1.00  0.00     0.238 A 
ATOM      4  O   UNL     1     -60.238 -41.276 -32.354  1.00  0.00    -0.285 OA
ATOM      5  C   UNL     1     -61.800 -43.004 -32.483  1.00  0.00     0.111 A 
ATOM      6  C   UNL     1     -61.052 -43.861 -33.345  1.00  0.00     0.134 A 
ATOM      7  C   UNL     1     -61.656 -45.009 -33.873  1.00  0.00     0.093 A 
ATOM      8  C   UNL     1     -62.956 -45.365 -33.521  1.00  0.00     0.123 A 
ATOM      9  C   UNL     1     -63.677 -44.567 -32.632  1.00  0.00     0.094 A 
ATOM     10  C   UNL     1     -63.115 -43.396 -32.117  1.00  0.00     0.146 A 
ATOM     11  O   UNL     1     -63.837 -42.659 -31.282  1.00  0.00    -0.452 OA
ENDROOT
BRANCH   1  12
ATOM     12  C   UNL     1     -64.304 -40.804 -29.815  1.00  0.00     0.025 A 
ATOM     13  C   UNL     1     -65.487 -40.225 -30.295  1.00  0.00     0.016 A 
ATOM     14  C   UNL     1     -66.355 -39.564 -29.423  1.00  0.00     0.051 A 
ATOM     15  C   UNL     1     -66.068 -39.482 -28.056  1.00  0.00     0.157 A 
ATOM     16  C   UNL     1     -64.024 -40.743 -28.439  1.00  0.00     0.062 A 
ATOM     17  C   UNL     1     -64.890 -40.085 -27.556  1.00  0.00     0.158 A 
BRANCH  15  18
ATOM     18  O   UNL     1     -66.972 -38.800 -27.240  1.00  0.00    -0.504 OA
ATOM     19  H   UNL     1     -66.818 -38.613 -26.259  1.00  0.00     0.293 HD
ENDBRANCH  15  18
BRANCH  17  20
ATOM     20  O   UNL     1     -64.547 -40.062 -26.203  1.00  0.00    -0.504 OA
ATOM     21  H   UNL     1     -63.986 -40.770 -25.751  1.00  0.00     0.293 HD
ENDBRANCH  17  20
ENDBRANCH   1  12
BRANCH   2  22
ATOM     22  O   UNL     1     -61.725 -39.771 -30.635  1.00  0.00    -0.502 OA
ATOM     23  H   UNL     1     -60.934 -39.671 -30.011  1.00  0.00     0.293 HD
ENDBRANCH   2  22
BRANCH   6  24
ATOM     24  O   UNL     1     -59.713 -43.646 -33.688  1.00  0.00    -0.507 OA
ATOM     25  H   UNL     1     -59.315 -42.746 -33.914  1.00  0.00     0.293 HD
ENDBRANCH   6  24
BRANCH   8  26
ATOM     26  O   UNL     1     -63.520 -46.522 -34.053  1.00  0.00    -0.508 OA
ATOM     27  H   UNL     1     -63.689 -47.341 -33.482  1.00  0.00     0.293 HD
ENDBRANCH   8  26
TORSDOF 6
ENDMDL
MODEL 8
REMARK VINA RESULT:    -7.780      3.547      7.763
REMARK INTER + INTRA:          -8.936
REMARK INTER:                  -8.624
REMARK INTRA:                  -0.312
REMARK UNBOUND:                 0.436
REMARK SMILES O=c1c(O)c(-c2ccc(O)c(O)c2)oc2cc(O)cc(O)c12
REMARK SMILES IDX 5 1 3 2 2 3 1 4 22 5 20 6 19 7 17 8 16 9 15 10 14 11 6 12
REMARK SMILES IDX 7 13 8 14 9 15 13 16 11 17 10 18 12 20 4 22 21 24 18 26
REMARK H PARENT 10 19 12 21 4 23 21 25 18 27
REMARK Flexibility Score: inf
ROOT
ATOM      1  C   UNL     1     -62.052 -42.289 -35.167  1.00  0.00     0.180 A 
ATOM      2  C   UNL     1     -63.072 -42.798 -34.344  1.00  0.00     0.208 A 
ATOM      3  C   UNL     1     -63.022 -42.549 -32.963  1.00  0.00     0.238 A 
ATOM      4  O   UNL     1     -63.966 -42.961 -32.241  1.00  0.00    -0.285 OA
ATOM      5  C   UNL     1     -61.945 -41.809 -32.420  1.00  0.00     0.111 A 
ATOM      6  C   UNL     1     -61.772 -41.530 -31.031  1.00  0.00     0.134 A 
ATOM      7  C   UNL     1     -60.740 -40.677 -30.620  1.00  0.00     0.093 A 
ATOM      8  C   UNL     1     -59.837 -40.146 -31.539  1.00  0.00     0.123 A 
ATOM      9  C   UNL     1     -59.960 -40.459 -32.893  1.00  0.00     0.094 A 
ATOM     10  C   UNL     1     -61.002 -41.277 -33.337  1.00  0.00     0.146 A 
ATOM     11  O   UNL     1     -61.090 -41.543 -34.635  1.00  0.00    -0.452 OA
ENDROOT
BRANCH   1  12
ATOM     12  C   UNL     1     -62.023 -42.531 -36.627  1.00  0.00     0.025 A 
ATOM     13  C   UNL     1     -61.498 -43.734 -37.117  1.00  0.00     0.016 A 
ATOM     14  C   UNL     1     -61.479 -43.991 -38.489  1.00  0.00     0.051 A 
ATOM     15  C   UNL     1     -61.998 -43.061 -39.397  1.00  0.00     0.157 A 
ATOM     16  C   UNL     1     -62.565 -41.604 -37.534  1.00  0.00     0.062 A 
ATOM     17  C   UNL     1     -62.554 -41.853 -38.912  1.00  0.00     0.158 A 
BRANCH  15  18
ATOM     18  O   UNL     1     -61.942 -43.375 -40.756  1.00  0.00    -0.504 OA
ATOM     19  H   UNL     1     -62.681 -43.172 -41.413  1.00  0.00     0.293 HD
ENDBRANCH  15  18
BRANCH  17  20
ATOM     20  O   UNL     1     -63.107 -40.887 -39.754  1.00  0.00    -0.504 OA
ATOM     21  H   UNL     1     -62.914 -40.824 -40.743  1.00  0.00     0.293 HD
ENDBRANCH  17  20
ENDBRANCH   1  12
BRANCH   2  22
ATOM     22  O   UNL     1     -64.137 -43.508 -34.905  1.00  0.00    -0.502 OA
ATOM     23  H   UNL     1     -64.346 -43.482 -35.896  1.00  0.00     0.293 HD
ENDBRANCH   2  22
BRANCH   6  24
ATOM     24  O   UNL     1     -62.563 -42.084 -30.019  1.00  0.00    -0.507 OA
ATOM     25  H   UNL     1     -63.567 -42.177 -30.060  1.00  0.00     0.293 HD
ENDBRANCH   6  24
BRANCH   8  26
ATOM     26  O   UNL     1     -58.812 -39.313 -31.093  1.00  0.00    -0.508 OA
ATOM     27  H   UNL     1     -58.520 -39.304 -30.123  1.00  0.00     0.293 HD
ENDBRANCH   8  26
TORSDOF 6
ENDMDL
MODEL 9
REMARK VINA RESULT:    -7.641      2.236      7.284
REMARK INTER + INTRA:          -8.769
REMARK INTER:                  -8.470
REMARK INTRA:                  -0.299
REMARK UNBOUND:                 0.436
REMARK SMILES O=c1c(O)c(-c2ccc(O)c(O)c2)oc2cc(O)cc(O)c12
REMARK SMILES IDX 5 1 3 2 2 3 1 4 22 5 20 6 19 7 17 8 16 9 15 10 14 11 6 12
REMARK SMILES IDX 7 13 8 14 9 15 13 16 11 17 10 18 12 20 4 22 21 24 18 26
REMARK H PARENT 10 19 12 21 4 23 21 25 18 27
REMARK Flexibility Score: inf
ROOT
ATOM      1  C   UNL     1     -63.236 -41.799 -32.554  1.00  0.00     0.180 A 
ATOM      2  C   UNL     1     -62.162 -41.502 -31.698  1.00  0.00     0.208 A 
ATOM      3  C   UNL     1     -62.432 -41.076 -30.387  1.00  0.00     0.238 A 
ATOM      4  O   UNL     1     -61.466 -40.865 -29.609  1.00  0.00    -0.285 OA
ATOM      5  C   UNL     1     -63.773 -40.938 -29.954  1.00  0.00     0.111 A 
ATOM      6  C   UNL     1     -64.164 -40.477 -28.662  1.00  0.00     0.134 A 
ATOM      7  C   UNL     1     -65.516 -40.504 -28.298  1.00  0.00     0.093 A 
ATOM      8  C   UNL     1     -66.496 -40.913 -29.200  1.00  0.00     0.123 A 
ATOM      9  C   UNL     1     -66.131 -41.309 -30.488  1.00  0.00     0.094 A 
ATOM     10  C   UNL     1     -64.787 -41.328 -30.867  1.00  0.00     0.146 A 
ATOM     11  O   UNL     1     -64.480 -41.722 -32.098  1.00  0.00    -0.452 OA
ENDROOT
BRANCH   1  12
ATOM     12  C   UNL     1     -63.030 -42.228 -33.956  1.00  0.00     0.025 A 
ATOM     13  C   UNL     1     -62.753 -41.268 -34.938  1.00  0.00     0.016 A 
ATOM     14  C   UNL     1     -62.535 -41.654 -36.262  1.00  0.00     0.051 A 
ATOM     15  C   UNL     1     -62.576 -43.004 -36.629  1.00  0.00     0.157 A 
ATOM     16  C   UNL     1     -63.049 -43.587 -34.316  1.00  0.00     0.062 A 
ATOM     17  C   UNL     1     -62.830 -43.984 -35.641  1.00  0.00     0.158 A 
BRANCH  15  18
ATOM     18  O   UNL     1     -62.358 -43.322 -37.971  1.00  0.00    -0.504 OA
ATOM     19  H   UNL     1     -61.697 -44.017 -38.286  1.00  0.00     0.293 HD
ENDBRANCH  15  18
BRANCH  17  20
ATOM     20  O   UNL     1     -62.865 -45.350 -35.926  1.00  0.00    -0.504 OA
ATOM     21  H   UNL     1     -63.711 -45.902 -35.939  1.00  0.00     0.293 HD
ENDBRANCH  17  20
ENDBRANCH   1  12
BRANCH   2  22
ATOM     22  O   UNL     1     -60.845 -41.666 -32.139  1.00  0.00    -0.502 OA
ATOM     23  H   UNL     1     -60.350 -42.546 -32.055  1.00  0.00     0.293 HD
ENDBRANCH   2  22
BRANCH   6  24
ATOM     24  O   UNL     1     -63.274 -39.960 -27.715  1.00  0.00    -0.507 OA
ATOM     25  H   UNL     1     -62.952 -40.457 -26.897  1.00  0.00     0.293 HD
ENDBRANCH   6  24
BRANCH   8  26
ATOM     26  O   UNL     1     -67.834 -40.912 -28.810  1.00  0.00    -0.508 OA
ATOM     27  H   UNL     1     -68.156 -41.461 -28.022  1.00  0.00     0.293 HD
ENDBRANCH   8  26
TORSDOF 6
ENDMDL
