MODEL 1
REMARK VINA RESULT:     3.368      0.000      0.000
REMARK INTER + INTRA:           4.159
REMARK INTER:                   4.550
REMARK INTRA:                  -0.391
REMARK UNBOUND:                -0.391
REMARK SMILES CCCCCCC=CC(=O)[O-]
REMARK SMILES IDX 5 1 6 2 7 3 8 4 9 5 10 6 11 7 4 8 3 9 2 10 1 11
REMARK H PARENT
REMARK Flexibility Score: inf
ROOT
ATOM      1  C   UNL     1      -4.371 108.068  66.917  1.00  0.00     0.004 C 
ENDROOT
BRANCH   1   2
ATOM      2  C   UNL     1      -4.304 109.305  66.012  1.00  0.00     0.027 C 
BRANCH   2   3
ATOM      3  C   UNL     1      -4.388 110.572  66.815  1.00  0.00    -0.025 C 
ATOM      4  C   UNL     1      -4.002 111.746  66.308  1.00  0.00     0.020 C 
BRANCH   4   5
ATOM      5  C   UNL     1      -4.065 112.991  67.087  1.00  0.00     0.064 C 
ATOM      6  O   UNL     1      -3.041 113.397  67.697  1.00  0.00    -0.545 OA
ATOM      7  O   UNL     1      -5.240 113.732  67.160  1.00  0.00    -0.545 OA
ENDBRANCH   4   5
ENDBRANCH   2   3
ENDBRANCH   1   2
BRANCH   1   8
ATOM      8  C   UNL     1      -5.811 107.556  67.042  1.00  0.00     0.000 C 
BRANCH   8   9
ATOM      9  C   UNL     1      -6.722 108.215  65.997  1.00  0.00    -0.000 C 
BRANCH   9  10
ATOM     10  C   UNL     1      -8.125 108.454  66.565  1.00  0.00    -0.003 C 
ATOM     11  C   UNL     1      -8.125 109.606  67.567  1.00  0.00     0.004 C 
ENDBRANCH   9  10
ENDBRANCH   8   9
ENDBRANCH   1   8
TORSDOF 6
ENDMDL
MODEL 2
REMARK VINA RESULT:     3.510      3.082      5.166
REMARK INTER + INTRA:           4.350
REMARK INTER:                   4.614
REMARK INTRA:                  -0.264
REMARK UNBOUND:                -0.391
REMARK SMILES CCCCCCC=CC(=O)[O-]
REMARK SMILES IDX 5 1 6 2 7 3 8 4 9 5 10 6 11 7 4 8 3 9 2 10 1 11
REMARK H PARENT
REMARK Flexibility Score: inf
ROOT
ATOM      1  C   UNL     1      -3.235 112.009  65.695  1.00  0.00     0.004 C 
ENDROOT
BRANCH   1   2
ATOM      2  C   UNL     1      -3.298 110.533  65.281  1.00  0.00     0.027 C 
BRANCH   2   3
ATOM      3  C   UNL     1      -4.315 109.783  66.093  1.00  0.00    -0.025 C 
ATOM      4  C   UNL     1      -4.516 108.473  65.922  1.00  0.00     0.020 C 
BRANCH   4   5
ATOM      5  C   UNL     1      -5.518 107.729  66.699  1.00  0.00     0.064 C 
ATOM      6  O   UNL     1      -5.148 106.796  67.460  1.00  0.00    -0.545 OA
ATOM      7  O   UNL     1      -6.870 108.040  66.610  1.00  0.00    -0.545 OA
ENDBRANCH   4   5
ENDBRANCH   2   3
ENDBRANCH   1   2
BRANCH   1   8
ATOM      8  C   UNL     1      -4.072 112.261  66.955  1.00  0.00     0.000 C 
BRANCH   8   9
ATOM      9  C   UNL     1      -4.141 113.759  67.279  1.00  0.00    -0.000 C 
BRANCH   9  10
ATOM     10  C   UNL     1      -5.592 114.252  67.293  1.00  0.00    -0.003 C 
ATOM     11  C   UNL     1      -5.715 115.584  68.027  1.00  0.00     0.004 C 
ENDBRANCH   9  10
ENDBRANCH   8   9
ENDBRANCH   1   8
TORSDOF 6
ENDMDL
MODEL 3
REMARK VINA RESULT:     3.544      1.863      3.002
REMARK INTER + INTRA:           4.396
REMARK INTER:                   4.658
REMARK INTRA:                  -0.262
REMARK UNBOUND:                -0.391
REMARK SMILES CCCCCCC=CC(=O)[O-]
REMARK SMILES IDX 5 1 6 2 7 3 8 4 9 5 10 6 11 7 4 8 3 9 2 10 1 11
REMARK H PARENT
REMARK Flexibility Score: inf
ROOT
ATOM      1  C   UNL     1      -4.800 110.910  66.857  1.00  0.00     0.004 C 
ENDROOT
BRANCH   1   2
ATOM      2  C   UNL     1      -3.635 111.903  66.755  1.00  0.00     0.027 C 
BRANCH   2   3
ATOM      3  C   UNL     1      -4.098 113.312  66.998  1.00  0.00    -0.025 C 
ATOM      4  C   UNL     1      -5.353 113.580  67.370  1.00  0.00     0.020 C 
BRANCH   4   5
ATOM      5  C   UNL     1      -5.823 114.955  67.597  1.00  0.00     0.064 C 
ATOM      6  O   UNL     1      -6.271 115.626  66.631  1.00  0.00    -0.545 OA
ATOM      7  O   UNL     1      -5.782 115.525  68.864  1.00  0.00    -0.545 OA
ENDBRANCH   4   5
ENDBRANCH   2   3
ENDBRANCH   1   2
BRANCH   1   8
ATOM      8  C   UNL     1      -4.388 109.526  66.342  1.00  0.00     0.000 C 
BRANCH   8   9
ATOM      9  C   UNL     1      -5.593 108.577  66.291  1.00  0.00    -0.000 C 
BRANCH   9  10
ATOM     10  C   UNL     1      -5.304 107.282  67.056  1.00  0.00    -0.003 C 
ATOM     11  C   UNL     1      -4.047 107.415  67.912  1.00  0.00     0.004 C 
ENDBRANCH   9  10
ENDBRANCH   8   9
ENDBRANCH   1   8
TORSDOF 6
ENDMDL
MODEL 4
REMARK VINA RESULT:     4.544     16.055     17.278
REMARK INTER + INTRA:           5.746
REMARK INTER:                   5.893
REMARK INTRA:                  -0.147
REMARK UNBOUND:                -0.391
REMARK SMILES CCCCCCC=CC(=O)[O-]
REMARK SMILES IDX 5 1 6 2 7 3 8 4 9 5 10 6 11 7 4 8 3 9 2 10 1 11
REMARK H PARENT
REMARK Flexibility Score: inf
ROOT
ATOM      1  C   UNL     1       9.255 100.831  68.439  1.00  0.00     0.004 C 
ENDROOT
BRANCH   1   2
ATOM      2  C   UNL     1      10.162 101.720  69.299  1.00  0.00     0.027 C 
BRANCH   2   3
ATOM      3  C   UNL     1       9.488 103.019  69.638  1.00  0.00    -0.025 C 
ATOM      4  C   UNL     1      10.172 104.165  69.699  1.00  0.00     0.020 C 
BRANCH   4   5
ATOM      5  C   UNL     1       9.528 105.441  70.044  1.00  0.00     0.064 C 
ATOM      6  O   UNL     1       9.412 106.336  69.166  1.00  0.00    -0.545 OA
ATOM      7  O   UNL     1       9.042 105.675  71.325  1.00  0.00    -0.545 OA
ENDBRANCH   4   5
ENDBRANCH   2   3
ENDBRANCH   1   2
BRANCH   1   8
ATOM      8  C   UNL     1       8.091 100.272  69.266  1.00  0.00     0.000 C 
BRANCH   8   9
ATOM      9  C   UNL     1       8.322  98.795  69.613  1.00  0.00    -0.000 C 
BRANCH   9  10
ATOM     10  C   UNL     1       9.779  98.394  69.361  1.00  0.00    -0.003 C 
ATOM     11  C   UNL     1       9.874  96.960  68.846  1.00  0.00     0.004 C 
ENDBRANCH   9  10
ENDBRANCH   8   9
ENDBRANCH   1   8
TORSDOF 6
ENDMDL
