MODEL 1
REMARK VINA RESULT:    -5.025      0.000      0.000
REMARK INTER + INTRA:          -7.508
REMARK INTER:                  -7.081
REMARK INTRA:                  -0.427
REMARK UNBOUND:                -0.427
REMARK SMILES C=CCCCCCCC(=O)[O-]
REMARK SMILES IDX 6 1 7 2 8 3 9 4 10 5 11 6 5 7 4 8 3 9 2 10 1 11
REMARK H PARENT
REMARK Flexibility Score: inf
ROOT
ATOM      1  C   UNL     1     -30.874  57.097   2.881  1.00  0.00     0.000 C 
ENDROOT
BRANCH   1   2
ATOM      2  C   UNL     1     -30.844  56.972   4.409  1.00  0.00     0.006 C 
BRANCH   2   3
ATOM      3  C   UNL     1     -29.982  58.072   5.034  1.00  0.00     0.053 C 
BRANCH   3   4
ATOM      4  C   UNL     1     -30.445  58.375   6.423  1.00  0.00     0.041 C 
ATOM      5  O   UNL     1     -31.673  58.514   6.666  1.00  0.00    -0.550 OA
ATOM      6  O   UNL     1     -29.525  58.457   7.460  1.00  0.00    -0.550 OA
ENDBRANCH   3   4
ENDBRANCH   2   3
ENDBRANCH   1   2
BRANCH   1   7
ATOM      7  C   UNL     1     -29.958  56.057   2.225  1.00  0.00     0.000 C 
BRANCH   7   8
ATOM      8  C   UNL     1     -28.904  56.732   1.339  1.00  0.00     0.004 C 
BRANCH   8   9
ATOM      9  C   UNL     1     -29.242  58.210   1.111  1.00  0.00     0.027 C 
BRANCH   9  10
ATOM     10  C   UNL     1     -29.701  58.453  -0.301  1.00  0.00    -0.035 C 
ATOM     11  C   UNL     1     -29.070  57.915  -1.349  1.00  0.00     0.004 C 
ENDBRANCH   9  10
ENDBRANCH   8   9
ENDBRANCH   7   8
ENDBRANCH   1   7
TORSDOF 7
ENDMDL
MODEL 2
REMARK VINA RESULT:    -5.016      1.290      1.709
REMARK INTER + INTRA:          -7.495
REMARK INTER:                  -7.219
REMARK INTRA:                  -0.276
REMARK UNBOUND:                -0.427
REMARK SMILES C=CCCCCCCC(=O)[O-]
REMARK SMILES IDX 6 1 7 2 8 3 9 4 10 5 11 6 5 7 4 8 3 9 2 10 1 11
REMARK H PARENT
REMARK Flexibility Score: inf
ROOT
ATOM      1  C   UNL     1     -30.597  56.075   3.454  1.00  0.00     0.000 C 
ENDROOT
BRANCH   1   2
ATOM      2  C   UNL     1     -31.142  57.260   4.260  1.00  0.00     0.006 C 
BRANCH   2   3
ATOM      3  C   UNL     1     -30.014  57.989   4.996  1.00  0.00     0.053 C 
BRANCH   3   4
ATOM      4  C   UNL     1     -30.431  58.326   6.392  1.00  0.00     0.041 C 
ATOM      5  O   UNL     1     -31.649  58.483   6.670  1.00  0.00    -0.550 OA
ATOM      6  O   UNL     1     -29.478  58.418   7.399  1.00  0.00    -0.550 OA
ENDBRANCH   3   4
ENDBRANCH   2   3
ENDBRANCH   1   2
BRANCH   1   7
ATOM      7  C   UNL     1     -30.412  56.450   1.979  1.00  0.00     0.000 C 
BRANCH   7   8
ATOM      8  C   UNL     1     -29.014  56.062   1.483  1.00  0.00     0.004 C 
BRANCH   8   9
ATOM      9  C   UNL     1     -28.219  57.301   1.055  1.00  0.00     0.027 C 
BRANCH   9  10
ATOM     10  C   UNL     1     -26.945  56.916   0.354  1.00  0.00    -0.035 C 
ATOM     11  C   UNL     1     -25.763  56.939   0.979  1.00  0.00     0.004 C 
ENDBRANCH   9  10
ENDBRANCH   8   9
ENDBRANCH   7   8
ENDBRANCH   1   7
TORSDOF 7
ENDMDL
MODEL 3
REMARK VINA RESULT:    -4.955      4.117      5.596
REMARK INTER + INTRA:          -7.410
REMARK INTER:                  -6.735
REMARK INTRA:                  -0.675
REMARK UNBOUND:                -0.427
REMARK SMILES C=CCCCCCCC(=O)[O-]
REMARK SMILES IDX 6 1 7 2 8 3 9 4 10 5 11 6 5 7 4 8 3 9 2 10 1 11
REMARK H PARENT
REMARK Flexibility Score: inf
ROOT
ATOM      1  C   UNL     1     -29.977  56.145   1.792  1.00  0.00     0.000 C 
ENDROOT
BRANCH   1   2
ATOM      2  C   UNL     1     -28.590  55.910   1.182  1.00  0.00     0.006 C 
BRANCH   2   3
ATOM      3  C   UNL     1     -28.204  57.052   0.238  1.00  0.00     0.053 C 
BRANCH   3   4
ATOM      4  C   UNL     1     -26.775  56.923  -0.183  1.00  0.00     0.041 C 
ATOM      5  O   UNL     1     -25.882  56.679   0.670  1.00  0.00    -0.550 OA
ATOM      6  O   UNL     1     -26.435  57.024  -1.526  1.00  0.00    -0.550 OA
ENDBRANCH   3   4
ENDBRANCH   2   3
ENDBRANCH   1   2
BRANCH   1   7
ATOM      7  C   UNL     1     -30.087  57.554   2.384  1.00  0.00     0.000 C 
BRANCH   7   8
ATOM      8  C   UNL     1     -30.207  57.503   3.912  1.00  0.00     0.004 C 
BRANCH   8   9
ATOM      9  C   UNL     1     -29.052  58.257   4.580  1.00  0.00     0.027 C 
BRANCH   9  10
ATOM     10  C   UNL     1     -28.060  58.748   3.561  1.00  0.00    -0.035 C 
ATOM     11  C   UNL     1     -26.742  58.698   3.780  1.00  0.00     0.004 C 
ENDBRANCH   9  10
ENDBRANCH   8   9
ENDBRANCH   7   8
ENDBRANCH   1   7
TORSDOF 7
ENDMDL
MODEL 4
REMARK VINA RESULT:    -4.917      4.425      6.113
REMARK INTER + INTRA:          -7.356
REMARK INTER:                  -6.736
REMARK INTRA:                  -0.620
REMARK UNBOUND:                -0.427
REMARK SMILES C=CCCCCCCC(=O)[O-]
REMARK SMILES IDX 6 1 7 2 8 3 9 4 10 5 11 6 5 7 4 8 3 9 2 10 1 11
REMARK H PARENT
REMARK Flexibility Score: inf
ROOT
ATOM      1  C   UNL     1     -30.882  57.936   0.750  1.00  0.00     0.000 C 
ENDROOT
BRANCH   1   2
ATOM      2  C   UNL     1     -29.788  58.654  -0.049  1.00  0.00     0.006 C 
BRANCH   2   3
ATOM      3  C   UNL     1     -28.954  57.657  -0.858  1.00  0.00     0.053 C 
BRANCH   3   4
ATOM      4  C   UNL     1     -28.823  58.113  -2.276  1.00  0.00     0.041 C 
ATOM      5  O   UNL     1     -29.348  59.196  -2.646  1.00  0.00    -0.550 OA
ATOM      6  O   UNL     1     -28.079  57.365  -3.180  1.00  0.00    -0.550 OA
ENDBRANCH   3   4
ENDBRANCH   2   3
ENDBRANCH   1   2
BRANCH   1   7
ATOM      7  C   UNL     1     -30.534  56.457   0.955  1.00  0.00     0.000 C 
BRANCH   7   8
ATOM      8  C   UNL     1     -30.151  56.178   2.413  1.00  0.00     0.004 C 
BRANCH   8   9
ATOM      9  C   UNL     1     -30.756  57.229   3.351  1.00  0.00     0.027 C 
BRANCH   9  10
ATOM     10  C   UNL     1     -29.691  57.914   4.162  1.00  0.00    -0.035 C 
ATOM     11  C   UNL     1     -28.572  58.384   3.601  1.00  0.00     0.004 C 
ENDBRANCH   9  10
ENDBRANCH   8   9
ENDBRANCH   7   8
ENDBRANCH   1   7
TORSDOF 7
ENDMDL
MODEL 5
REMARK VINA RESULT:    -4.863      1.698      2.949
REMARK INTER + INTRA:          -7.279
REMARK INTER:                  -6.702
REMARK INTRA:                  -0.577
REMARK UNBOUND:                -0.427
REMARK SMILES C=CCCCCCCC(=O)[O-]
REMARK SMILES IDX 6 1 7 2 8 3 9 4 10 5 11 6 5 7 4 8 3 9 2 10 1 11
REMARK H PARENT
REMARK Flexibility Score: inf
ROOT
ATOM      1  C   UNL     1     -30.991  57.985   0.749  1.00  0.00     0.000 C 
ENDROOT
BRANCH   1   2
ATOM      2  C   UNL     1     -30.880  56.830   1.751  1.00  0.00     0.006 C 
BRANCH   2   3
ATOM      3  C   UNL     1     -30.116  57.264   3.006  1.00  0.00     0.053 C 
BRANCH   3   4
ATOM      4  C   UNL     1     -31.019  57.252   4.199  1.00  0.00     0.041 C 
ATOM      5  O   UNL     1     -30.534  57.258   5.360  1.00  0.00    -0.550 OA
ATOM      6  O   UNL     1     -32.397  57.284   4.027  1.00  0.00    -0.550 OA
ENDBRANCH   3   4
ENDBRANCH   2   3
ENDBRANCH   1   2
BRANCH   1   7
ATOM      7  C   UNL     1     -29.605  58.470   0.311  1.00  0.00     0.000 C 
BRANCH   7   8
ATOM      8  C   UNL     1     -29.263  57.967  -1.096  1.00  0.00     0.004 C 
BRANCH   8   9
ATOM      9  C   UNL     1     -27.913  57.241  -1.108  1.00  0.00     0.027 C 
BRANCH   9  10
ATOM     10  C   UNL     1     -27.505  56.826   0.279  1.00  0.00    -0.035 C 
ATOM     11  C   UNL     1     -26.229  56.852   0.676  1.00  0.00     0.004 C 
ENDBRANCH   9  10
ENDBRANCH   8   9
ENDBRANCH   7   8
ENDBRANCH   1   7
TORSDOF 7
ENDMDL
MODEL 6
REMARK VINA RESULT:    -4.810     12.177     14.244
REMARK INTER + INTRA:          -7.205
REMARK INTER:                  -6.603
REMARK INTRA:                  -0.602
REMARK UNBOUND:                -0.427
REMARK SMILES C=CCCCCCCC(=O)[O-]
REMARK SMILES IDX 6 1 7 2 8 3 9 4 10 5 11 6 5 7 4 8 3 9 2 10 1 11
REMARK H PARENT
REMARK Flexibility Score: inf
ROOT
ATOM      1  C   UNL     1     -19.284  57.980  -6.523  1.00  0.00     0.000 C 
ENDROOT
BRANCH   1   2
ATOM      2  C   UNL     1     -20.297  59.001  -5.991  1.00  0.00     0.006 C 
BRANCH   2   3
ATOM      3  C   UNL     1     -21.021  58.463  -4.754  1.00  0.00     0.053 C 
BRANCH   3   4
ATOM      4  C   UNL     1     -21.627  57.126  -5.041  1.00  0.00     0.041 C 
ATOM      5  O   UNL     1     -21.240  56.107  -4.412  1.00  0.00    -0.550 OA
ATOM      6  O   UNL     1     -22.654  57.014  -5.969  1.00  0.00    -0.550 OA
ENDBRANCH   3   4
ENDBRANCH   2   3
ENDBRANCH   1   2
BRANCH   1   7
ATOM      7  C   UNL     1     -18.078  57.859  -5.583  1.00  0.00     0.000 C 
BRANCH   7   8
ATOM      8  C   UNL     1     -16.907  58.718  -6.076  1.00  0.00     0.004 C 
BRANCH   8   9
ATOM      9  C   UNL     1     -16.555  59.805  -5.055  1.00  0.00     0.027 C 
BRANCH   9  10
ATOM     10  C   UNL     1     -17.313  59.613  -3.770  1.00  0.00    -0.035 C 
ATOM     11  C   UNL     1     -16.931  60.202  -2.632  1.00  0.00     0.004 C 
ENDBRANCH   9  10
ENDBRANCH   8   9
ENDBRANCH   7   8
ENDBRANCH   1   7
TORSDOF 7
ENDMDL
MODEL 7
REMARK VINA RESULT:    -4.746      7.244      7.838
REMARK INTER + INTRA:          -7.115
REMARK INTER:                  -6.764
REMARK INTRA:                  -0.351
REMARK UNBOUND:                -0.427
REMARK SMILES C=CCCCCCCC(=O)[O-]
REMARK SMILES IDX 6 1 7 2 8 3 9 4 10 5 11 6 5 7 4 8 3 9 2 10 1 11
REMARK H PARENT
REMARK Flexibility Score: inf
ROOT
ATOM      1  C   UNL     1     -23.878  57.805   3.377  1.00  0.00     0.000 C 
ENDROOT
BRANCH   1   2
ATOM      2  C   UNL     1     -22.865  57.288   4.405  1.00  0.00     0.006 C 
BRANCH   2   3
ATOM      3  C   UNL     1     -23.574  56.648   5.601  1.00  0.00     0.053 C 
BRANCH   3   4
ATOM      4  C   UNL     1     -22.659  56.594   6.784  1.00  0.00     0.041 C 
ATOM      5  O   UNL     1     -22.790  55.685   7.645  1.00  0.00    -0.550 OA
ATOM      6  O   UNL     1     -21.631  57.519   6.910  1.00  0.00    -0.550 OA
ENDBRANCH   3   4
ENDBRANCH   2   3
ENDBRANCH   1   2
BRANCH   1   7
ATOM      7  C   UNL     1     -23.411  59.128   2.759  1.00  0.00     0.000 C 
BRANCH   7   8
ATOM      8  C   UNL     1     -21.933  59.391   3.073  1.00  0.00     0.004 C 
BRANCH   8   9
ATOM      9  C   UNL     1     -21.265  60.186   1.945  1.00  0.00     0.027 C 
BRANCH   9  10
ATOM     10  C   UNL     1     -22.269  60.610   0.908  1.00  0.00    -0.035 C 
ATOM     11  C   UNL     1     -21.892  61.088  -0.282  1.00  0.00     0.004 C 
ENDBRANCH   9  10
ENDBRANCH   8   9
ENDBRANCH   7   8
ENDBRANCH   1   7
TORSDOF 7
ENDMDL
MODEL 8
REMARK VINA RESULT:    -4.618      3.449      5.083
REMARK INTER + INTRA:          -6.935
REMARK INTER:                  -6.456
REMARK INTRA:                  -0.479
REMARK UNBOUND:                -0.427
REMARK SMILES C=CCCCCCCC(=O)[O-]
REMARK SMILES IDX 6 1 7 2 8 3 9 4 10 5 11 6 5 7 4 8 3 9 2 10 1 11
REMARK H PARENT
REMARK Flexibility Score: inf
ROOT
ATOM      1  C   UNL     1     -30.545  56.499   1.979  1.00  0.00     0.000 C 
ENDROOT
BRANCH   1   2
ATOM      2  C   UNL     1     -29.295  55.950   1.282  1.00  0.00     0.006 C 
BRANCH   2   3
ATOM      3  C   UNL     1     -28.524  57.068   0.575  1.00  0.00     0.053 C 
BRANCH   3   4
ATOM      4  C   UNL     1     -29.461  57.950  -0.188  1.00  0.00     0.041 C 
ATOM      5  O   UNL     1     -29.659  59.136   0.184  1.00  0.00    -0.550 OA
ATOM      6  O   UNL     1     -30.080  57.475  -1.338  1.00  0.00    -0.550 OA
ENDBRANCH   3   4
ENDBRANCH   2   3
ENDBRANCH   1   2
BRANCH   1   7
ATOM      7  C   UNL     1     -30.520  56.186   3.480  1.00  0.00     0.000 C 
BRANCH   7   8
ATOM      8  C   UNL     1     -30.807  57.443   4.310  1.00  0.00     0.004 C 
BRANCH   8   9
ATOM      9  C   UNL     1     -29.510  58.045   4.863  1.00  0.00     0.027 C 
BRANCH   9  10
ATOM     10  C   UNL     1     -28.700  58.691   3.773  1.00  0.00    -0.035 C 
ATOM     11  C   UNL     1     -27.364  58.692   3.795  1.00  0.00     0.004 C 
ENDBRANCH   9  10
ENDBRANCH   8   9
ENDBRANCH   7   8
ENDBRANCH   1   7
TORSDOF 7
ENDMDL
MODEL 9
REMARK VINA RESULT:    -4.518     12.289     14.347
REMARK INTER + INTRA:          -6.793
REMARK INTER:                  -6.509
REMARK INTRA:                  -0.284
REMARK UNBOUND:                -0.427
REMARK SMILES C=CCCCCCCC(=O)[O-]
REMARK SMILES IDX 6 1 7 2 8 3 9 4 10 5 11 6 5 7 4 8 3 9 2 10 1 11
REMARK H PARENT
REMARK Flexibility Score: inf
ROOT
ATOM      1  C   UNL     1     -18.109  57.236  -5.380  1.00  0.00     0.000 C 
ENDROOT
BRANCH   1   2
ATOM      2  C   UNL     1     -19.315  57.506  -4.473  1.00  0.00     0.006 C 
BRANCH   2   3
ATOM      3  C   UNL     1     -20.487  58.081  -5.273  1.00  0.00     0.053 C 
BRANCH   3   4
ATOM      4  C   UNL     1     -21.766  57.409  -4.885  1.00  0.00     0.041 C 
ATOM      5  O   UNL     1     -22.838  58.067  -4.838  1.00  0.00    -0.550 OA
ATOM      6  O   UNL     1     -21.782  56.045  -4.624  1.00  0.00    -0.550 OA
ENDBRANCH   3   4
ENDBRANCH   2   3
ENDBRANCH   1   2
BRANCH   1   7
ATOM      7  C   UNL     1     -17.403  58.543  -5.761  1.00  0.00     0.000 C 
BRANCH   7   8
ATOM      8  C   UNL     1     -17.272  59.472  -4.549  1.00  0.00     0.004 C 
BRANCH   8   9
ATOM      9  C   UNL     1     -15.920  60.195  -4.553  1.00  0.00     0.027 C 
BRANCH   9  10
ATOM     10  C   UNL     1     -15.652  60.859  -3.231  1.00  0.00    -0.035 C 
ATOM     11  C   UNL     1     -16.448  60.670  -2.174  1.00  0.00     0.004 C 
ENDBRANCH   9  10
ENDBRANCH   8   9
ENDBRANCH   7   8
ENDBRANCH   1   7
TORSDOF 7
ENDMDL
