MODEL 1
REMARK VINA RESULT:    -6.931      0.000      0.000
REMARK INTER + INTRA:          -8.645
REMARK INTER:                  -8.350
REMARK INTRA:                  -0.296
REMARK UNBOUND:                -0.296
REMARK SMILES O=c1c(O)c(-c2ccc(O)c(O)c2)oc2cc(O)cc(O)c12
REMARK SMILES IDX 5 1 3 2 2 3 1 4 22 5 20 6 19 7 17 8 16 9 15 10 14 11 6 12
REMARK SMILES IDX 7 13 8 14 9 15 13 16 11 17 10 18 12 20 4 22 21 24 18 26
REMARK H PARENT 10 19 12 21 4 23 21 25 18 27
REMARK Flexibility Score: inf
ROOT
ATOM      1  C   UNL     1       7.610   0.565   2.422  1.00  0.00     0.180 A 
ATOM      2  C   UNL     1       8.868  -0.039   2.601  1.00  0.00     0.208 A 
ATOM      3  C   UNL     1       8.985  -1.110   3.501  1.00  0.00     0.238 A 
ATOM      4  O   UNL     1      10.124  -1.612   3.698  1.00  0.00    -0.285 OA
ATOM      5  C   UNL     1       7.844  -1.574   4.199  1.00  0.00     0.111 A 
ATOM      6  C   UNL     1       7.840  -2.678   5.103  1.00  0.00     0.134 A 
ATOM      7  C   UNL     1       6.682  -2.967   5.836  1.00  0.00     0.093 A 
ATOM      8  C   UNL     1       5.509  -2.232   5.648  1.00  0.00     0.123 A 
ATOM      9  C   UNL     1       5.486  -1.191   4.722  1.00  0.00     0.094 A 
ATOM     10  C   UNL     1       6.636  -0.856   4.003  1.00  0.00     0.146 A 
ATOM     11  O   UNL     1       6.573   0.151   3.140  1.00  0.00    -0.452 OA
ENDROOT
BRANCH   1  12
ATOM     12  C   UNL     1       7.402   1.683   1.473  1.00  0.00     0.025 A 
ATOM     13  C   UNL     1       7.731   2.990   1.864  1.00  0.00     0.016 A 
ATOM     14  C   UNL     1       7.523   4.062   0.992  1.00  0.00     0.051 A 
ATOM     15  C   UNL     1       6.970   3.848  -0.273  1.00  0.00     0.157 A 
ATOM     16  C   UNL     1       6.825   1.471   0.208  1.00  0.00     0.062 A 
ATOM     17  C   UNL     1       6.614   2.546  -0.668  1.00  0.00     0.158 A 
BRANCH  15  18
ATOM     18  O   UNL     1       6.776   4.937  -1.123  1.00  0.00    -0.504 OA
ATOM     19  H   UNL     1       7.549   5.426  -1.556  1.00  0.00     0.293 HD
ENDBRANCH  15  18
BRANCH  17  20
ATOM     20  O   UNL     1       6.047   2.328  -1.923  1.00  0.00    -0.504 OA
ATOM     21  H   UNL     1       6.608   2.033  -2.714  1.00  0.00     0.293 HD
ENDBRANCH  17  20
ENDBRANCH   1  12
BRANCH   2  22
ATOM     22  O   UNL     1       9.986   0.448   1.920  1.00  0.00    -0.502 OA
ATOM     23  H   UNL     1      10.829  -0.099   1.795  1.00  0.00     0.293 HD
ENDBRANCH   2  22
BRANCH   6  24
ATOM     24  O   UNL     1       8.931  -3.531   5.298  1.00  0.00    -0.507 OA
ATOM     25  H   UNL     1       9.745  -3.568   4.704  1.00  0.00     0.293 HD
ENDBRANCH   6  24
BRANCH   8  26
ATOM     26  O   UNL     1       4.356  -2.536   6.368  1.00  0.00    -0.508 OA
ATOM     27  H   UNL     1       3.606  -1.863   6.475  1.00  0.00     0.293 HD
ENDBRANCH   8  26
TORSDOF 6
ENDMDL
MODEL 2
REMARK VINA RESULT:    -6.742      1.615      2.555
REMARK INTER + INTRA:          -8.417
REMARK INTER:                  -8.836
REMARK INTRA:                   0.420
REMARK UNBOUND:                -0.296
REMARK SMILES O=c1c(O)c(-c2ccc(O)c(O)c2)oc2cc(O)cc(O)c12
REMARK SMILES IDX 5 1 3 2 2 3 1 4 22 5 20 6 19 7 17 8 16 9 15 10 14 11 6 12
REMARK SMILES IDX 7 13 8 14 9 15 13 16 11 17 10 18 12 20 4 22 21 24 18 26
REMARK H PARENT 10 19 12 21 4 23 21 25 18 27
REMARK Flexibility Score: inf
ROOT
ATOM      1  C   UNL     1       6.992   0.460   2.347  1.00  0.00     0.180 A 
ATOM      2  C   UNL     1       6.201  -0.688   2.159  1.00  0.00     0.208 A 
ATOM      3  C   UNL     1       6.305  -1.744   3.078  1.00  0.00     0.238 A 
ATOM      4  O   UNL     1       5.636  -2.791   2.873  1.00  0.00    -0.285 OA
ATOM      5  C   UNL     1       7.185  -1.634   4.181  1.00  0.00     0.111 A 
ATOM      6  C   UNL     1       7.340  -2.626   5.196  1.00  0.00     0.134 A 
ATOM      7  C   UNL     1       8.334  -2.469   6.169  1.00  0.00     0.093 A 
ATOM      8  C   UNL     1       9.134  -1.324   6.203  1.00  0.00     0.123 A 
ATOM      9  C   UNL     1       8.949  -0.323   5.253  1.00  0.00     0.094 A 
ATOM     10  C   UNL     1       7.990  -0.468   4.248  1.00  0.00     0.146 A 
ATOM     11  O   UNL     1       7.855   0.505   3.354  1.00  0.00    -0.452 OA
ENDROOT
BRANCH   1  12
ATOM     12  C   UNL     1       6.919   1.624   1.435  1.00  0.00     0.025 A 
ATOM     13  C   UNL     1       7.882   2.640   1.535  1.00  0.00     0.016 A 
ATOM     14  C   UNL     1       7.820   3.758   0.698  1.00  0.00     0.051 A 
ATOM     15  C   UNL     1       6.790   3.885  -0.237  1.00  0.00     0.157 A 
ATOM     16  C   UNL     1       5.870   1.764   0.508  1.00  0.00     0.062 A 
ATOM     17  C   UNL     1       5.805   2.886  -0.331  1.00  0.00     0.158 A 
BRANCH  15  18
ATOM     18  O   UNL     1       6.755   5.011  -1.060  1.00  0.00    -0.504 OA
ATOM     19  H   UNL     1       7.150   5.898  -0.775  1.00  0.00     0.293 HD
ENDBRANCH  15  18
BRANCH  17  20
ATOM     20  O   UNL     1       4.766   3.014  -1.251  1.00  0.00    -0.504 OA
ATOM     21  H   UNL     1       3.822   2.718  -1.031  1.00  0.00     0.293 HD
ENDBRANCH  17  20
ENDBRANCH   1  12
BRANCH   2  22
ATOM     22  O   UNL     1       5.355  -0.785   1.051  1.00  0.00    -0.502 OA
ATOM     23  H   UNL     1       5.006  -1.672   0.708  1.00  0.00     0.293 HD
ENDBRANCH   2  22
BRANCH   6  24
ATOM     24  O   UNL     1       6.532  -3.762   5.306  1.00  0.00    -0.507 OA
ATOM     25  H   UNL     1       5.717  -3.944   4.743  1.00  0.00     0.293 HD
ENDBRANCH   6  24
BRANCH   8  26
ATOM     26  O   UNL     1      10.110  -1.167   7.185  1.00  0.00    -0.508 OA
ATOM     27  H   UNL     1      10.148  -1.774   7.995  1.00  0.00     0.293 HD
ENDBRANCH   8  26
TORSDOF 6
ENDMDL
MODEL 3
REMARK VINA RESULT:    -6.485      2.113      7.047
REMARK INTER + INTRA:          -8.107
REMARK INTER:                  -7.831
REMARK INTRA:                  -0.276
REMARK UNBOUND:                -0.296
REMARK SMILES O=c1c(O)c(-c2ccc(O)c(O)c2)oc2cc(O)cc(O)c12
REMARK SMILES IDX 5 1 3 2 2 3 1 4 22 5 20 6 19 7 17 8 16 9 15 10 14 11 6 12
REMARK SMILES IDX 7 13 8 14 9 15 13 16 11 17 10 18 12 20 4 22 21 24 18 26
REMARK H PARENT 10 19 12 21 4 23 21 25 18 27
REMARK Flexibility Score: inf
ROOT
ATOM      1  C   UNL     1       7.718  -1.851   4.635  1.00  0.00     0.180 A 
ATOM      2  C   UNL     1       8.883  -1.451   3.955  1.00  0.00     0.208 A 
ATOM      3  C   UNL     1       8.771  -0.545   2.888  1.00  0.00     0.238 A 
ATOM      4  O   UNL     1       9.811  -0.234   2.249  1.00  0.00    -0.285 OA
ATOM      5  C   UNL     1       7.501  -0.038   2.524  1.00  0.00     0.111 A 
ATOM      6  C   UNL     1       7.276   0.915   1.487  1.00  0.00     0.134 A 
ATOM      7  C   UNL     1       5.964   1.248   1.126  1.00  0.00     0.093 A 
ATOM      8  C   UNL     1       4.872   0.711   1.811  1.00  0.00     0.123 A 
ATOM      9  C   UNL     1       5.083  -0.174   2.866  1.00  0.00     0.094 A 
ATOM     10  C   UNL     1       6.379  -0.553   3.224  1.00  0.00     0.146 A 
ATOM     11  O   UNL     1       6.535  -1.408   4.227  1.00  0.00    -0.452 OA
ENDROOT
BRANCH   1  12
ATOM     12  C   UNL     1       7.759  -2.783   5.785  1.00  0.00     0.025 A 
ATOM     13  C   UNL     1       8.197  -2.319   7.035  1.00  0.00     0.016 A 
ATOM     14  C   UNL     1       8.264  -3.186   8.128  1.00  0.00     0.051 A 
ATOM     15  C   UNL     1       7.909  -4.531   7.986  1.00  0.00     0.157 A 
ATOM     16  C   UNL     1       7.423  -4.141   5.638  1.00  0.00     0.062 A 
ATOM     17  C   UNL     1       7.491  -5.014   6.734  1.00  0.00     0.158 A 
BRANCH  15  18
ATOM     18  O   UNL     1       7.984  -5.373   9.095  1.00  0.00    -0.504 OA
ATOM     19  H   UNL     1       8.788  -5.963   9.271  1.00  0.00     0.293 HD
ENDBRANCH  15  18
BRANCH  17  20
ATOM     20  O   UNL     1       7.151  -6.358   6.582  1.00  0.00    -0.504 OA
ATOM     21  H   UNL     1       7.780  -7.018   6.141  1.00  0.00     0.293 HD
ENDBRANCH  17  20
ENDBRANCH   1  12
BRANCH   2  22
ATOM     22  O   UNL     1      10.125  -1.981   4.316  1.00  0.00    -0.502 OA
ATOM     23  H   UNL     1      10.227  -2.688   5.035  1.00  0.00     0.293 HD
ENDBRANCH   2  22
BRANCH   6  24
ATOM     24  O   UNL     1       8.299   1.579   0.802  1.00  0.00    -0.507 OA
ATOM     25  H   UNL     1       9.151   1.912   1.224  1.00  0.00     0.293 HD
ENDBRANCH   6  24
BRANCH   8  26
ATOM     26  O   UNL     1       3.570   1.059   1.457  1.00  0.00    -0.508 OA
ATOM     27  H   UNL     1       3.200   1.984   1.645  1.00  0.00     0.293 HD
ENDBRANCH   8  26
TORSDOF 6
ENDMDL
MODEL 4
REMARK VINA RESULT:    -6.436      2.062      3.872
REMARK INTER + INTRA:          -8.048
REMARK INTER:                  -7.871
REMARK INTRA:                  -0.177
REMARK UNBOUND:                -0.296
REMARK SMILES O=c1c(O)c(-c2ccc(O)c(O)c2)oc2cc(O)cc(O)c12
REMARK SMILES IDX 5 1 3 2 2 3 1 4 22 5 20 6 19 7 17 8 16 9 15 10 14 11 6 12
REMARK SMILES IDX 7 13 8 14 9 15 13 16 11 17 10 18 12 20 4 22 21 24 18 26
REMARK H PARENT 10 19 12 21 4 23 21 25 18 27
REMARK Flexibility Score: inf
ROOT
ATOM      1  C   UNL     1       6.241  -1.683   4.391  1.00  0.00     0.180 A 
ATOM      2  C   UNL     1       6.890  -2.913   4.599  1.00  0.00     0.208 A 
ATOM      3  C   UNL     1       6.483  -3.724   5.670  1.00  0.00     0.238 A 
ATOM      4  O   UNL     1       7.104  -4.799   5.884  1.00  0.00    -0.285 OA
ATOM      5  C   UNL     1       5.424  -3.304   6.511  1.00  0.00     0.111 A 
ATOM      6  C   UNL     1       4.903  -4.064   7.600  1.00  0.00     0.134 A 
ATOM      7  C   UNL     1       3.942  -3.493   8.444  1.00  0.00     0.093 A 
ATOM      8  C   UNL     1       3.437  -2.215   8.198  1.00  0.00     0.123 A 
ATOM      9  C   UNL     1       3.895  -1.489   7.101  1.00  0.00     0.094 A 
ATOM     10  C   UNL     1       4.879  -2.017   6.263  1.00  0.00     0.146 A 
ATOM     11  O   UNL     1       5.297  -1.287   5.235  1.00  0.00    -0.452 OA
ENDROOT
BRANCH   1  12
ATOM     12  C   UNL     1       6.598  -0.785   3.269  1.00  0.00     0.025 A 
ATOM     13  C   UNL     1       5.687  -0.599   2.218  1.00  0.00     0.016 A 
ATOM     14  C   UNL     1       6.011   0.227   1.138  1.00  0.00     0.051 A 
ATOM     15  C   UNL     1       7.253   0.865   1.084  1.00  0.00     0.157 A 
ATOM     16  C   UNL     1       7.856  -0.159   3.203  1.00  0.00     0.062 A 
ATOM     17  C   UNL     1       8.184   0.669   2.119  1.00  0.00     0.158 A 
BRANCH  15  18
ATOM     18  O   UNL     1       7.548   1.685  -0.005  1.00  0.00    -0.504 OA
ATOM     19  H   UNL     1       7.727   2.676   0.100  1.00  0.00     0.293 HD
ENDBRANCH  15  18
BRANCH  17  20
ATOM     20  O   UNL     1       9.431   1.291   2.064  1.00  0.00    -0.504 OA
ATOM     21  H   UNL     1       9.685   2.029   2.710  1.00  0.00     0.293 HD
ENDBRANCH  17  20
ENDBRANCH   1  12
BRANCH   2  22
ATOM     22  O   UNL     1       7.948  -3.299   3.771  1.00  0.00    -0.502 OA
ATOM     23  H   UNL     1       8.854  -2.847   3.799  1.00  0.00     0.293 HD
ENDBRANCH   2  22
BRANCH   6  24
ATOM     24  O   UNL     1       5.274  -5.383   7.879  1.00  0.00    -0.507 OA
ATOM     25  H   UNL     1       5.388  -6.107   7.186  1.00  0.00     0.293 HD
ENDBRANCH   6  24
BRANCH   8  26
ATOM     26  O   UNL     1       2.468  -1.660   9.032  1.00  0.00    -0.508 OA
ATOM     27  H   UNL     1       2.566  -1.678  10.041  1.00  0.00     0.293 HD
ENDBRANCH   8  26
TORSDOF 6
ENDMDL
MODEL 5
REMARK VINA RESULT:    -6.285      2.229      3.429
REMARK INTER + INTRA:          -7.867
REMARK INTER:                  -7.686
REMARK INTRA:                  -0.181
REMARK UNBOUND:                -0.296
REMARK SMILES O=c1c(O)c(-c2ccc(O)c(O)c2)oc2cc(O)cc(O)c12
REMARK SMILES IDX 5 1 3 2 2 3 1 4 22 5 20 6 19 7 17 8 16 9 15 10 14 11 6 12
REMARK SMILES IDX 7 13 8 14 9 15 13 16 11 17 10 18 12 20 4 22 21 24 18 26
REMARK H PARENT 10 19 12 21 4 23 21 25 18 27
REMARK Flexibility Score: inf
ROOT
ATOM      1  C   UNL     1       6.946  -0.332   4.488  1.00  0.00     0.180 A 
ATOM      2  C   UNL     1       6.943   0.326   5.731  1.00  0.00     0.208 A 
ATOM      3  C   UNL     1       7.054  -0.438   6.904  1.00  0.00     0.238 A 
ATOM      4  O   UNL     1       6.995   0.151   8.016  1.00  0.00    -0.285 OA
ATOM      5  C   UNL     1       7.181  -1.845   6.821  1.00  0.00     0.111 A 
ATOM      6  C   UNL     1       7.341  -2.712   7.943  1.00  0.00     0.134 A 
ATOM      7  C   UNL     1       7.326  -4.100   7.751  1.00  0.00     0.093 A 
ATOM      8  C   UNL     1       7.224  -4.648   6.471  1.00  0.00     0.123 A 
ATOM      9  C   UNL     1       7.130  -3.808   5.364  1.00  0.00     0.094 A 
ATOM     10  C   UNL     1       7.104  -2.421   5.527  1.00  0.00     0.146 A 
ATOM     11  O   UNL     1       7.001  -1.657   4.445  1.00  0.00    -0.452 OA
ENDROOT
BRANCH   1  12
ATOM     12  C   UNL     1       6.858   0.406   3.207  1.00  0.00     0.025 A 
ATOM     13  C   UNL     1       5.777   0.166   2.345  1.00  0.00     0.016 A 
ATOM     14  C   UNL     1       5.685   0.835   1.122  1.00  0.00     0.051 A 
ATOM     15  C   UNL     1       6.677   1.741   0.735  1.00  0.00     0.157 A 
ATOM     16  C   UNL     1       7.867   1.301   2.807  1.00  0.00     0.062 A 
ATOM     17  C   UNL     1       7.777   1.973   1.579  1.00  0.00     0.158 A 
BRANCH  15  18
ATOM     18  O   UNL     1       6.558   2.396  -0.490  1.00  0.00    -0.504 OA
ATOM     19  H   UNL     1       6.631   1.905  -1.373  1.00  0.00     0.293 HD
ENDBRANCH  15  18
BRANCH  17  20
ATOM     20  O   UNL     1       8.778   2.863   1.193  1.00  0.00    -0.504 OA
ATOM     21  H   UNL     1       9.484   3.185   1.845  1.00  0.00     0.293 HD
ENDBRANCH  17  20
ENDBRANCH   1  12
BRANCH   2  22
ATOM     22  O   UNL     1       6.794   1.714   5.793  1.00  0.00    -0.502 OA
ATOM     23  H   UNL     1       7.039   2.252   6.615  1.00  0.00     0.293 HD
ENDBRANCH   2  22
BRANCH   6  24
ATOM     24  O   UNL     1       7.541  -2.265   9.252  1.00  0.00    -0.507 OA
ATOM     25  H   UNL     1       7.082  -1.468   9.664  1.00  0.00     0.293 HD
ENDBRANCH   6  24
BRANCH   8  26
ATOM     26  O   UNL     1       7.227  -6.029   6.286  1.00  0.00    -0.508 OA
ATOM     27  H   UNL     1       6.385  -6.531   6.031  1.00  0.00     0.293 HD
ENDBRANCH   8  26
TORSDOF 6
ENDMDL
MODEL 6
REMARK VINA RESULT:    -6.118      2.309      4.833
REMARK INTER + INTRA:          -7.665
REMARK INTER:                  -7.400
REMARK INTRA:                  -0.266
REMARK UNBOUND:                -0.296
REMARK SMILES O=c1c(O)c(-c2ccc(O)c(O)c2)oc2cc(O)cc(O)c12
REMARK SMILES IDX 5 1 3 2 2 3 1 4 22 5 20 6 19 7 17 8 16 9 15 10 14 11 6 12
REMARK SMILES IDX 7 13 8 14 9 15 13 16 11 17 10 18 12 20 4 22 21 24 18 26
REMARK H PARENT 10 19 12 21 4 23 21 25 18 27
REMARK Flexibility Score: inf
ROOT
ATOM      1  C   UNL     1       6.223  -1.832   4.970  1.00  0.00     0.180 A 
ATOM      2  C   UNL     1       5.152  -1.432   5.789  1.00  0.00     0.208 A 
ATOM      3  C   UNL     1       4.797  -2.235   6.884  1.00  0.00     0.238 A 
ATOM      4  O   UNL     1       3.802  -1.900   7.581  1.00  0.00    -0.285 OA
ATOM      5  C   UNL     1       5.525  -3.418   7.157  1.00  0.00     0.111 A 
ATOM      6  C   UNL     1       5.278  -4.284   8.264  1.00  0.00     0.134 A 
ATOM      7  C   UNL     1       5.975  -5.495   8.363  1.00  0.00     0.093 A 
ATOM      8  C   UNL     1       6.956  -5.838   7.430  1.00  0.00     0.123 A 
ATOM      9  C   UNL     1       7.247  -4.970   6.380  1.00  0.00     0.094 A 
ATOM     10  C   UNL     1       6.543  -3.773   6.235  1.00  0.00     0.146 A 
ATOM     11  O   UNL     1       6.843  -2.980   5.213  1.00  0.00    -0.452 OA
ENDROOT
BRANCH   1  12
ATOM     12  C   UNL     1       6.671  -1.026   3.811  1.00  0.00     0.025 A 
ATOM     13  C   UNL     1       5.935  -1.064   2.617  1.00  0.00     0.016 A 
ATOM     14  C   UNL     1       6.352  -0.328   1.505  1.00  0.00     0.051 A 
ATOM     15  C   UNL     1       7.517   0.442   1.563  1.00  0.00     0.157 A 
ATOM     16  C   UNL     1       7.855  -0.268   3.862  1.00  0.00     0.062 A 
ATOM     17  C   UNL     1       8.277   0.470   2.745  1.00  0.00     0.158 A 
BRANCH  15  18
ATOM     18  O   UNL     1       7.908   1.168   0.438  1.00  0.00    -0.504 OA
ATOM     19  H   UNL     1       8.442   2.025   0.509  1.00  0.00     0.293 HD
ENDBRANCH  15  18
BRANCH  17  20
ATOM     20  O   UNL     1       9.447   1.224   2.805  1.00  0.00    -0.504 OA
ATOM     21  H   UNL     1      10.104   1.248   2.034  1.00  0.00     0.293 HD
ENDBRANCH  17  20
ENDBRANCH   1  12
BRANCH   2  22
ATOM     22  O   UNL     1       4.432  -0.272   5.488  1.00  0.00    -0.502 OA
ATOM     23  H   UNL     1       4.446   0.155   4.570  1.00  0.00     0.293 HD
ENDBRANCH   2  22
BRANCH   6  24
ATOM     24  O   UNL     1       4.384  -3.992   9.299  1.00  0.00    -0.507 OA
ATOM     25  H   UNL     1       3.410  -3.769   9.171  1.00  0.00     0.293 HD
ENDBRANCH   6  24
BRANCH   8  26
ATOM     26  O   UNL     1       7.657  -7.037   7.544  1.00  0.00    -0.508 OA
ATOM     27  H   UNL     1       8.518  -7.098   8.075  1.00  0.00     0.293 HD
ENDBRANCH   8  26
TORSDOF 6
ENDMDL
MODEL 7
REMARK VINA RESULT:    -6.028      2.702      4.227
REMARK INTER + INTRA:          -7.557
REMARK INTER:                  -7.840
REMARK INTRA:                   0.283
REMARK UNBOUND:                -0.296
REMARK SMILES O=c1c(O)c(-c2ccc(O)c(O)c2)oc2cc(O)cc(O)c12
REMARK SMILES IDX 5 1 3 2 2 3 1 4 22 5 20 6 19 7 17 8 16 9 15 10 14 11 6 12
REMARK SMILES IDX 7 13 8 14 9 15 13 16 11 17 10 18 12 20 4 22 21 24 18 26
REMARK H PARENT 10 19 12 21 4 23 21 25 18 27
REMARK Flexibility Score: inf
ROOT
ATOM      1  C   UNL     1       5.511  -0.051   4.793  1.00  0.00     0.180 A 
ATOM      2  C   UNL     1       6.379  -0.632   5.735  1.00  0.00     0.208 A 
ATOM      3  C   UNL     1       5.852  -1.100   6.948  1.00  0.00     0.238 A 
ATOM      4  O   UNL     1       6.642  -1.569   7.810  1.00  0.00    -0.285 OA
ATOM      5  C   UNL     1       4.462  -0.997   7.200  1.00  0.00     0.111 A 
ATOM      6  C   UNL     1       3.815  -1.475   8.378  1.00  0.00     0.134 A 
ATOM      7  C   UNL     1       2.456  -1.203   8.579  1.00  0.00     0.093 A 
ATOM      8  C   UNL     1       1.707  -0.527   7.612  1.00  0.00     0.123 A 
ATOM      9  C   UNL     1       2.318  -0.110   6.432  1.00  0.00     0.094 A 
ATOM     10  C   UNL     1       3.679  -0.334   6.220  1.00  0.00     0.146 A 
ATOM     11  O   UNL     1       4.224   0.091   5.086  1.00  0.00    -0.452 OA
ENDROOT
BRANCH   1  12
ATOM     12  C   UNL     1       5.988   0.443   3.481  1.00  0.00     0.025 A 
ATOM     13  C   UNL     1       5.144   0.359   2.363  1.00  0.00     0.016 A 
ATOM     14  C   UNL     1       5.582   0.799   1.111  1.00  0.00     0.051 A 
ATOM     15  C   UNL     1       6.872   1.314   0.954  1.00  0.00     0.157 A 
ATOM     16  C   UNL     1       7.294   0.940   3.317  1.00  0.00     0.062 A 
ATOM     17  C   UNL     1       7.736   1.381   2.061  1.00  0.00     0.158 A 
BRANCH  15  18
ATOM     18  O   UNL     1       7.281   1.747  -0.307  1.00  0.00    -0.504 OA
ATOM     19  H   UNL     1       6.638   2.165  -0.967  1.00  0.00     0.293 HD
ENDBRANCH  15  18
BRANCH  17  20
ATOM     20  O   UNL     1       9.029   1.879   1.908  1.00  0.00    -0.504 OA
ATOM     21  H   UNL     1       9.819   1.265   1.746  1.00  0.00     0.293 HD
ENDBRANCH  17  20
ENDBRANCH   1  12
BRANCH   2  22
ATOM     22  O   UNL     1       7.751  -0.704   5.475  1.00  0.00    -0.502 OA
ATOM     23  H   UNL     1       8.121  -0.877   4.549  1.00  0.00     0.293 HD
ENDBRANCH   2  22
BRANCH   6  24
ATOM     24  O   UNL     1       4.450  -2.239   9.362  1.00  0.00    -0.507 OA
ATOM     25  H   UNL     1       4.970  -3.085   9.187  1.00  0.00     0.293 HD
ENDBRANCH   6  24
BRANCH   8  26
ATOM     26  O   UNL     1       0.352  -0.274   7.811  1.00  0.00    -0.508 OA
ATOM     27  H   UNL     1       0.036   0.494   8.392  1.00  0.00     0.293 HD
ENDBRANCH   8  26
TORSDOF 6
ENDMDL
MODEL 8
REMARK VINA RESULT:    -5.916      2.238      7.070
REMARK INTER + INTRA:          -7.422
REMARK INTER:                  -7.185
REMARK INTRA:                  -0.237
REMARK UNBOUND:                -0.296
REMARK SMILES O=c1c(O)c(-c2ccc(O)c(O)c2)oc2cc(O)cc(O)c12
REMARK SMILES IDX 5 1 3 2 2 3 1 4 22 5 20 6 19 7 17 8 16 9 15 10 14 11 6 12
REMARK SMILES IDX 7 13 8 14 9 15 13 16 11 17 10 18 12 20 4 22 21 24 18 26
REMARK H PARENT 10 19 12 21 4 23 21 25 18 27
REMARK Flexibility Score: inf
ROOT
ATOM      1  C   UNL     1       5.690  -0.988   5.403  1.00  0.00     0.180 A 
ATOM      2  C   UNL     1       7.051  -1.005   5.758  1.00  0.00     0.208 A 
ATOM      3  C   UNL     1       7.986  -0.413   4.895  1.00  0.00     0.238 A 
ATOM      4  O   UNL     1       9.208  -0.480   5.191  1.00  0.00    -0.285 OA
ATOM      5  C   UNL     1       7.549   0.201   3.696  1.00  0.00     0.111 A 
ATOM      6  C   UNL     1       8.406   0.866   2.769  1.00  0.00     0.134 A 
ATOM      7  C   UNL     1       7.883   1.324   1.552  1.00  0.00     0.093 A 
ATOM      8  C   UNL     1       6.523   1.198   1.260  1.00  0.00     0.123 A 
ATOM      9  C   UNL     1       5.669   0.605   2.187  1.00  0.00     0.094 A 
ATOM     10  C   UNL     1       6.167   0.106   3.392  1.00  0.00     0.146 A 
ATOM     11  O   UNL     1       5.320  -0.463   4.242  1.00  0.00    -0.452 OA
ENDROOT
BRANCH   1  12
ATOM     12  C   UNL     1       4.642  -1.570   6.274  1.00  0.00     0.025 A 
ATOM     13  C   UNL     1       4.514  -2.965   6.362  1.00  0.00     0.016 A 
ATOM     14  C   UNL     1       3.519  -3.535   7.160  1.00  0.00     0.051 A 
ATOM     15  C   UNL     1       2.629  -2.722   7.869  1.00  0.00     0.157 A 
ATOM     16  C   UNL     1       3.732  -0.753   6.970  1.00  0.00     0.062 A 
ATOM     17  C   UNL     1       2.731  -1.324   7.770  1.00  0.00     0.158 A 
BRANCH  15  18
ATOM     18  O   UNL     1       1.647  -3.319   8.659  1.00  0.00    -0.504 OA
ATOM     19  H   UNL     1       1.796  -3.525   9.639  1.00  0.00     0.293 HD
ENDBRANCH  15  18
BRANCH  17  20
ATOM     20  O   UNL     1       1.838  -0.508   8.462  1.00  0.00    -0.504 OA
ATOM     21  H   UNL     1       1.838  -0.459   9.474  1.00  0.00     0.293 HD
ENDBRANCH  17  20
ENDBRANCH   1  12
BRANCH   2  22
ATOM     22  O   UNL     1       7.463  -1.636   6.935  1.00  0.00    -0.502 OA
ATOM     23  H   UNL     1       7.557  -1.142   7.814  1.00  0.00     0.293 HD
ENDBRANCH   2  22
BRANCH   6  24
ATOM     24  O   UNL     1       9.760   1.124   3.002  1.00  0.00    -0.507 OA
ATOM     25  H   UNL     1      10.267   0.831   3.823  1.00  0.00     0.293 HD
ENDBRANCH   6  24
BRANCH   8  26
ATOM     26  O   UNL     1       6.007   1.671   0.055  1.00  0.00    -0.508 OA
ATOM     27  H   UNL     1       6.406   2.478  -0.411  1.00  0.00     0.293 HD
ENDBRANCH   8  26
TORSDOF 6
ENDMDL
MODEL 9
REMARK VINA RESULT:    -5.890      2.332      3.308
REMARK INTER + INTRA:          -7.391
REMARK INTER:                  -7.328
REMARK INTRA:                  -0.063
REMARK UNBOUND:                -0.296
REMARK SMILES O=c1c(O)c(-c2ccc(O)c(O)c2)oc2cc(O)cc(O)c12
REMARK SMILES IDX 5 1 3 2 2 3 1 4 22 5 20 6 19 7 17 8 16 9 15 10 14 11 6 12
REMARK SMILES IDX 7 13 8 14 9 15 13 16 11 17 10 18 12 20 4 22 21 24 18 26
REMARK H PARENT 10 19 12 21 4 23 21 25 18 27
REMARK Flexibility Score: inf
ROOT
ATOM      1  C   UNL     1       7.630  -0.873   4.503  1.00  0.00     0.180 A 
ATOM      2  C   UNL     1       8.376  -0.254   5.523  1.00  0.00     0.208 A 
ATOM      3  C   UNL     1       8.799  -1.024   6.618  1.00  0.00     0.238 A 
ATOM      4  O   UNL     1       9.419  -0.452   7.554  1.00  0.00    -0.285 OA
ATOM      5  C   UNL     1       8.485  -2.403   6.675  1.00  0.00     0.111 A 
ATOM      6  C   UNL     1       8.899  -3.285   7.717  1.00  0.00     0.134 A 
ATOM      7  C   UNL     1       8.421  -4.602   7.737  1.00  0.00     0.093 A 
ATOM      8  C   UNL     1       7.599  -5.085   6.717  1.00  0.00     0.123 A 
ATOM      9  C   UNL     1       7.241  -4.248   5.663  1.00  0.00     0.094 A 
ATOM     10  C   UNL     1       7.671  -2.920   5.634  1.00  0.00     0.146 A 
ATOM     11  O   UNL     1       7.296  -2.153   4.617  1.00  0.00    -0.452 OA
ENDROOT
BRANCH   1  12
ATOM     12  C   UNL     1       7.169  -0.134   3.306  1.00  0.00     0.025 A 
ATOM     13  C   UNL     1       8.107   0.539   2.507  1.00  0.00     0.016 A 
ATOM     14  C   UNL     1       7.693   1.260   1.385  1.00  0.00     0.051 A 
ATOM     15  C   UNL     1       6.337   1.333   1.052  1.00  0.00     0.157 A 
ATOM     16  C   UNL     1       5.803  -0.042   2.982  1.00  0.00     0.062 A 
ATOM     17  C   UNL     1       5.385   0.684   1.857  1.00  0.00     0.158 A 
BRANCH  15  18
ATOM     18  O   UNL     1       5.953   2.059  -0.075  1.00  0.00    -0.504 OA
ATOM     19  H   UNL     1       5.915   1.642  -0.997  1.00  0.00     0.293 HD
ENDBRANCH  15  18
BRANCH  17  20
ATOM     20  O   UNL     1       4.030   0.766   1.539  1.00  0.00    -0.504 OA
ATOM     21  H   UNL     1       3.651   1.556   1.032  1.00  0.00     0.293 HD
ENDBRANCH  17  20
ENDBRANCH   1  12
BRANCH   2  22
ATOM     22  O   UNL     1       8.655   1.113   5.458  1.00  0.00    -0.502 OA
ATOM     23  H   UNL     1       9.098   1.541   4.655  1.00  0.00     0.293 HD
ENDBRANCH   2  22
BRANCH   6  24
ATOM     24  O   UNL     1       9.789  -2.929   8.734  1.00  0.00    -0.507 OA
ATOM     25  H   UNL     1      10.794  -2.966   8.657  1.00  0.00     0.293 HD
ENDBRANCH   6  24
BRANCH   8  26
ATOM     26  O   UNL     1       7.142  -6.401   6.735  1.00  0.00    -0.508 OA
ATOM     27  H   UNL     1       6.410  -6.699   7.370  1.00  0.00     0.293 HD
ENDBRANCH   8  26
TORSDOF 6
ENDMDL
