MODEL 1
REMARK VINA RESULT:    -7.167      0.000      0.000
REMARK INTER + INTRA:          -9.725
REMARK INTER:                  -9.891
REMARK INTRA:                   0.166
REMARK UNBOUND:                 0.166
REMARK SMILES C[C@@H]1OC(=O)[C@@H](C)[C@H]1C[C@H](O)[C@](C)(O)[C@@H]1CC[C@]2(O)C3=CC(=O)[C@@H]4C[C@@H](O)[C@H](O)C[C@]4(C)[C@@H]3CC[C@]12C
REMARK SMILES IDX 12 1 13 2 10 3 9 4 8 5 7 6 6 7 4 8 2 9 3 10 5 11 1 12 11 13
REMARK SMILES IDX 15 15 16 16 36 17 17 18 18 19 35 20 37 21 20 22 34 23 33 24
REMARK SMILES IDX 21 25 31 26 22 27 24 28 30 29 32 30 23 31 25 32 28 33 26 34
REMARK SMILES IDX 19 35 29 37 27 39 14 41
REMARK H PARENT 11 14 19 36 29 38 27 40 14 42
REMARK Flexibility Score: inf
ROOT
ATOM      1  C   UNL     1      22.619 -42.495 -13.672  1.00  0.00     0.091 C 
ATOM      2  C   UNL     1      23.693 -43.477 -13.117  1.00  0.00     0.045 C 
ENDROOT
BRANCH   1   3
ATOM      3  C   UNL     1      21.229 -43.246 -13.714  1.00  0.00     0.146 C 
BRANCH   3   4
ATOM      4  C   UNL     1      20.490 -43.200 -12.352  1.00  0.00     0.043 C 
BRANCH   4   5
ATOM      5  C   UNL     1      20.045 -44.592 -11.830  1.00  0.00     0.046 C 
ATOM      6  C   UNL     1      17.794 -43.373 -11.227  1.00  0.00     0.020 C 
ATOM      7  C   UNL     1      18.526 -44.702 -11.487  1.00  0.00     0.103 C 
ATOM      8  C   UNL     1      18.550 -45.497 -10.238  1.00  0.00     0.309 C 
ATOM      9  C   UNL     1      20.799 -45.054 -10.545  1.00  0.00     0.177 C 
ATOM     10  O   UNL     1      19.815 -45.657  -9.723  1.00  0.00    -0.462 OA
ATOM     11  O   UNL     1      17.527 -45.984  -9.690  1.00  0.00    -0.252 OA
ATOM     12  C   UNL     1      21.898 -46.078 -10.832  1.00  0.00     0.053 C 
ENDBRANCH   4   5
ENDBRANCH   3   4
BRANCH   3  13
ATOM     13  O   UNL     1      21.407 -44.600 -14.056  1.00  0.00    -0.390 OA
ATOM     14  H   UNL     1      21.506 -45.112 -13.212  1.00  0.00     0.211 HD
ENDBRANCH   3  13
ENDBRANCH   1   3
BRANCH   1  15
ATOM     15  C   UNL     1      22.987 -41.955 -15.136  1.00  0.00     0.032 C 
ATOM     16  C   UNL     1      22.329 -42.677 -16.330  1.00  0.00     0.010 C 
ATOM     17  C   UNL     1      24.489 -41.811 -15.559  1.00  0.00     0.006 C 
ATOM     18  C   UNL     1      23.163 -42.334 -17.567  1.00  0.00     0.041 C 
ATOM     19  C   UNL     1      24.347 -41.461 -17.085  1.00  0.00     0.092 C 
ATOM     20  C   UNL     1      25.293 -43.136 -15.293  1.00  0.00     0.011 C 
ATOM     21  C   UNL     1      25.189 -40.641 -14.805  1.00  0.00     0.015 C 
ATOM     22  C   UNL     1      25.616 -41.729 -17.908  1.00  0.00    -0.031 C 
ATOM     23  C   UNL     1      26.070 -43.700 -16.483  1.00  0.00     0.009 C 
ATOM     24  C   UNL     1      26.727 -42.596 -17.333  1.00  0.00     0.025 C 
ATOM     25  C   UNL     1      25.772 -41.126 -19.098  1.00  0.00     0.050 C 
ATOM     26  C   UNL     1      27.733 -43.166 -18.418  1.00  0.00    -0.013 C 
ATOM     27  C   UNL     1      27.025 -41.184 -19.852  1.00  0.00     0.159 C 
ATOM     28  C   UNL     1      28.200 -41.995 -19.353  1.00  0.00     0.070 C 
ATOM     29  C   UNL     1      27.061 -44.289 -19.275  1.00  0.00     0.042 C 
ATOM     30  C   UNL     1      28.972 -43.747 -17.674  1.00  0.00     0.013 C 
ATOM     31  O   UNL     1      27.135 -40.472 -20.888  1.00  0.00    -0.295 OA
ATOM     32  C   UNL     1      29.062 -42.489 -20.545  1.00  0.00     0.047 C 
ATOM     33  C   UNL     1      27.924 -44.758 -20.466  1.00  0.00     0.143 C 
ATOM     34  C   UNL     1      28.340 -43.574 -21.363  1.00  0.00     0.143 C 
BRANCH  19  35
ATOM     35  O   UNL     1      24.009 -40.086 -17.183  1.00  0.00    -0.385 OA
ATOM     36  H   UNL     1      24.200 -39.744 -18.093  1.00  0.00     0.211 HD
ENDBRANCH  19  35
BRANCH  33  37
ATOM     37  O   UNL     1      27.237 -45.729 -21.215  1.00  0.00    -0.390 OA
ATOM     38  H   UNL     1      26.974 -46.459 -20.596  1.00  0.00     0.211 HD
ENDBRANCH  33  37
BRANCH  34  39
ATOM     39  O   UNL     1      29.153 -44.014 -22.423  1.00  0.00    -0.390 OA
ATOM     40  H   UNL     1      28.771 -43.652 -23.266  1.00  0.00     0.211 HD
ENDBRANCH  34  39
ENDBRANCH   1  15
BRANCH   1  41
ATOM     41  O   UNL     1      22.528 -41.408 -12.779  1.00  0.00    -0.387 OA
ATOM     42  H   UNL     1      22.426 -41.762 -11.857  1.00  0.00     0.211 HD
ENDBRANCH   1  41
TORSDOF 9
ENDMDL
MODEL 2
REMARK VINA RESULT:    -7.136      7.257     10.408
REMARK INTER + INTRA:          -9.682
REMARK INTER:                  -9.128
REMARK INTRA:                  -0.554
REMARK UNBOUND:                 0.166
REMARK SMILES C[C@@H]1OC(=O)[C@@H](C)[C@H]1C[C@H](O)[C@](C)(O)[C@@H]1CC[C@]2(O)C3=CC(=O)[C@@H]4C[C@@H](O)[C@H](O)C[C@]4(C)[C@@H]3CC[C@]12C
REMARK SMILES IDX 12 1 13 2 10 3 9 4 8 5 7 6 6 7 4 8 2 9 3 10 5 11 1 12 11 13
REMARK SMILES IDX 15 15 16 16 36 17 17 18 18 19 35 20 37 21 20 22 34 23 33 24
REMARK SMILES IDX 21 25 31 26 22 27 24 28 30 29 32 30 23 31 25 32 28 33 26 34
REMARK SMILES IDX 19 35 29 37 27 39 14 41
REMARK H PARENT 11 14 19 36 29 38 27 40 14 42
REMARK Flexibility Score: inf
ROOT
ATOM      1  C   UNL     1      28.317 -33.186 -14.381  1.00  0.00     0.091 C 
ATOM      2  C   UNL     1      28.807 -32.700 -15.776  1.00  0.00     0.045 C 
ENDROOT
BRANCH   1   3
ATOM      3  C   UNL     1      28.923 -32.232 -13.276  1.00  0.00     0.146 C 
BRANCH   3   4
ATOM      4  C   UNL     1      28.274 -32.449 -11.885  1.00  0.00     0.043 C 
BRANCH   4   5
ATOM      5  C   UNL     1      27.555 -31.194 -11.323  1.00  0.00     0.046 C 
ATOM      6  C   UNL     1      28.630 -31.907  -9.032  1.00  0.00     0.020 C 
ATOM      7  C   UNL     1      27.980 -30.796  -9.874  1.00  0.00     0.103 C 
ATOM      8  C   UNL     1      26.684 -30.418  -9.267  1.00  0.00     0.309 C 
ATOM      9  C   UNL     1      26.001 -31.322 -11.282  1.00  0.00     0.177 C 
ATOM     10  O   UNL     1      25.603 -30.741 -10.053  1.00  0.00    -0.462 OA
ATOM     11  O   UNL     1      26.566 -29.857  -8.146  1.00  0.00    -0.252 OA
ATOM     12  C   UNL     1      25.309 -30.579 -12.426  1.00  0.00     0.053 C 
ENDBRANCH   4   5
ENDBRANCH   3   4
BRANCH   3  13
ATOM     13  O   UNL     1      28.732 -30.882 -13.629  1.00  0.00    -0.390 OA
ATOM     14  H   UNL     1      28.256 -30.863 -14.499  1.00  0.00     0.211 HD
ENDBRANCH   3  13
ENDBRANCH   1   3
BRANCH   1  15
ATOM     15  C   UNL     1      28.744 -34.702 -14.080  1.00  0.00     0.032 C 
ATOM     16  C   UNL     1      30.059 -35.194 -14.718  1.00  0.00     0.010 C 
ATOM     17  C   UNL     1      27.731 -35.866 -14.350  1.00  0.00     0.006 C 
ATOM     18  C   UNL     1      30.012 -36.723 -14.703  1.00  0.00     0.041 C 
ATOM     19  C   UNL     1      28.639 -37.127 -14.112  1.00  0.00     0.092 C 
ATOM     20  C   UNL     1      27.138 -35.788 -15.804  1.00  0.00     0.011 C 
ATOM     21  C   UNL     1      26.555 -35.854 -13.329  1.00  0.00     0.015 C 
ATOM     22  C   UNL     1      28.104 -38.414 -14.758  1.00  0.00    -0.031 C 
ATOM     23  C   UNL     1      27.255 -37.059 -16.646  1.00  0.00     0.009 C 
ATOM     24  C   UNL     1      27.016 -38.337 -15.818  1.00  0.00     0.025 C 
ATOM     25  C   UNL     1      28.543 -39.605 -14.318  1.00  0.00     0.050 C 
ATOM     26  C   UNL     1      26.889 -39.640 -16.713  1.00  0.00    -0.013 C 
ATOM     27  C   UNL     1      27.948 -40.870 -14.751  1.00  0.00     0.159 C 
ATOM     28  C   UNL     1      26.841 -40.902 -15.781  1.00  0.00     0.070 C 
ATOM     29  C   UNL     1      28.092 -39.762 -17.706  1.00  0.00     0.042 C 
ATOM     30  C   UNL     1      25.556 -39.550 -17.516  1.00  0.00     0.013 C 
ATOM     31  O   UNL     1      28.321 -41.933 -14.183  1.00  0.00    -0.295 OA
ATOM     32  C   UNL     1      26.879 -42.234 -16.576  1.00  0.00     0.047 C 
ATOM     33  C   UNL     1      28.125 -41.099 -18.477  1.00  0.00     0.143 C 
ATOM     34  C   UNL     1      28.095 -42.306 -17.516  1.00  0.00     0.143 C 
BRANCH  19  35
ATOM     35  O   UNL     1      28.751 -37.319 -12.709  1.00  0.00    -0.385 OA
ATOM     36  H   UNL     1      29.294 -38.124 -12.511  1.00  0.00     0.211 HD
ENDBRANCH  19  35
BRANCH  33  37
ATOM     37  O   UNL     1      29.256 -41.156 -19.309  1.00  0.00    -0.390 OA
ATOM     38  H   UNL     1      30.028 -40.801 -18.794  1.00  0.00     0.211 HD
ENDBRANCH  33  37
BRANCH  34  39
ATOM     39  O   UNL     1      28.092 -43.514 -18.236  1.00  0.00    -0.390 OA
ATOM     40  H   UNL     1      27.189 -43.625 -18.635  1.00  0.00     0.211 HD
ENDBRANCH  34  39
ENDBRANCH   1  15
BRANCH   1  41
ATOM     41  O   UNL     1      26.911 -33.081 -14.358  1.00  0.00    -0.387 OA
ATOM     42  H   UNL     1      26.657 -32.341 -13.745  1.00  0.00     0.211 HD
ENDBRANCH   1  41
TORSDOF 9
ENDMDL
MODEL 3
REMARK VINA RESULT:    -6.879      5.628      8.617
REMARK INTER + INTRA:          -9.328
REMARK INTER:                  -8.785
REMARK INTRA:                  -0.543
REMARK UNBOUND:                 0.166
REMARK SMILES C[C@@H]1OC(=O)[C@@H](C)[C@H]1C[C@H](O)[C@](C)(O)[C@@H]1CC[C@]2(O)C3=CC(=O)[C@@H]4C[C@@H](O)[C@H](O)C[C@]4(C)[C@@H]3CC[C@]12C
REMARK SMILES IDX 12 1 13 2 10 3 9 4 8 5 7 6 6 7 4 8 2 9 3 10 5 11 1 12 11 13
REMARK SMILES IDX 15 15 16 16 36 17 17 18 18 19 35 20 37 21 20 22 34 23 33 24
REMARK SMILES IDX 21 25 31 26 22 27 24 28 30 29 32 30 23 31 25 32 28 33 26 34
REMARK SMILES IDX 19 35 29 37 27 39 14 41
REMARK H PARENT 11 14 19 36 29 38 27 40 14 42
REMARK Flexibility Score: inf
ROOT
ATOM      1  C   UNL     1      26.346 -37.038 -13.918  1.00  0.00     0.091 C 
ATOM      2  C   UNL     1      25.164 -37.376 -12.963  1.00  0.00     0.045 C 
ENDROOT
BRANCH   1   3
ATOM      3  C   UNL     1      26.591 -35.477 -13.878  1.00  0.00     0.146 C 
BRANCH   3   4
ATOM      4  C   UNL     1      28.067 -35.117 -13.569  1.00  0.00     0.043 C 
BRANCH   4   5
ATOM      5  C   UNL     1      28.591 -33.884 -14.352  1.00  0.00     0.046 C 
ATOM      6  C   UNL     1      28.264 -32.609 -12.076  1.00  0.00     0.020 C 
ATOM      7  C   UNL     1      28.929 -32.646 -13.463  1.00  0.00     0.103 C 
ATOM      8  C   UNL     1      28.410 -31.528 -14.283  1.00  0.00     0.309 C 
ATOM      9  C   UNL     1      27.603 -33.361 -15.440  1.00  0.00     0.177 C 
ATOM     10  O   UNL     1      27.659 -31.948 -15.356  1.00  0.00    -0.462 OA
ATOM     11  O   UNL     1      28.623 -30.312 -14.037  1.00  0.00    -0.252 OA
ATOM     12  C   UNL     1      27.992 -33.787 -16.856  1.00  0.00     0.053 C 
ENDBRANCH   4   5
ENDBRANCH   3   4
BRANCH   3  13
ATOM     13  O   UNL     1      25.791 -34.875 -12.888  1.00  0.00    -0.390 OA
ATOM     14  H   UNL     1      26.323 -34.145 -12.475  1.00  0.00     0.211 HD
ENDBRANCH   3  13
ENDBRANCH   1   3
BRANCH   1  15
ATOM     15  C   UNL     1      26.061 -37.502 -15.426  1.00  0.00     0.032 C 
ATOM     16  C   UNL     1      24.762 -38.294 -15.677  1.00  0.00     0.010 C 
ATOM     17  C   UNL     1      27.153 -38.302 -16.215  1.00  0.00     0.006 C 
ATOM     18  C   UNL     1      24.936 -39.016 -17.015  1.00  0.00     0.041 C 
ATOM     19  C   UNL     1      26.365 -38.696 -17.518  1.00  0.00     0.092 C 
ATOM     20  C   UNL     1      27.666 -39.541 -15.394  1.00  0.00     0.011 C 
ATOM     21  C   UNL     1      28.373 -37.404 -16.579  1.00  0.00     0.015 C 
ATOM     22  C   UNL     1      26.973 -39.883 -18.280  1.00  0.00    -0.031 C 
ATOM     23  C   UNL     1      27.613 -40.890 -16.112  1.00  0.00     0.009 C 
ATOM     24  C   UNL     1      27.998 -40.780 -17.600  1.00  0.00     0.025 C 
ATOM     25  C   UNL     1      26.657 -40.070 -19.572  1.00  0.00     0.050 C 
ATOM     26  C   UNL     1      28.189 -42.192 -18.297  1.00  0.00    -0.013 C 
ATOM     27  C   UNL     1      27.333 -41.060 -20.412  1.00  0.00     0.159 C 
ATOM     28  C   UNL     1      28.387 -41.982 -19.840  1.00  0.00     0.070 C 
ATOM     29  C   UNL     1      26.952 -43.117 -18.045  1.00  0.00     0.042 C 
ATOM     30  C   UNL     1      29.468 -42.856 -17.706  1.00  0.00     0.013 C 
ATOM     31  O   UNL     1      27.078 -41.072 -21.647  1.00  0.00    -0.295 OA
ATOM     32  C   UNL     1      28.421 -43.319 -20.625  1.00  0.00     0.047 C 
ATOM     33  C   UNL     1      26.993 -44.435 -18.846  1.00  0.00     0.143 C 
ATOM     34  C   UNL     1      27.170 -44.174 -20.356  1.00  0.00     0.143 C 
BRANCH  19  35
ATOM     35  O   UNL     1      26.339 -37.559 -18.367  1.00  0.00    -0.385 OA
ATOM     36  H   UNL     1      25.406 -37.260 -18.519  1.00  0.00     0.211 HD
ENDBRANCH  19  35
BRANCH  33  37
ATOM     37  O   UNL     1      25.831 -45.189 -18.607  1.00  0.00    -0.390 OA
ATOM     38  H   UNL     1      25.876 -46.003 -19.173  1.00  0.00     0.211 HD
ENDBRANCH  33  37
BRANCH  34  39
ATOM     39  O   UNL     1      27.239 -45.386 -21.066  1.00  0.00    -0.390 OA
ATOM     40  H   UNL     1      26.539 -45.989 -20.701  1.00  0.00     0.211 HD
ENDBRANCH  34  39
ENDBRANCH   1  15
BRANCH   1  41
ATOM     41  O   UNL     1      27.494 -37.696 -13.433  1.00  0.00    -0.387 OA
ATOM     42  H   UNL     1      27.258 -38.168 -12.591  1.00  0.00     0.211 HD
ENDBRANCH   1  41
TORSDOF 9
ENDMDL
MODEL 4
REMARK VINA RESULT:    -6.745      6.277     10.359
REMARK INTER + INTRA:          -9.143
REMARK INTER:                  -8.687
REMARK INTRA:                  -0.456
REMARK UNBOUND:                 0.166
REMARK SMILES C[C@@H]1OC(=O)[C@@H](C)[C@H]1C[C@H](O)[C@](C)(O)[C@@H]1CC[C@]2(O)C3=CC(=O)[C@@H]4C[C@@H](O)[C@H](O)C[C@]4(C)[C@@H]3CC[C@]12C
REMARK SMILES IDX 12 1 13 2 10 3 9 4 8 5 7 6 6 7 4 8 2 9 3 10 5 11 1 12 11 13
REMARK SMILES IDX 15 15 16 16 36 17 17 18 18 19 35 20 37 21 20 22 34 23 33 24
REMARK SMILES IDX 21 25 31 26 22 27 24 28 30 29 32 30 23 31 25 32 28 33 26 34
REMARK SMILES IDX 19 35 29 37 27 39 14 41
REMARK H PARENT 11 14 19 36 29 38 27 40 14 42
REMARK Flexibility Score: inf
ROOT
ATOM      1  C   UNL     1      27.711 -40.277 -13.769  1.00  0.00     0.091 C 
ATOM      2  C   UNL     1      28.002 -40.483 -12.254  1.00  0.00     0.045 C 
ENDROOT
BRANCH   1   3
ATOM      3  C   UNL     1      28.167 -41.574 -14.548  1.00  0.00     0.146 C 
BRANCH   3   4
ATOM      4  C   UNL     1      27.623 -41.616 -15.998  1.00  0.00     0.043 C 
BRANCH   4   5
ATOM      5  C   UNL     1      28.175 -42.794 -16.844  1.00  0.00     0.046 C 
ATOM      6  C   UNL     1      28.602 -40.956 -18.675  1.00  0.00     0.020 C 
ATOM      7  C   UNL     1      28.923 -42.365 -18.146  1.00  0.00     0.103 C 
ATOM      8  C   UNL     1      28.446 -43.372 -19.121  1.00  0.00     0.309 C 
ATOM      9  C   UNL     1      27.082 -43.807 -17.305  1.00  0.00     0.177 C 
ATOM     10  O   UNL     1      27.411 -44.141 -18.642  1.00  0.00    -0.462 OA
ATOM     11  O   UNL     1      28.927 -43.522 -20.274  1.00  0.00    -0.252 OA
ATOM     12  C   UNL     1      27.061 -45.087 -16.468  1.00  0.00     0.053 C 
ENDBRANCH   4   5
ENDBRANCH   3   4
BRANCH   3  13
ATOM     13  O   UNL     1      27.713 -42.733 -13.889  1.00  0.00    -0.390 OA
ATOM     14  H   UNL     1      28.057 -42.703 -12.958  1.00  0.00     0.211 HD
ENDBRANCH   3  13
ENDBRANCH   1   3
BRANCH   1  15
ATOM     15  C   UNL     1      28.467 -38.995 -14.365  1.00  0.00     0.032 C 
ATOM     16  C   UNL     1      29.623 -38.415 -13.523  1.00  0.00     0.010 C 
ATOM     17  C   UNL     1      27.644 -37.735 -14.798  1.00  0.00     0.006 C 
ATOM     18  C   UNL     1      29.855 -36.985 -14.017  1.00  0.00     0.041 C 
ATOM     19  C   UNL     1      28.792 -36.706 -15.107  1.00  0.00     0.092 C 
ATOM     20  C   UNL     1      26.670 -37.261 -13.658  1.00  0.00     0.011 C 
ATOM     21  C   UNL     1      26.810 -38.008 -16.085  1.00  0.00     0.015 C 
ATOM     22  C   UNL     1      28.338 -35.239 -15.089  1.00  0.00    -0.031 C 
ATOM     23  C   UNL     1      26.776 -35.791 -13.251  1.00  0.00     0.009 C 
ATOM     24  C   UNL     1      27.005 -34.862 -14.459  1.00  0.00     0.025 C 
ATOM     25  C   UNL     1      29.085 -34.309 -15.707  1.00  0.00     0.050 C 
ATOM     26  C   UNL     1      26.871 -33.325 -14.093  1.00  0.00    -0.013 C 
ATOM     27  C   UNL     1      28.630 -32.930 -15.892  1.00  0.00     0.159 C 
ATOM     28  C   UNL     1      27.306 -32.461 -15.329  1.00  0.00     0.070 C 
ATOM     29  C   UNL     1      27.758 -32.961 -12.856  1.00  0.00     0.042 C 
ATOM     30  C   UNL     1      25.376 -33.032 -13.768  1.00  0.00     0.013 C 
ATOM     31  O   UNL     1      29.328 -32.159 -16.607  1.00  0.00    -0.295 OA
ATOM     32  C   UNL     1      27.362 -30.944 -15.008  1.00  0.00     0.047 C 
ATOM     33  C   UNL     1      27.815 -31.447 -12.560  1.00  0.00     0.143 C 
ATOM     34  C   UNL     1      28.266 -30.646 -13.799  1.00  0.00     0.143 C 
BRANCH  19  35
ATOM     35  O   UNL     1      29.316 -37.018 -16.389  1.00  0.00    -0.385 OA
ATOM     36  H   UNL     1      28.602 -36.981 -17.076  1.00  0.00     0.211 HD
ENDBRANCH  19  35
BRANCH  33  37
ATOM     37  O   UNL     1      28.667 -31.194 -11.471  1.00  0.00    -0.390 OA
ATOM     38  H   UNL     1      29.599 -31.174 -11.813  1.00  0.00     0.211 HD
ENDBRANCH  33  37
BRANCH  34  39
ATOM     39  O   UNL     1      28.280 -29.268 -13.522  1.00  0.00    -0.390 OA
ATOM     40  H   UNL     1      29.132 -29.063 -13.053  1.00  0.00     0.211 HD
ENDBRANCH  34  39
ENDBRANCH   1  15
BRANCH   1  41
ATOM     41  O   UNL     1      26.319 -40.114 -13.922  1.00  0.00    -0.387 OA
ATOM     42  H   UNL     1      25.860 -40.590 -13.181  1.00  0.00     0.211 HD
ENDBRANCH   1  41
TORSDOF 9
ENDMDL
MODEL 5
REMARK VINA RESULT:    -6.668      5.218      9.728
REMARK INTER + INTRA:          -9.036
REMARK INTER:                  -8.976
REMARK INTRA:                  -0.060
REMARK UNBOUND:                 0.166
REMARK SMILES C[C@@H]1OC(=O)[C@@H](C)[C@H]1C[C@H](O)[C@](C)(O)[C@@H]1CC[C@]2(O)C3=CC(=O)[C@@H]4C[C@@H](O)[C@H](O)C[C@]4(C)[C@@H]3CC[C@]12C
REMARK SMILES IDX 12 1 13 2 10 3 9 4 8 5 7 6 6 7 4 8 2 9 3 10 5 11 1 12 11 13
REMARK SMILES IDX 15 15 16 16 36 17 17 18 18 19 35 20 37 21 20 22 34 23 33 24
REMARK SMILES IDX 21 25 31 26 22 27 24 28 30 29 32 30 23 31 25 32 28 33 26 34
REMARK SMILES IDX 19 35 29 37 27 39 14 41
REMARK H PARENT 11 14 19 36 29 38 27 40 14 42
REMARK Flexibility Score: inf
ROOT
ATOM      1  C   UNL     1      27.634 -41.949 -14.024  1.00  0.00     0.091 C 
ATOM      2  C   UNL     1      28.497 -42.098 -12.737  1.00  0.00     0.045 C 
ENDROOT
BRANCH   1   3
ATOM      3  C   UNL     1      28.597 -41.966 -15.277  1.00  0.00     0.146 C 
BRANCH   3   4
ATOM      4  C   UNL     1      28.061 -42.861 -16.423  1.00  0.00     0.043 C 
BRANCH   4   5
ATOM      5  C   UNL     1      29.002 -42.937 -17.654  1.00  0.00     0.046 C 
ATOM      6  C   UNL     1      27.684 -40.818 -18.484  1.00  0.00     0.020 C 
ATOM      7  C   UNL     1      28.948 -41.689 -18.592  1.00  0.00     0.103 C 
ATOM      8  C   UNL     1      28.998 -42.312 -19.934  1.00  0.00     0.309 C 
ATOM      9  C   UNL     1      28.735 -44.165 -18.578  1.00  0.00     0.177 C 
ATOM     10  O   UNL     1      28.853 -43.679 -19.903  1.00  0.00    -0.462 OA
ATOM     11  O   UNL     1      29.156 -41.670 -21.006  1.00  0.00    -0.252 OA
ATOM     12  C   UNL     1      29.744 -45.297 -18.376  1.00  0.00     0.053 C 
ENDBRANCH   4   5
ENDBRANCH   3   4
BRANCH   3  13
ATOM     13  O   UNL     1      29.869 -42.450 -14.918  1.00  0.00    -0.390 OA
ATOM     14  H   UNL     1      29.748 -43.075 -14.156  1.00  0.00     0.211 HD
ENDBRANCH   3  13
ENDBRANCH   1   3
BRANCH   1  15
ATOM     15  C   UNL     1      26.769 -40.599 -14.024  1.00  0.00     0.032 C 
ATOM     16  C   UNL     1      26.259 -40.099 -15.391  1.00  0.00     0.010 C 
ATOM     17  C   UNL     1      27.334 -39.311 -13.334  1.00  0.00     0.006 C 
ATOM     18  C   UNL     1      25.904 -38.621 -15.216  1.00  0.00     0.041 C 
ATOM     19  C   UNL     1      26.265 -38.239 -13.760  1.00  0.00     0.092 C 
ATOM     20  C   UNL     1      28.787 -38.979 -13.834  1.00  0.00     0.011 C 
ATOM     21  C   UNL     1      27.360 -39.454 -11.783  1.00  0.00     0.015 C 
ATOM     22  C   UNL     1      26.763 -36.789 -13.664  1.00  0.00    -0.031 C 
ATOM     23  C   UNL     1      29.008 -37.561 -14.361  1.00  0.00     0.009 C 
ATOM     24  C   UNL     1      28.252 -36.502 -13.535  1.00  0.00     0.025 C 
ATOM     25  C   UNL     1      25.870 -35.787 -13.610  1.00  0.00     0.050 C 
ATOM     26  C   UNL     1      28.662 -35.016 -13.908  1.00  0.00    -0.013 C 
ATOM     27  C   UNL     1      26.258 -34.403 -13.334  1.00  0.00     0.159 C 
ATOM     28  C   UNL     1      27.710 -34.017 -13.161  1.00  0.00     0.070 C 
ATOM     29  C   UNL     1      28.571 -34.778 -15.452  1.00  0.00     0.042 C 
ATOM     30  C   UNL     1      30.125 -34.781 -13.428  1.00  0.00     0.013 C 
ATOM     31  O   UNL     1      25.346 -33.549 -13.158  1.00  0.00    -0.295 OA
ATOM     32  C   UNL     1      27.934 -32.543 -13.592  1.00  0.00     0.047 C 
ATOM     33  C   UNL     1      28.780 -33.304 -15.863  1.00  0.00     0.143 C 
ATOM     34  C   UNL     1      27.809 -32.367 -15.116  1.00  0.00     0.143 C 
BRANCH  19  35
ATOM     35  O   UNL     1      25.133 -38.401 -12.919  1.00  0.00    -0.385 OA
ATOM     36  H   UNL     1      24.902 -37.544 -12.477  1.00  0.00     0.211 HD
ENDBRANCH  19  35
BRANCH  33  37
ATOM     37  O   UNL     1      28.635 -33.160 -17.254  1.00  0.00    -0.390 OA
ATOM     38  H   UNL     1      27.664 -33.093 -17.452  1.00  0.00     0.211 HD
ENDBRANCH  33  37
BRANCH  34  39
ATOM     39  O   UNL     1      28.035 -31.027 -15.477  1.00  0.00    -0.390 OA
ATOM     40  H   UNL     1      27.170 -30.545 -15.406  1.00  0.00     0.211 HD
ENDBRANCH  34  39
ENDBRANCH   1  15
BRANCH   1  41
ATOM     41  O   UNL     1      26.770 -43.061 -14.093  1.00  0.00    -0.387 OA
ATOM     42  H   UNL     1      25.831 -42.736 -14.070  1.00  0.00     0.211 HD
ENDBRANCH   1  41
TORSDOF 9
ENDMDL
MODEL 6
REMARK VINA RESULT:    -6.606      1.617      2.471
REMARK INTER + INTRA:          -8.951
REMARK INTER:                  -8.492
REMARK INTRA:                  -0.460
REMARK UNBOUND:                 0.166
REMARK SMILES C[C@@H]1OC(=O)[C@@H](C)[C@H]1C[C@H](O)[C@](C)(O)[C@@H]1CC[C@]2(O)C3=CC(=O)[C@@H]4C[C@@H](O)[C@H](O)C[C@]4(C)[C@@H]3CC[C@]12C
REMARK SMILES IDX 12 1 13 2 10 3 9 4 8 5 7 6 6 7 4 8 2 9 3 10 5 11 1 12 11 13
REMARK SMILES IDX 15 15 16 16 36 17 17 18 18 19 35 20 37 21 20 22 34 23 33 24
REMARK SMILES IDX 21 25 31 26 22 27 24 28 30 29 32 30 23 31 25 32 28 33 26 34
REMARK SMILES IDX 19 35 29 37 27 39 14 41
REMARK H PARENT 11 14 19 36 29 38 27 40 14 42
REMARK Flexibility Score: inf
ROOT
ATOM      1  C   UNL     1      23.951 -43.179 -12.704  1.00  0.00     0.091 C 
ATOM      2  C   UNL     1      25.071 -44.232 -12.455  1.00  0.00     0.045 C 
ENDROOT
BRANCH   1   3
ATOM      3  C   UNL     1      22.554 -43.860 -12.421  1.00  0.00     0.146 C 
BRANCH   3   4
ATOM      4  C   UNL     1      21.576 -42.916 -11.675  1.00  0.00     0.043 C 
BRANCH   4   5
ATOM      5  C   UNL     1      20.235 -42.683 -12.419  1.00  0.00     0.046 C 
ATOM      6  C   UNL     1      21.287 -40.365 -13.079  1.00  0.00     0.020 C 
ATOM      7  C   UNL     1      20.223 -41.440 -13.364  1.00  0.00     0.103 C 
ATOM      8  C   UNL     1      18.879 -40.874 -13.111  1.00  0.00     0.309 C 
ATOM      9  C   UNL     1      19.011 -42.497 -11.470  1.00  0.00     0.177 C 
ATOM     10  O   UNL     1      18.238 -41.458 -12.043  1.00  0.00    -0.462 OA
ATOM     11  O   UNL     1      18.360 -39.952 -13.794  1.00  0.00    -0.252 OA
ATOM     12  C   UNL     1      18.144 -43.752 -11.358  1.00  0.00     0.053 C 
ENDBRANCH   4   5
ENDBRANCH   3   4
BRANCH   3  13
ATOM     13  O   UNL     1      22.715 -45.014 -11.632  1.00  0.00    -0.390 OA
ATOM     14  H   UNL     1      23.220 -45.678 -12.171  1.00  0.00     0.211 HD
ENDBRANCH   3  13
ENDBRANCH   1   3
BRANCH   1  15
ATOM     15  C   UNL     1      23.980 -42.603 -14.200  1.00  0.00     0.032 C 
ATOM     16  C   UNL     1      23.245 -43.428 -15.278  1.00  0.00     0.010 C 
ATOM     17  C   UNL     1      25.348 -42.237 -14.869  1.00  0.00     0.006 C 
ATOM     18  C   UNL     1      23.795 -42.974 -16.631  1.00  0.00     0.041 C 
ATOM     19  C   UNL     1      24.898 -41.926 -16.343  1.00  0.00     0.092 C 
ATOM     20  C   UNL     1      26.377 -43.421 -14.765  1.00  0.00     0.011 C 
ATOM     21  C   UNL     1      25.981 -40.967 -14.225  1.00  0.00     0.015 C 
ATOM     22  C   UNL     1      26.034 -42.006 -17.373  1.00  0.00    -0.031 C 
ATOM     23  C   UNL     1      27.016 -43.872 -16.079  1.00  0.00     0.009 C 
ATOM     24  C   UNL     1      27.345 -42.688 -17.009  1.00  0.00     0.025 C 
ATOM     25  C   UNL     1      25.892 -41.397 -18.562  1.00  0.00     0.050 C 
ATOM     26  C   UNL     1      28.227 -43.109 -18.259  1.00  0.00    -0.013 C 
ATOM     27  C   UNL     1      26.993 -41.271 -19.518  1.00  0.00     0.159 C 
ATOM     28  C   UNL     1      28.345 -41.889 -19.239  1.00  0.00     0.070 C 
ATOM     29  C   UNL     1      27.597 -44.329 -19.008  1.00  0.00     0.042 C 
ATOM     30  C   UNL     1      29.647 -43.488 -17.744  1.00  0.00     0.013 C 
ATOM     31  O   UNL     1      26.816 -40.561 -20.546  1.00  0.00    -0.295 OA
ATOM     32  C   UNL     1      29.056 -42.257 -20.568  1.00  0.00     0.047 C 
ATOM     33  C   UNL     1      28.305 -44.672 -20.336  1.00  0.00     0.143 C 
ATOM     34  C   UNL     1      28.379 -43.447 -21.270  1.00  0.00     0.143 C 
BRANCH  19  35
ATOM     35  O   UNL     1      24.343 -40.619 -16.359  1.00  0.00    -0.385 OA
ATOM     36  H   UNL     1      24.143 -40.338 -17.288  1.00  0.00     0.211 HD
ENDBRANCH  19  35
BRANCH  33  37
ATOM     37  O   UNL     1      27.656 -45.743 -20.974  1.00  0.00    -0.390 OA
ATOM     38  H   UNL     1      26.974 -45.361 -21.588  1.00  0.00     0.211 HD
ENDBRANCH  33  37
BRANCH  34  39
ATOM     39  O   UNL     1      29.056 -43.768 -22.460  1.00  0.00    -0.390 OA
ATOM     40  H   UNL     1      30.024 -43.603 -22.310  1.00  0.00     0.211 HD
ENDBRANCH  34  39
ENDBRANCH   1  15
BRANCH   1  41
ATOM     41  O   UNL     1      24.143 -42.124 -11.790  1.00  0.00    -0.387 OA
ATOM     42  H   UNL     1      23.741 -42.380 -10.919  1.00  0.00     0.211 HD
ENDBRANCH   1  41
TORSDOF 9
ENDMDL
MODEL 7
REMARK VINA RESULT:    -6.587      2.499     11.073
REMARK INTER + INTRA:          -8.924
REMARK INTER:                  -8.354
REMARK INTRA:                  -0.570
REMARK UNBOUND:                 0.166
REMARK SMILES C[C@@H]1OC(=O)[C@@H](C)[C@H]1C[C@H](O)[C@](C)(O)[C@@H]1CC[C@]2(O)C3=CC(=O)[C@@H]4C[C@@H](O)[C@H](O)C[C@]4(C)[C@@H]3CC[C@]12C
REMARK SMILES IDX 12 1 13 2 10 3 9 4 8 5 7 6 6 7 4 8 2 9 3 10 5 11 1 12 11 13
REMARK SMILES IDX 15 15 16 16 36 17 17 18 18 19 35 20 37 21 20 22 34 23 33 24
REMARK SMILES IDX 21 25 31 26 22 27 24 28 30 29 32 30 23 31 25 32 28 33 26 34
REMARK SMILES IDX 19 35 29 37 27 39 14 41
REMARK H PARENT 11 14 19 36 29 38 27 40 14 42
REMARK Flexibility Score: inf
ROOT
ATOM      1  C   UNL     1      24.885 -43.229 -11.789  1.00  0.00     0.091 C 
ATOM      2  C   UNL     1      25.086 -41.692 -11.931  1.00  0.00     0.045 C 
ENDROOT
BRANCH   1   3
ATOM      3  C   UNL     1      25.807 -43.954 -12.847  1.00  0.00     0.146 C 
BRANCH   3   4
ATOM      4  C   UNL     1      25.970 -43.133 -14.152  1.00  0.00     0.043 C 
BRANCH   4   5
ATOM      5  C   UNL     1      25.448 -43.857 -15.421  1.00  0.00     0.046 C 
ATOM      6  C   UNL     1      27.883 -43.481 -16.338  1.00  0.00     0.020 C 
ATOM      7  C   UNL     1      26.557 -44.254 -16.446  1.00  0.00     0.103 C 
ATOM      8  C   UNL     1      25.910 -43.935 -17.738  1.00  0.00     0.309 C 
ATOM      9  C   UNL     1      24.404 -43.030 -16.235  1.00  0.00     0.177 C 
ATOM     10  O   UNL     1      24.734 -43.236 -17.597  1.00  0.00    -0.462 OA
ATOM     11  O   UNL     1      26.375 -44.261 -18.862  1.00  0.00    -0.252 OA
ATOM     12  C   UNL     1      22.964 -43.489 -16.001  1.00  0.00     0.053 C 
ENDBRANCH   4   5
ENDBRANCH   3   4
BRANCH   3  13
ATOM     13  O   UNL     1      25.270 -45.207 -13.198  1.00  0.00    -0.390 OA
ATOM     14  H   UNL     1      24.573 -45.052 -13.888  1.00  0.00     0.211 HD
ENDBRANCH   3  13
ENDBRANCH   1   3
BRANCH   1  15
ATOM     15  C   UNL     1      23.359 -43.666 -12.012  1.00  0.00     0.032 C 
ATOM     16  C   UNL     1      22.370 -42.557 -12.426  1.00  0.00     0.010 C 
ATOM     17  C   UNL     1      22.600 -44.451 -10.888  1.00  0.00     0.006 C 
ATOM     18  C   UNL     1      20.966 -43.078 -12.115  1.00  0.00     0.041 C 
ATOM     19  C   UNL     1      21.135 -44.470 -11.459  1.00  0.00     0.092 C 
ATOM     20  C   UNL     1      22.719 -43.726  -9.497  1.00  0.00     0.011 C 
ATOM     21  C   UNL     1      23.136 -45.906 -10.740  1.00  0.00     0.015 C 
ATOM     22  C   UNL     1      20.054 -44.729 -10.399  1.00  0.00    -0.031 C 
ATOM     23  C   UNL     1      21.403 -43.441  -8.773  1.00  0.00     0.009 C 
ATOM     24  C   UNL     1      20.390 -44.593  -8.921  1.00  0.00     0.025 C 
ATOM     25  C   UNL     1      18.841 -45.159 -10.784  1.00  0.00     0.050 C 
ATOM     26  C   UNL     1      19.123 -44.427  -7.981  1.00  0.00    -0.013 C 
ATOM     27  C   UNL     1      17.824 -45.602  -9.830  1.00  0.00     0.159 C 
ATOM     28  C   UNL     1      18.069 -45.533  -8.338  1.00  0.00     0.070 C 
ATOM     29  C   UNL     1      18.479 -43.011  -8.146  1.00  0.00     0.042 C 
ATOM     30  C   UNL     1      19.585 -44.622  -6.506  1.00  0.00     0.013 C 
ATOM     31  O   UNL     1      16.768 -46.125 -10.279  1.00  0.00    -0.295 OA
ATOM     32  C   UNL     1      16.729 -45.350  -7.578  1.00  0.00     0.047 C 
ATOM     33  C   UNL     1      17.139 -42.850  -7.398  1.00  0.00     0.143 C 
ATOM     34  C   UNL     1      16.132 -43.948  -7.798  1.00  0.00     0.143 C 
BRANCH  19  35
ATOM     35  O   UNL     1      21.073 -45.486 -12.449  1.00  0.00    -0.385 OA
ATOM     36  H   UNL     1      21.380 -46.352 -12.079  1.00  0.00     0.211 HD
ENDBRANCH  19  35
BRANCH  33  37
ATOM     37  O   UNL     1      16.598 -41.574  -7.632  1.00  0.00    -0.390 OA
ATOM     38  H   UNL     1      17.069 -41.185  -8.416  1.00  0.00     0.211 HD
ENDBRANCH  33  37
BRANCH  34  39
ATOM     39  O   UNL     1      14.930 -43.806  -7.082  1.00  0.00    -0.390 OA
ATOM     40  H   UNL     1      14.865 -42.861  -6.786  1.00  0.00     0.211 HD
ENDBRANCH  34  39
ENDBRANCH   1  15
BRANCH   1  41
ATOM     41  O   UNL     1      25.295 -43.599 -10.492  1.00  0.00    -0.387 OA
ATOM     42  H   UNL     1      26.146 -44.107 -10.560  1.00  0.00     0.211 HD
ENDBRANCH   1  41
TORSDOF 9
ENDMDL
MODEL 8
REMARK VINA RESULT:    -6.579      6.406     10.137
REMARK INTER + INTRA:          -8.914
REMARK INTER:                  -8.223
REMARK INTRA:                  -0.690
REMARK UNBOUND:                 0.166
REMARK SMILES C[C@@H]1OC(=O)[C@@H](C)[C@H]1C[C@H](O)[C@](C)(O)[C@@H]1CC[C@]2(O)C3=CC(=O)[C@@H]4C[C@@H](O)[C@H](O)C[C@]4(C)[C@@H]3CC[C@]12C
REMARK SMILES IDX 12 1 13 2 10 3 9 4 8 5 7 6 6 7 4 8 2 9 3 10 5 11 1 12 11 13
REMARK SMILES IDX 15 15 16 16 36 17 17 18 18 19 35 20 37 21 20 22 34 23 33 24
REMARK SMILES IDX 21 25 31 26 22 27 24 28 30 29 32 30 23 31 25 32 28 33 26 34
REMARK SMILES IDX 19 35 29 37 27 39 14 41
REMARK H PARENT 11 14 19 36 29 38 27 40 14 42
REMARK Flexibility Score: inf
ROOT
ATOM      1  C   UNL     1      28.281 -40.259 -13.128  1.00  0.00     0.091 C 
ATOM      2  C   UNL     1      28.603 -40.291 -11.605  1.00  0.00     0.045 C 
ENDROOT
BRANCH   1   3
ATOM      3  C   UNL     1      28.876 -41.563 -13.792  1.00  0.00     0.146 C 
BRANCH   3   4
ATOM      4  C   UNL     1      27.797 -42.398 -14.528  1.00  0.00     0.043 C 
BRANCH   4   5
ATOM      5  C   UNL     1      27.736 -42.141 -16.057  1.00  0.00     0.046 C 
ATOM      6  C   UNL     1      25.131 -42.123 -15.703  1.00  0.00     0.020 C 
ATOM      7  C   UNL     1      26.326 -41.741 -16.594  1.00  0.00     0.103 C 
ATOM      8  C   UNL     1      26.252 -42.502 -17.861  1.00  0.00     0.309 C 
ATOM      9  C   UNL     1      28.180 -43.363 -16.920  1.00  0.00     0.177 C 
ATOM     10  O   UNL     1      27.274 -43.410 -18.008  1.00  0.00    -0.462 OA
ATOM     11  O   UNL     1      25.352 -42.347 -18.728  1.00  0.00    -0.252 OA
ATOM     12  C   UNL     1      29.601 -43.224 -17.467  1.00  0.00     0.053 C 
ENDBRANCH   4   5
ENDBRANCH   3   4
BRANCH   3  13
ATOM     13  O   UNL     1      29.464 -42.392 -12.818  1.00  0.00    -0.390 OA
ATOM     14  H   UNL     1      28.816 -43.114 -12.608  1.00  0.00     0.211 HD
ENDBRANCH   3  13
ENDBRANCH   1   3
BRANCH   1  15
ATOM     15  C   UNL     1      28.884 -38.960 -13.849  1.00  0.00     0.032 C 
ATOM     16  C   UNL     1      30.048 -38.243 -13.134  1.00  0.00     0.010 C 
ATOM     17  C   UNL     1      27.930 -37.796 -14.284  1.00  0.00     0.006 C 
ATOM     18  C   UNL     1      30.125 -36.832 -13.722  1.00  0.00     0.041 C 
ATOM     19  C   UNL     1      28.965 -36.703 -14.738  1.00  0.00     0.092 C 
ATOM     20  C   UNL     1      27.008 -37.332 -13.098  1.00  0.00     0.011 C 
ATOM     21  C   UNL     1      27.029 -38.210 -15.486  1.00  0.00     0.015 C 
ATOM     22  C   UNL     1      28.395 -35.276 -14.764  1.00  0.00    -0.031 C 
ATOM     23  C   UNL     1      27.024 -35.836 -12.782  1.00  0.00     0.009 C 
ATOM     24  C   UNL     1      27.086 -34.967 -14.053  1.00  0.00     0.025 C 
ATOM     25  C   UNL     1      29.016 -34.330 -15.488  1.00  0.00     0.050 C 
ATOM     26  C   UNL     1      26.855 -33.425 -13.761  1.00  0.00    -0.013 C 
ATOM     27  C   UNL     1      28.437 -33.005 -15.712  1.00  0.00     0.159 C 
ATOM     28  C   UNL     1      27.125 -32.606 -15.073  1.00  0.00     0.070 C 
ATOM     29  C   UNL     1      27.798 -32.920 -12.620  1.00  0.00     0.042 C 
ATOM     30  C   UNL     1      25.369 -33.229 -13.337  1.00  0.00     0.013 C 
ATOM     31  O   UNL     1      29.015 -32.227 -16.520  1.00  0.00    -0.295 OA
ATOM     32  C   UNL     1      27.080 -31.073 -14.840  1.00  0.00     0.047 C 
ATOM     33  C   UNL     1      27.753 -31.391 -12.412  1.00  0.00     0.143 C 
ATOM     34  C   UNL     1      28.044 -30.634 -13.724  1.00  0.00     0.143 C 
BRANCH  19  35
ATOM     35  O   UNL     1      29.417 -37.050 -16.039  1.00  0.00    -0.385 OA
ATOM     36  H   UNL     1      30.044 -36.364 -16.383  1.00  0.00     0.211 HD
ENDBRANCH  19  35
BRANCH  33  37
ATOM     37  O   UNL     1      28.659 -31.007 -11.408  1.00  0.00    -0.390 OA
ATOM     38  H   UNL     1      29.026 -31.835 -10.999  1.00  0.00     0.211 HD
ENDBRANCH  33  37
BRANCH  34  39
ATOM     39  O   UNL     1      27.966 -29.244 -13.524  1.00  0.00    -0.390 OA
ATOM     40  H   UNL     1      27.017 -28.975 -13.641  1.00  0.00     0.211 HD
ENDBRANCH  34  39
ENDBRANCH   1  15
BRANCH   1  41
ATOM     41  O   UNL     1      26.879 -40.268 -13.271  1.00  0.00    -0.387 OA
ATOM     42  H   UNL     1      26.645 -40.812 -14.069  1.00  0.00     0.211 HD
ENDBRANCH   1  41
TORSDOF 9
ENDMDL
MODEL 9
REMARK VINA RESULT:    -6.497      5.525      9.789
REMARK INTER + INTRA:          -8.801
REMARK INTER:                  -8.016
REMARK INTRA:                  -0.785
REMARK UNBOUND:                 0.166
REMARK SMILES C[C@@H]1OC(=O)[C@@H](C)[C@H]1C[C@H](O)[C@](C)(O)[C@@H]1CC[C@]2(O)C3=CC(=O)[C@@H]4C[C@@H](O)[C@H](O)C[C@]4(C)[C@@H]3CC[C@]12C
REMARK SMILES IDX 12 1 13 2 10 3 9 4 8 5 7 6 6 7 4 8 2 9 3 10 5 11 1 12 11 13
REMARK SMILES IDX 15 15 16 16 36 17 17 18 18 19 35 20 37 21 20 22 34 23 33 24
REMARK SMILES IDX 21 25 31 26 22 27 24 28 30 29 32 30 23 31 25 32 28 33 26 34
REMARK SMILES IDX 19 35 29 37 27 39 14 41
REMARK H PARENT 11 14 19 36 29 38 27 40 14 42
REMARK Flexibility Score: inf
ROOT
ATOM      1  C   UNL     1      25.102 -39.878 -18.042  1.00  0.00     0.091 C 
ATOM      2  C   UNL     1      23.632 -39.379 -18.160  1.00  0.00     0.045 C 
ENDROOT
BRANCH   1   3
ATOM      3  C   UNL     1      25.105 -41.455 -18.149  1.00  0.00     0.146 C 
BRANCH   3   4
ATOM      4  C   UNL     1      26.324 -42.094 -17.436  1.00  0.00     0.043 C 
BRANCH   4   5
ATOM      5  C   UNL     1      27.250 -42.906 -18.380  1.00  0.00     0.046 C 
ATOM      6  C   UNL     1      27.097 -44.766 -16.527  1.00  0.00     0.020 C 
ATOM      7  C   UNL     1      27.422 -44.408 -17.988  1.00  0.00     0.103 C 
ATOM      8  C   UNL     1      28.865 -44.627 -18.235  1.00  0.00     0.309 C 
ATOM      9  C   UNL     1      28.698 -42.335 -18.488  1.00  0.00     0.177 C 
ATOM     10  O   UNL     1      29.554 -43.463 -18.484  1.00  0.00    -0.462 OA
ATOM     11  O   UNL     1      29.421 -45.756 -18.221  1.00  0.00    -0.252 OA
ATOM     12  C   UNL     1      28.934 -41.541 -19.774  1.00  0.00     0.053 C 
ENDBRANCH   4   5
ENDBRANCH   3   4
BRANCH   3  13
ATOM     13  O   UNL     1      25.139 -41.860 -19.497  1.00  0.00    -0.390 OA
ATOM     14  H   UNL     1      25.576 -41.137 -20.017  1.00  0.00     0.211 HD
ENDBRANCH   3  13
ENDBRANCH   1   3
BRANCH   1  15
ATOM     15  C   UNL     1      25.790 -39.427 -16.666  1.00  0.00     0.032 C 
ATOM     16  C   UNL     1      24.846 -38.977 -15.531  1.00  0.00     0.010 C 
ATOM     17  C   UNL     1      26.918 -38.341 -16.677  1.00  0.00     0.006 C 
ATOM     18  C   UNL     1      25.695 -38.169 -14.546  1.00  0.00     0.041 C 
ATOM     19  C   UNL     1      27.124 -38.094 -15.137  1.00  0.00     0.092 C 
ATOM     20  C   UNL     1      26.472 -37.053 -17.462  1.00  0.00     0.011 C 
ATOM     21  C   UNL     1      28.233 -38.883 -17.312  1.00  0.00     0.015 C 
ATOM     22  C   UNL     1      27.801 -36.756 -14.804  1.00  0.00    -0.031 C 
ATOM     23  C   UNL     1      26.609 -35.728 -16.713  1.00  0.00     0.009 C 
ATOM     24  C   UNL     1      27.892 -35.665 -15.861  1.00  0.00     0.025 C 
ATOM     25  C   UNL     1      28.385 -36.593 -13.606  1.00  0.00     0.050 C 
ATOM     26  C   UNL     1      28.177 -34.218 -15.277  1.00  0.00    -0.013 C 
ATOM     27  C   UNL     1      29.206 -35.425 -13.283  1.00  0.00     0.159 C 
ATOM     28  C   UNL     1      29.383 -34.296 -14.275  1.00  0.00     0.070 C 
ATOM     29  C   UNL     1      26.918 -33.648 -14.543  1.00  0.00     0.042 C 
ATOM     30  C   UNL     1      28.560 -33.283 -16.462  1.00  0.00     0.013 C 
ATOM     31  O   UNL     1      29.835 -35.417 -12.190  1.00  0.00    -0.295 OA
ATOM     32  C   UNL     1      29.630 -32.956 -13.532  1.00  0.00     0.047 C 
ATOM     33  C   UNL     1      27.185 -32.324 -13.796  1.00  0.00     0.143 C 
ATOM     34  C   UNL     1      28.365 -32.458 -12.812  1.00  0.00     0.143 C 
BRANCH  19  35
ATOM     35  O   UNL     1      27.916 -39.158 -14.632  1.00  0.00    -0.385 OA
ATOM     36  H   UNL     1      28.865 -38.882 -14.560  1.00  0.00     0.211 HD
ENDBRANCH  19  35
BRANCH  33  37
ATOM     37  O   UNL     1      26.025 -31.901 -13.123  1.00  0.00    -0.390 OA
ATOM     38  H   UNL     1      25.702 -31.074 -13.569  1.00  0.00     0.211 HD
ENDBRANCH  33  37
BRANCH  34  39
ATOM     39  O   UNL     1      28.615 -31.235 -12.165  1.00  0.00    -0.390 OA
ATOM     40  H   UNL     1      27.831 -30.646 -12.320  1.00  0.00     0.211 HD
ENDBRANCH  34  39
ENDBRANCH   1  15
BRANCH   1  41
ATOM     41  O   UNL     1      25.826 -39.343 -19.126  1.00  0.00    -0.387 OA
ATOM     42  H   UNL     1      26.725 -39.765 -19.148  1.00  0.00     0.211 HD
ENDBRANCH   1  41
TORSDOF 9
ENDMDL
