MODEL 1
REMARK VINA RESULT:    -3.213      0.000      0.000
REMARK INTER + INTRA:          -4.852
REMARK INTER:                  -4.341
REMARK INTRA:                  -0.511
REMARK UNBOUND:                -0.511
REMARK SMILES [NH3+]CCCC[C@H]([NH3+])C(=O)[O-]
REMARK SMILES IDX 4 1 3 2 2 3 1 4 5 8 6 9 7 10 8 14 9 15 10 16
REMARK H PARENT 1 5 1 6 1 7 7 11 7 12 7 13
REMARK Flexibility Score: inf
ROOT
ATOM      1  C   UNL     1     178.169 163.272 167.375  1.00  0.00     0.012 C 
ENDROOT
BRANCH   1   2
ATOM      2  C   UNL     1     177.552 162.309 166.349  1.00  0.00     0.061 C 
BRANCH   2   3
ATOM      3  C   UNL     1     178.515 161.185 165.937  1.00  0.00     0.258 C 
BRANCH   3   4
ATOM      4  N   UNL     1     178.011 159.882 166.367  1.00  0.00    -0.358 N 
ATOM      5  H   UNL     1     177.474 159.446 165.583  1.00  0.00     0.344 HD
ATOM      6  H   UNL     1     178.808 159.254 166.621  1.00  0.00     0.344 HD
ATOM      7  H   UNL     1     177.374 159.996 167.189  1.00  0.00     0.344 HD
ENDBRANCH   3   4
ENDBRANCH   2   3
ENDBRANCH   1   2
BRANCH   1   8
ATOM      8  C   UNL     1     177.358 163.346 168.681  1.00  0.00     0.072 C 
BRANCH   8   9
ATOM      9  C   UNL     1     176.781 161.976 169.098  1.00  0.00     0.227 C 
BRANCH   9  10
ATOM     10  N   UNL     1     175.494 162.118 169.793  1.00  0.00    -0.350 N 
ATOM     11  H   UNL     1     174.696 161.979 169.131  1.00  0.00     0.345 HD
ATOM     12  H   UNL     1     175.426 161.422 170.570  1.00  0.00     0.345 HD
ATOM     13  H   UNL     1     175.423 163.072 170.218  1.00  0.00     0.345 HD
ENDBRANCH   9  10
BRANCH   9  14
ATOM     14  C   UNL     1     177.769 161.261 169.981  1.00  0.00     0.099 C 
ATOM     15  O   UNL     1     177.962 161.653 171.163  1.00  0.00    -0.544 OA
ATOM     16  O   UNL     1     178.459 160.152 169.506  1.00  0.00    -0.544 OA
ENDBRANCH   9  14
ENDBRANCH   8   9
ENDBRANCH   1   8
TORSDOF 7
ENDMDL
MODEL 2
REMARK VINA RESULT:    -3.193      3.087      4.108
REMARK INTER + INTRA:          -4.824
REMARK INTER:                  -4.718
REMARK INTRA:                  -0.105
REMARK UNBOUND:                -0.511
REMARK SMILES [NH3+]CCCC[C@H]([NH3+])C(=O)[O-]
REMARK SMILES IDX 4 1 3 2 2 3 1 4 5 8 6 9 7 10 8 14 9 15 10 16
REMARK H PARENT 1 5 1 6 1 7 7 11 7 12 7 13
REMARK Flexibility Score: inf
ROOT
ATOM      1  C   UNL     1     176.463 162.473 169.335  1.00  0.00     0.012 C 
ENDROOT
BRANCH   1   2
ATOM      2  C   UNL     1     176.931 161.900 170.682  1.00  0.00     0.061 C 
BRANCH   2   3
ATOM      3  C   UNL     1     178.356 161.329 170.619  1.00  0.00     0.258 C 
BRANCH   3   4
ATOM      4  N   UNL     1     178.345 159.877 170.793  1.00  0.00    -0.358 N 
ATOM      5  H   UNL     1     178.560 159.421 169.877  1.00  0.00     0.344 HD
ATOM      6  H   UNL     1     179.070 159.593 171.490  1.00  0.00     0.344 HD
ATOM      7  H   UNL     1     177.401 159.561 171.115  1.00  0.00     0.344 HD
ENDBRANCH   3   4
ENDBRANCH   2   3
ENDBRANCH   1   2
BRANCH   1   8
ATOM      8  C   UNL     1     177.243 161.894 168.142  1.00  0.00     0.072 C 
BRANCH   8   9
ATOM      9  C   UNL     1     178.032 162.974 167.369  1.00  0.00     0.227 C 
BRANCH   9  10
ATOM     10  N   UNL     1     177.424 164.303 167.520  1.00  0.00    -0.350 N 
ATOM     11  H   UNL     1     176.380 164.240 167.486  1.00  0.00     0.345 HD
ATOM     12  H   UNL     1     177.717 164.732 168.427  1.00  0.00     0.345 HD
ATOM     13  H   UNL     1     177.754 164.934 166.753  1.00  0.00     0.345 HD
ENDBRANCH   9  10
BRANCH   9  14
ATOM     14  C   UNL     1     178.101 162.600 165.912  1.00  0.00     0.099 C 
ATOM     15  O   UNL     1     179.041 163.027 165.192  1.00  0.00    -0.544 OA
ATOM     16  O   UNL     1     177.138 161.764 165.358  1.00  0.00    -0.544 OA
ENDBRANCH   9  14
ENDBRANCH   8   9
ENDBRANCH   1   8
TORSDOF 7
ENDMDL
MODEL 3
REMARK VINA RESULT:    -3.166      2.148      2.537
REMARK INTER + INTRA:          -4.787
REMARK INTER:                  -4.642
REMARK INTRA:                  -0.145
REMARK UNBOUND:                -0.511
REMARK SMILES [NH3+]CCCC[C@H]([NH3+])C(=O)[O-]
REMARK SMILES IDX 4 1 3 2 2 3 1 4 5 8 6 9 7 10 8 14 9 15 10 16
REMARK H PARENT 1 5 1 6 1 7 7 11 7 12 7 13
REMARK Flexibility Score: inf
ROOT
ATOM      1  C   UNL     1     178.030 161.180 166.676  1.00  0.00     0.012 C 
ENDROOT
BRANCH   1   2
ATOM      2  C   UNL     1     177.512 161.951 165.452  1.00  0.00     0.061 C 
BRANCH   2   3
ATOM      3  C   UNL     1     177.254 161.038 164.243  1.00  0.00     0.258 C 
BRANCH   3   4
ATOM      4  N   UNL     1     175.821 160.917 163.977  1.00  0.00    -0.358 N 
ATOM      5  H   UNL     1     175.549 159.909 164.018  1.00  0.00     0.344 HD
ATOM      6  H   UNL     1     175.277 161.443 164.699  1.00  0.00     0.344 HD
ATOM      7  H   UNL     1     175.600 161.290 163.026  1.00  0.00     0.344 HD
ENDBRANCH   3   4
ENDBRANCH   2   3
ENDBRANCH   1   2
BRANCH   1   8
ATOM      8  C   UNL     1     178.406 162.108 167.845  1.00  0.00     0.072 C 
BRANCH   8   9
ATOM      9  C   UNL     1     177.278 163.103 168.197  1.00  0.00     0.227 C 
BRANCH   9  10
ATOM     10  N   UNL     1     177.802 164.456 168.430  1.00  0.00    -0.350 N 
ATOM     11  H   UNL     1     177.035 165.166 168.376  1.00  0.00     0.345 HD
ATOM     12  H   UNL     1     178.258 164.509 169.369  1.00  0.00     0.345 HD
ATOM     13  H   UNL     1     178.530 164.684 167.713  1.00  0.00     0.345 HD
ENDBRANCH   9  10
BRANCH   9  14
ATOM     14  C   UNL     1     176.542 162.618 169.418  1.00  0.00     0.099 C 
ATOM     15  O   UNL     1     177.092 161.810 170.211  1.00  0.00    -0.544 OA
ATOM     16  O   UNL     1     175.257 163.074 169.688  1.00  0.00    -0.544 OA
ENDBRANCH   9  14
ENDBRANCH   8   9
ENDBRANCH   1   8
TORSDOF 7
ENDMDL
MODEL 4
REMARK VINA RESULT:    -3.144     21.887     23.100
REMARK INTER + INTRA:          -4.758
REMARK INTER:                  -4.292
REMARK INTRA:                  -0.466
REMARK UNBOUND:                -0.511
REMARK SMILES [NH3+]CCCC[C@H]([NH3+])C(=O)[O-]
REMARK SMILES IDX 4 1 3 2 2 3 1 4 5 8 6 9 7 10 8 14 9 15 10 16
REMARK H PARENT 1 5 1 6 1 7 7 11 7 12 7 13
REMARK Flexibility Score: inf
ROOT
ATOM      1  C   UNL     1     160.133 177.769 167.573  1.00  0.00     0.012 C 
ENDROOT
BRANCH   1   2
ATOM      2  C   UNL     1     159.600 177.341 168.950  1.00  0.00     0.061 C 
BRANCH   2   3
ATOM      3  C   UNL     1     159.683 178.467 169.993  1.00  0.00     0.258 C 
BRANCH   3   4
ATOM      4  N   UNL     1     160.654 178.140 171.037  1.00  0.00    -0.358 N 
ATOM      5  H   UNL     1     160.786 177.103 171.069  1.00  0.00     0.344 HD
ATOM      6  H   UNL     1     161.574 178.591 170.826  1.00  0.00     0.344 HD
ATOM      7  H   UNL     1     160.304 178.465 171.967  1.00  0.00     0.344 HD
ENDBRANCH   3   4
ENDBRANCH   2   3
ENDBRANCH   1   2
BRANCH   1   8
ATOM      8  C   UNL     1     161.157 178.914 167.664  1.00  0.00     0.072 C 
BRANCH   8   9
ATOM      9  C   UNL     1     162.561 178.495 167.176  1.00  0.00     0.227 C 
BRANCH   9  10
ATOM     10  N   UNL     1     162.539 177.176 166.529  1.00  0.00    -0.350 N 
ATOM     11  H   UNL     1     161.557 176.880 166.319  1.00  0.00     0.345 HD
ATOM     12  H   UNL     1     163.092 177.200 165.642  1.00  0.00     0.345 HD
ATOM     13  H   UNL     1     162.982 176.465 167.157  1.00  0.00     0.345 HD
ENDBRANCH   9  10
BRANCH   9  14
ATOM     14  C   UNL     1     163.516 178.483 168.340  1.00  0.00     0.099 C 
ATOM     15  O   UNL     1     163.107 178.762 169.497  1.00  0.00    -0.544 OA
ATOM     16  O   UNL     1     164.850 178.143 168.147  1.00  0.00    -0.544 OA
ENDBRANCH   9  14
ENDBRANCH   8   9
ENDBRANCH   1   8
TORSDOF 7
ENDMDL
MODEL 5
REMARK VINA RESULT:    -3.099      2.214      3.863
REMARK INTER + INTRA:          -4.697
REMARK INTER:                  -4.194
REMARK INTRA:                  -0.503
REMARK UNBOUND:                -0.511
REMARK SMILES [NH3+]CCCC[C@H]([NH3+])C(=O)[O-]
REMARK SMILES IDX 4 1 3 2 2 3 1 4 5 8 6 9 7 10 8 14 9 15 10 16
REMARK H PARENT 1 5 1 6 1 7 7 11 7 12 7 13
REMARK Flexibility Score: inf
ROOT
ATOM      1  C   UNL     1     178.957 160.973 168.894  1.00  0.00     0.012 C 
ENDROOT
BRANCH   1   2
ATOM      2  C   UNL     1     178.694 160.095 170.128  1.00  0.00     0.061 C 
BRANCH   2   3
ATOM      3  C   UNL     1     178.344 160.919 171.377  1.00  0.00     0.258 C 
BRANCH   3   4
ATOM      4  N   UNL     1     176.895 161.044 171.530  1.00  0.00    -0.358 N 
ATOM      5  H   UNL     1     176.585 160.462 172.342  1.00  0.00     0.344 HD
ATOM      6  H   UNL     1     176.638 162.041 171.712  1.00  0.00     0.344 HD
ATOM      7  H   UNL     1     176.412 160.705 170.667  1.00  0.00     0.344 HD
ENDBRANCH   3   4
ENDBRANCH   2   3
ENDBRANCH   1   2
BRANCH   1   8
ATOM      8  C   UNL     1     177.807 160.920 167.873  1.00  0.00     0.072 C 
BRANCH   8   9
ATOM      9  C   UNL     1     177.374 162.324 167.395  1.00  0.00     0.227 C 
BRANCH   9  10
ATOM     10  N   UNL     1     178.390 162.940 166.530  1.00  0.00    -0.350 N 
ATOM     11  H   UNL     1     178.766 162.245 165.844  1.00  0.00     0.345 HD
ATOM     12  H   UNL     1     177.980 163.751 166.015  1.00  0.00     0.345 HD
ATOM     13  H   UNL     1     179.180 163.304 167.114  1.00  0.00     0.345 HD
ENDBRANCH   9  10
BRANCH   9  14
ATOM     14  C   UNL     1     177.111 163.203 168.589  1.00  0.00     0.099 C 
ATOM     15  O   UNL     1     177.859 164.187 168.829  1.00  0.00    -0.544 OA
ATOM     16  O   UNL     1     176.027 162.947 169.421  1.00  0.00    -0.544 OA
ENDBRANCH   9  14
ENDBRANCH   8   9
ENDBRANCH   1   8
TORSDOF 7
ENDMDL
MODEL 6
REMARK VINA RESULT:    -3.096     21.660     22.669
REMARK INTER + INTRA:          -4.692
REMARK INTER:                  -4.333
REMARK INTRA:                  -0.360
REMARK UNBOUND:                -0.511
REMARK SMILES [NH3+]CCCC[C@H]([NH3+])C(=O)[O-]
REMARK SMILES IDX 4 1 3 2 2 3 1 4 5 8 6 9 7 10 8 14 9 15 10 16
REMARK H PARENT 1 5 1 6 1 7 7 11 7 12 7 13
REMARK Flexibility Score: inf
ROOT
ATOM      1  C   UNL     1     160.147 178.042 168.756  1.00  0.00     0.012 C 
ENDROOT
BRANCH   1   2
ATOM      2  C   UNL     1     159.553 177.072 167.723  1.00  0.00     0.061 C 
BRANCH   2   3
ATOM      3  C   UNL     1     160.210 177.204 166.340  1.00  0.00     0.258 C 
BRANCH   3   4
ATOM      4  N   UNL     1     160.952 175.992 165.997  1.00  0.00    -0.358 N 
ATOM      5  H   UNL     1     161.948 176.243 165.803  1.00  0.00     0.344 HD
ATOM      6  H   UNL     1     160.923 175.315 166.794  1.00  0.00     0.344 HD
ATOM      7  H   UNL     1     160.542 175.549 165.143  1.00  0.00     0.344 HD
ENDBRANCH   3   4
ENDBRANCH   2   3
ENDBRANCH   1   2
BRANCH   1   8
ATOM      8  C   UNL     1     161.381 178.791 168.225  1.00  0.00     0.072 C 
BRANCH   8   9
ATOM      9  C   UNL     1     162.702 178.250 168.814  1.00  0.00     0.227 C 
BRANCH   9  10
ATOM     10  N   UNL     1     163.130 179.023 169.989  1.00  0.00    -0.350 N 
ATOM     11  H   UNL     1     164.153 178.896 170.165  1.00  0.00     0.345 HD
ATOM     12  H   UNL     1     162.924 180.037 169.846  1.00  0.00     0.345 HD
ATOM     13  H   UNL     1     162.597 178.709 170.834  1.00  0.00     0.345 HD
ENDBRANCH   9  10
BRANCH   9  14
ATOM     14  C   UNL     1     163.775 178.282 167.758  1.00  0.00     0.099 C 
ATOM     15  O   UNL     1     163.513 177.928 166.578  1.00  0.00    -0.544 OA
ATOM     16  O   UNL     1     165.055 178.724 168.072  1.00  0.00    -0.544 OA
ENDBRANCH   9  14
ENDBRANCH   8   9
ENDBRANCH   1   8
TORSDOF 7
ENDMDL
MODEL 7
REMARK VINA RESULT:    -3.090     21.913     22.898
REMARK INTER + INTRA:          -4.685
REMARK INTER:                  -4.136
REMARK INTRA:                  -0.549
REMARK UNBOUND:                -0.511
REMARK SMILES [NH3+]CCCC[C@H]([NH3+])C(=O)[O-]
REMARK SMILES IDX 4 1 3 2 2 3 1 4 5 8 6 9 7 10 8 14 9 15 10 16
REMARK H PARENT 1 5 1 6 1 7 7 11 7 12 7 13
REMARK Flexibility Score: inf
ROOT
ATOM      1  C   UNL     1     164.005 178.670 167.025  1.00  0.00     0.012 C 
ENDROOT
BRANCH   1   2
ATOM      2  C   UNL     1     164.351 178.061 168.393  1.00  0.00     0.061 C 
BRANCH   2   3
ATOM      3  C   UNL     1     163.672 178.797 169.558  1.00  0.00     0.258 C 
BRANCH   3   4
ATOM      4  N   UNL     1     162.420 178.140 169.931  1.00  0.00    -0.358 N 
ATOM      5  H   UNL     1     162.226 177.363 169.259  1.00  0.00     0.344 HD
ATOM      6  H   UNL     1     162.497 177.741 170.895  1.00  0.00     0.344 HD
ATOM      7  H   UNL     1     161.630 178.824 169.893  1.00  0.00     0.344 HD
ENDBRANCH   3   4
ENDBRANCH   2   3
ENDBRANCH   1   2
BRANCH   1   8
ATOM      8  C   UNL     1     163.002 177.814 166.231  1.00  0.00     0.072 C 
BRANCH   8   9
ATOM      9  C   UNL     1     161.622 178.494 166.092  1.00  0.00     0.227 C 
BRANCH   9  10
ATOM     10  N   UNL     1     161.613 179.834 166.696  1.00  0.00    -0.350 N 
ATOM     11  H   UNL     1     162.270 179.879 167.510  1.00  0.00     0.345 HD
ATOM     12  H   UNL     1     161.888 180.550 165.987  1.00  0.00     0.345 HD
ATOM     13  H   UNL     1     160.647 180.069 167.024  1.00  0.00     0.345 HD
ENDBRANCH   9  10
BRANCH   9  14
ATOM     14  C   UNL     1     160.569 177.631 166.735  1.00  0.00     0.099 C 
ATOM     15  O   UNL     1     160.079 176.656 166.107  1.00  0.00    -0.544 OA
ATOM     16  O   UNL     1     160.147 177.892 168.033  1.00  0.00    -0.544 OA
ENDBRANCH   9  14
ENDBRANCH   8   9
ENDBRANCH   1   8
TORSDOF 7
ENDMDL
MODEL 8
REMARK VINA RESULT:    -3.048     22.232     22.978
REMARK INTER + INTRA:          -4.628
REMARK INTER:                  -4.217
REMARK INTRA:                  -0.411
REMARK UNBOUND:                -0.511
REMARK SMILES [NH3+]CCCC[C@H]([NH3+])C(=O)[O-]
REMARK SMILES IDX 4 1 3 2 2 3 1 4 5 8 6 9 7 10 8 14 9 15 10 16
REMARK H PARENT 1 5 1 6 1 7 7 11 7 12 7 13
REMARK Flexibility Score: inf
ROOT
ATOM      1  C   UNL     1     162.970 178.262 167.263  1.00  0.00     0.012 C 
ENDROOT
BRANCH   1   2
ATOM      2  C   UNL     1     162.878 177.535 165.912  1.00  0.00     0.061 C 
BRANCH   2   3
ATOM      3  C   UNL     1     161.428 177.253 165.489  1.00  0.00     0.258 C 
BRANCH   3   4
ATOM      4  N   UNL     1     161.036 175.890 165.846  1.00  0.00    -0.358 N 
ATOM      5  H   UNL     1     159.994 175.837 165.907  1.00  0.00     0.344 HD
ATOM      6  H   UNL     1     161.365 175.218 165.114  1.00  0.00     0.344 HD
ATOM      7  H   UNL     1     161.444 175.630 166.773  1.00  0.00     0.344 HD
ENDBRANCH   3   4
ENDBRANCH   2   3
ENDBRANCH   1   2
BRANCH   1   8
ATOM      8  C   UNL     1     161.620 178.847 167.714  1.00  0.00     0.072 C 
BRANCH   8   9
ATOM      9  C   UNL     1     161.349 178.621 169.218  1.00  0.00     0.227 C 
BRANCH   9  10
ATOM     10  N   UNL     1     162.406 177.817 169.845  1.00  0.00    -0.350 N 
ATOM     11  H   UNL     1     162.815 177.140 169.160  1.00  0.00     0.345 HD
ATOM     12  H   UNL     1     163.162 178.439 170.213  1.00  0.00     0.345 HD
ATOM     13  H   UNL     1     162.014 177.285 170.657  1.00  0.00     0.345 HD
ENDBRANCH   9  10
BRANCH   9  14
ATOM     14  C   UNL     1     160.014 177.945 169.392  1.00  0.00     0.099 C 
ATOM     15  O   UNL     1     159.255 178.276 170.340  1.00  0.00    -0.544 OA
ATOM     16  O   UNL     1     159.603 176.966 168.495  1.00  0.00    -0.544 OA
ENDBRANCH   9  14
ENDBRANCH   8   9
ENDBRANCH   1   8
TORSDOF 7
ENDMDL
MODEL 9
REMARK VINA RESULT:    -3.002     21.884     23.029
REMARK INTER + INTRA:          -4.565
REMARK INTER:                  -4.136
REMARK INTRA:                  -0.429
REMARK UNBOUND:                -0.511
REMARK SMILES [NH3+]CCCC[C@H]([NH3+])C(=O)[O-]
REMARK SMILES IDX 4 1 3 2 2 3 1 4 5 8 6 9 7 10 8 14 9 15 10 16
REMARK H PARENT 1 5 1 6 1 7 7 11 7 12 7 13
REMARK Flexibility Score: inf
ROOT
ATOM      1  C   UNL     1     160.335 178.032 167.655  1.00  0.00     0.012 C 
ENDROOT
BRANCH   1   2
ATOM      2  C   UNL     1     160.066 178.678 169.024  1.00  0.00     0.061 C 
BRANCH   2   3
ATOM      3  C   UNL     1     160.723 177.909 170.181  1.00  0.00     0.258 C 
BRANCH   3   4
ATOM      4  N   UNL     1     162.178 178.042 170.136  1.00  0.00    -0.358 N 
ATOM      5  H   UNL     1     162.603 177.103 169.960  1.00  0.00     0.344 HD
ATOM      6  H   UNL     1     162.456 178.689 169.362  1.00  0.00     0.344 HD
ATOM      7  H   UNL     1     162.534 178.409 171.049  1.00  0.00     0.344 HD
ENDBRANCH   3   4
ENDBRANCH   2   3
ENDBRANCH   1   2
BRANCH   1   8
ATOM      8  C   UNL     1     161.131 178.952 166.713  1.00  0.00     0.072 C 
BRANCH   8   9
ATOM      9  C   UNL     1     162.230 178.196 165.935  1.00  0.00     0.227 C 
BRANCH   9  10
ATOM     10  N   UNL     1     162.034 176.741 165.995  1.00  0.00    -0.350 N 
ATOM     11  H   UNL     1     162.747 176.295 166.617  1.00  0.00     0.345 HD
ATOM     12  H   UNL     1     161.076 176.521 166.350  1.00  0.00     0.345 HD
ATOM     13  H   UNL     1     162.116 176.331 165.035  1.00  0.00     0.345 HD
ENDBRANCH   9  10
BRANCH   9  14
ATOM     14  C   UNL     1     163.581 178.558 166.494  1.00  0.00     0.099 C 
ATOM     15  O   UNL     1     164.365 179.290 165.835  1.00  0.00    -0.544 OA
ATOM     16  O   UNL     1     163.962 178.104 167.752  1.00  0.00    -0.544 OA
ENDBRANCH   9  14
ENDBRANCH   8   9
ENDBRANCH   1   8
TORSDOF 7
ENDMDL
