MODEL 1
REMARK VINA RESULT:    -6.329      0.000      0.000
REMARK INTER + INTRA:          -6.884
REMARK INTER:                  -6.884
REMARK INTRA:                   0.000
REMARK UNBOUND:                 0.000
REMARK SMILES Cc1cc(O)c2c(c1)C(=O)c1cc(O)cc(O)c1C2=O
REMARK SMILES IDX 1 1 2 2 8 3 7 4 6 5 4 6 3 7 19 8 20 9 18 10 11 11 9 12 10 13
REMARK SMILES IDX 12 14 13 15 15 16 16 17 5 18 17 20 14 22
REMARK H PARENT 5 19 17 21 14 23
REMARK Flexibility Score: inf
ROOT
ATOM      1  C   UNL     1      43.749 -28.015   9.004  1.00  0.00     0.044 C 
ATOM      2  C   UNL     1      44.937 -27.946   8.088  1.00  0.00    -0.047 A 
ATOM      3  C   UNL     1      46.187 -27.568   8.584  1.00  0.00     0.016 A 
ATOM      4  C   UNL     1      47.296 -27.454   7.727  1.00  0.00     0.038 A 
ATOM      5  C   UNL     1      47.143 -27.695   6.341  1.00  0.00     0.076 A 
ATOM      6  C   UNL     1      45.882 -28.137   5.856  1.00  0.00     0.127 A 
ATOM      7  C   UNL     1      44.791 -28.218   6.724  1.00  0.00     0.050 A 
ATOM      8  C   UNL     1      48.297 -27.413   5.442  1.00  0.00     0.201 C 
ATOM      9  O   UNL     1      48.108 -27.209   4.213  1.00  0.00    -0.288 OA
ATOM     10  C   UNL     1      49.663 -27.255   6.007  1.00  0.00     0.076 A 
ATOM     11  C   UNL     1      49.814 -27.077   7.399  1.00  0.00     0.041 A 
ATOM     12  C   UNL     1      48.623 -27.088   8.277  1.00  0.00     0.194 C 
ATOM     13  O   UNL     1      48.741 -26.802   9.501  1.00  0.00    -0.289 OA
ATOM     14  C   UNL     1      51.096 -26.887   7.944  1.00  0.00     0.059 A 
ATOM     15  C   UNL     1      52.224 -26.881   7.117  1.00  0.00     0.120 A 
ATOM     16  C   UNL     1      52.079 -27.064   5.743  1.00  0.00     0.093 A 
ATOM     17  C   UNL     1      50.811 -27.253   5.179  1.00  0.00     0.131 A 
ENDROOT
BRANCH   6  18
ATOM     18  O   UNL     1      45.674 -28.538   4.534  1.00  0.00    -0.507 OA
ATOM     19  H   UNL     1      45.850 -27.948   3.733  1.00  0.00     0.293 HD
ENDBRANCH   6  18
BRANCH  17  20
ATOM     20  O   UNL     1      50.696 -27.448   3.803  1.00  0.00    -0.507 OA
ATOM     21  H   UNL     1      50.116 -26.848   3.226  1.00  0.00     0.293 HD
ENDBRANCH  17  20
BRANCH  15  22
ATOM     22  O   UNL     1      53.496 -26.694   7.655  1.00  0.00    -0.508 OA
ATOM     23  H   UNL     1      53.832 -25.775   7.917  1.00  0.00     0.293 HD
ENDBRANCH  15  22
TORSDOF 3
ENDMDL
MODEL 2
REMARK VINA RESULT:    -6.326      1.674      3.858
REMARK INTER + INTRA:          -6.881
REMARK INTER:                  -6.881
REMARK INTRA:                   0.000
REMARK UNBOUND:                 0.000
REMARK SMILES Cc1cc(O)c2c(c1)C(=O)c1cc(O)cc(O)c1C2=O
REMARK SMILES IDX 1 1 2 2 8 3 7 4 6 5 4 6 3 7 19 8 20 9 18 10 11 11 9 12 10 13
REMARK SMILES IDX 12 14 13 15 15 16 16 17 5 18 17 20 14 22
REMARK H PARENT 5 19 17 21 14 23
REMARK Flexibility Score: inf
ROOT
ATOM      1  C   UNL     1      45.248 -28.249  10.125  1.00  0.00     0.044 C 
ATOM      2  C   UNL     1      46.447 -27.828   9.325  1.00  0.00    -0.047 A 
ATOM      3  C   UNL     1      46.391 -27.808   7.929  1.00  0.00     0.016 A 
ATOM      4  C   UNL     1      47.521 -27.460   7.169  1.00  0.00     0.038 A 
ATOM      5  C   UNL     1      48.740 -27.153   7.819  1.00  0.00     0.076 A 
ATOM      6  C   UNL     1      48.771 -27.116   9.239  1.00  0.00     0.127 A 
ATOM      7  C   UNL     1      47.640 -27.491   9.971  1.00  0.00     0.050 A 
ATOM      8  C   UNL     1      49.954 -26.943   6.982  1.00  0.00     0.201 C 
ATOM      9  O   UNL     1      51.101 -27.080   7.485  1.00  0.00    -0.288 OA
ATOM     10  C   UNL     1      49.822 -26.686   5.523  1.00  0.00     0.076 A 
ATOM     11  C   UNL     1      48.585 -26.935   4.893  1.00  0.00     0.041 A 
ATOM     12  C   UNL     1      47.433 -27.410   5.690  1.00  0.00     0.194 C 
ATOM     13  O   UNL     1      46.365 -27.755   5.110  1.00  0.00    -0.289 OA
ATOM     14  C   UNL     1      48.455 -26.734   3.507  1.00  0.00     0.059 A 
ATOM     15  C   UNL     1      49.541 -26.282   2.751  1.00  0.00     0.120 A 
ATOM     16  C   UNL     1      50.762 -26.026   3.373  1.00  0.00     0.093 A 
ATOM     17  C   UNL     1      50.913 -26.222   4.752  1.00  0.00     0.131 A 
ENDROOT
BRANCH   6  18
ATOM     18  O   UNL     1      49.883 -26.683   9.965  1.00  0.00    -0.507 OA
ATOM     19  H   UNL     1      49.835 -26.019  10.725  1.00  0.00     0.293 HD
ENDBRANCH   6  18
BRANCH  17  20
ATOM     20  O   UNL     1      52.142 -25.946   5.351  1.00  0.00    -0.507 OA
ATOM     21  H   UNL     1      53.008 -25.960   4.823  1.00  0.00     0.293 HD
ENDBRANCH  17  20
BRANCH  15  22
ATOM     22  O   UNL     1      49.414 -26.080   1.378  1.00  0.00    -0.508 OA
ATOM     23  H   UNL     1      48.511 -25.924   0.946  1.00  0.00     0.293 HD
ENDBRANCH  15  22
TORSDOF 3
ENDMDL
MODEL 3
REMARK VINA RESULT:    -6.259      1.987      5.638
REMARK INTER + INTRA:          -6.808
REMARK INTER:                  -6.808
REMARK INTRA:                   0.000
REMARK UNBOUND:                 0.000
REMARK SMILES Cc1cc(O)c2c(c1)C(=O)c1cc(O)cc(O)c1C2=O
REMARK SMILES IDX 1 1 2 2 8 3 7 4 6 5 4 6 3 7 19 8 20 9 18 10 11 11 9 12 10 13
REMARK SMILES IDX 12 14 13 15 15 16 16 17 5 18 17 20 14 22
REMARK H PARENT 5 19 17 21 14 23
REMARK Flexibility Score: inf
ROOT
ATOM      1  C   UNL     1      49.319 -26.354   1.346  1.00  0.00     0.044 C 
ATOM      2  C   UNL     1      49.396 -26.386   2.845  1.00  0.00    -0.047 A 
ATOM      3  C   UNL     1      48.291 -26.790   3.598  1.00  0.00     0.016 A 
ATOM      4  C   UNL     1      48.335 -26.779   5.003  1.00  0.00     0.038 A 
ATOM      5  C   UNL     1      49.501 -26.327   5.668  1.00  0.00     0.076 A 
ATOM      6  C   UNL     1      50.640 -25.976   4.894  1.00  0.00     0.127 A 
ATOM      7  C   UNL     1      50.560 -25.971   3.499  1.00  0.00     0.050 A 
ATOM      8  C   UNL     1      49.458 -26.181   7.150  1.00  0.00     0.201 C 
ATOM      9  O   UNL     1      50.274 -25.419   7.735  1.00  0.00    -0.288 OA
ATOM     10  C   UNL     1      48.381 -26.839   7.935  1.00  0.00     0.076 A 
ATOM     11  C   UNL     1      47.249 -27.343   7.260  1.00  0.00     0.041 A 
ATOM     12  C   UNL     1      47.166 -27.246   5.786  1.00  0.00     0.194 C 
ATOM     13  O   UNL     1      46.103 -27.579   5.192  1.00  0.00    -0.289 OA
ATOM     14  C   UNL     1      46.204 -27.934   7.993  1.00  0.00     0.059 A 
ATOM     15  C   UNL     1      46.281 -28.031   9.385  1.00  0.00     0.120 A 
ATOM     16  C   UNL     1      47.401 -27.541  10.055  1.00  0.00     0.093 A 
ATOM     17  C   UNL     1      48.453 -26.947   9.344  1.00  0.00     0.131 A 
ENDROOT
BRANCH   6  18
ATOM     18  O   UNL     1      51.877 -25.660   5.462  1.00  0.00    -0.507 OA
ATOM     19  H   UNL     1      52.002 -25.407   6.433  1.00  0.00     0.293 HD
ENDBRANCH   6  18
BRANCH  17  20
ATOM     20  O   UNL     1      49.568 -26.477  10.038  1.00  0.00    -0.507 OA
ATOM     21  H   UNL     1      50.448 -26.292   9.569  1.00  0.00     0.293 HD
ENDBRANCH  17  20
BRANCH  15  22
ATOM     22  O   UNL     1      45.248 -28.617  10.113  1.00  0.00    -0.508 OA
ATOM     23  H   UNL     1      45.371 -29.501  10.593  1.00  0.00     0.293 HD
ENDBRANCH  15  22
TORSDOF 3
ENDMDL
MODEL 4
REMARK VINA RESULT:    -6.227     14.103     16.410
REMARK INTER + INTRA:          -6.773
REMARK INTER:                  -6.773
REMARK INTRA:                   0.000
REMARK UNBOUND:                 0.000
REMARK SMILES Cc1cc(O)c2c(c1)C(=O)c1cc(O)cc(O)c1C2=O
REMARK SMILES IDX 1 1 2 2 8 3 7 4 6 5 4 6 3 7 19 8 20 9 18 10 11 11 9 12 10 13
REMARK SMILES IDX 12 14 13 15 15 16 16 17 5 18 17 20 14 22
REMARK H PARENT 5 19 17 21 14 23
REMARK Flexibility Score: inf
ROOT
ATOM      1  C   UNL     1      37.004 -24.118  -9.374  1.00  0.00     0.044 C 
ATOM      2  C   UNL     1      37.299 -23.396  -8.092  1.00  0.00    -0.047 A 
ATOM      3  C   UNL     1      37.849 -24.084  -7.007  1.00  0.00     0.016 A 
ATOM      4  C   UNL     1      38.086 -23.430  -5.785  1.00  0.00     0.038 A 
ATOM      5  C   UNL     1      37.740 -22.065  -5.638  1.00  0.00     0.076 A 
ATOM      6  C   UNL     1      37.238 -21.359  -6.765  1.00  0.00     0.127 A 
ATOM      7  C   UNL     1      36.988 -22.039  -7.960  1.00  0.00     0.050 A 
ATOM      8  C   UNL     1      37.858 -21.447  -4.288  1.00  0.00     0.201 C 
ATOM      9  O   UNL     1      37.199 -20.411  -4.006  1.00  0.00    -0.288 OA
ATOM     10  C   UNL     1      38.663 -22.112  -3.229  1.00  0.00     0.076 A 
ATOM     11  C   UNL     1      39.059 -23.454  -3.410  1.00  0.00     0.041 A 
ATOM     12  C   UNL     1      38.703 -24.166  -4.657  1.00  0.00     0.194 C 
ATOM     13  O   UNL     1      38.944 -25.401  -4.767  1.00  0.00    -0.289 OA
ATOM     14  C   UNL     1      39.787 -24.109  -2.401  1.00  0.00     0.059 A 
ATOM     15  C   UNL     1      40.128 -23.438  -1.223  1.00  0.00     0.120 A 
ATOM     16  C   UNL     1      39.745 -22.109  -1.045  1.00  0.00     0.093 A 
ATOM     17  C   UNL     1      39.018 -21.438  -2.037  1.00  0.00     0.131 A 
ENDROOT
BRANCH   6  18
ATOM     18  O   UNL     1      37.006 -19.981  -6.758  1.00  0.00    -0.507 OA
ATOM     19  H   UNL     1      36.277 -19.536  -6.218  1.00  0.00     0.293 HD
ENDBRANCH   6  18
BRANCH  17  20
ATOM     20  O   UNL     1      38.659 -20.105  -1.839  1.00  0.00    -0.507 OA
ATOM     21  H   UNL     1      39.343 -19.357  -1.881  1.00  0.00     0.293 HD
ENDBRANCH  17  20
BRANCH  15  22
ATOM     22  O   UNL     1      40.850 -24.084  -0.222  1.00  0.00    -0.508 OA
ATOM     23  H   UNL     1      40.496 -24.159   0.724  1.00  0.00     0.293 HD
ENDBRANCH  15  22
TORSDOF 3
ENDMDL
MODEL 5
REMARK VINA RESULT:    -6.051     13.752     16.174
REMARK INTER + INTRA:          -6.581
REMARK INTER:                  -6.581
REMARK INTRA:                   0.000
REMARK UNBOUND:                 0.000
REMARK SMILES Cc1cc(O)c2c(c1)C(=O)c1cc(O)cc(O)c1C2=O
REMARK SMILES IDX 1 1 2 2 8 3 7 4 6 5 4 6 3 7 19 8 20 9 18 10 11 11 9 12 10 13
REMARK SMILES IDX 12 14 13 15 15 16 16 17 5 18 17 20 14 22
REMARK H PARENT 5 19 17 21 14 23
REMARK Flexibility Score: inf
ROOT
ATOM      1  C   UNL     1      53.140 -30.325  -3.710  1.00  0.00     0.044 C 
ATOM      2  C   UNL     1      53.226 -31.630  -4.448  1.00  0.00    -0.047 A 
ATOM      3  C   UNL     1      52.090 -32.429  -4.601  1.00  0.00     0.016 A 
ATOM      4  C   UNL     1      52.168 -33.674  -5.249  1.00  0.00     0.038 A 
ATOM      5  C   UNL     1      53.415 -34.142  -5.729  1.00  0.00     0.076 A 
ATOM      6  C   UNL     1      54.553 -33.296  -5.622  1.00  0.00     0.127 A 
ATOM      7  C   UNL     1      54.452 -32.074  -4.951  1.00  0.00     0.050 A 
ATOM      8  C   UNL     1      53.491 -35.528  -6.268  1.00  0.00     0.201 C 
ATOM      9  O   UNL     1      54.597 -36.129  -6.315  1.00  0.00    -0.288 OA
ATOM     10  C   UNL     1      52.248 -36.253  -6.643  1.00  0.00     0.076 A 
ATOM     11  C   UNL     1      51.003 -35.747  -6.214  1.00  0.00     0.041 A 
ATOM     12  C   UNL     1      50.946 -34.491  -5.435  1.00  0.00     0.194 C 
ATOM     13  O   UNL     1      49.849 -34.106  -4.942  1.00  0.00    -0.289 OA
ATOM     14  C   UNL     1      49.822 -36.443  -6.528  1.00  0.00     0.059 A 
ATOM     15  C   UNL     1      49.871 -37.628  -7.269  1.00  0.00     0.120 A 
ATOM     16  C   UNL     1      51.100 -38.125  -7.701  1.00  0.00     0.093 A 
ATOM     17  C   UNL     1      52.289 -37.450  -7.397  1.00  0.00     0.131 A 
ENDROOT
BRANCH   6  18
ATOM     18  O   UNL     1      55.788 -33.608  -6.194  1.00  0.00    -0.507 OA
ATOM     19  H   UNL     1      56.640 -33.098  -6.005  1.00  0.00     0.293 HD
ENDBRANCH   6  18
BRANCH  17  20
ATOM     20  O   UNL     1      53.503 -37.962  -7.853  1.00  0.00    -0.507 OA
ATOM     21  H   UNL     1      54.275 -37.357  -8.109  1.00  0.00     0.293 HD
ENDBRANCH  17  20
BRANCH  15  22
ATOM     22  O   UNL     1      48.702 -38.318  -7.583  1.00  0.00    -0.508 OA
ATOM     23  H   UNL     1      48.708 -39.116  -8.207  1.00  0.00     0.293 HD
ENDBRANCH  15  22
TORSDOF 3
ENDMDL
MODEL 6
REMARK VINA RESULT:    -5.988     15.266     17.560
REMARK INTER + INTRA:          -6.513
REMARK INTER:                  -6.513
REMARK INTRA:                   0.000
REMARK UNBOUND:                 0.000
REMARK SMILES Cc1cc(O)c2c(c1)C(=O)c1cc(O)cc(O)c1C2=O
REMARK SMILES IDX 1 1 2 2 8 3 7 4 6 5 4 6 3 7 19 8 20 9 18 10 11 11 9 12 10 13
REMARK SMILES IDX 12 14 13 15 15 16 16 17 5 18 17 20 14 22
REMARK H PARENT 5 19 17 21 14 23
REMARK Flexibility Score: inf
ROOT
ATOM      1  C   UNL     1      43.039 -26.374  -8.594  1.00  0.00     0.044 C 
ATOM      2  C   UNL     1      41.817 -25.550  -8.309  1.00  0.00    -0.047 A 
ATOM      3  C   UNL     1      41.240 -25.564  -7.036  1.00  0.00     0.016 A 
ATOM      4  C   UNL     1      40.068 -24.834  -6.770  1.00  0.00     0.038 A 
ATOM      5  C   UNL     1      39.447 -24.096  -7.806  1.00  0.00     0.076 A 
ATOM      6  C   UNL     1      40.075 -24.039  -9.080  1.00  0.00     0.127 A 
ATOM      7  C   UNL     1      41.224 -24.795  -9.325  1.00  0.00     0.050 A 
ATOM      8  C   UNL     1      38.127 -23.464  -7.530  1.00  0.00     0.201 C 
ATOM      9  O   UNL     1      37.356 -23.167  -8.482  1.00  0.00    -0.288 OA
ATOM     10  C   UNL     1      37.661 -23.285  -6.130  1.00  0.00     0.076 A 
ATOM     11  C   UNL     1      38.325 -23.975  -5.093  1.00  0.00     0.041 A 
ATOM     12  C   UNL     1      39.491 -24.831  -5.406  1.00  0.00     0.194 C 
ATOM     13  O   UNL     1      40.005 -25.548  -4.502  1.00  0.00    -0.289 OA
ATOM     14  C   UNL     1      37.872 -23.847  -3.768  1.00  0.00     0.059 A 
ATOM     15  C   UNL     1      36.774 -23.035  -3.469  1.00  0.00     0.120 A 
ATOM     16  C   UNL     1      36.122 -22.346  -4.489  1.00  0.00     0.093 A 
ATOM     17  C   UNL     1      36.555 -22.461  -5.817  1.00  0.00     0.131 A 
ENDROOT
BRANCH   6  18
ATOM     18  O   UNL     1      39.617 -23.223 -10.118  1.00  0.00    -0.507 OA
ATOM     19  H   UNL     1      38.678 -22.851 -10.168  1.00  0.00     0.293 HD
ENDBRANCH   6  18
BRANCH  17  20
ATOM     20  O   UNL     1      35.892 -21.750  -6.817  1.00  0.00    -0.507 OA
ATOM     21  H   UNL     1      35.345 -22.218  -7.531  1.00  0.00     0.293 HD
ENDBRANCH  17  20
BRANCH  15  22
ATOM     22  O   UNL     1      36.325 -22.905  -2.156  1.00  0.00    -0.508 OA
ATOM     23  H   UNL     1      36.883 -22.444  -1.447  1.00  0.00     0.293 HD
ENDBRANCH  15  22
TORSDOF 3
ENDMDL
MODEL 7
REMARK VINA RESULT:    -5.940     14.017     16.589
REMARK INTER + INTRA:          -6.461
REMARK INTER:                  -6.461
REMARK INTRA:                   0.000
REMARK UNBOUND:                 0.000
REMARK SMILES Cc1cc(O)c2c(c1)C(=O)c1cc(O)cc(O)c1C2=O
REMARK SMILES IDX 1 1 2 2 8 3 7 4 6 5 4 6 3 7 19 8 20 9 18 10 11 11 9 12 10 13
REMARK SMILES IDX 12 14 13 15 15 16 16 17 5 18 17 20 14 22
REMARK H PARENT 5 19 17 21 14 23
REMARK Flexibility Score: inf
ROOT
ATOM      1  C   UNL     1      40.375 -24.489   0.012  1.00  0.00     0.044 C 
ATOM      2  C   UNL     1      39.718 -23.752  -1.119  1.00  0.00    -0.047 A 
ATOM      3  C   UNL     1      39.614 -24.345  -2.380  1.00  0.00     0.016 A 
ATOM      4  C   UNL     1      39.044 -23.646  -3.458  1.00  0.00     0.038 A 
ATOM      5  C   UNL     1      38.592 -22.317  -3.277  1.00  0.00     0.076 A 
ATOM      6  C   UNL     1      38.646 -21.745  -1.977  1.00  0.00     0.127 A 
ATOM      7  C   UNL     1      39.242 -22.451  -0.929  1.00  0.00     0.050 A 
ATOM      8  C   UNL     1      38.138 -21.555  -4.474  1.00  0.00     0.201 C 
ATOM      9  O   UNL     1      38.126 -20.295  -4.455  1.00  0.00    -0.288 OA
ATOM     10  C   UNL     1      37.809 -22.270  -5.735  1.00  0.00     0.076 A 
ATOM     11  C   UNL     1      38.207 -23.615  -5.885  1.00  0.00     0.041 A 
ATOM     12  C   UNL     1      38.909 -24.304  -4.779  1.00  0.00     0.194 C 
ATOM     13  O   UNL     1      39.378 -25.463  -4.957  1.00  0.00    -0.289 OA
ATOM     14  C   UNL     1      37.937 -24.294  -7.087  1.00  0.00     0.059 A 
ATOM     15  C   UNL     1      37.270 -23.647  -8.132  1.00  0.00     0.120 A 
ATOM     16  C   UNL     1      36.868 -22.321  -7.984  1.00  0.00     0.093 A 
ATOM     17  C   UNL     1      37.129 -21.626  -6.795  1.00  0.00     0.131 A 
ENDROOT
BRANCH   6  18
ATOM     18  O   UNL     1      38.093 -20.499  -1.671  1.00  0.00    -0.507 OA
ATOM     19  H   UNL     1      38.149 -20.067  -0.759  1.00  0.00     0.293 HD
ENDBRANCH   6  18
BRANCH  17  20
ATOM     20  O   UNL     1      36.704 -20.303  -6.668  1.00  0.00    -0.507 OA
ATOM     21  H   UNL     1      35.921 -20.049  -6.076  1.00  0.00     0.293 HD
ENDBRANCH  17  20
BRANCH  15  22
ATOM     22  O   UNL     1      37.000 -24.317  -9.323  1.00  0.00    -0.508 OA
ATOM     23  H   UNL     1      36.774 -23.816 -10.175  1.00  0.00     0.293 HD
ENDBRANCH  15  22
TORSDOF 3
ENDMDL
MODEL 8
REMARK VINA RESULT:    -5.880     14.694     16.442
REMARK INTER + INTRA:          -6.395
REMARK INTER:                  -6.395
REMARK INTRA:                   0.000
REMARK UNBOUND:                 0.000
REMARK SMILES Cc1cc(O)c2c(c1)C(=O)c1cc(O)cc(O)c1C2=O
REMARK SMILES IDX 1 1 2 2 8 3 7 4 6 5 4 6 3 7 19 8 20 9 18 10 11 11 9 12 10 13
REMARK SMILES IDX 12 14 13 15 15 16 16 17 5 18 17 20 14 22
REMARK H PARENT 5 19 17 21 14 23
REMARK Flexibility Score: inf
ROOT
ATOM      1  C   UNL     1      50.056 -38.162  -4.485  1.00  0.00     0.044 C 
ATOM      2  C   UNL     1      50.885 -37.382  -5.464  1.00  0.00    -0.047 A 
ATOM      3  C   UNL     1      51.128 -36.022  -5.256  1.00  0.00     0.016 A 
ATOM      4  C   UNL     1      51.864 -35.272  -6.190  1.00  0.00     0.038 A 
ATOM      5  C   UNL     1      52.342 -35.889  -7.370  1.00  0.00     0.076 A 
ATOM      6  C   UNL     1      52.143 -37.286  -7.543  1.00  0.00     0.127 A 
ATOM      7  C   UNL     1      51.386 -38.003  -6.613  1.00  0.00     0.050 A 
ATOM      8  C   UNL     1      52.980 -35.032  -8.408  1.00  0.00     0.201 C 
ATOM      9  O   UNL     1      53.042 -35.426  -9.603  1.00  0.00    -0.288 OA
ATOM     10  C   UNL     1      53.442 -33.661  -8.065  1.00  0.00     0.076 A 
ATOM     11  C   UNL     1      53.011 -33.074  -6.857  1.00  0.00     0.041 A 
ATOM     12  C   UNL     1      52.142 -33.839  -5.934  1.00  0.00     0.194 C 
ATOM     13  O   UNL     1      51.652 -33.273  -4.917  1.00  0.00    -0.289 OA
ATOM     14  C   UNL     1      53.407 -31.764  -6.537  1.00  0.00     0.059 A 
ATOM     15  C   UNL     1      54.231 -31.040  -7.404  1.00  0.00     0.120 A 
ATOM     16  C   UNL     1      54.665 -31.620  -8.595  1.00  0.00     0.093 A 
ATOM     17  C   UNL     1      54.280 -32.924  -8.934  1.00  0.00     0.131 A 
ENDROOT
BRANCH   6  18
ATOM     18  O   UNL     1      52.703 -38.009  -8.600  1.00  0.00    -0.507 OA
ATOM     19  H   UNL     1      52.889 -37.617  -9.513  1.00  0.00     0.293 HD
ENDBRANCH   6  18
BRANCH  17  20
ATOM     20  O   UNL     1      54.740 -33.485 -10.125  1.00  0.00    -0.507 OA
ATOM     21  H   UNL     1      54.608 -33.022 -11.018  1.00  0.00     0.293 HD
ENDBRANCH  17  20
BRANCH  15  22
ATOM     22  O   UNL     1      54.627 -29.742  -7.088  1.00  0.00    -0.508 OA
ATOM     23  H   UNL     1      54.256 -28.939  -7.583  1.00  0.00     0.293 HD
ENDBRANCH  15  22
TORSDOF 3
ENDMDL
MODEL 9
REMARK VINA RESULT:    -5.782     11.779     14.469
REMARK INTER + INTRA:          -6.289
REMARK INTER:                  -6.289
REMARK INTRA:                   0.000
REMARK UNBOUND:                 0.000
REMARK SMILES Cc1cc(O)c2c(c1)C(=O)c1cc(O)cc(O)c1C2=O
REMARK SMILES IDX 1 1 2 2 8 3 7 4 6 5 4 6 3 7 19 8 20 9 18 10 11 11 9 12 10 13
REMARK SMILES IDX 12 14 13 15 15 16 16 17 5 18 17 20 14 22
REMARK H PARENT 5 19 17 21 14 23
REMARK Flexibility Score: inf
ROOT
ATOM      1  C   UNL     1      40.300 -26.374   2.175  1.00  0.00     0.044 C 
ATOM      2  C   UNL     1      39.513 -25.266   1.538  1.00  0.00    -0.047 A 
ATOM      3  C   UNL     1      39.788 -24.870   0.227  1.00  0.00     0.016 A 
ATOM      4  C   UNL     1      39.090 -23.803  -0.364  1.00  0.00     0.038 A 
ATOM      5  C   UNL     1      38.115 -23.099   0.383  1.00  0.00     0.076 A 
ATOM      6  C   UNL     1      37.799 -23.548   1.694  1.00  0.00     0.127 A 
ATOM      7  C   UNL     1      38.526 -24.595   2.267  1.00  0.00     0.050 A 
ATOM      8  C   UNL     1      37.508 -21.879  -0.218  1.00  0.00     0.201 C 
ATOM      9  O   UNL     1      36.975 -21.007   0.520  1.00  0.00    -0.288 OA
ATOM     10  C   UNL     1      37.629 -21.625  -1.678  1.00  0.00     0.076 A 
ATOM     11  C   UNL     1      38.559 -22.374  -2.429  1.00  0.00     0.041 A 
ATOM     12  C   UNL     1      39.370 -23.420  -1.768  1.00  0.00     0.194 C 
ATOM     13  O   UNL     1      40.291 -24.001  -2.408  1.00  0.00    -0.289 OA
ATOM     14  C   UNL     1      38.713 -22.119  -3.804  1.00  0.00     0.059 A 
ATOM     15  C   UNL     1      37.946 -21.134  -4.433  1.00  0.00     0.120 A 
ATOM     16  C   UNL     1      37.020 -20.398  -3.695  1.00  0.00     0.093 A 
ATOM     17  C   UNL     1      36.852 -20.635  -2.324  1.00  0.00     0.131 A 
ENDROOT
BRANCH   6  18
ATOM     18  O   UNL     1      36.753 -23.011   2.451  1.00  0.00    -0.507 OA
ATOM     19  H   UNL     1      36.057 -23.570   2.924  1.00  0.00     0.293 HD
ENDBRANCH   6  18
BRANCH  17  20
ATOM     20  O   UNL     1      35.909 -19.894  -1.612  1.00  0.00    -0.507 OA
ATOM     21  H   UNL     1      34.925 -20.140  -1.614  1.00  0.00     0.293 HD
ENDBRANCH  17  20
BRANCH  15  22
ATOM     22  O   UNL     1      38.095 -20.880  -5.795  1.00  0.00    -0.508 OA
ATOM     23  H   UNL     1      37.539 -20.178  -6.268  1.00  0.00     0.293 HD
ENDBRANCH  15  22
TORSDOF 3
ENDMDL
