MODEL 1
REMARK VINA RESULT:    -2.999      0.000      0.000
REMARK INTER + INTRA:         -11.131
REMARK INTER:                  -6.856
REMARK INTRA:                  -4.275
REMARK UNBOUND:                -4.275
REMARK SMILES CCCCCCCCCCCCCCCCCCCCCCCC(=O)[O-]
REMARK SMILES IDX 13 1 14 2 15 3 16 4 17 5 18 6 19 7 20 8 21 9 22 10 23 11
REMARK SMILES IDX 24 12 25 13 26 14 12 15 11 16 10 17 9 18 8 19 7 20 6 21 5 22
REMARK SMILES IDX 4 23 3 24 2 25 1 26
REMARK H PARENT
REMARK Flexibility Score: inf
ROOT
ATOM      1  C   UNL     1      31.217  30.774  53.326  1.00  0.00     0.000 C 
ENDROOT
BRANCH   1   2
ATOM      2  C   UNL     1      29.861  31.429  53.016  1.00  0.00     0.000 C 
BRANCH   2   3
ATOM      3  C   UNL     1      30.003  32.727  52.200  1.00  0.00     0.000 C 
BRANCH   3   4
ATOM      4  C   UNL     1      29.585  33.980  52.991  1.00  0.00     0.000 C 
BRANCH   4   5
ATOM      5  C   UNL     1      28.606  33.717  54.151  1.00  0.00     0.000 C 
BRANCH   5   6
ATOM      6  C   UNL     1      27.234  34.381  53.936  1.00  0.00     0.000 C 
BRANCH   6   7
ATOM      7  C   UNL     1      26.117  33.359  53.664  1.00  0.00     0.000 C 
BRANCH   7   8
ATOM      8  C   UNL     1      25.895  33.079  52.161  1.00  0.00     0.000 C 
BRANCH   8   9
ATOM      9  C   UNL     1      26.300  31.644  51.773  1.00  0.00     0.000 C 
BRANCH   9  10
ATOM     10  C   UNL     1      26.989  31.571  50.402  1.00  0.00     0.006 C 
BRANCH  10  11
ATOM     11  C   UNL     1      27.134  32.945  49.735  1.00  0.00     0.053 C 
BRANCH  11  12
ATOM     12  C   UNL     1      26.285  33.023  48.506  1.00  0.00     0.041 C 
ATOM     13  O   UNL     1      26.584  33.822  47.578  1.00  0.00    -0.550 OA
ATOM     14  O   UNL     1      25.136  32.248  48.401  1.00  0.00    -0.550 OA
ENDBRANCH  11  12
ENDBRANCH  10  11
ENDBRANCH   9  10
ENDBRANCH   8   9
ENDBRANCH   7   8
ENDBRANCH   6   7
ENDBRANCH   5   6
ENDBRANCH   4   5
ENDBRANCH   3   4
ENDBRANCH   2   3
ENDBRANCH   1   2
BRANCH   1  15
ATOM     15  C   UNL     1      32.143  31.683  54.152  1.00  0.00     0.000 C 
BRANCH  15  16
ATOM     16  C   UNL     1      32.802  30.949  55.331  1.00  0.00     0.000 C 
BRANCH  16  17
ATOM     17  C   UNL     1      32.372  31.519  56.697  1.00  0.00     0.000 C 
BRANCH  17  18
ATOM     18  C   UNL     1      31.158  32.467  56.594  1.00  0.00    -0.000 C 
BRANCH  18  19
ATOM     19  C   UNL     1      29.830  31.849  57.074  1.00  0.00    -0.000 C 
BRANCH  19  20
ATOM     20  C   UNL     1      29.845  30.324  57.272  1.00  0.00    -0.000 C 
BRANCH  20  21
ATOM     21  C   UNL     1      28.616  29.628  56.662  1.00  0.00    -0.000 C 
BRANCH  21  22
ATOM     22  C   UNL     1      27.693  30.600  55.909  1.00  0.00    -0.000 C 
BRANCH  22  23
ATOM     23  C   UNL     1      26.603  29.897  55.072  1.00  0.00    -0.000 C 
BRANCH  23  24
ATOM     24  C   UNL     1      25.187  30.252  55.553  1.00  0.00    -0.000 C 
BRANCH  24  25
ATOM     25  C   UNL     1      24.945  29.852  57.017  1.00  0.00    -0.003 C 
ATOM     26  C   UNL     1      24.387  28.435  57.150  1.00  0.00     0.004 C 
ENDBRANCH  24  25
ENDBRANCH  23  24
ENDBRANCH  22  23
ENDBRANCH  21  22
ENDBRANCH  20  21
ENDBRANCH  19  20
ENDBRANCH  18  19
ENDBRANCH  17  18
ENDBRANCH  16  17
ENDBRANCH  15  16
ENDBRANCH   1  15
TORSDOF 22
ENDMDL
MODEL 2
REMARK VINA RESULT:    -2.965      2.567      6.438
REMARK INTER + INTRA:         -11.054
REMARK INTER:                  -6.477
REMARK INTRA:                  -4.577
REMARK UNBOUND:                -4.275
REMARK SMILES CCCCCCCCCCCCCCCCCCCCCCCC(=O)[O-]
REMARK SMILES IDX 13 1 14 2 15 3 16 4 17 5 18 6 19 7 20 8 21 9 22 10 23 11
REMARK SMILES IDX 24 12 25 13 26 14 12 15 11 16 10 17 9 18 8 19 7 20 6 21 5 22
REMARK SMILES IDX 4 23 3 24 2 25 1 26
REMARK H PARENT
REMARK Flexibility Score: inf
ROOT
ATOM      1  C   UNL     1      28.162  33.380  53.945  1.00  0.00     0.000 C 
ENDROOT
BRANCH   1   2
ATOM      2  C   UNL     1      29.383  34.134  53.394  1.00  0.00     0.000 C 
BRANCH   2   3
ATOM      3  C   UNL     1      30.693  33.734  54.097  1.00  0.00     0.000 C 
BRANCH   3   4
ATOM      4  C   UNL     1      30.461  33.127  55.494  1.00  0.00     0.000 C 
BRANCH   4   5
ATOM      5  C   UNL     1      31.313  31.884  55.810  1.00  0.00     0.000 C 
BRANCH   5   6
ATOM      6  C   UNL     1      30.483  30.721  56.379  1.00  0.00     0.000 C 
BRANCH   6   7
ATOM      7  C   UNL     1      29.507  31.171  57.481  1.00  0.00     0.000 C 
BRANCH   7   8
ATOM      8  C   UNL     1      28.058  30.688  57.250  1.00  0.00     0.000 C 
BRANCH   8   9
ATOM      9  C   UNL     1      27.696  30.638  55.754  1.00  0.00     0.000 C 
BRANCH   9  10
ATOM     10  C   UNL     1      27.034  29.313  55.345  1.00  0.00     0.006 C 
BRANCH  10  11
ATOM     11  C   UNL     1      25.639  29.510  54.736  1.00  0.00     0.053 C 
BRANCH  11  12
ATOM     12  C   UNL     1      24.673  29.976  55.778  1.00  0.00     0.041 C 
ATOM     13  O   UNL     1      23.890  30.934  55.535  1.00  0.00    -0.550 OA
ATOM     14  O   UNL     1      24.666  29.387  57.037  1.00  0.00    -0.550 OA
ENDBRANCH  11  12
ENDBRANCH  10  11
ENDBRANCH   9  10
ENDBRANCH   8   9
ENDBRANCH   7   8
ENDBRANCH   6   7
ENDBRANCH   5   6
ENDBRANCH   4   5
ENDBRANCH   3   4
ENDBRANCH   2   3
ENDBRANCH   1   2
BRANCH   1  15
ATOM     15  C   UNL     1      26.852  34.173  53.789  1.00  0.00     0.000 C 
BRANCH  15  16
ATOM     16  C   UNL     1      25.630  33.266  53.569  1.00  0.00     0.000 C 
BRANCH  16  17
ATOM     17  C   UNL     1      25.753  32.408  52.294  1.00  0.00     0.000 C 
BRANCH  17  18
ATOM     18  C   UNL     1      25.586  33.233  51.000  1.00  0.00    -0.000 C 
BRANCH  18  19
ATOM     19  C   UNL     1      26.724  33.046  49.979  1.00  0.00    -0.000 C 
BRANCH  19  20
ATOM     20  C   UNL     1      27.685  31.880  50.266  1.00  0.00    -0.000 C 
BRANCH  20  21
ATOM     21  C   UNL     1      29.166  32.282  50.161  1.00  0.00    -0.000 C 
BRANCH  21  22
ATOM     22  C   UNL     1      30.068  31.490  51.122  1.00  0.00    -0.000 C 
BRANCH  22  23
ATOM     23  C   UNL     1      29.292  30.529  52.049  1.00  0.00    -0.000 C 
BRANCH  23  24
ATOM     24  C   UNL     1      30.234  29.688  52.926  1.00  0.00    -0.000 C 
BRANCH  24  25
ATOM     25  C   UNL     1      31.715  30.011  52.677  1.00  0.00    -0.003 C 
ATOM     26  C   UNL     1      32.646  28.903  53.170  1.00  0.00     0.004 C 
ENDBRANCH  24  25
ENDBRANCH  23  24
ENDBRANCH  22  23
ENDBRANCH  21  22
ENDBRANCH  20  21
ENDBRANCH  19  20
ENDBRANCH  18  19
ENDBRANCH  17  18
ENDBRANCH  16  17
ENDBRANCH  15  16
ENDBRANCH   1  15
TORSDOF 22
ENDMDL
MODEL 3
REMARK VINA RESULT:    -2.963      1.684      4.065
REMARK INTER + INTRA:         -11.048
REMARK INTER:                  -6.660
REMARK INTRA:                  -4.388
REMARK UNBOUND:                -4.275
REMARK SMILES CCCCCCCCCCCCCCCCCCCCCCCC(=O)[O-]
REMARK SMILES IDX 13 1 14 2 15 3 16 4 17 5 18 6 19 7 20 8 21 9 22 10 23 11
REMARK SMILES IDX 24 12 25 13 26 14 12 15 11 16 10 17 9 18 8 19 7 20 6 21 5 22
REMARK SMILES IDX 4 23 3 24 2 25 1 26
REMARK H PARENT
REMARK Flexibility Score: inf
ROOT
ATOM      1  C   UNL     1      29.816  29.409  52.690  1.00  0.00     0.000 C 
ENDROOT
BRANCH   1   2
ATOM      2  C   UNL     1      31.113  30.226  52.563  1.00  0.00     0.000 C 
BRANCH   2   3
ATOM      3  C   UNL     1      31.989  30.145  53.826  1.00  0.00     0.000 C 
BRANCH   3   4
ATOM      4  C   UNL     1      32.228  31.520  54.478  1.00  0.00     0.000 C 
BRANCH   4   5
ATOM      5  C   UNL     1      31.414  31.780  55.760  1.00  0.00     0.000 C 
BRANCH   5   6
ATOM      6  C   UNL     1      30.370  32.897  55.587  1.00  0.00     0.000 C 
BRANCH   6   7
ATOM      7  C   UNL     1      30.623  33.759  54.338  1.00  0.00     0.000 C 
BRANCH   7   8
ATOM      8  C   UNL     1      29.430  33.779  53.356  1.00  0.00     0.000 C 
BRANCH   8   9
ATOM      9  C   UNL     1      29.870  33.515  51.905  1.00  0.00     0.000 C 
BRANCH   9  10
ATOM     10  C   UNL     1      28.756  32.896  51.048  1.00  0.00     0.006 C 
BRANCH  10  11
ATOM     11  C   UNL     1      29.299  32.047  49.890  1.00  0.00     0.053 C 
BRANCH  11  12
ATOM     12  C   UNL     1      29.571  32.905  48.695  1.00  0.00     0.041 C 
ATOM     13  O   UNL     1      30.729  33.360  48.491  1.00  0.00    -0.550 OA
ATOM     14  O   UNL     1      28.538  33.245  47.830  1.00  0.00    -0.550 OA
ENDBRANCH  11  12
ENDBRANCH  10  11
ENDBRANCH   9  10
ENDBRANCH   8   9
ENDBRANCH   7   8
ENDBRANCH   6   7
ENDBRANCH   5   6
ENDBRANCH   4   5
ENDBRANCH   3   4
ENDBRANCH   2   3
ENDBRANCH   1   2
BRANCH   1  15
ATOM     15  C   UNL     1      28.749  30.114  53.546  1.00  0.00     0.000 C 
BRANCH  15  16
ATOM     16  C   UNL     1      28.507  29.412  54.892  1.00  0.00     0.000 C 
BRANCH  16  17
ATOM     17  C   UNL     1      27.758  30.307  55.899  1.00  0.00     0.000 C 
BRANCH  17  18
ATOM     18  C   UNL     1      27.067  29.498  57.018  1.00  0.00    -0.000 C 
BRANCH  18  19
ATOM     19  C   UNL     1      25.602  29.901  57.278  1.00  0.00    -0.000 C 
BRANCH  19  20
ATOM     20  C   UNL     1      24.543  29.010  56.607  1.00  0.00    -0.000 C 
BRANCH  20  21
ATOM     21  C   UNL     1      23.589  29.796  55.693  1.00  0.00    -0.000 C 
BRANCH  21  22
ATOM     22  C   UNL     1      24.277  30.975  54.986  1.00  0.00    -0.000 C 
BRANCH  22  23
ATOM     23  C   UNL     1      24.771  30.640  53.561  1.00  0.00    -0.000 C 
BRANCH  23  24
ATOM     24  C   UNL     1      25.277  31.888  52.818  1.00  0.00    -0.000 C 
BRANCH  24  25
ATOM     25  C   UNL     1      26.127  32.802  53.713  1.00  0.00    -0.003 C 
ATOM     26  C   UNL     1      25.652  34.254  53.685  1.00  0.00     0.004 C 
ENDBRANCH  24  25
ENDBRANCH  23  24
ENDBRANCH  22  23
ENDBRANCH  21  22
ENDBRANCH  20  21
ENDBRANCH  19  20
ENDBRANCH  18  19
ENDBRANCH  17  18
ENDBRANCH  16  17
ENDBRANCH  15  16
ENDBRANCH   1  15
TORSDOF 22
ENDMDL
MODEL 4
REMARK VINA RESULT:    -2.957      3.388      5.695
REMARK INTER + INTRA:         -11.036
REMARK INTER:                  -6.852
REMARK INTRA:                  -4.185
REMARK UNBOUND:                -4.275
REMARK SMILES CCCCCCCCCCCCCCCCCCCCCCCC(=O)[O-]
REMARK SMILES IDX 13 1 14 2 15 3 16 4 17 5 18 6 19 7 20 8 21 9 22 10 23 11
REMARK SMILES IDX 24 12 25 13 26 14 12 15 11 16 10 17 9 18 8 19 7 20 6 21 5 22
REMARK SMILES IDX 4 23 3 24 2 25 1 26
REMARK H PARENT
REMARK Flexibility Score: inf
ROOT
ATOM      1  C   UNL     1      31.370  32.367  53.978  1.00  0.00     0.000 C 
ENDROOT
BRANCH   1   2
ATOM      2  C   UNL     1      30.582  33.662  54.233  1.00  0.00     0.000 C 
BRANCH   2   3
ATOM      3  C   UNL     1      29.468  33.892  53.196  1.00  0.00     0.000 C 
BRANCH   3   4
ATOM      4  C   UNL     1      28.069  33.989  53.833  1.00  0.00     0.000 C 
BRANCH   4   5
ATOM      5  C   UNL     1      26.905  33.591  52.906  1.00  0.00     0.000 C 
BRANCH   5   6
ATOM      6  C   UNL     1      25.611  33.274  53.674  1.00  0.00     0.000 C 
BRANCH   6   7
ATOM      7  C   UNL     1      25.167  31.810  53.512  1.00  0.00     0.000 C 
BRANCH   7   8
ATOM      8  C   UNL     1      24.415  31.257  54.743  1.00  0.00     0.000 C 
BRANCH   8   9
ATOM      9  C   UNL     1      24.158  29.743  54.632  1.00  0.00     0.000 C 
BRANCH   9  10
ATOM     10  C   UNL     1      23.491  29.159  55.886  1.00  0.00     0.006 C 
BRANCH  10  11
ATOM     11  C   UNL     1      23.261  30.210  56.980  1.00  0.00     0.053 C 
BRANCH  11  12
ATOM     12  C   UNL     1      22.002  29.915  57.734  1.00  0.00     0.041 C 
ATOM     13  O   UNL     1      21.622  30.681  58.660  1.00  0.00    -0.550 OA
ATOM     14  O   UNL     1      21.271  28.768  57.448  1.00  0.00    -0.550 OA
ENDBRANCH  11  12
ENDBRANCH  10  11
ENDBRANCH   9  10
ENDBRANCH   8   9
ENDBRANCH   7   8
ENDBRANCH   6   7
ENDBRANCH   5   6
ENDBRANCH   4   5
ENDBRANCH   3   4
ENDBRANCH   2   3
ENDBRANCH   1   2
BRANCH   1  15
ATOM     15  C   UNL     1      31.381  31.427  55.196  1.00  0.00     0.000 C 
BRANCH  15  16
ATOM     16  C   UNL     1      30.786  32.076  56.455  1.00  0.00     0.000 C 
BRANCH  16  17
ATOM     17  C   UNL     1      29.607  31.269  57.036  1.00  0.00     0.000 C 
BRANCH  17  18
ATOM     18  C   UNL     1      28.350  31.318  56.141  1.00  0.00    -0.000 C 
BRANCH  18  19
ATOM     19  C   UNL     1      27.672  29.952  55.928  1.00  0.00    -0.000 C 
BRANCH  19  20
ATOM     20  C   UNL     1      27.965  29.271  54.580  1.00  0.00    -0.000 C 
BRANCH  20  21
ATOM     21  C   UNL     1      28.460  30.254  53.506  1.00  0.00    -0.000 C 
BRANCH  21  22
ATOM     22  C   UNL     1      28.075  29.823  52.081  1.00  0.00    -0.000 C 
BRANCH  22  23
ATOM     23  C   UNL     1      28.273  30.932  51.025  1.00  0.00    -0.000 C 
BRANCH  23  24
ATOM     24  C   UNL     1      27.048  31.080  50.107  1.00  0.00    -0.000 C 
BRANCH  24  25
ATOM     25  C   UNL     1      27.144  32.310  49.191  1.00  0.00    -0.003 C 
ATOM     26  C   UNL     1      26.021  33.315  49.442  1.00  0.00     0.004 C 
ENDBRANCH  24  25
ENDBRANCH  23  24
ENDBRANCH  22  23
ENDBRANCH  21  22
ENDBRANCH  20  21
ENDBRANCH  19  20
ENDBRANCH  18  19
ENDBRANCH  17  18
ENDBRANCH  16  17
ENDBRANCH  15  16
ENDBRANCH   1  15
TORSDOF 22
ENDMDL
MODEL 5
REMARK VINA RESULT:    -2.941      3.579      6.652
REMARK INTER + INTRA:         -11.000
REMARK INTER:                  -7.133
REMARK INTRA:                  -3.867
REMARK UNBOUND:                -4.275
REMARK SMILES CCCCCCCCCCCCCCCCCCCCCCCC(=O)[O-]
REMARK SMILES IDX 13 1 14 2 15 3 16 4 17 5 18 6 19 7 20 8 21 9 22 10 23 11
REMARK SMILES IDX 24 12 25 13 26 14 12 15 11 16 10 17 9 18 8 19 7 20 6 21 5 22
REMARK SMILES IDX 4 23 3 24 2 25 1 26
REMARK H PARENT
REMARK Flexibility Score: inf
ROOT
ATOM      1  C   UNL     1      29.509  34.074  53.892  1.00  0.00     0.000 C 
ENDROOT
BRANCH   1   2
ATOM      2  C   UNL     1      28.154  33.533  53.406  1.00  0.00     0.000 C 
BRANCH   2   3
ATOM      3  C   UNL     1      26.968  34.388  53.888  1.00  0.00     0.000 C 
BRANCH   3   4
ATOM      4  C   UNL     1      25.604  33.729  53.611  1.00  0.00     0.000 C 
BRANCH   4   5
ATOM      5  C   UNL     1      25.638  32.566  52.601  1.00  0.00     0.000 C 
BRANCH   5   6
ATOM      6  C   UNL     1      24.937  31.301  53.123  1.00  0.00     0.000 C 
BRANCH   6   7
ATOM      7  C   UNL     1      24.904  31.231  54.660  1.00  0.00     0.000 C 
BRANCH   7   8
ATOM      8  C   UNL     1      25.895  30.203  55.249  1.00  0.00     0.000 C 
BRANCH   8   9
ATOM      9  C   UNL     1      27.356  30.544  54.904  1.00  0.00     0.000 C 
BRANCH   9  10
ATOM     10  C   UNL     1      28.341  30.128  56.007  1.00  0.00     0.006 C 
BRANCH  10  11
ATOM     11  C   UNL     1      28.348  31.101  57.194  1.00  0.00     0.053 C 
BRANCH  11  12
ATOM     12  C   UNL     1      27.841  30.424  58.428  1.00  0.00     0.041 C 
ATOM     13  O   UNL     1      27.608  29.185  58.422  1.00  0.00    -0.550 OA
ATOM     14  O   UNL     1      27.578  31.167  59.573  1.00  0.00    -0.550 OA
ENDBRANCH  11  12
ENDBRANCH  10  11
ENDBRANCH   9  10
ENDBRANCH   8   9
ENDBRANCH   7   8
ENDBRANCH   6   7
ENDBRANCH   5   6
ENDBRANCH   4   5
ENDBRANCH   3   4
ENDBRANCH   2   3
ENDBRANCH   1   2
BRANCH   1  15
ATOM     15  C   UNL     1      30.697  33.221  53.413  1.00  0.00     0.000 C 
BRANCH  15  16
ATOM     16  C   UNL     1      31.221  32.267  54.499  1.00  0.00     0.000 C 
BRANCH  16  17
ATOM     17  C   UNL     1      31.883  31.007  53.909  1.00  0.00     0.000 C 
BRANCH  17  18
ATOM     18  C   UNL     1      31.234  30.556  52.582  1.00  0.00    -0.000 C 
BRANCH  18  19
ATOM     19  C   UNL     1      30.134  29.490  52.745  1.00  0.00    -0.000 C 
BRANCH  19  20
ATOM     20  C   UNL     1      29.185  29.330  51.545  1.00  0.00    -0.000 C 
BRANCH  20  21
ATOM     21  C   UNL     1      29.396  30.406  50.466  1.00  0.00    -0.000 C 
BRANCH  21  22
ATOM     22  C   UNL     1      28.189  31.348  50.321  1.00  0.00    -0.000 C 
BRANCH  22  23
ATOM     23  C   UNL     1      28.579  32.812  50.022  1.00  0.00    -0.000 C 
BRANCH  23  24
ATOM     24  C   UNL     1      30.058  32.944  49.618  1.00  0.00    -0.000 C 
BRANCH  24  25
ATOM     25  C   UNL     1      30.233  33.295  48.133  1.00  0.00    -0.003 C 
ATOM     26  C   UNL     1      31.697  33.271  47.695  1.00  0.00     0.004 C 
ENDBRANCH  24  25
ENDBRANCH  23  24
ENDBRANCH  22  23
ENDBRANCH  21  22
ENDBRANCH  20  21
ENDBRANCH  19  20
ENDBRANCH  18  19
ENDBRANCH  17  18
ENDBRANCH  16  17
ENDBRANCH  15  16
ENDBRANCH   1  15
TORSDOF 22
ENDMDL
MODEL 6
REMARK VINA RESULT:    -2.937      3.795      7.467
REMARK INTER + INTRA:         -10.990
REMARK INTER:                  -7.190
REMARK INTRA:                  -3.800
REMARK UNBOUND:                -4.275
REMARK SMILES CCCCCCCCCCCCCCCCCCCCCCCC(=O)[O-]
REMARK SMILES IDX 13 1 14 2 15 3 16 4 17 5 18 6 19 7 20 8 21 9 22 10 23 11
REMARK SMILES IDX 24 12 25 13 26 14 12 15 11 16 10 17 9 18 8 19 7 20 6 21 5 22
REMARK SMILES IDX 4 23 3 24 2 25 1 26
REMARK H PARENT
REMARK Flexibility Score: inf
ROOT
ATOM      1  C   UNL     1      29.841  32.342  53.103  1.00  0.00     0.000 C 
ENDROOT
BRANCH   1   2
ATOM      2  C   UNL     1      29.428  31.326  54.181  1.00  0.00     0.000 C 
BRANCH   2   3
ATOM      3  C   UNL     1      28.713  30.096  53.592  1.00  0.00     0.000 C 
BRANCH   3   4
ATOM      4  C   UNL     1      27.699  29.469  54.568  1.00  0.00     0.000 C 
BRANCH   4   5
ATOM      5  C   UNL     1      27.527  30.226  55.898  1.00  0.00     0.000 C 
BRANCH   5   6
ATOM      6  C   UNL     1      26.207  29.885  56.612  1.00  0.00     0.000 C 
BRANCH   6   7
ATOM      7  C   UNL     1      25.279  29.006  55.755  1.00  0.00     0.000 C 
BRANCH   7   8
ATOM      8  C   UNL     1      23.821  28.974  56.268  1.00  0.00     0.000 C 
BRANCH   8   9
ATOM      9  C   UNL     1      23.103  30.320  56.055  1.00  0.00     0.000 C 
BRANCH   9  10
ATOM     10  C   UNL     1      21.660  30.314  56.581  1.00  0.00     0.006 C 
BRANCH  10  11
ATOM     11  C   UNL     1      21.565  29.877  58.049  1.00  0.00     0.053 C 
BRANCH  11  12
ATOM     12  C   UNL     1      20.451  28.895  58.232  1.00  0.00     0.041 C 
ATOM     13  O   UNL     1      19.727  28.567  57.253  1.00  0.00    -0.550 OA
ATOM     14  O   UNL     1      20.178  28.376  59.492  1.00  0.00    -0.550 OA
ENDBRANCH  11  12
ENDBRANCH  10  11
ENDBRANCH   9  10
ENDBRANCH   8   9
ENDBRANCH   7   8
ENDBRANCH   6   7
ENDBRANCH   5   6
ENDBRANCH   4   5
ENDBRANCH   3   4
ENDBRANCH   2   3
ENDBRANCH   1   2
BRANCH   1  15
ATOM     15  C   UNL     1      29.015  33.639  53.159  1.00  0.00     0.000 C 
BRANCH  15  16
ATOM     16  C   UNL     1      27.921  33.602  54.239  1.00  0.00     0.000 C 
BRANCH  16  17
ATOM     17  C   UNL     1      26.755  34.563  53.932  1.00  0.00     0.000 C 
BRANCH  17  18
ATOM     18  C   UNL     1      25.561  33.857  53.254  1.00  0.00    -0.000 C 
BRANCH  18  19
ATOM     19  C   UNL     1      25.305  32.423  53.758  1.00  0.00    -0.000 C 
BRANCH  19  20
ATOM     20  C   UNL     1      25.242  31.341  52.667  1.00  0.00    -0.000 C 
BRANCH  20  21
ATOM     21  C   UNL     1      25.499  31.895  51.256  1.00  0.00    -0.000 C 
BRANCH  21  22
ATOM     22  C   UNL     1      26.885  31.512  50.709  1.00  0.00    -0.000 C 
BRANCH  22  23
ATOM     23  C   UNL     1      27.613  32.675  50.000  1.00  0.00    -0.000 C 
BRANCH  23  24
ATOM     24  C   UNL     1      28.863  32.196  49.242  1.00  0.00    -0.000 C 
BRANCH  24  25
ATOM     25  C   UNL     1      30.117  33.008  49.601  1.00  0.00    -0.003 C 
ATOM     26  C   UNL     1      30.815  33.581  48.368  1.00  0.00     0.004 C 
ENDBRANCH  24  25
ENDBRANCH  23  24
ENDBRANCH  22  23
ENDBRANCH  21  22
ENDBRANCH  20  21
ENDBRANCH  19  20
ENDBRANCH  18  19
ENDBRANCH  17  18
ENDBRANCH  16  17
ENDBRANCH  15  16
ENDBRANCH   1  15
TORSDOF 22
ENDMDL
MODEL 7
REMARK VINA RESULT:    -2.928      2.516      6.025
REMARK INTER + INTRA:         -10.970
REMARK INTER:                  -6.574
REMARK INTRA:                  -4.397
REMARK UNBOUND:                -4.275
REMARK SMILES CCCCCCCCCCCCCCCCCCCCCCCC(=O)[O-]
REMARK SMILES IDX 13 1 14 2 15 3 16 4 17 5 18 6 19 7 20 8 21 9 22 10 23 11
REMARK SMILES IDX 24 12 25 13 26 14 12 15 11 16 10 17 9 18 8 19 7 20 6 21 5 22
REMARK SMILES IDX 4 23 3 24 2 25 1 26
REMARK H PARENT
REMARK Flexibility Score: inf
ROOT
ATOM      1  C   UNL     1      31.134  30.413  52.684  1.00  0.00     0.000 C 
ENDROOT
BRANCH   1   2
ATOM      2  C   UNL     1      31.444  29.578  53.937  1.00  0.00     0.000 C 
BRANCH   2   3
ATOM      3  C   UNL     1      32.628  30.140  54.745  1.00  0.00     0.000 C 
BRANCH   3   4
ATOM      4  C   UNL     1      32.295  30.340  56.235  1.00  0.00     0.000 C 
BRANCH   4   5
ATOM      5  C   UNL     1      32.262  31.807  56.702  1.00  0.00     0.000 C 
BRANCH   5   6
ATOM      6  C   UNL     1      30.844  32.403  56.702  1.00  0.00     0.000 C 
BRANCH   6   7
ATOM      7  C   UNL     1      29.781  31.405  57.195  1.00  0.00     0.000 C 
BRANCH   7   8
ATOM      8  C   UNL     1      28.567  31.284  56.247  1.00  0.00     0.000 C 
BRANCH   8   9
ATOM      9  C   UNL     1      28.265  29.820  55.877  1.00  0.00     0.000 C 
BRANCH   9  10
ATOM     10  C   UNL     1      26.949  29.662  55.101  1.00  0.00     0.006 C 
BRANCH  10  11
ATOM     11  C   UNL     1      25.850  28.982  55.928  1.00  0.00     0.053 C 
BRANCH  11  12
ATOM     12  C   UNL     1      24.758  29.954  56.247  1.00  0.00     0.041 C 
ATOM     13  O   UNL     1      24.273  30.003  57.410  1.00  0.00    -0.550 OA
ATOM     14  O   UNL     1      24.241  30.773  55.252  1.00  0.00    -0.550 OA
ENDBRANCH  11  12
ENDBRANCH  10  11
ENDBRANCH   9  10
ENDBRANCH   8   9
ENDBRANCH   7   8
ENDBRANCH   6   7
ENDBRANCH   5   6
ENDBRANCH   4   5
ENDBRANCH   3   4
ENDBRANCH   2   3
ENDBRANCH   1   2
BRANCH   1  15
ATOM     15  C   UNL     1      30.063  31.489  52.935  1.00  0.00     0.000 C 
BRANCH  15  16
ATOM     16  C   UNL     1      30.664  32.884  53.169  1.00  0.00     0.000 C 
BRANCH  16  17
ATOM     17  C   UNL     1      29.640  34.015  52.944  1.00  0.00     0.000 C 
BRANCH  17  18
ATOM     18  C   UNL     1      28.646  34.163  54.116  1.00  0.00    -0.000 C 
BRANCH  18  19
ATOM     19  C   UNL     1      27.168  34.229  53.688  1.00  0.00    -0.000 C 
BRANCH  19  20
ATOM     20  C   UNL     1      26.380  32.915  53.823  1.00  0.00    -0.000 C 
BRANCH  20  21
ATOM     21  C   UNL     1      26.075  32.256  52.468  1.00  0.00    -0.000 C 
BRANCH  21  22
ATOM     22  C   UNL     1      25.693  33.275  51.382  1.00  0.00    -0.000 C 
BRANCH  22  23
ATOM     23  C   UNL     1      26.344  32.993  50.011  1.00  0.00    -0.000 C 
BRANCH  23  24
ATOM     24  C   UNL     1      27.880  33.028  50.084  1.00  0.00    -0.000 C 
BRANCH  24  25
ATOM     25  C   UNL     1      28.521  31.703  49.643  1.00  0.00    -0.003 C 
ATOM     26  C   UNL     1      29.963  31.881  49.168  1.00  0.00     0.004 C 
ENDBRANCH  24  25
ENDBRANCH  23  24
ENDBRANCH  22  23
ENDBRANCH  21  22
ENDBRANCH  20  21
ENDBRANCH  19  20
ENDBRANCH  18  19
ENDBRANCH  17  18
ENDBRANCH  16  17
ENDBRANCH  15  16
ENDBRANCH   1  15
TORSDOF 22
ENDMDL
MODEL 8
REMARK VINA RESULT:    -2.910      7.783     12.451
REMARK INTER + INTRA:         -10.928
REMARK INTER:                  -6.850
REMARK INTRA:                  -4.078
REMARK UNBOUND:                -4.275
REMARK SMILES CCCCCCCCCCCCCCCCCCCCCCCC(=O)[O-]
REMARK SMILES IDX 13 1 14 2 15 3 16 4 17 5 18 6 19 7 20 8 21 9 22 10 23 11
REMARK SMILES IDX 24 12 25 13 26 14 12 15 11 16 10 17 9 18 8 19 7 20 6 21 5 22
REMARK SMILES IDX 4 23 3 24 2 25 1 26
REMARK H PARENT
REMARK Flexibility Score: inf
ROOT
ATOM      1  C   UNL     1      17.259  30.102  54.127  1.00  0.00     0.000 C 
ENDROOT
BRANCH   1   2
ATOM      2  C   UNL     1      18.740  29.702  54.223  1.00  0.00     0.000 C 
BRANCH   2   3
ATOM      3  C   UNL     1      19.128  29.199  55.625  1.00  0.00     0.000 C 
BRANCH   3   4
ATOM      4  C   UNL     1      19.879  27.855  55.591  1.00  0.00     0.000 C 
BRANCH   4   5
ATOM      5  C   UNL     1      19.602  26.926  56.789  1.00  0.00     0.000 C 
BRANCH   5   6
ATOM      6  C   UNL     1      18.900  27.647  57.953  1.00  0.00     0.000 C 
BRANCH   6   7
ATOM      7  C   UNL     1      19.608  27.425  59.301  1.00  0.00     0.000 C 
BRANCH   7   8
ATOM      8  C   UNL     1      20.947  28.186  59.423  1.00  0.00     0.000 C 
BRANCH   8   9
ATOM      9  C   UNL     1      20.766  29.706  59.259  1.00  0.00     0.000 C 
BRANCH   9  10
ATOM     10  C   UNL     1      21.614  30.287  58.117  1.00  0.00     0.006 C 
BRANCH  10  11
ATOM     11  C   UNL     1      22.653  29.291  57.584  1.00  0.00     0.053 C 
BRANCH  11  12
ATOM     12  C   UNL     1      23.729  30.010  56.833  1.00  0.00     0.041 C 
ATOM     13  O   UNL     1      23.429  30.860  55.952  1.00  0.00    -0.550 OA
ATOM     14  O   UNL     1      25.065  29.710  57.070  1.00  0.00    -0.550 OA
ENDBRANCH  11  12
ENDBRANCH  10  11
ENDBRANCH   9  10
ENDBRANCH   8   9
ENDBRANCH   7   8
ENDBRANCH   6   7
ENDBRANCH   5   6
ENDBRANCH   4   5
ENDBRANCH   3   4
ENDBRANCH   2   3
ENDBRANCH   1   2
BRANCH   1  15
ATOM     15  C   UNL     1      16.379  29.382  55.163  1.00  0.00     0.000 C 
BRANCH  15  16
ATOM     16  C   UNL     1      15.109  28.773  54.547  1.00  0.00     0.000 C 
BRANCH  16  17
ATOM     17  C   UNL     1      14.963  27.270  54.858  1.00  0.00     0.000 C 
BRANCH  17  18
ATOM     18  C   UNL     1      16.313  26.592  55.178  1.00  0.00    -0.000 C 
BRANCH  18  19
ATOM     19  C   UNL     1      16.519  25.233  54.481  1.00  0.00    -0.000 C 
BRANCH  19  20
ATOM     20  C   UNL     1      16.991  25.304  53.019  1.00  0.00    -0.000 C 
BRANCH  20  21
ATOM     21  C   UNL     1      18.159  26.284  52.812  1.00  0.00    -0.000 C 
BRANCH  21  22
ATOM     22  C   UNL     1      17.928  27.245  51.635  1.00  0.00    -0.000 C 
BRANCH  22  23
ATOM     23  C   UNL     1      16.446  27.630  51.430  1.00  0.00    -0.000 C 
BRANCH  23  24
ATOM     24  C   UNL     1      16.223  28.387  50.110  1.00  0.00    -0.000 C 
BRANCH  24  25
ATOM     25  C   UNL     1      15.610  27.498  49.018  1.00  0.00    -0.003 C 
ATOM     26  C   UNL     1      14.622  28.257  48.133  1.00  0.00     0.004 C 
ENDBRANCH  24  25
ENDBRANCH  23  24
ENDBRANCH  22  23
ENDBRANCH  21  22
ENDBRANCH  20  21
ENDBRANCH  19  20
ENDBRANCH  18  19
ENDBRANCH  17  18
ENDBRANCH  16  17
ENDBRANCH  15  16
ENDBRANCH   1  15
TORSDOF 22
ENDMDL
MODEL 9
REMARK VINA RESULT:    -2.907      8.140     11.066
REMARK INTER + INTRA:         -10.922
REMARK INTER:                  -6.464
REMARK INTRA:                  -4.458
REMARK UNBOUND:                -4.275
REMARK SMILES CCCCCCCCCCCCCCCCCCCCCCCC(=O)[O-]
REMARK SMILES IDX 13 1 14 2 15 3 16 4 17 5 18 6 19 7 20 8 21 9 22 10 23 11
REMARK SMILES IDX 24 12 25 13 26 14 12 15 11 16 10 17 9 18 8 19 7 20 6 21 5 22
REMARK SMILES IDX 4 23 3 24 2 25 1 26
REMARK H PARENT
REMARK Flexibility Score: inf
ROOT
ATOM      1  C   UNL     1      20.946  29.396  55.287  1.00  0.00     0.000 C 
ENDROOT
BRANCH   1   2
ATOM      2  C   UNL     1      19.615  30.146  55.107  1.00  0.00     0.000 C 
BRANCH   2   3
ATOM      3  C   UNL     1      18.658  29.429  54.138  1.00  0.00     0.000 C 
BRANCH   3   4
ATOM      4  C   UNL     1      17.242  30.036  54.137  1.00  0.00     0.000 C 
BRANCH   4   5
ATOM      5  C   UNL     1      16.282  29.442  55.184  1.00  0.00     0.000 C 
BRANCH   5   6
ATOM      6  C   UNL     1      15.156  28.603  54.555  1.00  0.00     0.000 C 
BRANCH   6   7
ATOM      7  C   UNL     1      15.274  27.106  54.889  1.00  0.00     0.000 C 
BRANCH   7   8
ATOM      8  C   UNL     1      15.445  26.211  53.641  1.00  0.00     0.000 C 
BRANCH   8   9
ATOM      9  C   UNL     1      16.850  26.341  53.025  1.00  0.00     0.000 C 
BRANCH   9  10
ATOM     10  C   UNL     1      16.815  26.588  51.509  1.00  0.00     0.006 C 
BRANCH  10  11
ATOM     11  C   UNL     1      16.373  28.014  51.151  1.00  0.00     0.053 C 
BRANCH  11  12
ATOM     12  C   UNL     1      15.085  27.987  50.390  1.00  0.00     0.041 C 
ATOM     13  O   UNL     1      13.986  28.083  51.000  1.00  0.00    -0.550 OA
ATOM     14  O   UNL     1      15.091  27.807  49.012  1.00  0.00    -0.550 OA
ENDBRANCH  11  12
ENDBRANCH  10  11
ENDBRANCH   9  10
ENDBRANCH   8   9
ENDBRANCH   7   8
ENDBRANCH   6   7
ENDBRANCH   5   6
ENDBRANCH   4   5
ENDBRANCH   3   4
ENDBRANCH   2   3
ENDBRANCH   1   2
BRANCH   1  15
ATOM     15  C   UNL     1      21.987  30.211  56.073  1.00  0.00     0.000 C 
BRANCH  15  16
ATOM     16  C   UNL     1      22.256  29.639  57.475  1.00  0.00     0.000 C 
BRANCH  16  17
ATOM     17  C   UNL     1      21.102  29.917  58.458  1.00  0.00     0.000 C 
BRANCH  17  18
ATOM     18  C   UNL     1      20.910  28.784  59.490  1.00  0.00    -0.000 C 
BRANCH  18  19
ATOM     19  C   UNL     1      19.890  27.710  59.067  1.00  0.00    -0.000 C 
BRANCH  19  20
ATOM     20  C   UNL     1      18.873  28.148  58.000  1.00  0.00    -0.000 C 
BRANCH  20  21
ATOM     21  C   UNL     1      18.106  26.967  57.380  1.00  0.00    -0.000 C 
BRANCH  21  22
ATOM     22  C   UNL     1      18.781  26.418  56.112  1.00  0.00    -0.000 C 
BRANCH  22  23
ATOM     23  C   UNL     1      19.267  24.959  56.252  1.00  0.00    -0.000 C 
BRANCH  23  24
ATOM     24  C   UNL     1      20.674  24.875  56.867  1.00  0.00    -0.000 C 
BRANCH  24  25
ATOM     25  C   UNL     1      21.620  25.956  56.322  1.00  0.00    -0.003 C 
ATOM     26  C   UNL     1      22.949  26.003  57.074  1.00  0.00     0.004 C 
ENDBRANCH  24  25
ENDBRANCH  23  24
ENDBRANCH  22  23
ENDBRANCH  21  22
ENDBRANCH  20  21
ENDBRANCH  19  20
ENDBRANCH  18  19
ENDBRANCH  17  18
ENDBRANCH  16  17
ENDBRANCH  15  16
ENDBRANCH   1  15
TORSDOF 22
ENDMDL
