MODEL 1
REMARK VINA RESULT:    -0.825      0.000      0.000
REMARK INTER + INTRA:          -1.307
REMARK INTER:                  -1.212
REMARK INTRA:                  -0.096
REMARK UNBOUND:                -0.096
REMARK SMILES C=C1C=C[C@H](C(C)C)CCC(C)=CCC1
REMARK SMILES IDX 3 1 4 2 5 3 9 4 10 5 11 6 12 7 13 8 6 10 7 11 8 12 2 13 1 14
REMARK SMILES IDX 15 15 14 16
REMARK H PARENT
REMARK Flexibility Score: 70.00
ROOT
ATOM      1  C   UNL     1     140.477 135.955 124.551  1.00  0.00    -0.001 C 
ATOM      2  C   UNL     1     140.062 136.588 123.443  1.00  0.00    -0.023 C 
ENDROOT
BRANCH   2   3
ATOM      3  C   UNL     1     138.618 136.775 123.020  1.00  0.00     0.014 C 
BRANCH   3   4
ATOM      4  C   UNL     1     138.179 138.239 123.259  1.00  0.00     0.012 C 
BRANCH   4   5
ATOM      5  C   UNL     1     136.996 138.374 124.235  1.00  0.00     0.031 C 
BRANCH   5   6
ATOM      6  C   UNL     1     136.008 137.226 124.117  1.00  0.00    -0.077 C 
ATOM      7  C   UNL     1     134.931 137.326 123.067  1.00  0.00     0.039 C 
ATOM      8  C   UNL     1     136.044 136.107 124.880  1.00  0.00    -0.028 CG0
ATOM      9  G   UNL     1     137.083 135.761 125.923  1.00  0.00     0.000 G0
ENDBRANCH   5   6
ENDBRANCH   4   5
ENDBRANCH   3   4
BRANCH   3  10
ATOM     10  C   UNL     1     138.382 136.331 121.546  1.00  0.00    -0.010 C 
ATOM     11  C   UNL     1     137.426 135.134 121.402  1.00  0.00     0.008 C 
ATOM     12  C   UNL     1     137.887 137.503 120.685  1.00  0.00     0.008 C 
ENDBRANCH   3  10
ENDBRANCH   2   3
BRANCH   1  13
ATOM     13  C   UNL     1     139.603 135.392 125.608  1.00  0.00    -0.055 C 
ATOM     14  C   UNL     1     140.080 135.365 126.856  1.00  0.00     0.012 C 
BRANCH  13  15
ATOM     15  C   UNL     1     138.196 134.878 125.353  1.00  0.00     0.039 C 
BRANCH  15  16
ATOM     16  C   UNL     1     137.059 135.748 125.944  1.00  0.00     0.032 CG0
ATOM     17  G   UNL     1     136.040 136.102 124.886  1.00  0.00     0.000 G0
ENDBRANCH  15  16
ENDBRANCH  13  15
ENDBRANCH   1  13
TORSDOF 1
ENDMDL
MODEL 2
REMARK VINA RESULT:     0.286      0.834      3.493
REMARK INTER + INTRA:           0.325
REMARK INTER:                  -0.827
REMARK INTRA:                   1.152
REMARK UNBOUND:                -0.096
REMARK SMILES C=C1C=C[C@H](C(C)C)CCC(C)=CCC1
REMARK SMILES IDX 3 1 4 2 5 3 9 4 10 5 11 6 12 7 13 8 6 10 7 11 8 12 2 13 1 14
REMARK SMILES IDX 15 15 14 16
REMARK H PARENT
REMARK Flexibility Score: 70.00
ROOT
ATOM      1  C   UNL     1     137.113 138.220 124.300  1.00  0.00    -0.001 C 
ATOM      2  C   UNL     1     138.195 138.377 123.524  1.00  0.00    -0.023 C 
ENDROOT
BRANCH   2   3
ATOM      3  C   UNL     1     138.740 137.353 122.548  1.00  0.00     0.014 C 
BRANCH   3   4
ATOM      4  C   UNL     1     139.263 136.115 123.313  1.00  0.00     0.012 C 
BRANCH   4   5
ATOM      5  C   UNL     1     140.142 136.468 124.527  1.00  0.00     0.031 C 
BRANCH   5   6
ATOM      6  C   UNL     1     139.749 135.697 125.775  1.00  0.00    -0.077 C 
ATOM      7  C   UNL     1     140.683 135.742 126.958  1.00  0.00     0.039 C 
ATOM      8  C   UNL     1     138.602 134.986 125.903  1.00  0.00    -0.028 CG0
ATOM      9  G   UNL     1     137.491 134.878 124.883  1.00  0.00     0.000 G0
ENDBRANCH   5   6
ENDBRANCH   4   5
ENDBRANCH   3   4
BRANCH   3  10
ATOM     10  C   UNL     1     137.688 136.965 121.466  1.00  0.00    -0.010 C 
ATOM     11  C   UNL     1     137.893 137.678 120.116  1.00  0.00     0.008 C 
ATOM     12  C   UNL     1     137.645 135.445 121.253  1.00  0.00     0.008 C 
ENDBRANCH   3  10
ENDBRANCH   2   3
BRANCH   1  13
ATOM     13  C   UNL     1     136.200 137.052 124.291  1.00  0.00    -0.055 C 
ATOM     14  C   UNL     1     135.228 137.032 123.374  1.00  0.00     0.012 C 
BRANCH  13  15
ATOM     15  C   UNL     1     136.330 135.873 125.241  1.00  0.00     0.039 C 
BRANCH  15  16
ATOM     16  C   UNL     1     137.468 134.878 124.906  1.00  0.00     0.032 CG0
ATOM     17  G   UNL     1     138.599 134.991 125.902  1.00  0.00     0.000 G0
ENDBRANCH  15  16
ENDBRANCH  13  15
ENDBRANCH   1  13
TORSDOF 1
ENDMDL
MODEL 3
REMARK VINA RESULT:     0.963      1.412      2.034
REMARK INTER + INTRA:           1.317
REMARK INTER:                  -0.767
REMARK INTRA:                   2.084
REMARK UNBOUND:                -0.096
REMARK SMILES C=C1C=C[C@H](C(C)C)CCC(C)=CCC1
REMARK SMILES IDX 3 1 4 2 5 3 9 4 10 5 11 6 12 7 13 8 6 10 7 11 8 12 2 13 1 14
REMARK SMILES IDX 15 15 14 16
REMARK H PARENT
REMARK Flexibility Score: 70.00
ROOT
ATOM      1  C   UNL     1     139.076 134.889 123.196  1.00  0.00    -0.001 C 
ATOM      2  C   UNL     1     139.006 135.598 122.059  1.00  0.00    -0.023 C 
ENDROOT
BRANCH   2   3
ATOM      3  C   UNL     1     138.005 136.698 121.764  1.00  0.00     0.014 C 
BRANCH   3   4
ATOM      4  C   UNL     1     138.188 137.865 122.763  1.00  0.00     0.012 C 
BRANCH   4   5
ATOM      5  C   UNL     1     136.961 138.791 122.858  1.00  0.00     0.031 C 
BRANCH   5   6
ATOM      6  C   UNL     1     136.074 138.461 124.047  1.00  0.00    -0.077 C 
ATOM      7  C   UNL     1     135.607 139.600 124.917  1.00  0.00     0.039 C 
ATOM      8  C   UNL     1     135.658 137.212 124.365  1.00  0.00    -0.028 CG0
ATOM      9  G   UNL     1     135.931 135.946 123.585  1.00  0.00     0.000 G0
ENDBRANCH   5   6
ENDBRANCH   4   5
ENDBRANCH   3   4
BRANCH   3  10
ATOM     10  C   UNL     1     138.091 137.180 120.286  1.00  0.00    -0.010 C 
ATOM     11  C   UNL     1     137.506 138.586 120.055  1.00  0.00     0.008 C 
ATOM     12  C   UNL     1     139.534 137.122 119.764  1.00  0.00     0.008 C 
ENDBRANCH   3  10
ENDBRANCH   2   3
BRANCH   1  13
ATOM     13  C   UNL     1     138.246 135.102 124.405  1.00  0.00    -0.055 C 
ATOM     14  C   UNL     1     138.864 135.508 125.518  1.00  0.00     0.012 C 
BRANCH  13  15
ATOM     15  C   UNL     1     136.738 134.914 124.436  1.00  0.00     0.039 C 
BRANCH  15  16
ATOM     16  C   UNL     1     135.929 135.926 123.588  1.00  0.00     0.032 CG0
ATOM     17  G   UNL     1     135.679 137.203 124.357  1.00  0.00     0.000 G0
ENDBRANCH  15  16
ENDBRANCH  13  15
ENDBRANCH   1  13
TORSDOF 1
ENDMDL
MODEL 4
REMARK VINA RESULT:     2.069      1.476      3.890
REMARK INTER + INTRA:           2.941
REMARK INTER:                   2.446
REMARK INTRA:                   0.495
REMARK UNBOUND:                -0.096
REMARK SMILES C=C1C=C[C@H](C(C)C)CCC(C)=CCC1
REMARK SMILES IDX 3 1 4 2 5 3 9 4 10 5 11 6 12 7 13 8 6 10 7 11 8 12 2 13 1 14
REMARK SMILES IDX 15 15 14 16
REMARK H PARENT
REMARK Flexibility Score: 70.00
ROOT
ATOM      1  C   UNL     1     137.690 137.613 124.476  1.00  0.00    -0.001 C 
ATOM      2  C   UNL     1     138.971 137.420 124.128  1.00  0.00    -0.023 C 
ENDROOT
BRANCH   2   3
ATOM      3  C   UNL     1     139.712 136.098 124.185  1.00  0.00     0.014 C 
BRANCH   3   4
ATOM      4  C   UNL     1     140.190 135.695 122.771  1.00  0.00     0.012 C 
BRANCH   4   5
ATOM      5  C   UNL     1     139.082 135.071 121.902  1.00  0.00     0.031 C 
BRANCH   5   6
ATOM      6  C   UNL     1     138.086 136.103 121.400  1.00  0.00    -0.077 C 
ATOM      7  C   UNL     1     138.559 137.101 120.374  1.00  0.00     0.039 C 
ATOM      8  C   UNL     1     136.793 136.171 121.799  1.00  0.00    -0.028 CG0
ATOM      9  G   UNL     1     136.090 135.223 122.743  1.00  0.00     0.000 G0
ENDBRANCH   5   6
ENDBRANCH   4   5
ENDBRANCH   3   4
BRANCH   3  10
ATOM     10  C   UNL     1     140.888 136.135 125.207  1.00  0.00    -0.010 C 
ATOM     11  C   UNL     1     141.617 137.490 125.268  1.00  0.00     0.008 C 
ATOM     12  C   UNL     1     140.416 135.731 126.612  1.00  0.00     0.008 C 
ENDBRANCH   3  10
ENDBRANCH   2   3
BRANCH   1  13
ATOM     13  C   UNL     1     136.738 136.561 124.903  1.00  0.00    -0.055 C 
ATOM     14  C   UNL     1     136.853 136.089 126.148  1.00  0.00     0.012 C 
BRANCH  13  15
ATOM     15  C   UNL     1     135.628 136.018 124.017  1.00  0.00     0.039 C 
BRANCH  15  16
ATOM     16  C   UNL     1     136.105 135.250 122.760  1.00  0.00     0.032 CG0
ATOM     17  G   UNL     1     136.802 136.176 121.790  1.00  0.00     0.000 G0
ENDBRANCH  15  16
ENDBRANCH  13  15
ENDBRANCH   1  13
TORSDOF 1
ENDMDL
