MODEL 1
REMARK VINA RESULT:    -3.349      0.000      0.000
REMARK INTER + INTRA:          -4.055
REMARK INTER:                  -3.936
REMARK INTRA:                  -0.119
REMARK UNBOUND:                -0.119
REMARK SMILES O=C([O-])CCC(=O)[O-]
REMARK SMILES IDX 4 1 2 2 1 3 3 4 5 5 6 6 7 7 8 8
REMARK H PARENT
REMARK Flexibility Score: inf
ROOT
ATOM      1  C   UNL     1      10.883   0.523   0.910  1.00  0.00     0.059 C 
ENDROOT
BRANCH   1   2
ATOM      2  C   UNL     1      10.177  -0.064   2.092  1.00  0.00     0.042 C 
ATOM      3  O   UNL     1      10.141   0.561   3.185  1.00  0.00    -0.550 OA
ATOM      4  O   UNL     1       9.589  -1.319   1.999  1.00  0.00    -0.550 OA
ENDBRANCH   1   2
BRANCH   1   5
ATOM      5  C   UNL     1      12.380   0.196   0.928  1.00  0.00     0.059 C 
BRANCH   5   6
ATOM      6  C   UNL     1      12.733  -0.826  -0.110  1.00  0.00     0.042 C 
ATOM      7  O   UNL     1      13.461  -0.510  -1.088  1.00  0.00    -0.550 OA
ATOM      8  O   UNL     1      12.225  -2.115  -0.018  1.00  0.00    -0.550 OA
ENDBRANCH   5   6
ENDBRANCH   1   5
TORSDOF 3
ENDMDL
MODEL 2
REMARK VINA RESULT:    -3.341      0.077      3.854
REMARK INTER + INTRA:          -4.045
REMARK INTER:                  -3.928
REMARK INTRA:                  -0.117
REMARK UNBOUND:                -0.119
REMARK SMILES O=C([O-])CCC(=O)[O-]
REMARK SMILES IDX 4 1 2 2 1 3 3 4 5 5 6 6 7 7 8 8
REMARK H PARENT
REMARK Flexibility Score: inf
ROOT
ATOM      1  C   UNL     1      12.391   0.183   0.930  1.00  0.00     0.059 C 
ENDROOT
BRANCH   1   2
ATOM      2  C   UNL     1      12.723  -0.835  -0.118  1.00  0.00     0.042 C 
ATOM      3  O   UNL     1      12.252  -2.000  -0.042  1.00  0.00    -0.550 OA
ATOM      4  O   UNL     1      13.582  -0.507  -1.158  1.00  0.00    -0.550 OA
ENDBRANCH   1   2
BRANCH   1   5
ATOM      5  C   UNL     1      10.897   0.518   0.937  1.00  0.00     0.059 C 
BRANCH   5   6
ATOM      6  C   UNL     1      10.206  -0.064   2.133  1.00  0.00     0.042 C 
ATOM      7  O   UNL     1      10.209   0.553   3.230  1.00  0.00    -0.550 OA
ATOM      8  O   UNL     1       9.594  -1.308   2.044  1.00  0.00    -0.550 OA
ENDBRANCH   5   6
ENDBRANCH   1   5
TORSDOF 3
ENDMDL
MODEL 3
REMARK VINA RESULT:    -3.338      1.235      1.850
REMARK INTER + INTRA:          -4.043
REMARK INTER:                  -3.976
REMARK INTRA:                  -0.066
REMARK UNBOUND:                -0.119
REMARK SMILES O=C([O-])CCC(=O)[O-]
REMARK SMILES IDX 4 1 2 2 1 3 3 4 5 5 6 6 7 7 8 8
REMARK H PARENT
REMARK Flexibility Score: inf
ROOT
ATOM      1  C   UNL     1      10.749   0.215   2.227  1.00  0.00     0.059 C 
ENDROOT
BRANCH   1   2
ATOM      2  C   UNL     1       9.794  -0.937   2.168  1.00  0.00     0.042 C 
ATOM      3  O   UNL     1      10.159  -2.039   1.682  1.00  0.00    -0.550 OA
ATOM      4  O   UNL     1       8.488  -0.781   2.615  1.00  0.00    -0.550 OA
ENDBRANCH   1   2
BRANCH   1   5
ATOM      5  C   UNL     1      11.289   0.571   0.838  1.00  0.00     0.059 C 
BRANCH   5   6
ATOM      6  C   UNL     1      12.659   0.005   0.618  1.00  0.00     0.042 C 
ATOM      7  O   UNL     1      13.486  -0.041   1.566  1.00  0.00    -0.550 OA
ATOM      8  O   UNL     1      13.035  -0.433  -0.645  1.00  0.00    -0.550 OA
ENDBRANCH   5   6
ENDBRANCH   1   5
TORSDOF 3
ENDMDL
MODEL 4
REMARK VINA RESULT:    -3.314      2.322      3.263
REMARK INTER + INTRA:          -4.014
REMARK INTER:                  -3.830
REMARK INTRA:                  -0.184
REMARK UNBOUND:                -0.119
REMARK SMILES O=C([O-])CCC(=O)[O-]
REMARK SMILES IDX 4 1 2 2 1 3 3 4 5 5 6 6 7 7 8 8
REMARK H PARENT
REMARK Flexibility Score: inf
ROOT
ATOM      1  C   UNL     1      11.909   0.553   2.353  1.00  0.00     0.059 C 
ENDROOT
BRANCH   1   2
ATOM      2  C   UNL     1      11.744   0.525   3.841  1.00  0.00     0.042 C 
ATOM      3  O   UNL     1      11.101   1.437   4.425  1.00  0.00    -0.550 OA
ATOM      4  O   UNL     1      12.333  -0.487   4.588  1.00  0.00    -0.550 OA
ENDBRANCH   1   2
BRANCH   1   5
ATOM      5  C   UNL     1      10.569   0.367   1.634  1.00  0.00     0.059 C 
BRANCH   5   6
ATOM      6  C   UNL     1       9.891  -0.903   2.050  1.00  0.00     0.042 C 
ATOM      7  O   UNL     1      10.426  -2.016   1.808  1.00  0.00    -0.550 OA
ATOM      8  O   UNL     1       8.649  -0.857   2.670  1.00  0.00    -0.550 OA
ENDBRANCH   5   6
ENDBRANCH   1   5
TORSDOF 3
ENDMDL
MODEL 5
REMARK VINA RESULT:    -3.304      2.345      3.505
REMARK INTER + INTRA:          -4.003
REMARK INTER:                  -3.828
REMARK INTRA:                  -0.175
REMARK UNBOUND:                -0.119
REMARK SMILES O=C([O-])CCC(=O)[O-]
REMARK SMILES IDX 4 1 2 2 1 3 3 4 5 5 6 6 7 7 8 8
REMARK H PARENT
REMARK Flexibility Score: inf
ROOT
ATOM      1  C   UNL     1      10.529   0.409   1.736  1.00  0.00     0.059 C 
ENDROOT
BRANCH   1   2
ATOM      2  C   UNL     1       9.853  -0.885   2.069  1.00  0.00     0.042 C 
ATOM      3  O   UNL     1      10.430  -1.980   1.837  1.00  0.00    -0.550 OA
ATOM      4  O   UNL     1       8.571  -0.883   2.603  1.00  0.00    -0.550 OA
ENDBRANCH   1   2
BRANCH   1   5
ATOM      5  C   UNL     1      11.895   0.524   2.419  1.00  0.00     0.059 C 
BRANCH   5   6
ATOM      6  C   UNL     1      11.766   0.536   3.912  1.00  0.00     0.042 C 
ATOM      7  O   UNL     1      11.119   1.451   4.485  1.00  0.00    -0.550 OA
ATOM      8  O   UNL     1      12.395  -0.443   4.671  1.00  0.00    -0.550 OA
ENDBRANCH   5   6
ENDBRANCH   1   5
TORSDOF 3
ENDMDL
MODEL 6
REMARK VINA RESULT:    -3.285      1.340      3.836
REMARK INTER + INTRA:          -3.980
REMARK INTER:                  -3.862
REMARK INTRA:                  -0.118
REMARK UNBOUND:                -0.119
REMARK SMILES O=C([O-])CCC(=O)[O-]
REMARK SMILES IDX 4 1 2 2 1 3 3 4 5 5 6 6 7 7 8 8
REMARK H PARENT
REMARK Flexibility Score: inf
ROOT
ATOM      1  C   UNL     1      11.325   0.586   0.963  1.00  0.00     0.059 C 
ENDROOT
BRANCH   1   2
ATOM      2  C   UNL     1      11.842  -0.588   0.191  1.00  0.00     0.042 C 
ATOM      3  O   UNL     1      11.299  -1.718   0.313  1.00  0.00    -0.550 OA
ATOM      4  O   UNL     1      12.949  -0.444  -0.636  1.00  0.00    -0.550 OA
ENDBRANCH   1   2
BRANCH   1   5
ATOM      5  C   UNL     1      10.475   0.144   2.158  1.00  0.00     0.059 C 
BRANCH   5   6
ATOM      6  C   UNL     1      11.270   0.140   3.428  1.00  0.00     0.042 C 
ATOM      7  O   UNL     1      11.976  -0.858   3.732  1.00  0.00    -0.550 OA
ATOM      8  O   UNL     1      11.199   1.222   4.296  1.00  0.00    -0.550 OA
ENDBRANCH   5   6
ENDBRANCH   1   5
TORSDOF 3
ENDMDL
MODEL 7
REMARK VINA RESULT:    -3.276      1.310      1.873
REMARK INTER + INTRA:          -3.969
REMARK INTER:                  -3.851
REMARK INTRA:                  -0.118
REMARK UNBOUND:                -0.119
REMARK SMILES O=C([O-])CCC(=O)[O-]
REMARK SMILES IDX 4 1 2 2 1 3 3 4 5 5 6 6 7 7 8 8
REMARK H PARENT
REMARK Flexibility Score: inf
ROOT
ATOM      1  C   UNL     1      10.439   0.199   2.112  1.00  0.00     0.059 C 
ENDROOT
BRANCH   1   2
ATOM      2  C   UNL     1      11.195   0.200   3.404  1.00  0.00     0.042 C 
ATOM      3  O   UNL     1      11.851  -0.815   3.757  1.00  0.00    -0.550 OA
ATOM      4  O   UNL     1      11.145   1.310   4.238  1.00  0.00    -0.550 OA
ENDBRANCH   1   2
BRANCH   1   5
ATOM      5  C   UNL     1      11.333   0.602   0.935  1.00  0.00     0.059 C 
BRANCH   5   6
ATOM      6  C   UNL     1      11.872  -0.597   0.215  1.00  0.00     0.042 C 
ATOM      7  O   UNL     1      12.871  -0.485  -0.542  1.00  0.00    -0.550 OA
ATOM      8  O   UNL     1      11.244  -1.828   0.351  1.00  0.00    -0.550 OA
ENDBRANCH   5   6
ENDBRANCH   1   5
TORSDOF 3
ENDMDL
MODEL 8
REMARK VINA RESULT:    -3.228      1.312      3.934
REMARK INTER + INTRA:          -3.913
REMARK INTER:                  -3.799
REMARK INTRA:                  -0.113
REMARK UNBOUND:                -0.119
REMARK SMILES O=C([O-])CCC(=O)[O-]
REMARK SMILES IDX 4 1 2 2 1 3 3 4 5 5 6 6 7 7 8 8
REMARK H PARENT
REMARK Flexibility Score: inf
ROOT
ATOM      1  C   UNL     1      11.854  -0.637   0.141  1.00  0.00     0.059 C 
ENDROOT
BRANCH   1   2
ATOM      2  C   UNL     1      13.325  -0.428  -0.050  1.00  0.00     0.042 C 
ATOM      3  O   UNL     1      14.064  -0.180   0.938  1.00  0.00    -0.550 OA
ATOM      4  O   UNL     1      13.873  -0.470  -1.325  1.00  0.00    -0.550 OA
ENDBRANCH   1   2
BRANCH   1   5
ATOM      5  C   UNL     1      11.213   0.529   0.900  1.00  0.00     0.059 C 
BRANCH   5   6
ATOM      6  C   UNL     1      10.544   0.067   2.158  1.00  0.00     0.042 C 
ATOM      7  O   UNL     1       9.308   0.244   2.321  1.00  0.00    -0.550 OA
ATOM      8  O   UNL     1      11.294  -0.522   3.168  1.00  0.00    -0.550 OA
ENDBRANCH   5   6
ENDBRANCH   1   5
TORSDOF 3
ENDMDL
MODEL 9
REMARK VINA RESULT:    -3.155      1.340      4.032
REMARK INTER + INTRA:          -3.827
REMARK INTER:                  -3.720
REMARK INTRA:                  -0.108
REMARK UNBOUND:                -0.119
REMARK SMILES O=C([O-])CCC(=O)[O-]
REMARK SMILES IDX 4 1 2 2 1 3 3 4 5 5 6 6 7 7 8 8
REMARK H PARENT
REMARK Flexibility Score: inf
ROOT
ATOM      1  C   UNL     1      11.959  -0.738  -0.032  1.00  0.00     0.059 C 
ENDROOT
BRANCH   1   2
ATOM      2  C   UNL     1      13.420  -0.459  -0.204  1.00  0.00     0.042 C 
ATOM      3  O   UNL     1      13.940  -0.480  -1.350  1.00  0.00    -0.550 OA
ATOM      4  O   UNL     1      14.216  -0.211   0.907  1.00  0.00    -0.550 OA
ENDBRANCH   1   2
BRANCH   1   5
ATOM      5  C   UNL     1      11.260   0.377   0.752  1.00  0.00     0.059 C 
BRANCH   5   6
ATOM      6  C   UNL     1      10.558  -0.158   1.964  1.00  0.00     0.042 C 
ATOM      7  O   UNL     1      11.099  -1.052   2.667  1.00  0.00    -0.550 OA
ATOM      8  O   UNL     1       9.290   0.303   2.291  1.00  0.00    -0.550 OA
ENDBRANCH   5   6
ENDBRANCH   1   5
TORSDOF 3
ENDMDL
