MODEL 1
REMARK VINA RESULT:    -4.775      0.000      0.000
REMARK INTER + INTRA:          -6.829
REMARK INTER:                  -6.450
REMARK INTRA:                  -0.379
REMARK UNBOUND:                -0.379
REMARK SMILES CCCCCCCC(=O)[O-]
REMARK SMILES IDX 5 1 6 2 7 3 8 4 9 5 10 6 4 7 3 8 2 9 1 10
REMARK H PARENT
REMARK Flexibility Score: inf
ROOT
ATOM      1  C   UNL     1      19.330   6.449  11.026  1.00  0.00     0.000 C 
ENDROOT
BRANCH   1   2
ATOM      2  C   UNL     1      19.534   7.974  11.040  1.00  0.00     0.006 C 
BRANCH   2   3
ATOM      3  C   UNL     1      20.810   8.401  11.779  1.00  0.00     0.053 C 
BRANCH   3   4
ATOM      4  C   UNL     1      21.922   8.640  10.807  1.00  0.00     0.041 C 
ATOM      5  O   UNL     1      21.858   9.599   9.995  1.00  0.00    -0.550 OA
ATOM      6  O   UNL     1      23.007   7.773  10.766  1.00  0.00    -0.550 OA
ENDBRANCH   3   4
ENDBRANCH   2   3
ENDBRANCH   1   2
BRANCH   1   7
ATOM      7  C   UNL     1      19.323   5.803   9.628  1.00  0.00     0.000 C 
BRANCH   7   8
ATOM      8  C   UNL     1      20.083   6.634   8.581  1.00  0.00    -0.000 C 
BRANCH   8   9
ATOM      9  C   UNL     1      19.173   7.116   7.440  1.00  0.00    -0.003 C 
ATOM     10  C   UNL     1      19.587   8.481   6.889  1.00  0.00     0.004 C 
ENDBRANCH   8   9
ENDBRANCH   7   8
ENDBRANCH   1   7
TORSDOF 6
ENDMDL
MODEL 2
REMARK VINA RESULT:    -4.597      0.892      1.038
REMARK INTER + INTRA:          -6.589
REMARK INTER:                  -6.128
REMARK INTRA:                  -0.461
REMARK UNBOUND:                -0.379
REMARK SMILES CCCCCCCC(=O)[O-]
REMARK SMILES IDX 5 1 6 2 7 3 8 4 9 5 10 6 4 7 3 8 2 9 1 10
REMARK H PARENT
REMARK Flexibility Score: inf
ROOT
ATOM      1  C   UNL     1      19.744   7.186  11.269  1.00  0.00     0.000 C 
ENDROOT
BRANCH   1   2
ATOM      2  C   UNL     1      21.233   7.254  11.652  1.00  0.00     0.006 C 
BRANCH   2   3
ATOM      3  C   UNL     1      21.807   8.675  11.578  1.00  0.00     0.053 C 
BRANCH   3   4
ATOM      4  C   UNL     1      22.628   8.844  10.340  1.00  0.00     0.041 C 
ATOM      5  O   UNL     1      22.644   9.948   9.735  1.00  0.00    -0.550 OA
ATOM      6  O   UNL     1      23.338   7.766   9.825  1.00  0.00    -0.550 OA
ENDBRANCH   3   4
ENDBRANCH   2   3
ENDBRANCH   1   2
BRANCH   1   7
ATOM      7  C   UNL     1      19.399   6.173  10.161  1.00  0.00     0.000 C 
BRANCH   7   8
ATOM      8  C   UNL     1      19.995   6.553   8.796  1.00  0.00    -0.000 C 
BRANCH   8   9
ATOM      9  C   UNL     1      19.639   7.989   8.378  1.00  0.00    -0.003 C 
ATOM     10  C   UNL     1      19.314   8.110   6.888  1.00  0.00     0.004 C 
ENDBRANCH   8   9
ENDBRANCH   7   8
ENDBRANCH   1   7
TORSDOF 6
ENDMDL
MODEL 3
REMARK VINA RESULT:    -4.548      1.632      2.032
REMARK INTER + INTRA:          -6.523
REMARK INTER:                  -6.154
REMARK INTRA:                  -0.368
REMARK UNBOUND:                -0.379
REMARK SMILES CCCCCCCC(=O)[O-]
REMARK SMILES IDX 5 1 6 2 7 3 8 4 9 5 10 6 4 7 3 8 2 9 1 10
REMARK H PARENT
REMARK Flexibility Score: inf
ROOT
ATOM      1  C   UNL     1      19.446   7.918  11.028  1.00  0.00     0.000 C 
ENDROOT
BRANCH   1   2
ATOM      2  C   UNL     1      20.722   8.360  11.764  1.00  0.00     0.006 C 
BRANCH   2   3
ATOM      3  C   UNL     1      21.829   7.298  11.734  1.00  0.00     0.053 C 
BRANCH   3   4
ATOM      4  C   UNL     1      22.767   7.488  12.885  1.00  0.00     0.041 C 
ATOM      5  O   UNL     1      22.737   8.551  13.558  1.00  0.00    -0.550 OA
ATOM      6  O   UNL     1      23.707   6.509  13.183  1.00  0.00    -0.550 OA
ENDBRANCH   3   4
ENDBRANCH   2   3
ENDBRANCH   1   2
BRANCH   1   7
ATOM      7  C   UNL     1      19.330   6.403  10.772  1.00  0.00     0.000 C 
BRANCH   7   8
ATOM      8  C   UNL     1      19.271   6.052   9.276  1.00  0.00    -0.000 C 
BRANCH   8   9
ATOM      9  C   UNL     1      20.100   7.015   8.413  1.00  0.00    -0.003 C 
ATOM     10  C   UNL     1      19.297   7.620   7.261  1.00  0.00     0.004 C 
ENDBRANCH   8   9
ENDBRANCH   7   8
ENDBRANCH   1   7
TORSDOF 6
ENDMDL
MODEL 4
REMARK VINA RESULT:    -4.419      1.298      2.374
REMARK INTER + INTRA:          -6.348
REMARK INTER:                  -5.828
REMARK INTRA:                  -0.520
REMARK UNBOUND:                -0.379
REMARK SMILES CCCCCCCC(=O)[O-]
REMARK SMILES IDX 5 1 6 2 7 3 8 4 9 5 10 6 4 7 3 8 2 9 1 10
REMARK H PARENT
REMARK Flexibility Score: inf
ROOT
ATOM      1  C   UNL     1      20.802   8.340  11.830  1.00  0.00     0.000 C 
ENDROOT
BRANCH   1   2
ATOM      2  C   UNL     1      22.119   7.627  11.478  1.00  0.00     0.006 C 
BRANCH   2   3
ATOM      3  C   UNL     1      22.527   7.811  10.010  1.00  0.00     0.053 C 
BRANCH   3   4
ATOM      4  C   UNL     1      22.967   9.220   9.762  1.00  0.00     0.041 C 
ATOM      5  O   UNL     1      22.674   9.794   8.682  1.00  0.00    -0.550 OA
ATOM      6  O   UNL     1      23.743   9.881  10.706  1.00  0.00    -0.550 OA
ENDBRANCH   3   4
ENDBRANCH   2   3
ENDBRANCH   1   2
BRANCH   1   7
ATOM      7  C   UNL     1      19.610   8.002  10.915  1.00  0.00     0.000 C 
BRANCH   7   8
ATOM      8  C   UNL     1      19.151   6.540  11.046  1.00  0.00    -0.000 C 
BRANCH   8   9
ATOM      9  C   UNL     1      19.305   5.756   9.733  1.00  0.00    -0.003 C 
ATOM     10  C   UNL     1      19.385   6.663   8.505  1.00  0.00     0.004 C 
ENDBRANCH   8   9
ENDBRANCH   7   8
ENDBRANCH   1   7
TORSDOF 6
ENDMDL
MODEL 5
REMARK VINA RESULT:    -4.227      1.757      2.892
REMARK INTER + INTRA:          -6.089
REMARK INTER:                  -5.646
REMARK INTRA:                  -0.443
REMARK UNBOUND:                -0.379
REMARK SMILES CCCCCCCC(=O)[O-]
REMARK SMILES IDX 5 1 6 2 7 3 8 4 9 5 10 6 4 7 3 8 2 9 1 10
REMARK H PARENT
REMARK Flexibility Score: inf
ROOT
ATOM      1  C   UNL     1      20.975   8.745  10.246  1.00  0.00     0.000 C 
ENDROOT
BRANCH   1   2
ATOM      2  C   UNL     1      20.914   8.428  11.751  1.00  0.00     0.006 C 
BRANCH   2   3
ATOM      3  C   UNL     1      22.115   7.607  12.239  1.00  0.00     0.053 C 
BRANCH   3   4
ATOM      4  C   UNL     1      23.108   8.491  12.925  1.00  0.00     0.041 C 
ATOM      5  O   UNL     1      22.958   8.792  14.138  1.00  0.00    -0.550 OA
ATOM      6  O   UNL     1      24.174   9.023  12.210  1.00  0.00    -0.550 OA
ENDBRANCH   3   4
ENDBRANCH   2   3
ENDBRANCH   1   2
BRANCH   1   7
ATOM      7  C   UNL     1      20.993   7.515   9.319  1.00  0.00     0.000 C 
BRANCH   7   8
ATOM      8  C   UNL     1      19.588   6.954   9.043  1.00  0.00    -0.000 C 
BRANCH   8   9
ATOM      9  C   UNL     1      19.358   5.590   9.713  1.00  0.00    -0.003 C 
ATOM     10  C   UNL     1      18.661   5.706  11.069  1.00  0.00     0.004 C 
ENDBRANCH   8   9
ENDBRANCH   7   8
ENDBRANCH   1   7
TORSDOF 6
ENDMDL
MODEL 6
REMARK VINA RESULT:    -4.020      1.681      2.542
REMARK INTER + INTRA:          -5.810
REMARK INTER:                  -5.472
REMARK INTRA:                  -0.338
REMARK UNBOUND:                -0.379
REMARK SMILES CCCCCCCC(=O)[O-]
REMARK SMILES IDX 5 1 6 2 7 3 8 4 9 5 10 6 4 7 3 8 2 9 1 10
REMARK H PARENT
REMARK Flexibility Score: inf
ROOT
ATOM      1  C   UNL     1      21.243   8.651  10.399  1.00  0.00     0.000 C 
ENDROOT
BRANCH   1   2
ATOM      2  C   UNL     1      22.294   9.244   9.444  1.00  0.00     0.006 C 
BRANCH   2   3
ATOM      3  C   UNL     1      23.634   9.532  10.133  1.00  0.00     0.053 C 
BRANCH   3   4
ATOM      4  C   UNL     1      24.287   8.256  10.562  1.00  0.00     0.041 C 
ATOM      5  O   UNL     1      24.735   8.136  11.732  1.00  0.00    -0.550 OA
ATOM      6  O   UNL     1      24.445   7.217   9.654  1.00  0.00    -0.550 OA
ENDBRANCH   3   4
ENDBRANCH   2   3
ENDBRANCH   1   2
BRANCH   1   7
ATOM      7  C   UNL     1      19.827   8.514   9.809  1.00  0.00     0.000 C 
BRANCH   7   8
ATOM      8  C   UNL     1      19.572   7.136   9.177  1.00  0.00    -0.000 C 
BRANCH   8   9
ATOM      9  C   UNL     1      19.815   7.131   7.659  1.00  0.00    -0.003 C 
ATOM     10  C   UNL     1      19.206   8.346   6.958  1.00  0.00     0.004 C 
ENDBRANCH   8   9
ENDBRANCH   7   8
ENDBRANCH   1   7
TORSDOF 6
ENDMDL
MODEL 7
REMARK VINA RESULT:    -4.020      2.099      3.776
REMARK INTER + INTRA:          -5.810
REMARK INTER:                  -5.290
REMARK INTRA:                  -0.520
REMARK UNBOUND:                -0.379
REMARK SMILES CCCCCCCC(=O)[O-]
REMARK SMILES IDX 5 1 6 2 7 3 8 4 9 5 10 6 4 7 3 8 2 9 1 10
REMARK H PARENT
REMARK Flexibility Score: inf
ROOT
ATOM      1  C   UNL     1      20.638   7.102  11.541  1.00  0.00     0.000 C 
ENDROOT
BRANCH   1   2
ATOM      2  C   UNL     1      19.361   7.450  10.757  1.00  0.00     0.006 C 
BRANCH   2   3
ATOM      3  C   UNL     1      19.591   8.520   9.681  1.00  0.00     0.053 C 
BRANCH   3   4
ATOM      4  C   UNL     1      19.754   7.883   8.337  1.00  0.00     0.041 C 
ATOM      5  O   UNL     1      20.487   6.870   8.201  1.00  0.00    -0.550 OA
ATOM      6  O   UNL     1      19.134   8.440   7.225  1.00  0.00    -0.550 OA
ENDBRANCH   3   4
ENDBRANCH   2   3
ENDBRANCH   1   2
BRANCH   1   7
ATOM      7  C   UNL     1      21.502   8.309  11.954  1.00  0.00     0.000 C 
BRANCH   7   8
ATOM      8  C   UNL     1      22.995   8.109  11.648  1.00  0.00    -0.000 C 
BRANCH   8   9
ATOM      9  C   UNL     1      23.295   8.127  10.141  1.00  0.00    -0.003 C 
ATOM     10  C   UNL     1      23.092   9.505   9.512  1.00  0.00     0.004 C 
ENDBRANCH   8   9
ENDBRANCH   7   8
ENDBRANCH   1   7
TORSDOF 6
ENDMDL
MODEL 8
REMARK VINA RESULT:    -3.946      1.708      2.992
REMARK INTER + INTRA:          -5.709
REMARK INTER:                  -5.396
REMARK INTRA:                  -0.313
REMARK UNBOUND:                -0.379
REMARK SMILES CCCCCCCC(=O)[O-]
REMARK SMILES IDX 5 1 6 2 7 3 8 4 9 5 10 6 4 7 3 8 2 9 1 10
REMARK H PARENT
REMARK Flexibility Score: inf
ROOT
ATOM      1  C   UNL     1      21.106   8.828  10.515  1.00  0.00     0.000 C 
ENDROOT
BRANCH   1   2
ATOM      2  C   UNL     1      22.063   9.096   9.340  1.00  0.00     0.006 C 
BRANCH   2   3
ATOM      3  C   UNL     1      23.505   9.362   9.791  1.00  0.00     0.053 C 
BRANCH   3   4
ATOM      4  C   UNL     1      24.115   8.118  10.355  1.00  0.00     0.041 C 
ATOM      5  O   UNL     1      24.329   7.124   9.612  1.00  0.00    -0.550 OA
ATOM      6  O   UNL     1      24.402   8.038  11.712  1.00  0.00    -0.550 OA
ENDBRANCH   3   4
ENDBRANCH   2   3
ENDBRANCH   1   2
BRANCH   1   7
ATOM      7  C   UNL     1      19.758   8.191  10.128  1.00  0.00     0.000 C 
BRANCH   7   8
ATOM      8  C   UNL     1      19.894   7.116   9.038  1.00  0.00    -0.000 C 
BRANCH   8   9
ATOM      9  C   UNL     1      19.331   5.756   9.479  1.00  0.00    -0.003 C 
ATOM     10  C   UNL     1      18.930   5.731  10.955  1.00  0.00     0.004 C 
ENDBRANCH   8   9
ENDBRANCH   7   8
ENDBRANCH   1   7
TORSDOF 6
ENDMDL
MODEL 9
REMARK VINA RESULT:    -3.841      2.460      4.556
REMARK INTER + INTRA:          -5.568
REMARK INTER:                  -5.136
REMARK INTRA:                  -0.432
REMARK UNBOUND:                -0.379
REMARK SMILES CCCCCCCC(=O)[O-]
REMARK SMILES IDX 5 1 6 2 7 3 8 4 9 5 10 6 4 7 3 8 2 9 1 10
REMARK H PARENT
REMARK Flexibility Score: inf
ROOT
ATOM      1  C   UNL     1      21.365   8.673   8.818  1.00  0.00     0.000 C 
ENDROOT
BRANCH   1   2
ATOM      2  C   UNL     1      19.921   8.142   8.802  1.00  0.00     0.006 C 
BRANCH   2   3
ATOM      3  C   UNL     1      19.824   6.657   9.177  1.00  0.00     0.053 C 
BRANCH   3   4
ATOM      4  C   UNL     1      19.172   6.497  10.514  1.00  0.00     0.041 C 
ATOM      5  O   UNL     1      18.834   5.355  10.922  1.00  0.00    -0.550 OA
ATOM      6  O   UNL     1      18.892   7.616  11.289  1.00  0.00    -0.550 OA
ENDBRANCH   3   4
ENDBRANCH   2   3
ENDBRANCH   1   2
BRANCH   1   7
ATOM      7  C   UNL     1      21.900   9.074  10.206  1.00  0.00     0.000 C 
BRANCH   7   8
ATOM      8  C   UNL     1      22.802   7.999  10.833  1.00  0.00    -0.000 C 
BRANCH   8   9
ATOM      9  C   UNL     1      22.385   7.645  12.269  1.00  0.00    -0.003 C 
ATOM     10  C   UNL     1      23.363   6.689  12.953  1.00  0.00     0.004 C 
ENDBRANCH   8   9
ENDBRANCH   7   8
ENDBRANCH   1   7
TORSDOF 6
ENDMDL
