MODEL 1
REMARK VINA RESULT:    -4.705      0.000      0.000
REMARK INTER + INTRA:          -4.842
REMARK INTER:                  -4.842
REMARK INTRA:                   0.000
REMARK UNBOUND:                 0.000
REMARK SMILES O=c1ccc2cc(O)ccc2o1
REMARK SMILES IDX 9 1 10 2 11 3 5 4 4 5 3 6 2 7 1 8 12 9 6 10 7 11 8 12
REMARK H PARENT 8 13
REMARK Flexibility Score: inf
ROOT
ATOM      1  C   UNL     1       0.162  28.355  33.759  1.00  0.00     0.050 A 
ATOM      2  C   UNL     1       0.249  28.955  32.499  1.00  0.00     0.052 A 
ATOM      3  C   UNL     1       0.154  28.174  31.342  1.00  0.00     0.138 A 
ATOM      4  C   UNL     1      -0.029  26.777  31.453  1.00  0.00     0.021 A 
ATOM      5  C   UNL     1      -0.120  26.023  30.279  1.00  0.00     0.019 A 
ATOM      6  C   UNL     1      -0.028  26.665  29.045  1.00  0.00     0.094 A 
ATOM      7  C   UNL     1       0.152  28.051  29.012  1.00  0.00     0.336 A 
ATOM      8  O   UNL     1       0.237  28.649  27.907  1.00  0.00    -0.246 OA
ATOM      9  O   UNL     1       0.236  28.746  30.144  1.00  0.00    -0.423 OA
ATOM     10  C   UNL     1      -0.114  26.180  32.719  1.00  0.00     0.058 A 
ATOM     11  C   UNL     1      -0.018  26.971  33.874  1.00  0.00     0.116 A 
ENDROOT
BRANCH  11  12
ATOM     12  O   UNL     1      -0.102  26.392  35.138  1.00  0.00    -0.508 OA
ATOM     13  H   UNL     1      -0.925  25.881  35.433  1.00  0.00     0.293 HD
ENDBRANCH  11  12
TORSDOF 1
ENDMDL
MODEL 2
REMARK VINA RESULT:    -4.392      1.013      4.792
REMARK INTER + INTRA:          -4.520
REMARK INTER:                  -4.520
REMARK INTRA:                   0.000
REMARK UNBOUND:                 0.000
REMARK SMILES O=c1ccc2cc(O)ccc2o1
REMARK SMILES IDX 9 1 10 2 11 3 5 4 4 5 3 6 2 7 1 8 12 9 6 10 7 11 8 12
REMARK H PARENT 8 13
REMARK Flexibility Score: inf
ROOT
ATOM      1  C   UNL     1      -0.116  26.700  28.636  1.00  0.00     0.050 A 
ATOM      2  C   UNL     1      -0.120  26.063  29.881  1.00  0.00     0.052 A 
ATOM      3  C   UNL     1      -0.119  26.821  31.057  1.00  0.00     0.138 A 
ATOM      4  C   UNL     1      -0.113  28.232  30.981  1.00  0.00     0.021 A 
ATOM      5  C   UNL     1      -0.111  28.962  32.173  1.00  0.00     0.019 A 
ATOM      6  C   UNL     1      -0.116  28.284  33.391  1.00  0.00     0.094 A 
ATOM      7  C   UNL     1      -0.121  26.885  33.390  1.00  0.00     0.336 A 
ATOM      8  O   UNL     1      -0.125  26.255  34.479  1.00  0.00    -0.246 OA
ATOM      9  O   UNL     1      -0.122  26.213  32.241  1.00  0.00    -0.423 OA
ATOM     10  C   UNL     1      -0.108  28.866  29.730  1.00  0.00     0.058 A 
ATOM     11  C   UNL     1      -0.110  28.098  28.556  1.00  0.00     0.116 A 
ENDROOT
BRANCH  11  12
ATOM     12  O   UNL     1      -0.106  28.713  27.306  1.00  0.00    -0.508 OA
ATOM     13  H   UNL     1      -0.879  29.291  26.998  1.00  0.00     0.293 HD
ENDBRANCH  11  12
TORSDOF 1
ENDMDL
MODEL 3
REMARK VINA RESULT:    -3.567      1.352      2.182
REMARK INTER + INTRA:          -3.672
REMARK INTER:                  -3.672
REMARK INTRA:                   0.000
REMARK UNBOUND:                 0.000
REMARK SMILES O=c1ccc2cc(O)ccc2o1
REMARK SMILES IDX 9 1 10 2 11 3 5 4 4 5 3 6 2 7 1 8 12 9 6 10 7 11 8 12
REMARK H PARENT 8 13
REMARK Flexibility Score: inf
ROOT
ATOM      1  C   UNL     1      -0.077  27.048  33.515  1.00  0.00     0.050 A 
ATOM      2  C   UNL     1      -0.070  26.372  32.290  1.00  0.00     0.052 A 
ATOM      3  C   UNL     1      -0.084  27.094  31.092  1.00  0.00     0.138 A 
ATOM      4  C   UNL     1      -0.108  28.506  31.124  1.00  0.00     0.021 A 
ATOM      5  C   UNL     1      -0.123  29.200  29.910  1.00  0.00     0.019 A 
ATOM      6  C   UNL     1      -0.114  28.484  28.713  1.00  0.00     0.094 A 
ATOM      7  C   UNL     1      -0.090  27.087  28.758  1.00  0.00     0.336 A 
ATOM      8  O   UNL     1      -0.082  26.423  27.688  1.00  0.00    -0.246 OA
ATOM      9  O   UNL     1      -0.077  26.450  29.927  1.00  0.00    -0.423 OA
ATOM     10  C   UNL     1      -0.116  29.178  32.355  1.00  0.00     0.058 A 
ATOM     11  C   UNL     1      -0.101  28.447  33.552  1.00  0.00     0.116 A 
ENDROOT
BRANCH  11  12
ATOM     12  O   UNL     1      -0.108  29.101  34.782  1.00  0.00    -0.508 OA
ATOM     13  H   UNL     1       0.670  29.025  35.426  1.00  0.00     0.293 HD
ENDBRANCH  11  12
TORSDOF 1
ENDMDL
MODEL 4
REMARK VINA RESULT:    -2.314      1.765      4.005
REMARK INTER + INTRA:          -2.382
REMARK INTER:                  -2.382
REMARK INTRA:                   0.000
REMARK UNBOUND:                 0.000
REMARK SMILES O=c1ccc2cc(O)ccc2o1
REMARK SMILES IDX 9 1 10 2 11 3 5 4 4 5 3 6 2 7 1 8 12 9 6 10 7 11 8 12
REMARK H PARENT 8 13
REMARK Flexibility Score: inf
ROOT
ATOM      1  C   UNL     1       0.052  26.456  28.448  1.00  0.00     0.050 A 
ATOM      2  C   UNL     1       0.115  27.690  29.103  1.00  0.00     0.052 A 
ATOM      3  C   UNL     1       0.063  27.747  30.500  1.00  0.00     0.138 A 
ATOM      4  C   UNL     1      -0.053  26.553  31.246  1.00  0.00     0.021 A 
ATOM      5  C   UNL     1      -0.103  26.640  32.640  1.00  0.00     0.019 A 
ATOM      6  C   UNL     1      -0.037  27.893  33.249  1.00  0.00     0.094 A 
ATOM      7  C   UNL     1       0.078  29.033  32.447  1.00  0.00     0.336 A 
ATOM      8  O   UNL     1       0.139  30.173  32.978  1.00  0.00    -0.246 OA
ATOM      9  O   UNL     1       0.123  28.922  31.121  1.00  0.00    -0.423 OA
ATOM     10  C   UNL     1      -0.117  25.318  30.584  1.00  0.00     0.058 A 
ATOM     11  C   UNL     1      -0.064  25.270  29.183  1.00  0.00     0.116 A 
ENDROOT
BRANCH  11  12
ATOM     12  O   UNL     1      -0.125  24.050  28.512  1.00  0.00    -0.508 OA
ATOM     13  H   UNL     1       0.713  23.582  28.189  1.00  0.00     0.293 HD
ENDBRANCH  11  12
TORSDOF 1
ENDMDL
