MODEL 1
REMARK VINA RESULT:    -3.084      0.000      0.000
REMARK INTER + INTRA:          -3.084
REMARK INTER:                  -3.084
REMARK INTRA:                   0.000
REMARK UNBOUND:                 0.000
REMARK SMILES CC(=O)[O-]
REMARK SMILES IDX 1 1 2 2 3 3 4 4
REMARK H PARENT
REMARK Flexibility Score: inf
ROOT
ATOM      1  C   UNL     1       4.177  67.826  82.110  1.00  0.00     0.063 C 
ATOM      2  C   UNL     1       5.072  68.137  80.958  1.00  0.00     0.038 C 
ATOM      3  O   UNL     1       4.587  68.583  79.885  1.00  0.00    -0.550 OA
ATOM      4  O   UNL     1       6.446  67.986  81.083  1.00  0.00    -0.550 OA
ENDROOT
TORSDOF 0
ENDMDL
MODEL 2
REMARK VINA RESULT:    -3.078     15.058     15.551
REMARK INTER + INTRA:          -3.078
REMARK INTER:                  -3.078
REMARK INTRA:                   0.000
REMARK UNBOUND:                 0.000
REMARK SMILES CC(=O)[O-]
REMARK SMILES IDX 1 1 2 2 3 3 4 4
REMARK H PARENT
REMARK Flexibility Score: inf
ROOT
ATOM      1  C   UNL     1      13.399  62.638  68.982  1.00  0.00     0.063 C 
ATOM      2  C   UNL     1      14.267  62.176  70.104  1.00  0.00     0.038 C 
ATOM      3  O   UNL     1      15.334  61.553  69.862  1.00  0.00    -0.550 OA
ATOM      4  O   UNL     1      13.928  62.479  71.416  1.00  0.00    -0.550 OA
ENDROOT
TORSDOF 0
ENDMDL
MODEL 3
REMARK VINA RESULT:    -3.015      9.986     10.259
REMARK INTER + INTRA:          -3.015
REMARK INTER:                  -3.015
REMARK INTRA:                   0.000
REMARK UNBOUND:                 0.000
REMARK SMILES CC(=O)[O-]
REMARK SMILES IDX 1 1 2 2 3 3 4 4
REMARK H PARENT
REMARK Flexibility Score: inf
ROOT
ATOM      1  C   UNL     1      13.500  61.942  80.109  1.00  0.00     0.063 C 
ATOM      2  C   UNL     1      12.574  61.637  78.981  1.00  0.00     0.038 C 
ATOM      3  O   UNL     1      11.437  61.147  79.213  1.00  0.00    -0.550 OA
ATOM      4  O   UNL     1      12.940  61.941  77.677  1.00  0.00    -0.550 OA
ENDROOT
TORSDOF 0
ENDMDL
MODEL 4
REMARK VINA RESULT:    -3.005     15.211     15.574
REMARK INTER + INTRA:          -3.005
REMARK INTER:                  -3.005
REMARK INTRA:                   0.000
REMARK UNBOUND:                 0.000
REMARK SMILES CC(=O)[O-]
REMARK SMILES IDX 1 1 2 2 3 3 4 4
REMARK H PARENT
REMARK Flexibility Score: inf
ROOT
ATOM      1  C   UNL     1      13.981  62.521  71.196  1.00  0.00     0.063 C 
ATOM      2  C   UNL     1      14.068  62.278  69.728  1.00  0.00     0.038 C 
ATOM      3  O   UNL     1      13.224  62.799  68.951  1.00  0.00    -0.550 OA
ATOM      4  O   UNL     1      15.109  61.523  69.207  1.00  0.00    -0.550 OA
ENDROOT
TORSDOF 0
ENDMDL
MODEL 5
REMARK VINA RESULT:    -2.880     10.063     10.382
REMARK INTER + INTRA:          -2.880
REMARK INTER:                  -2.880
REMARK INTRA:                   0.000
REMARK UNBOUND:                 0.000
REMARK SMILES CC(=O)[O-]
REMARK SMILES IDX 1 1 2 2 3 3 4 4
REMARK H PARENT
REMARK Flexibility Score: inf
ROOT
ATOM      1  C   UNL     1      12.929  62.088  78.040  1.00  0.00     0.063 C 
ATOM      2  C   UNL     1      12.784  61.712  79.476  1.00  0.00     0.038 C 
ATOM      3  O   UNL     1      13.665  62.052  80.309  1.00  0.00    -0.550 OA
ATOM      4  O   UNL     1      11.652  61.034  79.907  1.00  0.00    -0.550 OA
ENDROOT
TORSDOF 0
ENDMDL
MODEL 6
REMARK VINA RESULT:    -2.827     11.476     11.978
REMARK INTER + INTRA:          -2.827
REMARK INTER:                  -2.827
REMARK INTRA:                   0.000
REMARK UNBOUND:                 0.000
REMARK SMILES CC(=O)[O-]
REMARK SMILES IDX 1 1 2 2 3 3 4 4
REMARK H PARENT
REMARK Flexibility Score: inf
ROOT
ATOM      1  C   UNL     1      13.996  69.804  75.377  1.00  0.00     0.063 C 
ATOM      2  C   UNL     1      14.531  70.182  74.037  1.00  0.00     0.038 C 
ATOM      3  O   UNL     1      15.425  71.063  73.940  1.00  0.00    -0.550 OA
ATOM      4  O   UNL     1      14.083  69.526  72.898  1.00  0.00    -0.550 OA
ENDROOT
TORSDOF 0
ENDMDL
MODEL 7
REMARK VINA RESULT:    -2.792     11.565     12.034
REMARK INTER + INTRA:          -2.792
REMARK INTER:                  -2.792
REMARK INTRA:                   0.000
REMARK UNBOUND:                 0.000
REMARK SMILES CC(=O)[O-]
REMARK SMILES IDX 1 1 2 2 3 3 4 4
REMARK H PARENT
REMARK Flexibility Score: inf
ROOT
ATOM      1  C   UNL     1      14.028  69.804  75.208  1.00  0.00     0.063 C 
ATOM      2  C   UNL     1      14.531  70.106  73.837  1.00  0.00     0.038 C 
ATOM      3  O   UNL     1      14.016  69.541  72.837  1.00  0.00    -0.550 OA
ATOM      4  O   UNL     1      15.533  71.050  73.655  1.00  0.00    -0.550 OA
ENDROOT
TORSDOF 0
ENDMDL
MODEL 8
REMARK VINA RESULT:    -2.774     16.143     16.594
REMARK INTER + INTRA:          -2.774
REMARK INTER:                  -2.774
REMARK INTRA:                   0.000
REMARK UNBOUND:                 0.000
REMARK SMILES CC(=O)[O-]
REMARK SMILES IDX 1 1 2 2 3 3 4 4
REMARK H PARENT
REMARK Flexibility Score: inf
ROOT
ATOM      1  C   UNL     1      13.236  56.827  72.890  1.00  0.00     0.063 C 
ATOM      2  C   UNL     1      13.044  55.638  73.770  1.00  0.00     0.038 C 
ATOM      3  O   UNL     1      13.803  54.639  73.654  1.00  0.00    -0.550 OA
ATOM      4  O   UNL     1      12.065  55.650  74.753  1.00  0.00    -0.550 OA
ENDROOT
TORSDOF 0
ENDMDL
MODEL 9
REMARK VINA RESULT:    -2.512      6.828      7.193
REMARK INTER + INTRA:          -2.512
REMARK INTER:                  -2.512
REMARK INTRA:                   0.000
REMARK UNBOUND:                 0.000
REMARK SMILES CC(=O)[O-]
REMARK SMILES IDX 1 1 2 2 3 3 4 4
REMARK H PARENT
REMARK Flexibility Score: inf
ROOT
ATOM      1  C   UNL     1       6.119  74.107  76.858  1.00  0.00     0.063 C 
ATOM      2  C   UNL     1       4.919  73.357  76.386  1.00  0.00     0.038 C 
ATOM      3  O   UNL     1       4.862  72.942  75.199  1.00  0.00    -0.550 OA
ATOM      4  O   UNL     1       3.887  73.070  77.269  1.00  0.00    -0.550 OA
ENDROOT
TORSDOF 0
ENDMDL
