MODEL 1
REMARK VINA RESULT:    -5.269      0.000      0.000
REMARK INTER + INTRA:          -5.423
REMARK INTER:                  -5.423
REMARK INTRA:                   0.000
REMARK UNBOUND:                 0.000
REMARK SMILES Nc1ncnc2nc[nH]c12
REMARK SMILES IDX 8 1 7 2 6 3 5 4 4 5 3 6 2 7 10 8 9 9 1 11
REMARK H PARENT 9 10 1 12 1 13
REMARK Flexibility Score: inf
ROOT
ATOM      1  C   UNL     1      -9.063  -6.689  -3.293  1.00  0.00     0.199 A 
ATOM      2  N   UNL     1      -9.313  -5.698  -4.192  1.00  0.00    -0.217 NA
ATOM      3  C   UNL     1      -8.308  -5.848  -5.070  1.00  0.00     0.182 A 
ATOM      4  N   UNL     1      -8.085  -5.103  -6.178  1.00  0.00    -0.215 NA
ATOM      5  C   UNL     1      -7.003  -5.409  -6.955  1.00  0.00     0.226 A 
ATOM      6  N   UNL     1      -6.171  -6.445  -6.614  1.00  0.00    -0.217 NA
ATOM      7  C   UNL     1      -6.395  -7.199  -5.496  1.00  0.00     0.152 A 
ATOM      8  C   UNL     1      -7.501  -6.874  -4.715  1.00  0.00     0.127 A 
ATOM      9  N   UNL     1      -7.962  -7.426  -3.586  1.00  0.00    -0.340 N 
ATOM     10  H   UNL     1      -7.575  -8.232  -3.048  1.00  0.00     0.168 HD
ENDROOT
BRANCH   7  11
ATOM     11  N   UNL     1      -5.517  -8.273  -5.161  1.00  0.00    -0.382 N 
ATOM     12  H   UNL     1      -4.906  -8.204  -4.317  1.00  0.00     0.158 HD
ATOM     13  H   UNL     1      -5.468  -9.139  -5.742  1.00  0.00     0.158 HD
ENDBRANCH   7  11
TORSDOF 1
ENDMDL
MODEL 2
REMARK VINA RESULT:    -5.269      0.955      2.975
REMARK INTER + INTRA:          -5.423
REMARK INTER:                  -5.423
REMARK INTRA:                   0.000
REMARK UNBOUND:                 0.000
REMARK SMILES Nc1ncnc2nc[nH]c12
REMARK SMILES IDX 8 1 7 2 6 3 5 4 4 5 3 6 2 7 10 8 9 9 1 11
REMARK H PARENT 9 10 1 12 1 13
REMARK Flexibility Score: inf
ROOT
ATOM      1  C   UNL     1      -5.687  -8.111  -6.434  1.00  0.00     0.199 A 
ATOM      2  N   UNL     1      -5.993  -7.007  -7.169  1.00  0.00    -0.217 NA
ATOM      3  C   UNL     1      -6.898  -6.389  -6.393  1.00  0.00     0.182 A 
ATOM      4  N   UNL     1      -7.533  -5.223  -6.662  1.00  0.00    -0.215 NA
ATOM      5  C   UNL     1      -8.427  -4.748  -5.744  1.00  0.00     0.226 A 
ATOM      6  N   UNL     1      -8.669  -5.439  -4.584  1.00  0.00    -0.217 NA
ATOM      7  C   UNL     1      -8.029  -6.615  -4.310  1.00  0.00     0.152 A 
ATOM      8  C   UNL     1      -7.122  -7.086  -5.255  1.00  0.00     0.127 A 
ATOM      9  N   UNL     1      -6.361  -8.188  -5.259  1.00  0.00    -0.340 N 
ATOM     10  H   UNL     1      -6.293  -8.936  -4.534  1.00  0.00     0.168 HD
ENDROOT
BRANCH   7  11
ATOM     11  N   UNL     1      -8.296  -7.317  -3.096  1.00  0.00    -0.382 N 
ATOM     12  H   UNL     1      -7.573  -7.953  -2.691  1.00  0.00     0.158 HD
ATOM     13  H   UNL     1      -9.204  -7.211  -2.594  1.00  0.00     0.158 HD
ENDBRANCH   7  11
TORSDOF 1
ENDMDL
MODEL 3
REMARK VINA RESULT:    -5.093      1.014      2.353
REMARK INTER + INTRA:          -5.242
REMARK INTER:                  -5.242
REMARK INTRA:                   0.000
REMARK UNBOUND:                 0.000
REMARK SMILES Nc1ncnc2nc[nH]c12
REMARK SMILES IDX 8 1 7 2 6 3 5 4 4 5 3 6 2 7 10 8 9 9 1 11
REMARK H PARENT 9 10 1 12 1 13
REMARK Flexibility Score: inf
ROOT
ATOM      1  C   UNL     1      -9.037  -4.125  -5.631  1.00  0.00     0.199 A 
ATOM      2  N   UNL     1      -8.236  -4.350  -6.709  1.00  0.00    -0.217 NA
ATOM      3  C   UNL     1      -7.550  -5.441  -6.333  1.00  0.00     0.182 A 
ATOM      4  N   UNL     1      -6.604  -6.089  -7.054  1.00  0.00    -0.215 NA
ATOM      5  C   UNL     1      -6.011  -7.190  -6.500  1.00  0.00     0.226 A 
ATOM      6  N   UNL     1      -6.371  -7.619  -5.248  1.00  0.00    -0.217 NA
ATOM      7  C   UNL     1      -7.326  -6.966  -4.519  1.00  0.00     0.152 A 
ATOM      8  C   UNL     1      -7.920  -5.847  -5.097  1.00  0.00     0.127 A 
ATOM      9  N   UNL     1      -8.866  -5.025  -4.629  1.00  0.00    -0.340 N 
ATOM     10  H   UNL     1      -9.364  -5.056  -3.712  1.00  0.00     0.168 HD
ENDROOT
BRANCH   7  11
ATOM     11  N   UNL     1      -7.685  -7.431  -3.218  1.00  0.00    -0.382 N 
ATOM     12  H   UNL     1      -8.349  -8.231  -3.114  1.00  0.00     0.158 HD
ATOM     13  H   UNL     1      -7.298  -6.989  -2.356  1.00  0.00     0.158 HD
ENDBRANCH   7  11
TORSDOF 1
ENDMDL
MODEL 4
REMARK VINA RESULT:    -4.746      0.845      2.480
REMARK INTER + INTRA:          -4.885
REMARK INTER:                  -4.885
REMARK INTRA:                   0.000
REMARK UNBOUND:                 0.000
REMARK SMILES Nc1ncnc2nc[nH]c12
REMARK SMILES IDX 8 1 7 2 6 3 5 4 4 5 3 6 2 7 10 8 9 9 1 11
REMARK H PARENT 9 10 1 12 1 13
REMARK Flexibility Score: inf
ROOT
ATOM      1  C   UNL     1      -9.441  -6.143  -3.854  1.00  0.00     0.199 A 
ATOM      2  N   UNL     1      -8.493  -7.108  -3.703  1.00  0.00    -0.217 NA
ATOM      3  C   UNL     1      -7.684  -6.880  -4.750  1.00  0.00     0.182 A 
ATOM      4  N   UNL     1      -6.565  -7.572  -5.072  1.00  0.00    -0.215 NA
ATOM      5  C   UNL     1      -5.867  -7.189  -6.184  1.00  0.00     0.226 A 
ATOM      6  N   UNL     1      -6.295  -6.131  -6.945  1.00  0.00    -0.217 NA
ATOM      7  C   UNL     1      -7.423  -5.432  -6.621  1.00  0.00     0.152 A 
ATOM      8  C   UNL     1      -8.123  -5.835  -5.487  1.00  0.00     0.127 A 
ATOM      9  N   UNL     1      -9.241  -5.348  -4.935  1.00  0.00    -0.340 N 
ATOM     10  H   UNL     1      -9.831  -4.546  -5.252  1.00  0.00     0.168 HD
ENDROOT
BRANCH   7  11
ATOM     11  N   UNL     1      -7.850  -4.334  -7.428  1.00  0.00    -0.382 N 
ATOM     12  H   UNL     1      -8.202  -3.460  -6.976  1.00  0.00     0.158 HD
ATOM     13  H   UNL     1      -7.819  -4.379  -8.470  1.00  0.00     0.158 HD
ENDBRANCH   7  11
TORSDOF 1
ENDMDL
MODEL 5
REMARK VINA RESULT:    -4.689      1.281      2.853
REMARK INTER + INTRA:          -4.826
REMARK INTER:                  -4.826
REMARK INTRA:                   0.000
REMARK UNBOUND:                 0.000
REMARK SMILES Nc1ncnc2nc[nH]c12
REMARK SMILES IDX 8 1 7 2 6 3 5 4 4 5 3 6 2 7 10 8 9 9 1 11
REMARK H PARENT 9 10 1 12 1 13
REMARK Flexibility Score: inf
ROOT
ATOM      1  C   UNL     1      -8.564  -3.697  -6.929  1.00  0.00     0.199 A 
ATOM      2  N   UNL     1      -9.204  -4.091  -5.794  1.00  0.00    -0.217 NA
ATOM      3  C   UNL     1      -8.528  -5.200  -5.455  1.00  0.00     0.182 A 
ATOM      4  N   UNL     1      -8.763  -5.993  -4.382  1.00  0.00    -0.215 NA
ATOM      5  C   UNL     1      -7.962  -7.086  -4.200  1.00  0.00     0.226 A 
ATOM      6  N   UNL     1      -6.950  -7.364  -5.084  1.00  0.00    -0.217 NA
ATOM      7  C   UNL     1      -6.711  -6.564  -6.166  1.00  0.00     0.152 A 
ATOM      8  C   UNL     1      -7.536  -5.455  -6.338  1.00  0.00     0.127 A 
ATOM      9  N   UNL     1      -7.538  -4.510  -7.286  1.00  0.00    -0.340 N 
ATOM     10  H   UNL     1      -6.906  -4.412  -8.111  1.00  0.00     0.168 HD
ENDROOT
BRANCH   7  11
ATOM     11  N   UNL     1      -5.652  -6.871  -7.072  1.00  0.00    -0.382 N 
ATOM     12  H   UNL     1      -5.765  -7.645  -7.765  1.00  0.00     0.158 HD
ATOM     13  H   UNL     1      -4.755  -6.336  -7.064  1.00  0.00     0.158 HD
ENDBRANCH   7  11
TORSDOF 1
ENDMDL
MODEL 6
REMARK VINA RESULT:    -4.664     14.042     14.969
REMARK INTER + INTRA:          -4.801
REMARK INTER:                  -4.801
REMARK INTRA:                   0.000
REMARK UNBOUND:                 0.000
REMARK SMILES Nc1ncnc2nc[nH]c12
REMARK SMILES IDX 8 1 7 2 6 3 5 4 4 5 3 6 2 7 10 8 9 9 1 11
REMARK H PARENT 9 10 1 12 1 13
REMARK Flexibility Score: inf
ROOT
ATOM      1  C   UNL     1      -4.230  -3.056   8.284  1.00  0.00     0.199 A 
ATOM      2  N   UNL     1      -5.072  -3.321   9.320  1.00  0.00    -0.217 NA
ATOM      3  C   UNL     1      -5.992  -2.352   9.196  1.00  0.00     0.182 A 
ATOM      4  N   UNL     1      -7.072  -2.157   9.990  1.00  0.00    -0.215 NA
ATOM      5  C   UNL     1      -7.902  -1.108   9.704  1.00  0.00     0.226 A 
ATOM      6  N   UNL     1      -7.641  -0.282   8.641  1.00  0.00    -0.217 NA
ATOM      7  C   UNL     1      -6.552  -0.478   7.839  1.00  0.00     0.152 A 
ATOM      8  C   UNL     1      -5.716  -1.550   8.143  1.00  0.00     0.127 A 
ATOM      9  N   UNL     1      -4.598  -1.978   7.545  1.00  0.00    -0.340 N 
ATOM     10  H   UNL     1      -4.113  -1.586   6.708  1.00  0.00     0.168 HD
ENDROOT
BRANCH   7  11
ATOM     11  N   UNL     1      -6.300   0.394   6.736  1.00  0.00    -0.382 N 
ATOM     12  H   UNL     1      -6.419   1.425   6.848  1.00  0.00     0.158 HD
ATOM     13  H   UNL     1      -5.994   0.025   5.809  1.00  0.00     0.158 HD
ENDBRANCH   7  11
TORSDOF 1
ENDMDL
MODEL 7
REMARK VINA RESULT:    -4.536     14.000     15.377
REMARK INTER + INTRA:          -4.669
REMARK INTER:                  -4.669
REMARK INTRA:                   0.000
REMARK UNBOUND:                 0.000
REMARK SMILES Nc1ncnc2nc[nH]c12
REMARK SMILES IDX 8 1 7 2 6 3 5 4 4 5 3 6 2 7 10 8 9 9 1 11
REMARK H PARENT 9 10 1 12 1 13
REMARK Flexibility Score: inf
ROOT
ATOM      1  C   UNL     1      -7.732   3.242   7.409  1.00  0.00     0.199 A 
ATOM      2  N   UNL     1      -8.233   2.958   8.643  1.00  0.00    -0.217 NA
ATOM      3  C   UNL     1      -8.115   1.622   8.699  1.00  0.00     0.182 A 
ATOM      4  N   UNL     1      -8.473   0.821   9.731  1.00  0.00    -0.215 NA
ATOM      5  C   UNL     1      -8.273  -0.525   9.603  1.00  0.00     0.226 A 
ATOM      6  N   UNL     1      -7.724  -1.042   8.458  1.00  0.00    -0.217 NA
ATOM      7  C   UNL     1      -7.361  -0.236   7.415  1.00  0.00     0.152 A 
ATOM      8  C   UNL     1      -7.571   1.133   7.561  1.00  0.00     0.127 A 
ATOM      9  N   UNL     1      -7.319   2.146   6.724  1.00  0.00    -0.340 N 
ATOM     10  H   UNL     1      -6.902   2.115   5.767  1.00  0.00     0.168 HD
ENDROOT
BRANCH   7  11
ATOM     11  N   UNL     1      -6.790  -0.796   6.233  1.00  0.00    -0.382 N 
ATOM     12  H   UNL     1      -6.455  -0.169   5.467  1.00  0.00     0.158 HD
ATOM     13  H   UNL     1      -6.696  -1.828   6.109  1.00  0.00     0.158 HD
ENDBRANCH   7  11
TORSDOF 1
ENDMDL
MODEL 8
REMARK VINA RESULT:    -4.509     13.104     14.415
REMARK INTER + INTRA:          -4.641
REMARK INTER:                  -4.641
REMARK INTRA:                   0.000
REMARK UNBOUND:                 0.000
REMARK SMILES Nc1ncnc2nc[nH]c12
REMARK SMILES IDX 8 1 7 2 6 3 5 4 4 5 3 6 2 7 10 8 9 9 1 11
REMARK H PARENT 9 10 1 12 1 13
REMARK Flexibility Score: inf
ROOT
ATOM      1  C   UNL     1      -3.042  -4.261   6.750  1.00  0.00     0.199 A 
ATOM      2  N   UNL     1      -3.618  -5.064   7.686  1.00  0.00    -0.217 NA
ATOM      3  C   UNL     1      -4.484  -4.230   8.283  1.00  0.00     0.182 A 
ATOM      4  N   UNL     1      -5.324  -4.531   9.302  1.00  0.00    -0.215 NA
ATOM      5  C   UNL     1      -6.138  -3.543   9.782  1.00  0.00     0.226 A 
ATOM      6  N   UNL     1      -6.099  -2.283   9.239  1.00  0.00    -0.217 NA
ATOM      7  C   UNL     1      -5.252  -1.978   8.211  1.00  0.00     0.152 A 
ATOM      8  C   UNL     1      -4.429  -2.995   7.734  1.00  0.00     0.127 A 
ATOM      9  N   UNL     1      -3.518  -2.990   6.754  1.00  0.00    -0.340 N 
ATOM     10  H   UNL     1      -3.231  -2.202   6.133  1.00  0.00     0.168 HD
ENDROOT
BRANCH   7  11
ATOM     11  N   UNL     1      -5.229  -0.660   7.661  1.00  0.00    -0.382 N 
ATOM     12  H   UNL     1      -6.085  -0.063   7.698  1.00  0.00     0.158 HD
ATOM     13  H   UNL     1      -4.368  -0.271   7.217  1.00  0.00     0.158 HD
ENDBRANCH   7  11
TORSDOF 1
ENDMDL
MODEL 9
REMARK VINA RESULT:    -4.421      1.037      3.746
REMARK INTER + INTRA:          -4.550
REMARK INTER:                  -4.550
REMARK INTRA:                   0.000
REMARK UNBOUND:                 0.000
REMARK SMILES Nc1ncnc2nc[nH]c12
REMARK SMILES IDX 8 1 7 2 6 3 5 4 4 5 3 6 2 7 10 8 9 9 1 11
REMARK H PARENT 9 10 1 12 1 13
REMARK Flexibility Score: inf
ROOT
ATOM      1  C   UNL     1      -6.002  -6.821  -6.621  1.00  0.00     0.199 A 
ATOM      2  N   UNL     1      -6.479  -7.631  -5.637  1.00  0.00    -0.217 NA
ATOM      3  C   UNL     1      -7.514  -6.921  -5.159  1.00  0.00     0.182 A 
ATOM      4  N   UNL     1      -8.345  -7.282  -4.152  1.00  0.00    -0.215 NA
ATOM      5  C   UNL     1      -9.348  -6.422  -3.804  1.00  0.00     0.226 A 
ATOM      6  N   UNL     1      -9.503  -5.228  -4.462  1.00  0.00    -0.217 NA
ATOM      7  C   UNL     1      -8.666  -4.863  -5.479  1.00  0.00     0.152 A 
ATOM      8  C   UNL     1      -7.648  -5.750  -5.821  1.00  0.00     0.127 A 
ATOM      9  N   UNL     1      -6.696  -5.663  -6.758  1.00  0.00    -0.340 N 
ATOM     10  H   UNL     1      -6.519  -4.892  -7.439  1.00  0.00     0.168 HD
ENDROOT
BRANCH   7  11
ATOM     11  N   UNL     1      -8.845  -3.616  -6.151  1.00  0.00    -0.382 N 
ATOM     12  H   UNL     1      -8.189  -2.824  -5.967  1.00  0.00     0.158 HD
ATOM     13  H   UNL     1      -9.623  -3.471  -6.831  1.00  0.00     0.158 HD
ENDBRANCH   7  11
TORSDOF 1
ENDMDL
