MODEL 1
REMARK VINA RESULT:    -4.796      0.000      0.000
REMARK INTER + INTRA:          -5.261
REMARK INTER:                  -5.217
REMARK INTRA:                  -0.044
REMARK UNBOUND:                -0.044
REMARK SMILES COc1cc2ccc(=O)oc2cc1O
REMARK SMILES IDX 3 1 13 2 12 3 11 4 5 5 4 6 6 7 7 8 8 9 9 10 10 11 2 12 1 13
REMARK SMILES IDX 14 14
REMARK H PARENT 14 15
REMARK Flexibility Score: inf
ROOT
ATOM      1  C   UNL     1      46.846 -29.150 -30.674  1.00  0.00     0.161 A 
ATOM      2  C   UNL     1      46.935 -28.410 -31.870  1.00  0.00     0.161 A 
ATOM      3  C   UNL     1      48.185 -28.085 -32.407  1.00  0.00     0.098 A 
ATOM      4  C   UNL     1      49.357 -28.489 -31.765  1.00  0.00     0.142 A 
ATOM      5  C   UNL     1      49.280 -29.229 -30.567  1.00  0.00     0.022 A 
ATOM      6  C   UNL     1      48.030 -29.558 -30.025  1.00  0.00     0.062 A 
ATOM      7  C   UNL     1      50.472 -29.618 -29.947  1.00  0.00     0.019 A 
ATOM      8  C   UNL     1      51.691 -29.268 -30.526  1.00  0.00     0.094 A 
ATOM      9  C   UNL     1      51.690 -28.531 -31.715  1.00  0.00     0.336 A 
ATOM     10  O   UNL     1      52.781 -28.205 -32.252  1.00  0.00    -0.246 OA
ATOM     11  O   UNL     1      50.542 -28.173 -32.283  1.00  0.00    -0.423 OA
ENDROOT
BRANCH   1  12
ATOM     12  O   UNL     1      45.576 -29.460 -30.162  1.00  0.00    -0.493 OA
ATOM     13  C   UNL     1      45.307 -30.522 -29.253  1.00  0.00     0.278 C 
ENDBRANCH   1  12
BRANCH   2  14
ATOM     14  O   UNL     1      45.786 -27.989 -32.541  1.00  0.00    -0.504 OA
ATOM     15  H   UNL     1      45.091 -28.640 -32.883  1.00  0.00     0.293 HD
ENDBRANCH   2  14
TORSDOF 2
ENDMDL
MODEL 2
REMARK VINA RESULT:    -4.737      1.463      2.054
REMARK INTER + INTRA:          -5.196
REMARK INTER:                  -5.153
REMARK INTRA:                  -0.043
REMARK UNBOUND:                -0.044
REMARK SMILES COc1cc2ccc(=O)oc2cc1O
REMARK SMILES IDX 3 1 13 2 12 3 11 4 5 5 4 6 6 7 7 8 8 9 9 10 10 11 2 12 1 13
REMARK SMILES IDX 14 14
REMARK H PARENT 14 15
REMARK Flexibility Score: inf
ROOT
ATOM      1  C   UNL     1      48.730 -28.794 -31.291  1.00  0.00     0.161 A 
ATOM      2  C   UNL     1      49.050 -27.965 -32.385  1.00  0.00     0.161 A 
ATOM      3  C   UNL     1      50.378 -27.599 -32.627  1.00  0.00     0.098 A 
ATOM      4  C   UNL     1      51.400 -28.049 -31.788  1.00  0.00     0.142 A 
ATOM      5  C   UNL     1      51.091 -28.878 -30.690  1.00  0.00     0.022 A 
ATOM      6  C   UNL     1      49.761 -29.248 -30.444  1.00  0.00     0.062 A 
ATOM      7  C   UNL     1      52.136 -29.312 -29.868  1.00  0.00     0.019 A 
ATOM      8  C   UNL     1      53.442 -28.918 -30.155  1.00  0.00     0.094 A 
ATOM      9  C   UNL     1      53.674 -28.093 -31.260  1.00  0.00     0.336 A 
ATOM     10  O   UNL     1      54.846 -27.726 -31.536  1.00  0.00    -0.246 OA
ATOM     11  O   UNL     1      52.661 -27.694 -32.026  1.00  0.00    -0.423 OA
ENDROOT
BRANCH   1  12
ATOM     12  O   UNL     1      47.387 -29.143 -31.077  1.00  0.00    -0.493 OA
ATOM     13  C   UNL     1      46.918 -29.918 -29.978  1.00  0.00     0.278 C 
ENDBRANCH   1  12
BRANCH   2  14
ATOM     14  O   UNL     1      48.057 -27.496 -33.245  1.00  0.00    -0.504 OA
ATOM     15  H   UNL     1      48.127 -26.601 -33.713  1.00  0.00     0.293 HD
ENDBRANCH   2  14
TORSDOF 2
ENDMDL
MODEL 3
REMARK VINA RESULT:    -4.630      1.100      4.817
REMARK INTER + INTRA:          -5.081
REMARK INTER:                  -5.022
REMARK INTRA:                  -0.059
REMARK UNBOUND:                -0.044
REMARK SMILES COc1cc2ccc(=O)oc2cc1O
REMARK SMILES IDX 3 1 13 2 12 3 11 4 5 5 4 6 6 7 7 8 8 9 9 10 10 11 2 12 1 13
REMARK SMILES IDX 14 14
REMARK H PARENT 14 15
REMARK Flexibility Score: inf
ROOT
ATOM      1  C   UNL     1      49.691 -28.537 -31.608  1.00  0.00     0.161 A 
ATOM      2  C   UNL     1      48.593 -28.228 -32.435  1.00  0.00     0.161 A 
ATOM      3  C   UNL     1      47.300 -28.609 -32.063  1.00  0.00     0.098 A 
ATOM      4  C   UNL     1      47.083 -29.301 -30.869  1.00  0.00     0.142 A 
ATOM      5  C   UNL     1      48.175 -29.616 -30.034  1.00  0.00     0.022 A 
ATOM      6  C   UNL     1      49.472 -29.235 -30.402  1.00  0.00     0.062 A 
ATOM      7  C   UNL     1      47.926 -30.309 -28.845  1.00  0.00     0.019 A 
ATOM      8  C   UNL     1      46.617 -30.665 -28.521  1.00  0.00     0.094 A 
ATOM      9  C   UNL     1      45.584 -30.320 -29.399  1.00  0.00     0.336 A 
ATOM     10  O   UNL     1      44.396 -30.633 -29.125  1.00  0.00    -0.246 OA
ATOM     11  O   UNL     1      45.848 -29.661 -30.524  1.00  0.00    -0.423 OA
ENDROOT
BRANCH   1  12
ATOM     12  O   UNL     1      50.976 -28.138 -32.011  1.00  0.00    -0.493 OA
ATOM     13  C   UNL     1      52.050 -29.031 -32.287  1.00  0.00     0.278 C 
ENDBRANCH   1  12
BRANCH   2  14
ATOM     14  O   UNL     1      48.770 -27.538 -33.636  1.00  0.00    -0.504 OA
ATOM     15  H   UNL     1      48.099 -27.590 -34.392  1.00  0.00     0.293 HD
ENDBRANCH   2  14
TORSDOF 2
ENDMDL
MODEL 4
REMARK VINA RESULT:    -4.611      1.153      4.859
REMARK INTER + INTRA:          -5.060
REMARK INTER:                  -5.016
REMARK INTRA:                  -0.044
REMARK UNBOUND:                -0.044
REMARK SMILES COc1cc2ccc(=O)oc2cc1O
REMARK SMILES IDX 3 1 13 2 12 3 11 4 5 5 4 6 6 7 7 8 8 9 9 10 10 11 2 12 1 13
REMARK SMILES IDX 14 14
REMARK H PARENT 14 15
REMARK Flexibility Score: inf
ROOT
ATOM      1  C   UNL     1      50.053 -28.737 -31.463  1.00  0.00     0.161 A 
ATOM      2  C   UNL     1      49.460 -28.096 -32.568  1.00  0.00     0.161 A 
ATOM      3  C   UNL     1      48.071 -27.951 -32.638  1.00  0.00     0.098 A 
ATOM      4  C   UNL     1      47.257 -28.441 -31.614  1.00  0.00     0.142 A 
ATOM      5  C   UNL     1      47.840 -29.085 -30.503  1.00  0.00     0.022 A 
ATOM      6  C   UNL     1      49.231 -29.232 -30.429  1.00  0.00     0.062 A 
ATOM      7  C   UNL     1      46.998 -29.565 -29.495  1.00  0.00     0.019 A 
ATOM      8  C   UNL     1      45.619 -29.394 -29.614  1.00  0.00     0.094 A 
ATOM      9  C   UNL     1      45.112 -28.746 -30.745  1.00  0.00     0.336 A 
ATOM     10  O   UNL     1      43.870 -28.582 -30.871  1.00  0.00    -0.246 OA
ATOM     11  O   UNL     1      45.935 -28.299 -31.690  1.00  0.00    -0.423 OA
ENDROOT
BRANCH   1  12
ATOM     12  O   UNL     1      51.451 -28.865 -31.424  1.00  0.00    -0.493 OA
ATOM     13  C   UNL     1      52.162 -29.696 -30.512  1.00  0.00     0.278 C 
ENDBRANCH   1  12
BRANCH   2  14
ATOM     14  O   UNL     1      50.240 -27.593 -33.611  1.00  0.00    -0.504 OA
ATOM     15  H   UNL     1      49.912 -27.570 -34.568  1.00  0.00     0.293 HD
ENDBRANCH   2  14
TORSDOF 2
ENDMDL
MODEL 5
REMARK VINA RESULT:    -4.589     14.493     14.709
REMARK INTER + INTRA:          -5.035
REMARK INTER:                  -4.971
REMARK INTRA:                  -0.065
REMARK UNBOUND:                -0.044
REMARK SMILES COc1cc2ccc(=O)oc2cc1O
REMARK SMILES IDX 3 1 13 2 12 3 11 4 5 5 4 6 6 7 7 8 8 9 9 10 10 11 2 12 1 13
REMARK SMILES IDX 14 14
REMARK H PARENT 14 15
REMARK Flexibility Score: inf
ROOT
ATOM      1  C   UNL     1      52.329 -38.209 -20.776  1.00  0.00     0.161 A 
ATOM      2  C   UNL     1      53.398 -37.357 -20.433  1.00  0.00     0.161 A 
ATOM      3  C   UNL     1      54.641 -37.497 -21.060  1.00  0.00     0.098 A 
ATOM      4  C   UNL     1      54.835 -38.481 -22.032  1.00  0.00     0.142 A 
ATOM      5  C   UNL     1      53.773 -39.339 -22.382  1.00  0.00     0.022 A 
ATOM      6  C   UNL     1      52.526 -39.203 -21.757  1.00  0.00     0.062 A 
ATOM      7  C   UNL     1      53.999 -40.315 -23.358  1.00  0.00     0.019 A 
ATOM      8  C   UNL     1      55.257 -40.411 -23.953  1.00  0.00     0.094 A 
ATOM      9  C   UNL     1      56.264 -39.526 -23.554  1.00  0.00     0.336 A 
ATOM     10  O   UNL     1      57.406 -39.596 -24.078  1.00  0.00    -0.246 OA
ATOM     11  O   UNL     1      56.022 -38.607 -22.622  1.00  0.00    -0.423 OA
ENDROOT
BRANCH   1  12
ATOM     12  O   UNL     1      51.095 -38.042 -20.127  1.00  0.00    -0.493 OA
ATOM     13  C   UNL     1      50.603 -38.889 -19.095  1.00  0.00     0.278 C 
ENDBRANCH   1  12
BRANCH   2  14
ATOM     14  O   UNL     1      53.242 -36.362 -19.467  1.00  0.00    -0.504 OA
ATOM     15  H   UNL     1      52.396 -36.270 -18.918  1.00  0.00     0.293 HD
ENDBRANCH   2  14
TORSDOF 2
ENDMDL
MODEL 6
REMARK VINA RESULT:    -4.513      1.944      5.723
REMARK INTER + INTRA:          -4.953
REMARK INTER:                  -4.906
REMARK INTRA:                  -0.047
REMARK UNBOUND:                -0.044
REMARK SMILES COc1cc2ccc(=O)oc2cc1O
REMARK SMILES IDX 3 1 13 2 12 3 11 4 5 5 4 6 6 7 7 8 8 9 9 10 10 11 2 12 1 13
REMARK SMILES IDX 14 14
REMARK H PARENT 14 15
REMARK Flexibility Score: inf
ROOT
ATOM      1  C   UNL     1      52.999 -28.829 -30.704  1.00  0.00     0.161 A 
ATOM      2  C   UNL     1      52.280 -29.485 -29.684  1.00  0.00     0.161 A 
ATOM      3  C   UNL     1      50.887 -29.592 -29.760  1.00  0.00     0.098 A 
ATOM      4  C   UNL     1      50.195 -29.050 -30.845  1.00  0.00     0.142 A 
ATOM      5  C   UNL     1      50.904 -28.392 -31.871  1.00  0.00     0.022 A 
ATOM      6  C   UNL     1      52.299 -28.282 -31.799  1.00  0.00     0.062 A 
ATOM      7  C   UNL     1      50.182 -27.859 -32.944  1.00  0.00     0.019 A 
ATOM      8  C   UNL     1      48.794 -27.995 -32.970  1.00  0.00     0.094 A 
ATOM      9  C   UNL     1      48.158 -28.660 -31.917  1.00  0.00     0.336 A 
ATOM     10  O   UNL     1      46.906 -28.792 -31.922  1.00  0.00    -0.246 OA
ATOM     11  O   UNL     1      48.869 -29.157 -30.908  1.00  0.00    -0.423 OA
ENDROOT
BRANCH   1  12
ATOM     12  O   UNL     1      54.396 -28.740 -30.597  1.00  0.00    -0.493 OA
ATOM     13  C   UNL     1      55.167 -27.613 -30.998  1.00  0.00     0.278 C 
ENDBRANCH   1  12
BRANCH   2  14
ATOM     14  O   UNL     1      52.937 -30.039 -28.584  1.00  0.00    -0.504 OA
ATOM     15  H   UNL     1      52.796 -31.000 -28.299  1.00  0.00     0.293 HD
ENDBRANCH   2  14
TORSDOF 2
ENDMDL
MODEL 7
REMARK VINA RESULT:    -4.500      1.193      4.966
REMARK INTER + INTRA:          -4.939
REMARK INTER:                  -4.875
REMARK INTRA:                  -0.064
REMARK UNBOUND:                -0.044
REMARK SMILES COc1cc2ccc(=O)oc2cc1O
REMARK SMILES IDX 3 1 13 2 12 3 11 4 5 5 4 6 6 7 7 8 8 9 9 10 10 11 2 12 1 13
REMARK SMILES IDX 14 14
REMARK H PARENT 14 15
REMARK Flexibility Score: inf
ROOT
ATOM      1  C   UNL     1      51.801 -28.882 -30.758  1.00  0.00     0.161 A 
ATOM      2  C   UNL     1      51.600 -28.079 -31.898  1.00  0.00     0.161 A 
ATOM      3  C   UNL     1      50.306 -27.832 -32.369  1.00  0.00     0.098 A 
ATOM      4  C   UNL     1      49.200 -28.379 -31.715  1.00  0.00     0.142 A 
ATOM      5  C   UNL     1      49.389 -29.184 -30.573  1.00  0.00     0.022 A 
ATOM      6  C   UNL     1      50.683 -29.434 -30.098  1.00  0.00     0.062 A 
ATOM      7  C   UNL     1      48.261 -29.718 -29.941  1.00  0.00     0.019 A 
ATOM      8  C   UNL     1      46.994 -29.440 -30.451  1.00  0.00     0.094 A 
ATOM      9  C   UNL     1      46.883 -28.633 -31.588  1.00  0.00     0.336 A 
ATOM     10  O   UNL     1      45.748 -28.371 -32.065  1.00  0.00    -0.246 OA
ATOM     11  O   UNL     1      47.972 -28.139 -32.171  1.00  0.00    -0.423 OA
ENDROOT
BRANCH   1  12
ATOM     12  O   UNL     1      53.112 -29.109 -30.312  1.00  0.00    -0.493 OA
ATOM     13  C   UNL     1      53.757 -28.366 -29.283  1.00  0.00     0.278 C 
ENDBRANCH   1  12
BRANCH   2  14
ATOM     14  O   UNL     1      52.681 -27.515 -32.579  1.00  0.00    -0.504 OA
ATOM     15  H   UNL     1      52.560 -26.952 -33.411  1.00  0.00     0.293 HD
ENDBRANCH   2  14
TORSDOF 2
ENDMDL
MODEL 8
REMARK VINA RESULT:    -4.439     13.776     15.288
REMARK INTER + INTRA:          -4.873
REMARK INTER:                  -4.810
REMARK INTRA:                  -0.062
REMARK UNBOUND:                -0.044
REMARK SMILES COc1cc2ccc(=O)oc2cc1O
REMARK SMILES IDX 3 1 13 2 12 3 11 4 5 5 4 6 6 7 7 8 8 9 9 10 10 11 2 12 1 13
REMARK SMILES IDX 14 14
REMARK H PARENT 14 15
REMARK Flexibility Score: inf
ROOT
ATOM      1  C   UNL     1      55.417 -41.363 -31.025  1.00  0.00     0.161 A 
ATOM      2  C   UNL     1      56.089 -40.348 -30.315  1.00  0.00     0.161 A 
ATOM      3  C   UNL     1      56.382 -40.513 -28.957  1.00  0.00     0.098 A 
ATOM      4  C   UNL     1      56.012 -41.683 -28.291  1.00  0.00     0.142 A 
ATOM      5  C   UNL     1      55.339 -42.705 -28.991  1.00  0.00     0.022 A 
ATOM      6  C   UNL     1      55.043 -42.545 -30.352  1.00  0.00     0.062 A 
ATOM      7  C   UNL     1      54.981 -43.865 -28.296  1.00  0.00     0.019 A 
ATOM      8  C   UNL     1      55.298 -43.978 -26.943  1.00  0.00     0.094 A 
ATOM      9  C   UNL     1      55.967 -42.923 -26.313  1.00  0.00     0.336 A 
ATOM     10  O   UNL     1      56.261 -43.005 -25.092  1.00  0.00    -0.246 OA
ATOM     11  O   UNL     1      56.295 -41.830 -26.998  1.00  0.00    -0.423 OA
ENDROOT
BRANCH   1  12
ATOM     12  O   UNL     1      55.138 -41.166 -32.387  1.00  0.00    -0.493 OA
ATOM     13  C   UNL     1      53.912 -40.652 -32.895  1.00  0.00     0.278 C 
ENDBRANCH   1  12
BRANCH   2  14
ATOM     14  O   UNL     1      56.475 -39.165 -30.946  1.00  0.00    -0.504 OA
ATOM     15  H   UNL     1      56.094 -38.881 -31.840  1.00  0.00     0.293 HD
ENDBRANCH   2  14
TORSDOF 2
ENDMDL
MODEL 9
REMARK VINA RESULT:    -4.437     12.864     14.310
REMARK INTER + INTRA:          -4.871
REMARK INTER:                  -4.827
REMARK INTRA:                  -0.044
REMARK UNBOUND:                -0.044
REMARK SMILES COc1cc2ccc(=O)oc2cc1O
REMARK SMILES IDX 3 1 13 2 12 3 11 4 5 5 4 6 6 7 7 8 8 9 9 10 10 11 2 12 1 13
REMARK SMILES IDX 14 14
REMARK H PARENT 14 15
REMARK Flexibility Score: inf
ROOT
ATOM      1  C   UNL     1      54.574 -41.116 -31.773  1.00  0.00     0.161 A 
ATOM      2  C   UNL     1      55.221 -41.683 -30.657  1.00  0.00     0.161 A 
ATOM      3  C   UNL     1      54.493 -42.006 -29.507  1.00  0.00     0.098 A 
ATOM      4  C   UNL     1      53.117 -41.769 -29.452  1.00  0.00     0.142 A 
ATOM      5  C   UNL     1      52.459 -41.203 -30.563  1.00  0.00     0.022 A 
ATOM      6  C   UNL     1      53.185 -40.878 -31.717  1.00  0.00     0.062 A 
ATOM      7  C   UNL     1      51.081 -40.978 -30.477  1.00  0.00     0.019 A 
ATOM      8  C   UNL     1      50.403 -41.319 -29.307  1.00  0.00     0.094 A 
ATOM      9  C   UNL     1      51.122 -41.877 -28.245  1.00  0.00     0.336 A 
ATOM     10  O   UNL     1      50.528 -42.191 -27.181  1.00  0.00    -0.246 OA
ATOM     11  O   UNL     1      52.433 -42.079 -28.353  1.00  0.00    -0.423 OA
ENDROOT
BRANCH   1  12
ATOM     12  O   UNL     1      55.334 -40.805 -32.911  1.00  0.00    -0.493 OA
ATOM     13  C   UNL     1      54.789 -40.512 -34.193  1.00  0.00     0.278 C 
ENDBRANCH   1  12
BRANCH   2  14
ATOM     14  O   UNL     1      56.594 -41.933 -30.674  1.00  0.00    -0.504 OA
ATOM     15  H   UNL     1      57.043 -42.430 -31.433  1.00  0.00     0.293 HD
ENDBRANCH   2  14
TORSDOF 2
ENDMDL
