MODEL 1
REMARK VINA RESULT:    -3.501      0.000      0.000
REMARK INTER + INTRA:          -4.813
REMARK INTER:                  -4.729
REMARK INTRA:                  -0.084
REMARK UNBOUND:                -0.084
REMARK SMILES [NH3+]CCCC[C@@H]([NH3+])C(=O)[O-]
REMARK SMILES IDX 4 1 3 2 2 3 1 4 5 8 6 9 7 10 8 14 9 15 10 16
REMARK H PARENT 1 5 1 6 1 7 7 11 7 12 7 13
REMARK Flexibility Score: inf
ROOT
ATOM      1  C   UNL     1      45.945  19.024  75.859  1.00  0.00     0.012 C 
ENDROOT
BRANCH   1   2
ATOM      2  C   UNL     1      45.849  18.112  77.092  1.00  0.00     0.061 C 
BRANCH   2   3
ATOM      3  C   UNL     1      45.977  16.622  76.736  1.00  0.00     0.258 C 
BRANCH   3   4
ATOM      4  N   UNL     1      46.729  15.875  77.746  1.00  0.00    -0.358 N 
ATOM      5  H   UNL     1      47.073  16.519  78.496  1.00  0.00     0.344 HD
ATOM      6  H   UNL     1      47.536  15.377  77.306  1.00  0.00     0.344 HD
ATOM      7  H   UNL     1      46.099  15.162  78.179  1.00  0.00     0.344 HD
ENDBRANCH   3   4
ENDBRANCH   2   3
ENDBRANCH   1   2
BRANCH   1   8
ATOM      8  C   UNL     1      47.083  20.045  76.018  1.00  0.00     0.072 C 
BRANCH   8   9
ATOM      9  C   UNL     1      47.573  20.607  74.666  1.00  0.00     0.227 C 
BRANCH   9  10
ATOM     10  N   UNL     1      47.526  19.592  73.605  1.00  0.00    -0.350 N 
ATOM     11  H   UNL     1      46.533  19.361  73.371  1.00  0.00     0.345 HD
ATOM     12  H   UNL     1      47.985  18.711  73.934  1.00  0.00     0.345 HD
ATOM     13  H   UNL     1      48.015  19.931  72.744  1.00  0.00     0.345 HD
ENDBRANCH   9  10
BRANCH   9  14
ATOM     14  C   UNL     1      46.729  21.794  74.282  1.00  0.00     0.099 C 
ATOM     15  O   UNL     1      46.791  22.265  73.116  1.00  0.00    -0.544 OA
ATOM     16  O   UNL     1      45.891  22.390  75.218  1.00  0.00    -0.544 OA
ENDBRANCH   9  14
ENDBRANCH   8   9
ENDBRANCH   1   8
TORSDOF 7
ENDMDL
MODEL 2
REMARK VINA RESULT:    -3.431     17.968     18.876
REMARK INTER + INTRA:          -4.718
REMARK INTER:                  -4.245
REMARK INTRA:                  -0.473
REMARK UNBOUND:                -0.084
REMARK SMILES [NH3+]CCCC[C@@H]([NH3+])C(=O)[O-]
REMARK SMILES IDX 4 1 3 2 2 3 1 4 5 8 6 9 7 10 8 14 9 15 10 16
REMARK H PARENT 1 5 1 6 1 7 7 11 7 12 7 13
REMARK Flexibility Score: inf
ROOT
ATOM      1  C   UNL     1      49.246  35.170  86.962  1.00  0.00     0.012 C 
ENDROOT
BRANCH   1   2
ATOM      2  C   UNL     1      50.540  35.842  87.448  1.00  0.00     0.061 C 
BRANCH   2   3
ATOM      3  C   UNL     1      51.769  34.930  87.308  1.00  0.00     0.258 C 
BRANCH   3   4
ATOM      4  N   UNL     1      52.829  35.550  86.510  1.00  0.00    -0.358 N 
ATOM      5  H   UNL     1      52.417  36.103  85.723  1.00  0.00     0.344 HD
ATOM      6  H   UNL     1      53.477  34.820  86.134  1.00  0.00     0.344 HD
ATOM      7  H   UNL     1      53.380  36.195  87.121  1.00  0.00     0.344 HD
ENDBRANCH   3   4
ENDBRANCH   2   3
ENDBRANCH   1   2
BRANCH   1   8
ATOM      8  C   UNL     1      49.550  34.097  85.905  1.00  0.00     0.072 C 
BRANCH   8   9
ATOM      9  C   UNL     1      48.981  34.454  84.514  1.00  0.00     0.227 C 
BRANCH   9  10
ATOM     10  N   UNL     1      48.153  35.667  84.559  1.00  0.00    -0.350 N 
ATOM     11  H   UNL     1      47.466  35.664  83.772  1.00  0.00     0.345 HD
ATOM     12  H   UNL     1      48.757  36.514  84.446  1.00  0.00     0.345 HD
ATOM     13  H   UNL     1      47.639  35.733  85.469  1.00  0.00     0.345 HD
ENDBRANCH   9  10
BRANCH   9  14
ATOM     14  C   UNL     1      50.115  34.639  83.541  1.00  0.00     0.099 C 
ATOM     15  O   UNL     1      51.307  34.534  83.930  1.00  0.00    -0.544 OA
ATOM     16  O   UNL     1      49.853  34.948  82.211  1.00  0.00    -0.544 OA
ENDBRANCH   9  14
ENDBRANCH   8   9
ENDBRANCH   1   8
TORSDOF 7
ENDMDL
MODEL 3
REMARK VINA RESULT:    -3.405      3.328      3.676
REMARK INTER + INTRA:          -4.684
REMARK INTER:                  -4.443
REMARK INTRA:                  -0.241
REMARK UNBOUND:                -0.084
REMARK SMILES [NH3+]CCCC[C@@H]([NH3+])C(=O)[O-]
REMARK SMILES IDX 4 1 3 2 2 3 1 4 5 8 6 9 7 10 8 14 9 15 10 16
REMARK H PARENT 1 5 1 6 1 7 7 11 7 12 7 13
REMARK Flexibility Score: inf
ROOT
ATOM      1  C   UNL     1      45.965  19.456  76.532  1.00  0.00     0.012 C 
ENDROOT
BRANCH   1   2
ATOM      2  C   UNL     1      45.612  18.250  77.416  1.00  0.00     0.061 C 
BRANCH   2   3
ATOM      3  C   UNL     1      45.920  16.907  76.733  1.00  0.00     0.258 C 
BRANCH   3   4
ATOM      4  N   UNL     1      46.659  15.998  77.612  1.00  0.00    -0.358 N 
ATOM      5  H   UNL     1      46.997  16.505  78.461  1.00  0.00     0.344 HD
ATOM      6  H   UNL     1      47.468  15.575  77.101  1.00  0.00     0.344 HD
ATOM      7  H   UNL     1      46.021  15.225  77.913  1.00  0.00     0.344 HD
ENDBRANCH   3   4
ENDBRANCH   2   3
ENDBRANCH   1   2
BRANCH   1   8
ATOM      8  C   UNL     1      47.273  20.115  76.998  1.00  0.00     0.072 C 
BRANCH   8   9
ATOM      9  C   UNL     1      47.538  19.911  78.506  1.00  0.00     0.227 C 
BRANCH   9  10
ATOM     10  N   UNL     1      48.950  19.609  78.774  1.00  0.00    -0.350 N 
ATOM     11  H   UNL     1      49.466  19.473  77.876  1.00  0.00     0.345 HD
ATOM     12  H   UNL     1      49.026  18.718  79.319  1.00  0.00     0.345 HD
ATOM     13  H   UNL     1      49.399  20.381  79.320  1.00  0.00     0.345 HD
ENDBRANCH   9  10
BRANCH   9  14
ATOM     14  C   UNL     1      47.124  21.148  79.259  1.00  0.00     0.099 C 
ATOM     15  O   UNL     1      47.984  22.002  79.597  1.00  0.00    -0.544 OA
ATOM     16  O   UNL     1      45.791  21.344  79.603  1.00  0.00    -0.544 OA
ENDBRANCH   9  14
ENDBRANCH   8   9
ENDBRANCH   1   8
TORSDOF 7
ENDMDL
MODEL 4
REMARK VINA RESULT:    -3.397      3.117      4.075
REMARK INTER + INTRA:          -4.672
REMARK INTER:                  -4.338
REMARK INTRA:                  -0.334
REMARK UNBOUND:                -0.084
REMARK SMILES [NH3+]CCCC[C@@H]([NH3+])C(=O)[O-]
REMARK SMILES IDX 4 1 3 2 2 3 1 4 5 8 6 9 7 10 8 14 9 15 10 16
REMARK H PARENT 1 5 1 6 1 7 7 11 7 12 7 13
REMARK Flexibility Score: inf
ROOT
ATOM      1  C   UNL     1      45.636  19.565  78.055  1.00  0.00     0.012 C 
ENDROOT
BRANCH   1   2
ATOM      2  C   UNL     1      45.334  19.881  76.581  1.00  0.00     0.061 C 
BRANCH   2   3
ATOM      3  C   UNL     1      46.112  18.976  75.612  1.00  0.00     0.258 C 
BRANCH   3   4
ATOM      4  N   UNL     1      46.234  17.605  76.113  1.00  0.00    -0.358 N 
ATOM      5  H   UNL     1      45.406  17.356  76.701  1.00  0.00     0.344 HD
ATOM      6  H   UNL     1      47.113  17.498  76.669  1.00  0.00     0.344 HD
ATOM      7  H   UNL     1      46.278  16.949  75.300  1.00  0.00     0.344 HD
ENDBRANCH   3   4
ENDBRANCH   2   3
ENDBRANCH   1   2
BRANCH   1   8
ATOM      8  C   UNL     1      46.607  20.597  78.649  1.00  0.00     0.072 C 
BRANCH   8   9
ATOM      9  C   UNL     1      47.922  19.960  79.149  1.00  0.00     0.227 C 
BRANCH   9  10
ATOM     10  N   UNL     1      47.853  18.493  79.141  1.00  0.00    -0.350 N 
ATOM     11  H   UNL     1      46.865  18.178  79.269  1.00  0.00     0.345 HD
ATOM     12  H   UNL     1      48.412  18.105  79.936  1.00  0.00     0.345 HD
ATOM     13  H   UNL     1      48.227  18.108  78.242  1.00  0.00     0.345 HD
ENDBRANCH   9  10
BRANCH   9  14
ATOM     14  C   UNL     1      49.065  20.428  78.288  1.00  0.00     0.099 C 
ATOM     15  O   UNL     1      50.236  20.456  78.749  1.00  0.00    -0.544 OA
ATOM     16  O   UNL     1      48.832  20.851  76.984  1.00  0.00    -0.544 OA
ENDBRANCH   9  14
ENDBRANCH   8   9
ENDBRANCH   1   8
TORSDOF 7
ENDMDL
MODEL 5
REMARK VINA RESULT:    -3.374      3.087      4.196
REMARK INTER + INTRA:          -4.641
REMARK INTER:                  -4.232
REMARK INTRA:                  -0.409
REMARK UNBOUND:                -0.084
REMARK SMILES [NH3+]CCCC[C@@H]([NH3+])C(=O)[O-]
REMARK SMILES IDX 4 1 3 2 2 3 1 4 5 8 6 9 7 10 8 14 9 15 10 16
REMARK H PARENT 1 5 1 6 1 7 7 11 7 12 7 13
REMARK Flexibility Score: inf
ROOT
ATOM      1  C   UNL     1      47.904  20.648  75.683  1.00  0.00     0.012 C 
ENDROOT
BRANCH   1   2
ATOM      2  C   UNL     1      48.855  21.248  76.730  1.00  0.00     0.061 C 
BRANCH   2   3
ATOM      3  C   UNL     1      48.446  20.897  78.171  1.00  0.00     0.258 C 
BRANCH   3   4
ATOM      4  N   UNL     1      49.062  19.651  78.631  1.00  0.00    -0.358 N 
ATOM      5  H   UNL     1      50.007  19.530  78.200  1.00  0.00     0.344 HD
ATOM      6  H   UNL     1      48.453  18.835  78.393  1.00  0.00     0.344 HD
ATOM      7  H   UNL     1      49.169  19.689  79.670  1.00  0.00     0.344 HD
ENDBRANCH   3   4
ENDBRANCH   2   3
ENDBRANCH   1   2
BRANCH   1   8
ATOM      8  C   UNL     1      46.505  20.423  76.278  1.00  0.00     0.072 C 
BRANCH   8   9
ATOM      9  C   UNL     1      45.835  19.134  75.754  1.00  0.00     0.227 C 
BRANCH   9  10
ATOM     10  N   UNL     1      46.423  18.693  74.482  1.00  0.00    -0.350 N 
ATOM     11  H   UNL     1      47.301  19.225  74.287  1.00  0.00     0.345 HD
ATOM     12  H   UNL     1      45.758  18.886  73.697  1.00  0.00     0.345 HD
ATOM     13  H   UNL     1      46.635  17.668  74.505  1.00  0.00     0.345 HD
ENDBRANCH   9  10
BRANCH   9  14
ATOM     14  C   UNL     1      45.966  18.046  76.787  1.00  0.00     0.099 C 
ATOM     15  O   UNL     1      46.260  18.333  77.976  1.00  0.00    -0.544 OA
ATOM     16  O   UNL     1      45.783  16.715  76.428  1.00  0.00    -0.544 OA
ENDBRANCH   9  14
ENDBRANCH   8   9
ENDBRANCH   1   8
TORSDOF 7
ENDMDL
MODEL 6
REMARK VINA RESULT:    -3.317      6.728      7.567
REMARK INTER + INTRA:          -4.564
REMARK INTER:                  -4.425
REMARK INTRA:                  -0.139
REMARK UNBOUND:                -0.084
REMARK SMILES [NH3+]CCCC[C@@H]([NH3+])C(=O)[O-]
REMARK SMILES IDX 4 1 3 2 2 3 1 4 5 8 6 9 7 10 8 14 9 15 10 16
REMARK H PARENT 1 5 1 6 1 7 7 11 7 12 7 13
REMARK Flexibility Score: inf
ROOT
ATOM      1  C   UNL     1      39.675  19.654  79.541  1.00  0.00     0.012 C 
ENDROOT
BRANCH   1   2
ATOM      2  C   UNL     1      38.552  19.310  80.533  1.00  0.00     0.061 C 
BRANCH   2   3
ATOM      3  C   UNL     1      37.672  18.146  80.047  1.00  0.00     0.258 C 
BRANCH   3   4
ATOM      4  N   UNL     1      38.435  17.158  79.283  1.00  0.00    -0.358 N 
ATOM      5  H   UNL     1      37.874  16.810  78.472  1.00  0.00     0.344 HD
ATOM      6  H   UNL     1      38.711  16.357  79.897  1.00  0.00     0.344 HD
ATOM      7  H   UNL     1      39.306  17.608  78.920  1.00  0.00     0.344 HD
ENDBRANCH   3   4
ENDBRANCH   2   3
ENDBRANCH   1   2
BRANCH   1   8
ATOM      8  C   UNL     1      41.013  19.844  80.272  1.00  0.00     0.072 C 
BRANCH   8   9
ATOM      9  C   UNL     1      41.761  21.120  79.826  1.00  0.00     0.227 C 
BRANCH   9  10
ATOM     10  N   UNL     1      42.679  21.604  80.865  1.00  0.00    -0.350 N 
ATOM     11  H   UNL     1      42.380  22.549  81.198  1.00  0.00     0.345 HD
ATOM     12  H   UNL     1      43.644  21.700  80.472  1.00  0.00     0.345 HD
ATOM     13  H   UNL     1      42.706  20.942  81.676  1.00  0.00     0.345 HD
ENDBRANCH   9  10
BRANCH   9  14
ATOM     14  C   UNL     1      42.522  20.837  78.557  1.00  0.00     0.099 C 
ATOM     15  O   UNL     1      43.598  20.186  78.596  1.00  0.00    -0.544 OA
ATOM     16  O   UNL     1      42.050  21.310  77.338  1.00  0.00    -0.544 OA
ENDBRANCH   9  14
ENDBRANCH   8   9
ENDBRANCH   1   8
TORSDOF 7
ENDMDL
MODEL 7
REMARK VINA RESULT:    -3.312      2.350      3.045
REMARK INTER + INTRA:          -4.557
REMARK INTER:                  -4.264
REMARK INTRA:                  -0.294
REMARK UNBOUND:                -0.084
REMARK SMILES [NH3+]CCCC[C@@H]([NH3+])C(=O)[O-]
REMARK SMILES IDX 4 1 3 2 2 3 1 4 5 8 6 9 7 10 8 14 9 15 10 16
REMARK H PARENT 1 5 1 6 1 7 7 11 7 12 7 13
REMARK Flexibility Score: inf
ROOT
ATOM      1  C   UNL     1      45.855  20.198  78.066  1.00  0.00     0.012 C 
ENDROOT
BRANCH   1   2
ATOM      2  C   UNL     1      47.379  20.294  77.896  1.00  0.00     0.061 C 
BRANCH   2   3
ATOM      3  C   UNL     1      48.145  19.609  79.040  1.00  0.00     0.258 C 
BRANCH   3   4
ATOM      4  N   UNL     1      47.723  18.220  79.232  1.00  0.00    -0.358 N 
ATOM      5  H   UNL     1      47.466  18.051  80.232  1.00  0.00     0.344 HD
ATOM      6  H   UNL     1      48.485  17.564  78.943  1.00  0.00     0.344 HD
ATOM      7  H   UNL     1      46.886  18.034  78.634  1.00  0.00     0.344 HD
ENDBRANCH   3   4
ENDBRANCH   2   3
ENDBRANCH   1   2
BRANCH   1   8
ATOM      8  C   UNL     1      45.212  19.491  76.863  1.00  0.00     0.072 C 
BRANCH   8   9
ATOM      9  C   UNL     1      46.257  18.889  75.897  1.00  0.00     0.227 C 
BRANCH   9  10
ATOM     10  N   UNL     1      46.175  17.423  75.851  1.00  0.00    -0.350 N 
ATOM     11  H   UNL     1      47.102  17.018  75.587  1.00  0.00     0.345 HD
ATOM     12  H   UNL     1      45.483  17.128  75.123  1.00  0.00     0.345 HD
ATOM     13  H   UNL     1      45.879  17.038  76.778  1.00  0.00     0.345 HD
ENDBRANCH   9  10
BRANCH   9  14
ATOM     14  C   UNL     1      46.053  19.460  74.518  1.00  0.00     0.099 C 
ATOM     15  O   UNL     1      45.602  20.626  74.376  1.00  0.00    -0.544 OA
ATOM     16  O   UNL     1      46.342  18.695  73.394  1.00  0.00    -0.544 OA
ENDBRANCH   9  14
ENDBRANCH   8   9
ENDBRANCH   1   8
TORSDOF 7
ENDMDL
MODEL 8
REMARK VINA RESULT:    -3.284     18.276     19.128
REMARK INTER + INTRA:          -4.520
REMARK INTER:                  -4.099
REMARK INTRA:                  -0.421
REMARK UNBOUND:                -0.084
REMARK SMILES [NH3+]CCCC[C@@H]([NH3+])C(=O)[O-]
REMARK SMILES IDX 4 1 3 2 2 3 1 4 5 8 6 9 7 10 8 14 9 15 10 16
REMARK H PARENT 1 5 1 6 1 7 7 11 7 12 7 13
REMARK Flexibility Score: inf
ROOT
ATOM      1  C   UNL     1      51.400  34.301  83.765  1.00  0.00     0.012 C 
ENDROOT
BRANCH   1   2
ATOM      2  C   UNL     1      50.058  34.700  83.132  1.00  0.00     0.061 C 
BRANCH   2   3
ATOM      3  C   UNL     1      48.859  34.384  84.041  1.00  0.00     0.258 C 
BRANCH   3   4
ATOM      4  N   UNL     1      48.221  35.597  84.556  1.00  0.00    -0.358 N 
ATOM      5  H   UNL     1      48.836  36.061  85.264  1.00  0.00     0.344 HD
ATOM      6  H   UNL     1      47.294  35.369  84.982  1.00  0.00     0.344 HD
ATOM      7  H   UNL     1      48.064  36.260  83.762  1.00  0.00     0.344 HD
ENDBRANCH   3   4
ENDBRANCH   2   3
ENDBRANCH   1   2
BRANCH   1   8
ATOM      8  C   UNL     1      51.200  33.792  85.201  1.00  0.00     0.072 C 
BRANCH   8   9
ATOM      9  C   UNL     1      52.218  34.394  86.194  1.00  0.00     0.227 C 
BRANCH   9  10
ATOM     10  N   UNL     1      53.312  35.087  85.500  1.00  0.00    -0.350 N 
ATOM     11  H   UNL     1      54.217  34.592  85.670  1.00  0.00     0.345 HD
ATOM     12  H   UNL     1      53.410  36.060  85.872  1.00  0.00     0.345 HD
ATOM     13  H   UNL     1      53.129  35.133  84.470  1.00  0.00     0.345 HD
ENDBRANCH   9  10
BRANCH   9  14
ATOM     14  C   UNL     1      51.510  35.347  87.121  1.00  0.00     0.099 C 
ATOM     15  O   UNL     1      52.168  36.037  87.943  1.00  0.00    -0.544 OA
ATOM     16  O   UNL     1      50.125  35.457  87.088  1.00  0.00    -0.544 OA
ENDBRANCH   9  14
ENDBRANCH   8   9
ENDBRANCH   1   8
TORSDOF 7
ENDMDL
MODEL 9
REMARK VINA RESULT:    -3.234     12.142     12.946
REMARK INTER + INTRA:          -4.453
REMARK INTER:                  -4.324
REMARK INTRA:                  -0.128
REMARK UNBOUND:                -0.084
REMARK SMILES [NH3+]CCCC[C@@H]([NH3+])C(=O)[O-]
REMARK SMILES IDX 4 1 3 2 2 3 1 4 5 8 6 9 7 10 8 14 9 15 10 16
REMARK H PARENT 1 5 1 6 1 7 7 11 7 12 7 13
REMARK Flexibility Score: inf
ROOT
ATOM      1  C   UNL     1      52.840  19.561  84.619  1.00  0.00     0.012 C 
ENDROOT
BRANCH   1   2
ATOM      2  C   UNL     1      51.922  18.759  85.554  1.00  0.00     0.061 C 
BRANCH   2   3
ATOM      3  C   UNL     1      50.458  19.225  85.488  1.00  0.00     0.258 C 
BRANCH   3   4
ATOM      4  N   UNL     1      49.518  18.114  85.647  1.00  0.00    -0.358 N 
ATOM      5  H   UNL     1      48.830  18.324  86.407  1.00  0.00     0.344 HD
ATOM      6  H   UNL     1      50.032  17.229  85.864  1.00  0.00     0.344 HD
ATOM      7  H   UNL     1      48.996  17.979  84.751  1.00  0.00     0.344 HD
ENDBRANCH   3   4
ENDBRANCH   2   3
ENDBRANCH   1   2
BRANCH   1   8
ATOM      8  C   UNL     1      54.302  19.485  85.086  1.00  0.00     0.072 C 
BRANCH   8   9
ATOM      9  C   UNL     1      54.919  18.083  84.887  1.00  0.00     0.227 C 
BRANCH   9  10
ATOM     10  N   UNL     1      56.125  18.134  84.049  1.00  0.00    -0.350 N 
ATOM     11  H   UNL     1      56.123  19.003  83.467  1.00  0.00     0.345 HD
ATOM     12  H   UNL     1      56.138  17.317  83.394  1.00  0.00     0.345 HD
ATOM     13  H   UNL     1      56.990  18.112  84.638  1.00  0.00     0.345 HD
ENDBRANCH   9  10
BRANCH   9  14
ATOM     14  C   UNL     1      55.250  17.486  86.230  1.00  0.00     0.099 C 
ATOM     15  O   UNL     1      55.047  18.144  87.283  1.00  0.00    -0.544 OA
ATOM     16  O   UNL     1      55.800  16.212  86.312  1.00  0.00    -0.544 OA
ENDBRANCH   9  14
ENDBRANCH   8   9
ENDBRANCH   1   8
TORSDOF 7
ENDMDL
