MODEL 1
REMARK VINA RESULT:    -4.114      0.000      0.000
REMARK INTER + INTRA:          -9.204
REMARK INTER:                  -7.721
REMARK INTRA:                  -1.483
REMARK UNBOUND:                -1.483
REMARK SMILES O=C([O-])CCCCCCCCCCCCCCC(=O)[O-]
REMARK SMILES IDX 10 1 9 2 8 3 7 4 6 5 5 6 4 7 2 8 1 9 3 10 11 11 12 12 13 13
REMARK SMILES IDX 14 14 15 15 16 16 17 17 18 18 19 19 20 20
REMARK H PARENT
REMARK Flexibility Score: inf
ROOT
ATOM      1  C   UNL     1       7.854  11.346   7.797  1.00  0.00     0.000 C 
ENDROOT
BRANCH   1   2
ATOM      2  C   UNL     1       8.736  12.607   7.794  1.00  0.00     0.000 C 
BRANCH   2   3
ATOM      3  C   UNL     1      10.125  12.362   7.186  1.00  0.00     0.000 C 
BRANCH   3   4
ATOM      4  C   UNL     1      10.018  12.032   5.689  1.00  0.00     0.000 C 
BRANCH   4   5
ATOM      5  C   UNL     1       9.255  13.106   4.898  1.00  0.00     0.000 C 
BRANCH   5   6
ATOM      6  C   UNL     1       8.100  12.519   4.068  1.00  0.00     0.006 C 
BRANCH   6   7
ATOM      7  C   UNL     1       6.742  12.687   4.764  1.00  0.00     0.053 C 
BRANCH   7   8
ATOM      8  C   UNL     1       5.860  11.494   4.563  1.00  0.00     0.041 C 
ATOM      9  O   UNL     1       6.012  10.757   3.554  1.00  0.00    -0.550 OA
ATOM     10  O   UNL     1       4.851  11.211   5.475  1.00  0.00    -0.550 OA
ENDBRANCH   7   8
ENDBRANCH   6   7
ENDBRANCH   5   6
ENDBRANCH   4   5
ENDBRANCH   3   4
ENDBRANCH   2   3
ENDBRANCH   1   2
BRANCH   1  11
ATOM     11  C   UNL     1       6.510  11.488   8.540  1.00  0.00     0.000 C 
BRANCH  11  12
ATOM     12  C   UNL     1       6.023  12.935   8.740  1.00  0.00     0.000 C 
BRANCH  12  13
ATOM     13  C   UNL     1       4.524  13.103   8.455  1.00  0.00     0.000 C 
BRANCH  13  14
ATOM     14  C   UNL     1       3.707  13.059   9.753  1.00  0.00     0.000 C 
BRANCH  14  15
ATOM     15  C   UNL     1       2.208  12.815   9.508  1.00  0.00     0.000 C 
BRANCH  15  16
ATOM     16  C   UNL     1       1.783  11.344   9.701  1.00  0.00     0.006 C 
BRANCH  16  17
ATOM     17  C   UNL     1       2.986  10.413   9.899  1.00  0.00     0.053 C 
BRANCH  17  18
ATOM     18  C   UNL     1       3.313   9.700   8.624  1.00  0.00     0.041 C 
ATOM     19  O   UNL     1       4.195   8.802   8.609  1.00  0.00    -0.550 OA
ATOM     20  O   UNL     1       2.678  10.063   7.444  1.00  0.00    -0.550 OA
ENDBRANCH  17  18
ENDBRANCH  16  17
ENDBRANCH  15  16
ENDBRANCH  14  15
ENDBRANCH  13  14
ENDBRANCH  12  13
ENDBRANCH  11  12
ENDBRANCH   1  11
TORSDOF 15
ENDMDL
MODEL 2
REMARK VINA RESULT:    -4.088      2.065      3.623
REMARK INTER + INTRA:          -9.155
REMARK INTER:                  -7.934
REMARK INTRA:                  -1.221
REMARK UNBOUND:                -1.483
REMARK SMILES O=C([O-])CCCCCCCCCCCCCCC(=O)[O-]
REMARK SMILES IDX 10 1 9 2 8 3 7 4 6 5 5 6 4 7 2 8 1 9 3 10 11 11 12 12 13 13
REMARK SMILES IDX 14 14 15 15 16 16 17 17 18 18 19 19 20 20
REMARK H PARENT
REMARK Flexibility Score: inf
ROOT
ATOM      1  C   UNL     1       6.837  11.132   4.468  1.00  0.00     0.000 C 
ENDROOT
BRANCH   1   2
ATOM      2  C   UNL     1       7.398  12.538   4.197  1.00  0.00     0.000 C 
BRANCH   2   3
ATOM      3  C   UNL     1       8.872  12.520   3.766  1.00  0.00     0.000 C 
BRANCH   3   4
ATOM      4  C   UNL     1       9.780  13.033   4.895  1.00  0.00     0.000 C 
BRANCH   4   5
ATOM      5  C   UNL     1      10.029  11.978   5.983  1.00  0.00     0.000 C 
BRANCH   5   6
ATOM      6  C   UNL     1       9.856  12.541   7.404  1.00  0.00     0.006 C 
BRANCH   6   7
ATOM      7  C   UNL     1       8.454  13.124   7.629  1.00  0.00     0.053 C 
BRANCH   7   8
ATOM      8  C   UNL     1       7.559  12.163   8.350  1.00  0.00     0.041 C 
ATOM      9  O   UNL     1       6.746  12.581   9.215  1.00  0.00    -0.550 OA
ATOM     10  O   UNL     1       7.645  10.801   8.088  1.00  0.00    -0.550 OA
ENDBRANCH   7   8
ENDBRANCH   6   7
ENDBRANCH   5   6
ENDBRANCH   4   5
ENDBRANCH   3   4
ENDBRANCH   2   3
ENDBRANCH   1   2
BRANCH   1  11
ATOM     11  C   UNL     1       5.298  11.032   4.484  1.00  0.00     0.000 C 
BRANCH  11  12
ATOM     12  C   UNL     1       4.646  11.182   5.871  1.00  0.00     0.000 C 
BRANCH  12  13
ATOM     13  C   UNL     1       4.969  10.011   6.809  1.00  0.00     0.000 C 
BRANCH  13  14
ATOM     14  C   UNL     1       3.686   9.318   7.287  1.00  0.00     0.000 C 
BRANCH  14  15
ATOM     15  C   UNL     1       3.780   8.819   8.740  1.00  0.00     0.000 C 
BRANCH  15  16
ATOM     16  C   UNL     1       4.024   9.946   9.765  1.00  0.00     0.006 C 
BRANCH  16  17
ATOM     17  C   UNL     1       2.713  10.514  10.325  1.00  0.00     0.053 C 
BRANCH  17  18
ATOM     18  C   UNL     1       2.377  11.813   9.661  1.00  0.00     0.041 C 
ATOM     19  O   UNL     1       3.292  12.545   9.203  1.00  0.00    -0.550 OA
ATOM     20  O   UNL     1       1.056  12.236   9.594  1.00  0.00    -0.550 OA
ENDBRANCH  17  18
ENDBRANCH  16  17
ENDBRANCH  15  16
ENDBRANCH  14  15
ENDBRANCH  13  14
ENDBRANCH  12  13
ENDBRANCH  11  12
ENDBRANCH   1  11
TORSDOF 15
ENDMDL
MODEL 3
REMARK VINA RESULT:    -3.710      1.576      2.261
REMARK INTER + INTRA:          -8.446
REMARK INTER:                  -7.916
REMARK INTRA:                  -0.530
REMARK UNBOUND:                -1.483
REMARK SMILES O=C([O-])CCCCCCCCCCCCCCC(=O)[O-]
REMARK SMILES IDX 10 1 9 2 8 3 7 4 6 5 5 6 4 7 2 8 1 9 3 10 11 11 12 12 13 13
REMARK SMILES IDX 14 14 15 15 16 16 17 17 18 18 19 19 20 20
REMARK H PARENT
REMARK Flexibility Score: inf
ROOT
ATOM      1  C   UNL     1       8.381  11.080   7.407  1.00  0.00     0.000 C 
ENDROOT
BRANCH   1   2
ATOM      2  C   UNL     1       9.441  11.288   6.311  1.00  0.00     0.000 C 
BRANCH   2   3
ATOM      3  C   UNL     1       9.564  12.754   5.870  1.00  0.00     0.000 C 
BRANCH   3   4
ATOM      4  C   UNL     1       8.448  13.125   4.881  1.00  0.00     0.000 C 
BRANCH   4   5
ATOM      5  C   UNL     1       8.305  12.108   3.739  1.00  0.00     0.000 C 
BRANCH   5   6
ATOM      6  C   UNL     1       7.257  11.023   4.041  1.00  0.00     0.006 C 
BRANCH   6   7
ATOM      7  C   UNL     1       5.882  11.621   4.372  1.00  0.00     0.053 C 
BRANCH   7   8
ATOM      8  C   UNL     1       5.140  10.792   5.375  1.00  0.00     0.041 C 
ATOM      9  O   UNL     1       3.882  10.813   5.407  1.00  0.00    -0.550 OA
ATOM     10  O   UNL     1       5.838  10.020   6.294  1.00  0.00    -0.550 OA
ENDBRANCH   7   8
ENDBRANCH   6   7
ENDBRANCH   5   6
ENDBRANCH   4   5
ENDBRANCH   3   4
ENDBRANCH   2   3
ENDBRANCH   1   2
BRANCH   1  11
ATOM     11  C   UNL     1       8.017  12.343   8.213  1.00  0.00     0.000 C 
BRANCH  11  12
ATOM     12  C   UNL     1       6.767  13.096   7.723  1.00  0.00     0.000 C 
BRANCH  12  13
ATOM     13  C   UNL     1       5.548  12.880   8.631  1.00  0.00     0.000 C 
BRANCH  13  14
ATOM     14  C   UNL     1       5.762  11.682   9.565  1.00  0.00     0.000 C 
BRANCH  14  15
ATOM     15  C   UNL     1       4.443  11.014   9.992  1.00  0.00     0.000 C 
BRANCH  15  16
ATOM     16  C   UNL     1       3.707  10.306   8.836  1.00  0.00     0.006 C 
BRANCH  16  17
ATOM     17  C   UNL     1       2.354  10.959   8.523  1.00  0.00     0.053 C 
BRANCH  17  18
ATOM     18  C   UNL     1       1.877  11.763   9.692  1.00  0.00     0.041 C 
ATOM     19  O   UNL     1       1.195  11.220  10.599  1.00  0.00    -0.550 OA
ATOM     20  O   UNL     1       2.144  13.125   9.753  1.00  0.00    -0.550 OA
ENDBRANCH  17  18
ENDBRANCH  16  17
ENDBRANCH  15  16
ENDBRANCH  14  15
ENDBRANCH  13  14
ENDBRANCH  12  13
ENDBRANCH  11  12
ENDBRANCH   1  11
TORSDOF 15
ENDMDL
MODEL 4
REMARK VINA RESULT:    -3.600      0.949      5.938
REMARK INTER + INTRA:          -8.240
REMARK INTER:                  -6.939
REMARK INTRA:                  -1.301
REMARK UNBOUND:                -1.483
REMARK SMILES O=C([O-])CCCCCCCCCCCCCCC(=O)[O-]
REMARK SMILES IDX 10 1 9 2 8 3 7 4 6 5 5 6 4 7 2 8 1 9 3 10 11 11 12 12 13 13
REMARK SMILES IDX 14 14 15 15 16 16 17 17 18 18 19 19 20 20
REMARK H PARENT
REMARK Flexibility Score: inf
ROOT
ATOM      1  C   UNL     1       6.085  10.673   7.478  1.00  0.00     0.000 C 
ENDROOT
BRANCH   1   2
ATOM      2  C   UNL     1       5.454  12.065   7.296  1.00  0.00     0.000 C 
BRANCH   2   3
ATOM      3  C   UNL     1       5.748  13.011   8.470  1.00  0.00     0.000 C 
BRANCH   3   4
ATOM      4  C   UNL     1       4.770  12.766   9.630  1.00  0.00     0.000 C 
BRANCH   4   5
ATOM      5  C   UNL     1       3.299  12.834   9.190  1.00  0.00     0.000 C 
BRANCH   5   6
ATOM      6  C   UNL     1       2.471  11.647   9.711  1.00  0.00     0.006 C 
BRANCH   6   7
ATOM      7  C   UNL     1       3.294  10.353   9.783  1.00  0.00     0.053 C 
BRANCH   7   8
ATOM      8  C   UNL     1       3.164   9.539   8.533  1.00  0.00     0.041 C 
ATOM      9  O   UNL     1       3.579   8.351   8.505  1.00  0.00    -0.550 OA
ATOM     10  O   UNL     1       2.610  10.100   7.390  1.00  0.00    -0.550 OA
ENDBRANCH   7   8
ENDBRANCH   6   7
ENDBRANCH   5   6
ENDBRANCH   4   5
ENDBRANCH   3   4
ENDBRANCH   2   3
ENDBRANCH   1   2
BRANCH   1  11
ATOM     11  C   UNL     1       7.459  10.664   8.178  1.00  0.00     0.000 C 
BRANCH  11  12
ATOM     12  C   UNL     1       8.652  11.044   7.284  1.00  0.00     0.000 C 
BRANCH  12  13
ATOM     13  C   UNL     1       9.219  12.433   7.607  1.00  0.00     0.000 C 
BRANCH  13  14
ATOM     14  C   UNL     1       9.740  13.125   6.340  1.00  0.00     0.000 C 
BRANCH  14  15
ATOM     15  C   UNL     1       9.837  12.172   5.135  1.00  0.00     0.000 C 
BRANCH  15  16
ATOM     16  C   UNL     1       8.921  12.568   3.959  1.00  0.00     0.006 C 
BRANCH  16  17
ATOM     17  C   UNL     1       7.442  12.617   4.367  1.00  0.00     0.053 C 
BRANCH  17  18
ATOM     18  C   UNL     1       6.806  11.273   4.198  1.00  0.00     0.041 C 
ATOM     19  O   UNL     1       7.492  10.226   4.331  1.00  0.00    -0.550 OA
ATOM     20  O   UNL     1       5.467  11.179   3.845  1.00  0.00    -0.550 OA
ENDBRANCH  17  18
ENDBRANCH  16  17
ENDBRANCH  15  16
ENDBRANCH  14  15
ENDBRANCH  13  14
ENDBRANCH  12  13
ENDBRANCH  11  12
ENDBRANCH   1  11
TORSDOF 15
ENDMDL
MODEL 5
REMARK VINA RESULT:    -3.414      1.728      6.454
REMARK INTER + INTRA:          -7.891
REMARK INTER:                  -7.243
REMARK INTRA:                  -0.648
REMARK UNBOUND:                -1.483
REMARK SMILES O=C([O-])CCCCCCCCCCCCCCC(=O)[O-]
REMARK SMILES IDX 10 1 9 2 8 3 7 4 6 5 5 6 4 7 2 8 1 9 3 10 11 11 12 12 13 13
REMARK SMILES IDX 14 14 15 15 16 16 17 17 18 18 19 19 20 20
REMARK H PARENT
REMARK Flexibility Score: inf
ROOT
ATOM      1  C   UNL     1       6.521  10.550   7.732  1.00  0.00     0.000 C 
ENDROOT
BRANCH   1   2
ATOM      2  C   UNL     1       5.069  10.440   7.235  1.00  0.00     0.000 C 
BRANCH   2   3
ATOM      3  C   UNL     1       4.368   9.162   7.720  1.00  0.00     0.000 C 
BRANCH   3   4
ATOM      4  C   UNL     1       3.368   9.478   8.844  1.00  0.00     0.000 C 
BRANCH   4   5
ATOM      5  C   UNL     1       4.022  10.189  10.038  1.00  0.00     0.000 C 
BRANCH   5   6
ATOM      6  C   UNL     1       3.720  11.697  10.067  1.00  0.00     0.006 C 
BRANCH   6   7
ATOM      7  C   UNL     1       2.562  12.073   9.132  1.00  0.00     0.053 C 
BRANCH   7   8
ATOM      8  C   UNL     1       1.248  12.092   9.851  1.00  0.00     0.041 C 
ATOM      9  O   UNL     1       1.087  11.406  10.893  1.00  0.00    -0.550 OA
ATOM     10  O   UNL     1       0.193  12.845   9.353  1.00  0.00    -0.550 OA
ENDBRANCH   7   8
ENDBRANCH   6   7
ENDBRANCH   5   6
ENDBRANCH   4   5
ENDBRANCH   3   4
ENDBRANCH   2   3
ENDBRANCH   1   2
BRANCH   1  11
ATOM     11  C   UNL     1       6.932  11.942   8.252  1.00  0.00     0.000 C 
BRANCH  11  12
ATOM     12  C   UNL     1       8.423  12.287   8.094  1.00  0.00     0.000 C 
BRANCH  12  13
ATOM     13  C   UNL     1       9.133  11.401   7.060  1.00  0.00     0.000 C 
BRANCH  13  14
ATOM     14  C   UNL     1      10.110  12.222   6.208  1.00  0.00     0.000 C 
BRANCH  14  15
ATOM     15  C   UNL     1       9.399  13.125   5.185  1.00  0.00     0.000 C 
BRANCH  15  16
ATOM     16  C   UNL     1       8.806  12.353   3.988  1.00  0.00     0.006 C 
BRANCH  16  17
ATOM     17  C   UNL     1       7.826  11.259   4.432  1.00  0.00     0.053 C 
BRANCH  17  18
ATOM     18  C   UNL     1       6.412  11.724   4.273  1.00  0.00     0.041 C 
ATOM     19  O   UNL     1       6.065  12.855   4.704  1.00  0.00    -0.550 OA
ATOM     20  O   UNL     1       5.467  10.887   3.694  1.00  0.00    -0.550 OA
ENDBRANCH  17  18
ENDBRANCH  16  17
ENDBRANCH  15  16
ENDBRANCH  14  15
ENDBRANCH  13  14
ENDBRANCH  12  13
ENDBRANCH  11  12
ENDBRANCH   1  11
TORSDOF 15
ENDMDL
MODEL 6
REMARK VINA RESULT:    -3.232      2.258      4.260
REMARK INTER + INTRA:          -7.550
REMARK INTER:                  -6.436
REMARK INTRA:                  -1.114
REMARK UNBOUND:                -1.483
REMARK SMILES O=C([O-])CCCCCCCCCCCCCCC(=O)[O-]
REMARK SMILES IDX 10 1 9 2 8 3 7 4 6 5 5 6 4 7 2 8 1 9 3 10 11 11 12 12 13 13
REMARK SMILES IDX 14 14 15 15 16 16 17 17 18 18 19 19 20 20
REMARK H PARENT
REMARK Flexibility Score: inf
ROOT
ATOM      1  C   UNL     1       3.729   8.768   8.321  1.00  0.00     0.000 C 
ENDROOT
BRANCH   1   2
ATOM      2  C   UNL     1       3.679   9.436   6.936  1.00  0.00     0.000 C 
BRANCH   2   3
ATOM      3  C   UNL     1       4.788  10.480   6.737  1.00  0.00     0.000 C 
BRANCH   3   4
ATOM      4  C   UNL     1       4.886  10.901   5.262  1.00  0.00     0.000 C 
BRANCH   4   5
ATOM      5  C   UNL     1       5.693  12.194   5.066  1.00  0.00     0.000 C 
BRANCH   5   6
ATOM      6  C   UNL     1       6.935  11.987   4.183  1.00  0.00     0.006 C 
BRANCH   6   7
ATOM      7  C   UNL     1       7.964  11.057   4.840  1.00  0.00     0.053 C 
BRANCH   7   8
ATOM      8  C   UNL     1       9.257  11.761   5.115  1.00  0.00     0.041 C 
ATOM      9  O   UNL     1      10.019  11.351   6.030  1.00  0.00    -0.550 OA
ATOM     10  O   UNL     1       9.607  12.887   4.382  1.00  0.00    -0.550 OA
ENDBRANCH   7   8
ENDBRANCH   6   7
ENDBRANCH   5   6
ENDBRANCH   4   5
ENDBRANCH   3   4
ENDBRANCH   2   3
ENDBRANCH   1   2
BRANCH   1  11
ATOM     11  C   UNL     1       4.351   9.627   9.440  1.00  0.00     0.000 C 
BRANCH  11  12
ATOM     12  C   UNL     1       3.352  10.480  10.242  1.00  0.00     0.000 C 
BRANCH  12  13
ATOM     13  C   UNL     1       2.349  11.221   9.347  1.00  0.00     0.000 C 
BRANCH  13  14
ATOM     14  C   UNL     1       2.672  12.720   9.281  1.00  0.00     0.000 C 
BRANCH  14  15
ATOM     15  C   UNL     1       4.062  13.058   9.848  1.00  0.00     0.000 C 
BRANCH  15  16
ATOM     16  C   UNL     1       5.177  13.073   8.781  1.00  0.00     0.006 C 
BRANCH  16  17
ATOM     17  C   UNL     1       6.577  13.124   9.407  1.00  0.00     0.053 C 
BRANCH  17  18
ATOM     18  C   UNL     1       7.577  12.464   8.509  1.00  0.00     0.041 C 
ATOM     19  O   UNL     1       8.538  13.125   8.037  1.00  0.00    -0.550 OA
ATOM     20  O   UNL     1       7.417  11.131   8.154  1.00  0.00    -0.550 OA
ENDBRANCH  17  18
ENDBRANCH  16  17
ENDBRANCH  15  16
ENDBRANCH  14  15
ENDBRANCH  13  14
ENDBRANCH  12  13
ENDBRANCH  11  12
ENDBRANCH   1  11
TORSDOF 15
ENDMDL
MODEL 7
REMARK VINA RESULT:    -2.964      2.352      3.647
REMARK INTER + INTRA:          -7.046
REMARK INTER:                  -7.102
REMARK INTRA:                   0.057
REMARK UNBOUND:                -1.483
REMARK SMILES O=C([O-])CCCCCCCCCCCCCCC(=O)[O-]
REMARK SMILES IDX 10 1 9 2 8 3 7 4 6 5 5 6 4 7 2 8 1 9 3 10 11 11 12 12 13 13
REMARK SMILES IDX 14 14 15 15 16 16 17 17 18 18 19 19 20 20
REMARK H PARENT
REMARK Flexibility Score: inf
ROOT
ATOM      1  C   UNL     1       6.434  10.495   5.550  1.00  0.00     0.000 C 
ENDROOT
BRANCH   1   2
ATOM      2  C   UNL     1       5.309  11.254   4.824  1.00  0.00     0.000 C 
BRANCH   2   3
ATOM      3  C   UNL     1       5.789  12.567   4.189  1.00  0.00     0.000 C 
BRANCH   3   4
ATOM      4  C   UNL     1       7.200  12.929   4.678  1.00  0.00     0.000 C 
BRANCH   4   5
ATOM      5  C   UNL     1       8.305  12.366   3.771  1.00  0.00     0.000 C 
BRANCH   5   6
ATOM      6  C   UNL     1       9.701  12.460   4.411  1.00  0.00     0.006 C 
BRANCH   6   7
ATOM      7  C   UNL     1       9.660  13.125   5.794  1.00  0.00     0.053 C 
BRANCH   7   8
ATOM      8  C   UNL     1       9.879  12.135   6.896  1.00  0.00     0.041 C 
ATOM      9  O   UNL     1       9.839  10.900   6.654  1.00  0.00    -0.550 OA
ATOM     10  O   UNL     1      10.098  12.575   8.195  1.00  0.00    -0.550 OA
ENDBRANCH   7   8
ENDBRANCH   6   7
ENDBRANCH   5   6
ENDBRANCH   4   5
ENDBRANCH   3   4
ENDBRANCH   2   3
ENDBRANCH   1   2
BRANCH   1  11
ATOM     11  C   UNL     1       6.486  10.704   7.077  1.00  0.00     0.000 C 
BRANCH  11  12
ATOM     12  C   UNL     1       5.285  11.459   7.675  1.00  0.00     0.000 C 
BRANCH  12  13
ATOM     13  C   UNL     1       3.948  10.750   7.417  1.00  0.00     0.000 C 
BRANCH  13  14
ATOM     14  C   UNL     1       3.939   9.346   8.035  1.00  0.00     0.000 C 
BRANCH  14  15
ATOM     15  C   UNL     1       4.201   9.359   9.552  1.00  0.00     0.000 C 
BRANCH  15  16
ATOM     16  C   UNL     1       3.534  10.543  10.283  1.00  0.00     0.006 C 
BRANCH  16  17
ATOM     17  C   UNL     1       2.061  10.712   9.890  1.00  0.00     0.053 C 
BRANCH  17  18
ATOM     18  C   UNL     1       1.713  12.163   9.770  1.00  0.00     0.041 C 
ATOM     19  O   UNL     1       2.620  13.020   9.604  1.00  0.00    -0.550 OA
ATOM     20  O   UNL     1       0.392  12.573   9.893  1.00  0.00    -0.550 OA
ENDBRANCH  17  18
ENDBRANCH  16  17
ENDBRANCH  15  16
ENDBRANCH  14  15
ENDBRANCH  13  14
ENDBRANCH  12  13
ENDBRANCH  11  12
ENDBRANCH   1  11
TORSDOF 15
ENDMDL
MODEL 8
REMARK VINA RESULT:    -2.799     16.417     18.388
REMARK INTER + INTRA:          -6.738
REMARK INTER:                  -5.154
REMARK INTRA:                  -1.584
REMARK UNBOUND:                -1.483
REMARK SMILES O=C([O-])CCCCCCCCCCCCCCC(=O)[O-]
REMARK SMILES IDX 10 1 9 2 8 3 7 4 6 5 5 6 4 7 2 8 1 9 3 10 11 11 12 12 13 13
REMARK SMILES IDX 14 14 15 15 16 16 17 17 18 18 19 19 20 20
REMARK H PARENT
REMARK Flexibility Score: inf
ROOT
ATOM      1  C   UNL     1      -5.745  10.454  -8.968  1.00  0.00     0.000 C 
ENDROOT
BRANCH   1   2
ATOM      2  C   UNL     1      -4.254  10.106  -9.124  1.00  0.00     0.000 C 
BRANCH   2   3
ATOM      3  C   UNL     1      -3.340  11.336  -9.020  1.00  0.00     0.000 C 
BRANCH   3   4
ATOM      4  C   UNL     1      -3.913  12.362  -8.029  1.00  0.00     0.000 C 
BRANCH   4   5
ATOM      5  C   UNL     1      -3.306  12.233  -6.623  1.00  0.00     0.000 C 
BRANCH   5   6
ATOM      6  C   UNL     1      -2.323  11.055  -6.510  1.00  0.00     0.006 C 
BRANCH   6   7
ATOM      7  C   UNL     1      -1.337  11.233  -5.347  1.00  0.00     0.053 C 
BRANCH   7   8
ATOM      8  C   UNL     1      -1.776  10.488  -4.124  1.00  0.00     0.041 C 
ATOM      9  O   UNL     1      -3.000  10.275  -3.918  1.00  0.00    -0.550 OA
ATOM     10  O   UNL     1      -0.837  10.055  -3.197  1.00  0.00    -0.550 OA
ENDBRANCH   7   8
ENDBRANCH   6   7
ENDBRANCH   5   6
ENDBRANCH   4   5
ENDBRANCH   3   4
ENDBRANCH   2   3
ENDBRANCH   1   2
BRANCH   1  11
ATOM     11  C   UNL     1      -6.543   9.515  -8.043  1.00  0.00     0.000 C 
BRANCH  11  12
ATOM     12  C   UNL     1      -6.404   9.804  -6.537  1.00  0.00     0.000 C 
BRANCH  12  13
ATOM     13  C   UNL     1      -7.009  11.155  -6.133  1.00  0.00     0.000 C 
BRANCH  13  14
ATOM     14  C   UNL     1      -8.504  11.215  -6.475  1.00  0.00     0.000 C 
BRANCH  14  15
ATOM     15  C   UNL     1      -9.395  10.627  -5.368  1.00  0.00     0.000 C 
BRANCH  15  16
ATOM     16  C   UNL     1     -10.122   9.331  -5.783  1.00  0.00     0.006 C 
BRANCH  16  17
ATOM     17  C   UNL     1      -9.393   8.074  -5.291  1.00  0.00     0.053 C 
BRANCH  17  18
ATOM     18  C   UNL     1      -9.511   6.971  -6.296  1.00  0.00     0.041 C 
ATOM     19  O   UNL     1      -9.100   7.140  -7.474  1.00  0.00    -0.550 OA
ATOM     20  O   UNL     1     -10.123   5.775  -5.945  1.00  0.00    -0.550 OA
ENDBRANCH  17  18
ENDBRANCH  16  17
ENDBRANCH  15  16
ENDBRANCH  14  15
ENDBRANCH  13  14
ENDBRANCH  12  13
ENDBRANCH  11  12
ENDBRANCH   1  11
TORSDOF 15
ENDMDL
MODEL 9
REMARK VINA RESULT:    -2.556      2.329      3.631
REMARK INTER + INTRA:          -6.281
REMARK INTER:                  -5.316
REMARK INTRA:                  -0.965
REMARK UNBOUND:                -1.483
REMARK SMILES O=C([O-])CCCCCCCCCCCCCCC(=O)[O-]
REMARK SMILES IDX 10 1 9 2 8 3 7 4 6 5 5 6 4 7 2 8 1 9 3 10 11 11 12 12 13 13
REMARK SMILES IDX 14 14 15 15 16 16 17 17 18 18 19 19 20 20
REMARK H PARENT
REMARK Flexibility Score: inf
ROOT
ATOM      1  C   UNL     1       4.829   9.454   6.883  1.00  0.00     0.000 C 
ENDROOT
BRANCH   1   2
ATOM      2  C   UNL     1       4.255  10.645   6.095  1.00  0.00     0.000 C 
BRANCH   2   3
ATOM      3  C   UNL     1       5.277  11.275   5.137  1.00  0.00     0.000 C 
BRANCH   3   4
ATOM      4  C   UNL     1       6.025  12.433   5.817  1.00  0.00     0.000 C 
BRANCH   4   5
ATOM      5  C   UNL     1       7.111  13.047   4.920  1.00  0.00     0.000 C 
BRANCH   5   6
ATOM      6  C   UNL     1       8.226  12.046   4.573  1.00  0.00     0.006 C 
BRANCH   6   7
ATOM      7  C   UNL     1       9.507  12.303   5.379  1.00  0.00     0.053 C 
BRANCH   7   8
ATOM      8  C   UNL     1       9.328  11.977   6.830  1.00  0.00     0.041 C 
ATOM      9  O   UNL     1       8.800  10.887   7.173  1.00  0.00    -0.550 OA
ATOM     10  O   UNL     1       9.716  12.890   7.802  1.00  0.00    -0.550 OA
ENDBRANCH   7   8
ENDBRANCH   6   7
ENDBRANCH   5   6
ENDBRANCH   4   5
ENDBRANCH   3   4
ENDBRANCH   2   3
ENDBRANCH   1   2
BRANCH   1  11
ATOM     11  C   UNL     1       5.261   9.773   8.328  1.00  0.00     0.000 C 
BRANCH  11  12
ATOM     12  C   UNL     1       4.119   9.811   9.360  1.00  0.00     0.000 C 
BRANCH  12  13
ATOM     13  C   UNL     1       4.200  11.026  10.293  1.00  0.00     0.000 C 
BRANCH  13  14
ATOM     14  C   UNL     1       4.535  12.302   9.509  1.00  0.00     0.000 C 
BRANCH  14  15
ATOM     15  C   UNL     1       3.285  13.119   9.134  1.00  0.00     0.000 C 
BRANCH  15  16
ATOM     16  C   UNL     1       2.198  13.121  10.229  1.00  0.00     0.006 C 
BRANCH  16  17
ATOM     17  C   UNL     1       1.288  11.888  10.146  1.00  0.00     0.053 C 
BRANCH  17  18
ATOM     18  C   UNL     1       0.325  12.023   9.008  1.00  0.00     0.041 C 
ATOM     19  O   UNL     1       0.307  11.165   8.088  1.00  0.00    -0.550 OA
ATOM     20  O   UNL     1      -0.518  13.125   8.940  1.00  0.00    -0.550 OA
ENDBRANCH  17  18
ENDBRANCH  16  17
ENDBRANCH  15  16
ENDBRANCH  14  15
ENDBRANCH  13  14
ENDBRANCH  12  13
ENDBRANCH  11  12
ENDBRANCH   1  11
TORSDOF 15
ENDMDL
