MODEL 1
REMARK VINA RESULT:    -4.707      0.000      0.000
REMARK INTER + INTRA:          -9.827
REMARK INTER:                  -8.285
REMARK INTRA:                  -1.542
REMARK UNBOUND:                -1.542
REMARK SMILES CCCCCCCCCCCCCCC(=O)[O-]
REMARK SMILES IDX 9 1 10 2 11 3 12 4 13 5 14 6 15 7 16 8 17 9 8 10 7 11 6 12
REMARK SMILES IDX 5 13 4 14 3 15 2 16 1 17
REMARK H PARENT
REMARK Flexibility Score: inf
ROOT
ATOM      1  C   UNL     1      14.384  15.032 -19.893  1.00  0.00     0.000 C 
ENDROOT
BRANCH   1   2
ATOM      2  C   UNL     1      14.491  13.540 -20.255  1.00  0.00     0.000 C 
BRANCH   2   3
ATOM      3  C   UNL     1      13.813  13.197 -21.589  1.00  0.00     0.000 C 
BRANCH   3   4
ATOM      4  C   UNL     1      13.516  11.696 -21.685  1.00  0.00     0.000 C 
BRANCH   4   5
ATOM      5  C   UNL     1      12.880  11.176 -20.390  1.00  0.00     0.006 C 
BRANCH   5   6
ATOM      6  C   UNL     1      11.418  11.619 -20.279  1.00  0.00     0.053 C 
BRANCH   6   7
ATOM      7  C   UNL     1      11.181  12.322 -18.981  1.00  0.00     0.041 C 
ATOM      8  O   UNL     1      10.166  13.052 -18.832  1.00  0.00    -0.550 OA
ATOM      9  O   UNL     1      12.054  12.133 -17.917  1.00  0.00    -0.550 OA
ENDBRANCH   6   7
ENDBRANCH   5   6
ENDBRANCH   4   5
ENDBRANCH   3   4
ENDBRANCH   2   3
ENDBRANCH   1   2
BRANCH   1  10
ATOM     10  C   UNL     1      13.476  15.347 -18.691  1.00  0.00     0.000 C 
BRANCH  10  11
ATOM     11  C   UNL     1      13.751  16.729 -18.077  1.00  0.00    -0.000 C 
BRANCH  11  12
ATOM     12  C   UNL     1      15.122  17.262 -18.518  1.00  0.00    -0.000 C 
BRANCH  12  13
ATOM     13  C   UNL     1      16.125  17.378 -17.356  1.00  0.00    -0.000 C 
BRANCH  13  14
ATOM     14  C   UNL     1      16.515  16.044 -16.693  1.00  0.00    -0.000 C 
BRANCH  14  15
ATOM     15  C   UNL     1      17.223  15.079 -17.660  1.00  0.00    -0.000 C 
BRANCH  15  16
ATOM     16  C   UNL     1      17.486  13.703 -17.030  1.00  0.00    -0.003 C 
ATOM     17  C   UNL     1      16.509  13.370 -15.902  1.00  0.00     0.004 C 
ENDBRANCH  15  16
ENDBRANCH  14  15
ENDBRANCH  13  14
ENDBRANCH  12  13
ENDBRANCH  11  12
ENDBRANCH  10  11
ENDBRANCH   1  10
TORSDOF 13
ENDMDL
MODEL 2
REMARK VINA RESULT:    -4.673      2.065      2.664
REMARK INTER + INTRA:          -9.767
REMARK INTER:                  -7.953
REMARK INTRA:                  -1.814
REMARK UNBOUND:                -1.542
REMARK SMILES CCCCCCCCCCCCCCC(=O)[O-]
REMARK SMILES IDX 9 1 10 2 11 3 12 4 13 5 14 6 15 7 16 8 17 9 8 10 7 11 6 12
REMARK SMILES IDX 5 13 4 14 3 15 2 16 1 17
REMARK H PARENT
REMARK Flexibility Score: inf
ROOT
ATOM      1  C   UNL     1      13.490  14.426 -18.835  1.00  0.00     0.000 C 
ENDROOT
BRANCH   1   2
ATOM      2  C   UNL     1      12.268  14.202 -19.745  1.00  0.00     0.000 C 
BRANCH   2   3
ATOM      3  C   UNL     1      11.305  13.137 -19.201  1.00  0.00     0.000 C 
BRANCH   3   4
ATOM      4  C   UNL     1      11.829  11.725 -19.486  1.00  0.00     0.000 C 
BRANCH   4   5
ATOM      5  C   UNL     1      12.297  11.594 -20.940  1.00  0.00     0.006 C 
BRANCH   5   6
ATOM      6  C   UNL     1      13.732  11.063 -21.010  1.00  0.00     0.053 C 
BRANCH   6   7
ATOM      7  C   UNL     1      14.623  12.048 -21.697  1.00  0.00     0.041 C 
ATOM      8  O   UNL     1      14.368  12.420 -22.873  1.00  0.00    -0.550 OA
ATOM      9  O   UNL     1      15.708  12.594 -21.023  1.00  0.00    -0.550 OA
ENDBRANCH   6   7
ENDBRANCH   5   6
ENDBRANCH   4   5
ENDBRANCH   3   4
ENDBRANCH   2   3
ENDBRANCH   1   2
BRANCH   1  10
ATOM     10  C   UNL     1      13.187  14.431 -17.327  1.00  0.00     0.000 C 
BRANCH  10  11
ATOM     11  C   UNL     1      13.636  15.724 -16.628  1.00  0.00    -0.000 C 
BRANCH  11  12
ATOM     12  C   UNL     1      14.065  16.782 -17.656  1.00  0.00    -0.000 C 
BRANCH  12  13
ATOM     13  C   UNL     1      15.514  17.263 -17.455  1.00  0.00    -0.000 C 
BRANCH  13  14
ATOM     14  C   UNL     1      16.476  16.213 -16.867  1.00  0.00    -0.000 C 
BRANCH  14  15
ATOM     15  C   UNL     1      17.132  15.333 -17.945  1.00  0.00    -0.000 C 
BRANCH  15  16
ATOM     16  C   UNL     1      17.159  13.848 -17.554  1.00  0.00    -0.003 C 
ATOM     17  C   UNL     1      16.640  13.597 -16.138  1.00  0.00     0.004 C 
ENDBRANCH  15  16
ENDBRANCH  14  15
ENDBRANCH  13  14
ENDBRANCH  12  13
ENDBRANCH  11  12
ENDBRANCH  10  11
ENDBRANCH   1  10
TORSDOF 13
ENDMDL
MODEL 3
REMARK VINA RESULT:    -4.642      2.331      5.772
REMARK INTER + INTRA:          -9.711
REMARK INTER:                  -7.439
REMARK INTRA:                  -2.272
REMARK UNBOUND:                -1.542
REMARK SMILES CCCCCCCCCCCCCCC(=O)[O-]
REMARK SMILES IDX 9 1 10 2 11 3 12 4 13 5 14 6 15 7 16 8 17 9 8 10 7 11 6 12
REMARK SMILES IDX 5 13 4 14 3 15 2 16 1 17
REMARK H PARENT
REMARK Flexibility Score: inf
ROOT
ATOM      1  C   UNL     1      13.554  13.478 -21.900  1.00  0.00     0.000 C 
ENDROOT
BRANCH   1   2
ATOM      2  C   UNL     1      13.338  14.755 -21.066  1.00  0.00     0.000 C 
BRANCH   2   3
ATOM      3  C   UNL     1      13.893  14.638 -19.639  1.00  0.00     0.000 C 
BRANCH   3   4
ATOM      4  C   UNL     1      13.696  15.947 -18.864  1.00  0.00     0.000 C 
BRANCH   4   5
ATOM      5  C   UNL     1      14.096  15.782 -17.393  1.00  0.00     0.006 C 
BRANCH   5   6
ATOM      6  C   UNL     1      13.942  14.327 -16.942  1.00  0.00     0.053 C 
BRANCH   6   7
ATOM      7  C   UNL     1      15.125  13.901 -16.133  1.00  0.00     0.041 C 
ATOM      8  O   UNL     1      15.049  12.893 -15.381  1.00  0.00    -0.550 OA
ATOM      9  O   UNL     1      16.328  14.586 -16.245  1.00  0.00    -0.550 OA
ENDBRANCH   6   7
ENDBRANCH   5   6
ENDBRANCH   4   5
ENDBRANCH   3   4
ENDBRANCH   2   3
ENDBRANCH   1   2
BRANCH   1  10
ATOM     10  C   UNL     1      14.239  12.320 -21.152  1.00  0.00     0.000 C 
BRANCH  10  11
ATOM     11  C   UNL     1      13.355  11.068 -21.047  1.00  0.00    -0.000 C 
BRANCH  11  12
ATOM     12  C   UNL     1      12.011  11.399 -20.381  1.00  0.00    -0.000 C 
BRANCH  12  13
ATOM     13  C   UNL     1      12.121  11.564 -18.854  1.00  0.00    -0.000 C 
BRANCH  13  14
ATOM     14  C   UNL     1      11.043  12.458 -18.214  1.00  0.00    -0.000 C 
BRANCH  14  15
ATOM     15  C   UNL     1      10.317  13.349 -19.238  1.00  0.00    -0.000 C 
BRANCH  15  16
ATOM     16  C   UNL     1      10.172  14.800 -18.756  1.00  0.00    -0.003 C 
ATOM     17  C   UNL     1       9.866  15.775 -19.893  1.00  0.00     0.004 C 
ENDBRANCH  15  16
ENDBRANCH  14  15
ENDBRANCH  13  14
ENDBRANCH  12  13
ENDBRANCH  11  12
ENDBRANCH  10  11
ENDBRANCH   1  10
TORSDOF 13
ENDMDL
MODEL 4
REMARK VINA RESULT:    -4.596      2.501      6.038
REMARK INTER + INTRA:          -9.631
REMARK INTER:                  -8.024
REMARK INTRA:                  -1.607
REMARK UNBOUND:                -1.542
REMARK SMILES CCCCCCCCCCCCCCC(=O)[O-]
REMARK SMILES IDX 9 1 10 2 11 3 12 4 13 5 14 6 15 7 16 8 17 9 8 10 7 11 6 12
REMARK SMILES IDX 5 13 4 14 3 15 2 16 1 17
REMARK H PARENT
REMARK Flexibility Score: inf
ROOT
ATOM      1  C   UNL     1      12.985  14.867 -20.941  1.00  0.00     0.000 C 
ENDROOT
BRANCH   1   2
ATOM      2  C   UNL     1      14.137  15.208 -19.979  1.00  0.00     0.000 C 
BRANCH   2   3
ATOM      3  C   UNL     1      13.897  14.697 -18.551  1.00  0.00     0.000 C 
BRANCH   3   4
ATOM      4  C   UNL     1      14.224  15.780 -17.517  1.00  0.00     0.000 C 
BRANCH   4   5
ATOM      5  C   UNL     1      15.421  15.372 -16.650  1.00  0.00     0.006 C 
BRANCH   5   6
ATOM      6  C   UNL     1      16.734  15.519 -17.423  1.00  0.00     0.053 C 
BRANCH   6   7
ATOM      7  C   UNL     1      17.263  14.177 -17.819  1.00  0.00     0.041 C 
ATOM      8  O   UNL     1      17.349  13.864 -19.036  1.00  0.00    -0.550 OA
ATOM      9  O   UNL     1      17.706  13.289 -16.848  1.00  0.00    -0.550 OA
ENDBRANCH   6   7
ENDBRANCH   5   6
ENDBRANCH   4   5
ENDBRANCH   3   4
ENDBRANCH   2   3
ENDBRANCH   1   2
BRANCH   1  10
ATOM     10  C   UNL     1      13.381  14.000 -22.150  1.00  0.00     0.000 C 
BRANCH  10  11
ATOM     11  C   UNL     1      14.049  12.677 -21.745  1.00  0.00    -0.000 C 
BRANCH  11  12
ATOM     12  C   UNL     1      13.021  11.537 -21.690  1.00  0.00    -0.000 C 
BRANCH  12  13
ATOM     13  C   UNL     1      12.631  11.148 -20.253  1.00  0.00    -0.000 C 
BRANCH  13  14
ATOM     14  C   UNL     1      11.325  11.781 -19.735  1.00  0.00    -0.000 C 
BRANCH  14  15
ATOM     15  C   UNL     1      11.386  12.142 -18.241  1.00  0.00    -0.000 C 
BRANCH  15  16
ATOM     16  C   UNL     1      10.483  13.333 -17.887  1.00  0.00    -0.003 C 
ATOM     17  C   UNL     1      10.124  14.188 -19.102  1.00  0.00     0.004 C 
ENDBRANCH  15  16
ENDBRANCH  14  15
ENDBRANCH  13  14
ENDBRANCH  12  13
ENDBRANCH  11  12
ENDBRANCH  10  11
ENDBRANCH   1  10
TORSDOF 13
ENDMDL
MODEL 5
REMARK VINA RESULT:    -4.594      2.134      3.222
REMARK INTER + INTRA:          -9.628
REMARK INTER:                  -7.979
REMARK INTRA:                  -1.649
REMARK UNBOUND:                -1.542
REMARK SMILES CCCCCCCCCCCCCCC(=O)[O-]
REMARK SMILES IDX 9 1 10 2 11 3 12 4 13 5 14 6 15 7 16 8 17 9 8 10 7 11 6 12
REMARK SMILES IDX 5 13 4 14 3 15 2 16 1 17
REMARK H PARENT
REMARK Flexibility Score: inf
ROOT
ATOM      1  C   UNL     1      10.764  14.683 -17.774  1.00  0.00     0.000 C 
ENDROOT
BRANCH   1   2
ATOM      2  C   UNL     1      10.489  13.169 -17.794  1.00  0.00     0.000 C 
BRANCH   2   3
ATOM      3  C   UNL     1      10.631  12.554 -19.194  1.00  0.00     0.000 C 
BRANCH   3   4
ATOM      4  C   UNL     1      12.015  11.919 -19.377  1.00  0.00     0.000 C 
BRANCH   4   5
ATOM      5  C   UNL     1      12.225  11.461 -20.825  1.00  0.00     0.006 C 
BRANCH   5   6
ATOM      6  C   UNL     1      13.695  11.125 -21.088  1.00  0.00     0.053 C 
BRANCH   6   7
ATOM      7  C   UNL     1      14.382  12.270 -21.762  1.00  0.00     0.041 C 
ATOM      8  O   UNL     1      13.709  13.144 -22.370  1.00  0.00    -0.550 OA
ATOM      9  O   UNL     1      15.763  12.401 -21.679  1.00  0.00    -0.550 OA
ENDBRANCH   6   7
ENDBRANCH   5   6
ENDBRANCH   4   5
ENDBRANCH   3   4
ENDBRANCH   2   3
ENDBRANCH   1   2
BRANCH   1  10
ATOM     10  C   UNL     1      12.191  15.081 -17.357  1.00  0.00     0.000 C 
BRANCH  10  11
ATOM     11  C   UNL     1      12.886  15.985 -18.386  1.00  0.00    -0.000 C 
BRANCH  11  12
ATOM     12  C   UNL     1      13.705  15.153 -19.384  1.00  0.00    -0.000 C 
BRANCH  12  13
ATOM     13  C   UNL     1      14.784  14.290 -18.704  1.00  0.00    -0.000 C 
BRANCH  13  14
ATOM     14  C   UNL     1      16.227  14.805 -18.859  1.00  0.00    -0.000 C 
BRANCH  14  15
ATOM     15  C   UNL     1      17.031  14.737 -17.549  1.00  0.00    -0.000 C 
BRANCH  15  16
ATOM     16  C   UNL     1      16.137  14.501 -16.323  1.00  0.00    -0.003 C 
ATOM     17  C   UNL     1      16.380  13.142 -15.664  1.00  0.00     0.004 C 
ENDBRANCH  15  16
ENDBRANCH  14  15
ENDBRANCH  13  14
ENDBRANCH  12  13
ENDBRANCH  11  12
ENDBRANCH  10  11
ENDBRANCH   1  10
TORSDOF 13
ENDMDL
MODEL 6
REMARK VINA RESULT:    -4.593      2.453      6.005
REMARK INTER + INTRA:          -9.626
REMARK INTER:                  -8.010
REMARK INTRA:                  -1.616
REMARK UNBOUND:                -1.542
REMARK SMILES CCCCCCCCCCCCCCC(=O)[O-]
REMARK SMILES IDX 9 1 10 2 11 3 12 4 13 5 14 6 15 7 16 8 17 9 8 10 7 11 6 12
REMARK SMILES IDX 5 13 4 14 3 15 2 16 1 17
REMARK H PARENT
REMARK Flexibility Score: inf
ROOT
ATOM      1  C   UNL     1      13.032  15.693 -18.884  1.00  0.00     0.000 C 
ENDROOT
BRANCH   1   2
ATOM      2  C   UNL     1      13.187  14.965 -17.536  1.00  0.00     0.000 C 
BRANCH   2   3
ATOM      3  C   UNL     1      13.823  15.845 -16.450  1.00  0.00     0.000 C 
BRANCH   3   4
ATOM      4  C   UNL     1      14.829  16.829 -17.060  1.00  0.00     0.000 C 
BRANCH   4   5
ATOM      5  C   UNL     1      16.269  16.411 -16.744  1.00  0.00     0.006 C 
BRANCH   5   6
ATOM      6  C   UNL     1      16.347  14.919 -16.405  1.00  0.00     0.053 C 
BRANCH   6   7
ATOM      7  C   UNL     1      17.255  14.211 -17.359  1.00  0.00     0.041 C 
ATOM      8  O   UNL     1      17.970  13.253 -16.961  1.00  0.00    -0.550 OA
ATOM      9  O   UNL     1      17.278  14.575 -18.699  1.00  0.00    -0.550 OA
ENDBRANCH   6   7
ENDBRANCH   5   6
ENDBRANCH   4   5
ENDBRANCH   3   4
ENDBRANCH   2   3
ENDBRANCH   1   2
BRANCH   1  10
ATOM     10  C   UNL     1      13.870  15.113 -20.037  1.00  0.00     0.000 C 
BRANCH  10  11
ATOM     11  C   UNL     1      13.065  14.938 -21.334  1.00  0.00    -0.000 C 
BRANCH  11  12
ATOM     12  C   UNL     1      13.481  13.654 -22.068  1.00  0.00    -0.000 C 
BRANCH  12  13
ATOM     13  C   UNL     1      14.173  12.632 -21.148  1.00  0.00    -0.000 C 
BRANCH  13  14
ATOM     14  C   UNL     1      13.493  11.252 -21.074  1.00  0.00    -0.000 C 
BRANCH  14  15
ATOM     15  C   UNL     1      12.020  11.333 -20.635  1.00  0.00    -0.000 C 
BRANCH  15  16
ATOM     16  C   UNL     1      11.858  11.941 -19.234  1.00  0.00    -0.003 C 
ATOM     17  C   UNL     1      10.567  12.747 -19.083  1.00  0.00     0.004 C 
ENDBRANCH  15  16
ENDBRANCH  14  15
ENDBRANCH  13  14
ENDBRANCH  12  13
ENDBRANCH  11  12
ENDBRANCH  10  11
ENDBRANCH   1  10
TORSDOF 13
ENDMDL
MODEL 7
REMARK VINA RESULT:    -4.583      1.883      5.682
REMARK INTER + INTRA:          -9.608
REMARK INTER:                  -8.215
REMARK INTRA:                  -1.393
REMARK UNBOUND:                -1.542
REMARK SMILES CCCCCCCCCCCCCCC(=O)[O-]
REMARK SMILES IDX 9 1 10 2 11 3 12 4 13 5 14 6 15 7 16 8 17 9 8 10 7 11 6 12
REMARK SMILES IDX 5 13 4 14 3 15 2 16 1 17
REMARK H PARENT
REMARK Flexibility Score: inf
ROOT
ATOM      1  C   UNL     1      17.067  13.625 -19.763  1.00  0.00     0.000 C 
ENDROOT
BRANCH   1   2
ATOM      2  C   UNL     1      17.209  14.467 -18.482  1.00  0.00     0.000 C 
BRANCH   2   3
ATOM      3  C   UNL     1      17.511  13.617 -17.239  1.00  0.00     0.000 C 
BRANCH   3   4
ATOM      4  C   UNL     1      16.391  13.747 -16.199  1.00  0.00     0.000 C 
BRANCH   4   5
ATOM      5  C   UNL     1      15.558  15.011 -16.441  1.00  0.00     0.006 C 
BRANCH   5   6
ATOM      6  C   UNL     1      14.063  14.684 -16.483  1.00  0.00     0.053 C 
BRANCH   6   7
ATOM      7  C   UNL     1      13.366  15.545 -17.487  1.00  0.00     0.041 C 
ATOM      8  O   UNL     1      13.994  15.992 -18.483  1.00  0.00    -0.550 OA
ATOM      9  O   UNL     1      12.009  15.813 -17.352  1.00  0.00    -0.550 OA
ENDBRANCH   6   7
ENDBRANCH   5   6
ENDBRANCH   4   5
ENDBRANCH   3   4
ENDBRANCH   2   3
ENDBRANCH   1   2
BRANCH   1  10
ATOM     10  C   UNL     1      15.619  13.299 -20.170  1.00  0.00     0.000 C 
BRANCH  10  11
ATOM     11  C   UNL     1      15.533  12.395 -21.410  1.00  0.00    -0.000 C 
BRANCH  11  12
ATOM     12  C   UNL     1      14.072  12.181 -21.832  1.00  0.00    -0.000 C 
BRANCH  12  13
ATOM     13  C   UNL     1      13.369  11.074 -21.027  1.00  0.00    -0.000 C 
BRANCH  13  14
ATOM     14  C   UNL     1      12.045  11.491 -20.358  1.00  0.00    -0.000 C 
BRANCH  14  15
ATOM     15  C   UNL     1      12.253  12.182 -18.999  1.00  0.00    -0.000 C 
BRANCH  15  16
ATOM     16  C   UNL     1      10.926  12.572 -18.330  1.00  0.00    -0.003 C 
ATOM     17  C   UNL     1      10.076  13.504 -19.194  1.00  0.00     0.004 C 
ENDBRANCH  15  16
ENDBRANCH  14  15
ENDBRANCH  13  14
ENDBRANCH  12  13
ENDBRANCH  11  12
ENDBRANCH  10  11
ENDBRANCH   1  10
TORSDOF 13
ENDMDL
MODEL 8
REMARK VINA RESULT:    -4.555      1.977      3.247
REMARK INTER + INTRA:          -9.558
REMARK INTER:                  -7.806
REMARK INTRA:                  -1.752
REMARK UNBOUND:                -1.542
REMARK SMILES CCCCCCCCCCCCCCC(=O)[O-]
REMARK SMILES IDX 9 1 10 2 11 3 12 4 13 5 14 6 15 7 16 8 17 9 8 10 7 11 6 12
REMARK SMILES IDX 5 13 4 14 3 15 2 16 1 17
REMARK H PARENT
REMARK Flexibility Score: inf
ROOT
ATOM      1  C   UNL     1      13.721  12.325 -21.000  1.00  0.00     0.000 C 
ENDROOT
BRANCH   1   2
ATOM      2  C   UNL     1      12.455  11.471 -20.800  1.00  0.00     0.000 C 
BRANCH   2   3
ATOM      3  C   UNL     1      11.850  11.618 -19.397  1.00  0.00     0.000 C 
BRANCH   3   4
ATOM      4  C   UNL     1      10.638  12.558 -19.417  1.00  0.00     0.000 C 
BRANCH   4   5
ATOM      5  C   UNL     1      10.561  13.385 -18.129  1.00  0.00     0.006 C 
BRANCH   5   6
ATOM      6  C   UNL     1      10.038  14.796 -18.413  1.00  0.00     0.053 C 
BRANCH   6   7
ATOM      7  C   UNL     1      10.695  15.791 -17.509  1.00  0.00     0.041 C 
ATOM      8  O   UNL     1      11.563  16.582 -17.963  1.00  0.00    -0.550 OA
ATOM      9  O   UNL     1      10.314  15.878 -16.176  1.00  0.00    -0.550 OA
ENDBRANCH   6   7
ENDBRANCH   5   6
ENDBRANCH   4   5
ENDBRANCH   3   4
ENDBRANCH   2   3
ENDBRANCH   1   2
BRANCH   1  10
ATOM     10  C   UNL     1      13.464  13.775 -21.447  1.00  0.00     0.000 C 
BRANCH  10  11
ATOM     11  C   UNL     1      13.560  14.784 -20.292  1.00  0.00    -0.000 C 
BRANCH  11  12
ATOM     12  C   UNL     1      14.637  14.360 -19.282  1.00  0.00    -0.000 C 
BRANCH  12  13
ATOM     13  C   UNL     1      14.071  14.093 -17.875  1.00  0.00    -0.000 C 
BRANCH  13  14
ATOM     14  C   UNL     1      14.468  15.125 -16.803  1.00  0.00    -0.000 C 
BRANCH  14  15
ATOM     15  C   UNL     1      15.978  15.130 -16.507  1.00  0.00    -0.000 C 
BRANCH  15  16
ATOM     16  C   UNL     1      16.510  13.735 -16.148  1.00  0.00    -0.003 C 
ATOM     17  C   UNL     1      17.650  13.281 -17.060  1.00  0.00     0.004 C 
ENDBRANCH  15  16
ENDBRANCH  14  15
ENDBRANCH  13  14
ENDBRANCH  12  13
ENDBRANCH  11  12
ENDBRANCH  10  11
ENDBRANCH   1  10
TORSDOF 13
ENDMDL
MODEL 9
REMARK VINA RESULT:    -4.552      2.567      5.568
REMARK INTER + INTRA:          -9.554
REMARK INTER:                  -7.433
REMARK INTRA:                  -2.121
REMARK UNBOUND:                -1.542
REMARK SMILES CCCCCCCCCCCCCCC(=O)[O-]
REMARK SMILES IDX 9 1 10 2 11 3 12 4 13 5 14 6 15 7 16 8 17 9 8 10 7 11 6 12
REMARK SMILES IDX 5 13 4 14 3 15 2 16 1 17
REMARK H PARENT
REMARK Flexibility Score: inf
ROOT
ATOM      1  C   UNL     1      11.106  16.039 -20.105  1.00  0.00     0.000 C 
ENDROOT
BRANCH   1   2
ATOM      2  C   UNL     1      12.212  15.406 -20.970  1.00  0.00     0.000 C 
BRANCH   2   3
ATOM      3  C   UNL     1      13.625  15.798 -20.516  1.00  0.00     0.000 C 
BRANCH   3   4
ATOM      4  C   UNL     1      13.764  15.684 -18.993  1.00  0.00     0.000 C 
BRANCH   4   5
ATOM      5  C   UNL     1      14.659  14.500 -18.609  1.00  0.00     0.006 C 
BRANCH   5   6
ATOM      6  C   UNL     1      14.767  14.363 -17.087  1.00  0.00     0.053 C 
BRANCH   6   7
ATOM      7  C   UNL     1      16.195  14.196 -16.675  1.00  0.00     0.041 C 
ATOM      8  O   UNL     1      17.092  14.912 -17.193  1.00  0.00    -0.550 OA
ATOM      9  O   UNL     1      16.531  13.283 -15.684  1.00  0.00    -0.550 OA
ENDBRANCH   6   7
ENDBRANCH   5   6
ENDBRANCH   4   5
ENDBRANCH   3   4
ENDBRANCH   2   3
ENDBRANCH   1   2
BRANCH   1  10
ATOM     10  C   UNL     1      10.025  15.061 -19.614  1.00  0.00     0.000 C 
BRANCH  10  11
ATOM     11  C   UNL     1      10.350  14.446 -18.243  1.00  0.00    -0.000 C 
BRANCH  11  12
ATOM     12  C   UNL     1      11.042  13.084 -18.403  1.00  0.00    -0.000 C 
BRANCH  12  13
ATOM     13  C   UNL     1      10.353  12.178 -19.440  1.00  0.00    -0.000 C 
BRANCH  13  14
ATOM     14  C   UNL     1      11.307  11.428 -20.388  1.00  0.00    -0.000 C 
BRANCH  14  15
ATOM     15  C   UNL     1      12.780  11.828 -20.196  1.00  0.00    -0.000 C 
BRANCH  15  16
ATOM     16  C   UNL     1      13.675  11.347 -21.348  1.00  0.00    -0.003 C 
ATOM     17  C   UNL     1      14.045  12.467 -22.320  1.00  0.00     0.004 C 
ENDBRANCH  15  16
ENDBRANCH  14  15
ENDBRANCH  13  14
ENDBRANCH  12  13
ENDBRANCH  11  12
ENDBRANCH  10  11
ENDBRANCH   1  10
TORSDOF 13
ENDMDL
