MODEL 1
REMARK VINA RESULT:    -5.383      0.000      0.000
REMARK INTER + INTRA:          -5.980
REMARK INTER:                  -5.855
REMARK INTRA:                  -0.126
REMARK UNBOUND:                -0.126
REMARK SMILES Cc1ccc(C(C)C)cc1O
REMARK SMILES IDX 1 1 2 2 10 3 9 4 5 5 4 6 3 7 11 8 6 10 7 11 8 12
REMARK H PARENT 11 9
REMARK Flexibility Score: inf
ROOT
ATOM      1  C   UNL     1     -33.609  -8.617   3.627  1.00  0.00     0.048 C 
ATOM      2  C   UNL     1     -32.280  -9.170   3.198  1.00  0.00    -0.009 A 
ATOM      3  C   UNL     1     -31.765  -8.872   1.924  1.00  0.00     0.118 A 
ATOM      4  C   UNL     1     -30.524  -9.392   1.530  1.00  0.00     0.050 A 
ATOM      5  C   UNL     1     -29.782 -10.213   2.397  1.00  0.00    -0.042 A 
ATOM      6  C   UNL     1     -30.306 -10.507   3.669  1.00  0.00     0.004 A 
ATOM      7  C   UNL     1     -31.541  -9.990   4.064  1.00  0.00     0.007 A 
ENDROOT
BRANCH   3   8
ATOM      8  O   UNL     1     -32.488  -8.057   1.052  1.00  0.00    -0.508 OA
ATOM      9  H   UNL     1     -32.248  -7.983   0.071  1.00  0.00     0.293 HD
ENDBRANCH   3   8
BRANCH   5  10
ATOM     10  C   UNL     1     -28.440 -10.768   1.955  1.00  0.00     0.013 C 
ATOM     11  C   UNL     1     -27.587 -11.175   3.161  1.00  0.00     0.012 C 
ATOM     12  C   UNL     1     -28.621 -11.941   0.984  1.00  0.00     0.012 C 
ENDBRANCH   5  10
TORSDOF 2
ENDMDL
MODEL 2
REMARK VINA RESULT:    -5.297      2.072      4.493
REMARK INTER + INTRA:          -5.887
REMARK INTER:                  -5.760
REMARK INTRA:                  -0.127
REMARK UNBOUND:                -0.126
REMARK SMILES Cc1ccc(C(C)C)cc1O
REMARK SMILES IDX 1 1 2 2 10 3 9 4 5 5 4 6 3 7 11 8 6 10 7 11 8 12
REMARK H PARENT 11 9
REMARK Flexibility Score: inf
ROOT
ATOM      1  C   UNL     1     -27.136 -11.607   3.995  1.00  0.00     0.048 C 
ATOM      2  C   UNL     1     -28.288 -10.866   3.378  1.00  0.00    -0.009 A 
ATOM      3  C   UNL     1     -29.186 -10.149   4.189  1.00  0.00     0.118 A 
ATOM      4  C   UNL     1     -30.259  -9.459   3.606  1.00  0.00     0.050 A 
ATOM      5  C   UNL     1     -30.449  -9.473   2.213  1.00  0.00    -0.042 A 
ATOM      6  C   UNL     1     -29.546 -10.192   1.411  1.00  0.00     0.004 A 
ATOM      7  C   UNL     1     -28.477 -10.881   1.987  1.00  0.00     0.007 A 
ENDROOT
BRANCH   3   8
ATOM      8  O   UNL     1     -29.010 -10.125   5.572  1.00  0.00    -0.508 OA
ATOM      9  H   UNL     1     -29.533  -9.491   6.164  1.00  0.00     0.293 HD
ENDBRANCH   3   8
BRANCH   5  10
ATOM     10  C   UNL     1     -31.616  -8.720   1.599  1.00  0.00     0.013 C 
ATOM     11  C   UNL     1     -31.983  -9.297   0.228  1.00  0.00     0.012 C 
ATOM     12  C   UNL     1     -32.826  -8.716   2.540  1.00  0.00     0.012 C 
ENDBRANCH   5  10
TORSDOF 2
ENDMDL
MODEL 3
REMARK VINA RESULT:    -5.059      1.955      4.325
REMARK INTER + INTRA:          -5.628
REMARK INTER:                  -5.511
REMARK INTRA:                  -0.117
REMARK UNBOUND:                -0.126
REMARK SMILES Cc1ccc(C(C)C)cc1O
REMARK SMILES IDX 1 1 2 2 10 3 9 4 5 5 4 6 3 7 11 8 6 10 7 11 8 12
REMARK H PARENT 11 9
REMARK Flexibility Score: inf
ROOT
ATOM      1  C   UNL     1     -27.190 -11.608   3.997  1.00  0.00     0.048 C 
ATOM      2  C   UNL     1     -28.403 -10.823   3.587  1.00  0.00    -0.009 A 
ATOM      3  C   UNL     1     -28.830 -10.825   2.247  1.00  0.00     0.118 A 
ATOM      4  C   UNL     1     -29.963 -10.089   1.872  1.00  0.00     0.050 A 
ATOM      5  C   UNL     1     -30.683  -9.345   2.823  1.00  0.00    -0.042 A 
ATOM      6  C   UNL     1     -30.248  -9.349   4.160  1.00  0.00     0.004 A 
ATOM      7  C   UNL     1     -29.120 -10.080   4.538  1.00  0.00     0.007 A 
ENDROOT
BRANCH   3   8
ATOM      8  O   UNL     1     -28.127 -11.559   1.292  1.00  0.00    -0.508 OA
ATOM      9  H   UNL     1     -27.825 -12.509   1.469  1.00  0.00     0.293 HD
ENDBRANCH   3   8
BRANCH   5  10
ATOM     10  C   UNL     1     -31.908  -8.554   2.399  1.00  0.00     0.013 C 
ATOM     11  C   UNL     1     -32.137  -8.660   0.887  1.00  0.00     0.012 C 
ATOM     12  C   UNL     1     -33.150  -8.999   3.179  1.00  0.00     0.012 C 
ENDBRANCH   5  10
TORSDOF 2
ENDMDL
MODEL 4
REMARK VINA RESULT:    -4.800      1.299      2.669
REMARK INTER + INTRA:          -5.346
REMARK INTER:                  -5.220
REMARK INTRA:                  -0.127
REMARK UNBOUND:                -0.126
REMARK SMILES Cc1ccc(C(C)C)cc1O
REMARK SMILES IDX 1 1 2 2 10 3 9 4 5 5 4 6 3 7 11 8 6 10 7 11 8 12
REMARK H PARENT 11 9
REMARK Flexibility Score: inf
ROOT
ATOM      1  C   UNL     1     -32.514  -8.441   0.153  1.00  0.00     0.048 C 
ATOM      2  C   UNL     1     -31.709  -9.022   1.280  1.00  0.00    -0.009 A 
ATOM      3  C   UNL     1     -32.114  -8.830   2.613  1.00  0.00     0.118 A 
ATOM      4  C   UNL     1     -31.358  -9.376   3.660  1.00  0.00     0.050 A 
ATOM      5  C   UNL     1     -30.193 -10.116   3.395  1.00  0.00    -0.042 A 
ATOM      6  C   UNL     1     -29.796 -10.302   2.059  1.00  0.00     0.004 A 
ATOM      7  C   UNL     1     -30.546  -9.760   1.013  1.00  0.00     0.007 A 
ENDROOT
BRANCH   3   8
ATOM      8  O   UNL     1     -33.269  -8.099   2.893  1.00  0.00    -0.508 OA
ATOM      9  H   UNL     1     -33.275  -7.087   2.869  1.00  0.00     0.293 HD
ENDBRANCH   3   8
BRANCH   5  10
ATOM     10  C   UNL     1     -29.387 -10.700   4.541  1.00  0.00     0.013 C 
ATOM     11  C   UNL     1     -27.949 -11.003   4.105  1.00  0.00     0.012 C 
ATOM     12  C   UNL     1     -29.411  -9.772   5.761  1.00  0.00     0.012 C 
ENDBRANCH   5  10
TORSDOF 2
ENDMDL
MODEL 5
REMARK VINA RESULT:    -4.646      2.805      3.879
REMARK INTER + INTRA:          -5.180
REMARK INTER:                  -5.053
REMARK INTRA:                  -0.127
REMARK UNBOUND:                -0.126
REMARK SMILES Cc1ccc(C(C)C)cc1O
REMARK SMILES IDX 1 1 2 2 10 3 9 4 5 5 4 6 3 7 11 8 6 10 7 11 8 12
REMARK H PARENT 11 9
REMARK Flexibility Score: inf
ROOT
ATOM      1  C   UNL     1     -29.003  -9.746   6.913  1.00  0.00     0.048 C 
ATOM      2  C   UNL     1     -29.157  -9.934   5.431  1.00  0.00    -0.009 A 
ATOM      3  C   UNL     1     -28.239 -10.724   4.716  1.00  0.00     0.118 A 
ATOM      4  C   UNL     1     -28.389 -10.895   3.333  1.00  0.00     0.050 A 
ATOM      5  C   UNL     1     -29.453 -10.284   2.645  1.00  0.00    -0.042 A 
ATOM      6  C   UNL     1     -30.365  -9.495   3.368  1.00  0.00     0.004 A 
ATOM      7  C   UNL     1     -30.219  -9.323   4.746  1.00  0.00     0.007 A 
ENDROOT
BRANCH   3   8
ATOM      8  O   UNL     1     -27.179 -11.338   5.384  1.00  0.00    -0.508 OA
ATOM      9  H   UNL     1     -26.904 -11.056   6.317  1.00  0.00     0.293 HD
ENDBRANCH   3   8
BRANCH   5  10
ATOM     10  C   UNL     1     -29.600 -10.480   1.147  1.00  0.00     0.013 C 
ATOM     11  C   UNL     1     -29.454 -11.957   0.767  1.00  0.00     0.012 C 
ATOM     12  C   UNL     1     -30.931  -9.908   0.644  1.00  0.00     0.012 C 
ENDBRANCH   5  10
TORSDOF 2
ENDMDL
MODEL 6
REMARK VINA RESULT:    -4.645      2.386      4.651
REMARK INTER + INTRA:          -5.178
REMARK INTER:                  -5.056
REMARK INTRA:                  -0.122
REMARK UNBOUND:                -0.126
REMARK SMILES Cc1ccc(C(C)C)cc1O
REMARK SMILES IDX 1 1 2 2 10 3 9 4 5 5 4 6 3 7 11 8 6 10 7 11 8 12
REMARK H PARENT 11 9
REMARK Flexibility Score: inf
ROOT
ATOM      1  C   UNL     1     -28.250 -12.336   0.645  1.00  0.00     0.048 C 
ATOM      2  C   UNL     1     -28.899 -11.217   1.409  1.00  0.00    -0.009 A 
ATOM      3  C   UNL     1     -28.398 -10.831   2.665  1.00  0.00     0.118 A 
ATOM      4  C   UNL     1     -29.008  -9.786   3.372  1.00  0.00     0.050 A 
ATOM      5  C   UNL     1     -30.122  -9.113   2.839  1.00  0.00    -0.042 A 
ATOM      6  C   UNL     1     -30.616  -9.506   1.583  1.00  0.00     0.004 A 
ATOM      7  C   UNL     1     -30.011 -10.547   0.876  1.00  0.00     0.007 A 
ENDROOT
BRANCH   3   8
ATOM      8  O   UNL     1     -27.292 -11.488   3.207  1.00  0.00    -0.508 OA
ATOM      9  H   UNL     1     -26.540 -10.980   3.656  1.00  0.00     0.293 HD
ENDBRANCH   3   8
BRANCH   5  10
ATOM     10  C   UNL     1     -30.771  -7.984   3.619  1.00  0.00     0.013 C 
ATOM     11  C   UNL     1     -32.296  -8.134   3.641  1.00  0.00     0.012 C 
ATOM     12  C   UNL     1     -30.204  -7.896   5.040  1.00  0.00     0.012 C 
ENDBRANCH   5  10
TORSDOF 2
ENDMDL
MODEL 7
REMARK VINA RESULT:    -4.560      2.117      3.041
REMARK INTER + INTRA:          -5.086
REMARK INTER:                  -4.959
REMARK INTRA:                  -0.126
REMARK UNBOUND:                -0.126
REMARK SMILES Cc1ccc(C(C)C)cc1O
REMARK SMILES IDX 1 1 2 2 10 3 9 4 5 5 4 6 3 7 11 8 6 10 7 11 8 12
REMARK H PARENT 11 9
REMARK Flexibility Score: inf
ROOT
ATOM      1  C   UNL     1     -29.374  -9.472   6.743  1.00  0.00     0.048 C 
ATOM      2  C   UNL     1     -29.374  -9.748   5.266  1.00  0.00    -0.009 A 
ATOM      3  C   UNL     1     -30.124  -8.940   4.394  1.00  0.00     0.118 A 
ATOM      4  C   UNL     1     -30.120  -9.204   3.017  1.00  0.00     0.050 A 
ATOM      5  C   UNL     1     -29.370 -10.272   2.493  1.00  0.00    -0.042 A 
ATOM      6  C   UNL     1     -28.624 -11.075   3.373  1.00  0.00     0.004 A 
ATOM      7  C   UNL     1     -28.626 -10.815   4.745  1.00  0.00     0.007 A 
ENDROOT
BRANCH   3   8
ATOM      8  O   UNL     1     -30.872  -7.876   4.898  1.00  0.00    -0.508 OA
ATOM      9  H   UNL     1     -31.537  -7.374   4.323  1.00  0.00     0.293 HD
ENDBRANCH   3   8
BRANCH   5  10
ATOM     10  C   UNL     1     -29.377 -10.543   0.999  1.00  0.00     0.013 C 
ATOM     11  C   UNL     1     -29.027 -12.005   0.703  1.00  0.00     0.012 C 
ATOM     12  C   UNL     1     -30.723 -10.160   0.374  1.00  0.00     0.012 C 
ENDBRANCH   5  10
TORSDOF 2
ENDMDL
MODEL 8
REMARK VINA RESULT:    -4.191      2.084      4.099
REMARK INTER + INTRA:          -4.684
REMARK INTER:                  -4.557
REMARK INTRA:                  -0.127
REMARK UNBOUND:                -0.126
REMARK SMILES Cc1ccc(C(C)C)cc1O
REMARK SMILES IDX 1 1 2 2 10 3 9 4 5 5 4 6 3 7 11 8 6 10 7 11 8 12
REMARK H PARENT 11 9
REMARK Flexibility Score: inf
ROOT
ATOM      1  C   UNL     1     -29.344 -10.122   4.923  1.00  0.00     0.048 C 
ATOM      2  C   UNL     1     -30.159  -9.673   3.744  1.00  0.00    -0.009 A 
ATOM      3  C   UNL     1     -29.793 -10.056   2.441  1.00  0.00     0.118 A 
ATOM      4  C   UNL     1     -30.558  -9.633   1.345  1.00  0.00     0.050 A 
ATOM      5  C   UNL     1     -31.694  -8.826   1.532  1.00  0.00    -0.042 A 
ATOM      6  C   UNL     1     -32.052  -8.447   2.838  1.00  0.00     0.004 A 
ATOM      7  C   UNL     1     -31.292  -8.867   3.932  1.00  0.00     0.007 A 
ENDROOT
BRANCH   3   8
ATOM      8  O   UNL     1     -28.669 -10.858   2.240  1.00  0.00    -0.508 OA
ATOM      9  H   UNL     1     -28.724 -11.731   1.731  1.00  0.00     0.293 HD
ENDBRANCH   3   8
BRANCH   5  10
ATOM     10  C   UNL     1     -32.511  -8.376   0.334  1.00  0.00     0.013 C 
ATOM     11  C   UNL     1     -32.627  -9.496  -0.706  1.00  0.00     0.012 C 
ATOM     12  C   UNL     1     -33.894  -7.876   0.765  1.00  0.00     0.012 C 
ENDBRANCH   5  10
TORSDOF 2
ENDMDL
