MODEL 1
REMARK VINA RESULT:    -4.404      0.000      0.000
REMARK INTER + INTRA:         -10.427
REMARK INTER:                  -8.266
REMARK INTRA:                  -2.161
REMARK UNBOUND:                -2.161
REMARK SMILES CCCCCCCCC=CCCCCCCCC(=O)[O-]
REMARK SMILES IDX 10 1 9 2 11 3 12 4 13 5 14 6 15 7 16 8 17 9 18 10 19 11
REMARK SMILES IDX 20 12 8 13 7 14 6 15 5 16 4 17 3 18 2 19 1 20
REMARK H PARENT
REMARK Flexibility Score: inf
ROOT
ATOM      1  C   UNL     1      31.565   9.875  48.520  1.00  0.00    -0.031 C 
ATOM      2  C   UNL     1      31.274   8.713  49.124  1.00  0.00    -0.031 C 
ENDROOT
BRANCH   1   3
ATOM      3  C   UNL     1      32.933  10.495  48.618  1.00  0.00     0.027 C 
BRANCH   3   4
ATOM      4  C   UNL     1      34.009   9.444  48.917  1.00  0.00     0.004 C 
BRANCH   4   5
ATOM      5  C   UNL     1      35.429  10.028  48.847  1.00  0.00     0.000 C 
BRANCH   5   6
ATOM      6  C   UNL     1      35.417  11.427  48.214  1.00  0.00     0.000 C 
BRANCH   6   7
ATOM      7  C   UNL     1      36.127  11.465  46.852  1.00  0.00     0.000 C 
BRANCH   7   8
ATOM      8  C   UNL     1      35.157  11.283  45.671  1.00  0.00     0.006 C 
BRANCH   8   9
ATOM      9  C   UNL     1      35.167   9.847  45.130  1.00  0.00     0.053 C 
BRANCH   9  10
ATOM     10  C   UNL     1      34.239   9.688  43.965  1.00  0.00     0.041 C 
ATOM     11  O   UNL     1      33.997   8.545  43.496  1.00  0.00    -0.550 OA
ATOM     12  O   UNL     1      33.663  10.807  43.377  1.00  0.00    -0.550 OA
ENDBRANCH   9  10
ENDBRANCH   8   9
ENDBRANCH   7   8
ENDBRANCH   6   7
ENDBRANCH   5   6
ENDBRANCH   4   5
ENDBRANCH   3   4
ENDBRANCH   1   3
BRANCH   2  13
ATOM     13  C   UNL     1      29.924   8.064  48.977  1.00  0.00     0.027 C 
BRANCH  13  14
ATOM     14  C   UNL     1      30.026   6.572  48.624  1.00  0.00     0.004 C 
BRANCH  14  15
ATOM     15  C   UNL     1      31.043   6.312  47.500  1.00  0.00     0.000 C 
BRANCH  15  16
ATOM     16  C   UNL     1      32.072   5.226  47.861  1.00  0.00     0.000 C 
BRANCH  16  17
ATOM     17  C   UNL     1      33.544   5.677  47.811  1.00  0.00    -0.000 C 
BRANCH  17  18
ATOM     18  C   UNL     1      33.868   6.534  46.575  1.00  0.00    -0.000 C 
BRANCH  18  19
ATOM     19  C   UNL     1      34.321   5.687  45.375  1.00  0.00    -0.003 C 
ATOM     20  C   UNL     1      35.153   4.472  45.790  1.00  0.00     0.004 C 
ENDBRANCH  18  19
ENDBRANCH  17  18
ENDBRANCH  16  17
ENDBRANCH  15  16
ENDBRANCH  14  15
ENDBRANCH  13  14
ENDBRANCH   2  13
TORSDOF 15
ENDMDL
MODEL 2
REMARK VINA RESULT:    -4.186      2.996      5.032
REMARK INTER + INTRA:         -10.018
REMARK INTER:                  -8.565
REMARK INTRA:                  -1.453
REMARK UNBOUND:                -2.161
REMARK SMILES CCCCCCCCC=CCCCCCCCC(=O)[O-]
REMARK SMILES IDX 10 1 9 2 11 3 12 4 13 5 14 6 15 7 16 8 17 9 18 10 19 11
REMARK SMILES IDX 20 12 8 13 7 14 6 15 5 16 4 17 3 18 2 19 1 20
REMARK H PARENT
REMARK Flexibility Score: inf
ROOT
ATOM      1  C   UNL     1      34.380   8.273  43.992  1.00  0.00    -0.031 C 
ATOM      2  C   UNL     1      34.030   7.734  45.171  1.00  0.00    -0.031 C 
ENDROOT
BRANCH   1   3
ATOM      3  C   UNL     1      34.837   9.702  43.882  1.00  0.00     0.027 C 
BRANCH   3   4
ATOM      4  C   UNL     1      34.560  10.485  45.172  1.00  0.00     0.004 C 
BRANCH   4   5
ATOM      5  C   UNL     1      35.833  11.119  45.753  1.00  0.00     0.000 C 
BRANCH   5   6
ATOM      6  C   UNL     1      35.510  11.956  47.000  1.00  0.00     0.000 C 
BRANCH   6   7
ATOM      7  C   UNL     1      36.245  13.306  47.012  1.00  0.00     0.000 C 
BRANCH   7   8
ATOM      8  C   UNL     1      35.783  14.243  45.883  1.00  0.00     0.006 C 
BRANCH   8   9
ATOM      9  C   UNL     1      35.536  15.673  46.381  1.00  0.00     0.053 C 
BRANCH   9  10
ATOM     10  C   UNL     1      36.284  16.682  45.564  1.00  0.00     0.041 C 
ATOM     11  O   UNL     1      35.997  17.904  45.645  1.00  0.00    -0.550 OA
ATOM     12  O   UNL     1      37.281  16.266  44.690  1.00  0.00    -0.550 OA
ENDBRANCH   9  10
ENDBRANCH   8   9
ENDBRANCH   7   8
ENDBRANCH   6   7
ENDBRANCH   5   6
ENDBRANCH   4   5
ENDBRANCH   3   4
ENDBRANCH   1   3
BRANCH   2  13
ATOM     13  C   UNL     1      33.629   6.288  45.289  1.00  0.00     0.027 C 
BRANCH  13  14
ATOM     14  C   UNL     1      34.487   5.524  46.309  1.00  0.00     0.004 C 
BRANCH  14  15
ATOM     15  C   UNL     1      33.886   5.577  47.725  1.00  0.00     0.000 C 
BRANCH  15  16
ATOM     16  C   UNL     1      32.356   5.408  47.734  1.00  0.00     0.000 C 
BRANCH  16  17
ATOM     17  C   UNL     1      31.605   6.305  48.735  1.00  0.00    -0.000 C 
BRANCH  17  18
ATOM     18  C   UNL     1      30.914   7.505  48.064  1.00  0.00    -0.000 C 
BRANCH  18  19
ATOM     19  C   UNL     1      31.281   8.841  48.729  1.00  0.00    -0.003 C 
ATOM     20  C   UNL     1      32.369   9.601  47.969  1.00  0.00     0.004 C 
ENDBRANCH  18  19
ENDBRANCH  17  18
ENDBRANCH  16  17
ENDBRANCH  15  16
ENDBRANCH  14  15
ENDBRANCH  13  14
ENDBRANCH   2  13
TORSDOF 15
ENDMDL
MODEL 3
REMARK VINA RESULT:    -4.150     17.043     19.174
REMARK INTER + INTRA:          -9.950
REMARK INTER:                  -7.497
REMARK INTRA:                  -2.453
REMARK UNBOUND:                -2.161
REMARK SMILES CCCCCCCCC=CCCCCCCCC(=O)[O-]
REMARK SMILES IDX 10 1 9 2 11 3 12 4 13 5 14 6 15 7 16 8 17 9 18 10 19 11
REMARK SMILES IDX 20 12 8 13 7 14 6 15 5 16 4 17 3 18 2 19 1 20
REMARK H PARENT
REMARK Flexibility Score: inf
ROOT
ATOM      1  C   UNL     1      21.304  11.830  31.890  1.00  0.00    -0.031 C 
ATOM      2  C   UNL     1      20.565  12.855  32.342  1.00  0.00    -0.031 C 
ENDROOT
BRANCH   1   3
ATOM      3  C   UNL     1      20.715  10.758  31.013  1.00  0.00     0.027 C 
BRANCH   3   4
ATOM      4  C   UNL     1      20.545   9.437  31.773  1.00  0.00     0.004 C 
BRANCH   4   5
ATOM      5  C   UNL     1      19.088   9.192  32.195  1.00  0.00     0.000 C 
BRANCH   5   6
ATOM      6  C   UNL     1      18.852   7.709  32.521  1.00  0.00     0.000 C 
BRANCH   6   7
ATOM      7  C   UNL     1      20.128   6.998  32.997  1.00  0.00     0.000 C 
BRANCH   7   8
ATOM      8  C   UNL     1      20.296   7.040  34.526  1.00  0.00     0.006 C 
BRANCH   8   9
ATOM      9  C   UNL     1      18.952   7.185  35.252  1.00  0.00     0.053 C 
BRANCH   9  10
ATOM     10  C   UNL     1      19.076   6.879  36.713  1.00  0.00     0.041 C 
ATOM     11  O   UNL     1      19.361   7.792  37.532  1.00  0.00    -0.550 OA
ATOM     12  O   UNL     1      18.906   5.577  37.168  1.00  0.00    -0.550 OA
ENDBRANCH   9  10
ENDBRANCH   8   9
ENDBRANCH   7   8
ENDBRANCH   6   7
ENDBRANCH   5   6
ENDBRANCH   4   5
ENDBRANCH   3   4
ENDBRANCH   1   3
BRANCH   2  13
ATOM     13  C   UNL     1      21.169  13.958  33.170  1.00  0.00     0.027 C 
BRANCH  13  14
ATOM     14  C   UNL     1      20.948  13.747  34.675  1.00  0.00     0.004 C 
BRANCH  14  15
ATOM     15  C   UNL     1      19.607  13.054  34.973  1.00  0.00     0.000 C 
BRANCH  15  16
ATOM     16  C   UNL     1      19.750  11.854  35.925  1.00  0.00     0.000 C 
BRANCH  16  17
ATOM     17  C   UNL     1      20.398  10.601  35.306  1.00  0.00    -0.000 C 
BRANCH  17  18
ATOM     18  C   UNL     1      21.809  10.322  35.854  1.00  0.00    -0.000 C 
BRANCH  18  19
ATOM     19  C   UNL     1      22.912  10.922  34.967  1.00  0.00    -0.003 C 
ATOM     20  C   UNL     1      24.298  10.833  35.608  1.00  0.00     0.004 C 
ENDBRANCH  18  19
ENDBRANCH  17  18
ENDBRANCH  16  17
ENDBRANCH  15  16
ENDBRANCH  14  15
ENDBRANCH  13  14
ENDBRANCH   2  13
TORSDOF 15
ENDMDL
MODEL 4
REMARK VINA RESULT:    -4.145      2.604      3.776
REMARK INTER + INTRA:          -9.940
REMARK INTER:                  -7.879
REMARK INTRA:                  -2.061
REMARK UNBOUND:                -2.161
REMARK SMILES CCCCCCCCC=CCCCCCCCC(=O)[O-]
REMARK SMILES IDX 10 1 9 2 11 3 12 4 13 5 14 6 15 7 16 8 17 9 18 10 19 11
REMARK SMILES IDX 20 12 8 13 7 14 6 15 5 16 4 17 3 18 2 19 1 20
REMARK H PARENT
REMARK Flexibility Score: inf
ROOT
ATOM      1  C   UNL     1      32.093   9.629  48.023  1.00  0.00    -0.031 C 
ATOM      2  C   UNL     1      31.983   8.422  48.599  1.00  0.00    -0.031 C 
ENDROOT
BRANCH   1   3
ATOM      3  C   UNL     1      33.082  10.652  48.516  1.00  0.00     0.027 C 
BRANCH   3   4
ATOM      4  C   UNL     1      34.369   9.992  49.027  1.00  0.00     0.004 C 
BRANCH   4   5
ATOM      5  C   UNL     1      35.573  10.284  48.117  1.00  0.00     0.000 C 
BRANCH   5   6
ATOM      6  C   UNL     1      35.243  11.394  47.109  1.00  0.00     0.000 C 
BRANCH   6   7
ATOM      7  C   UNL     1      36.393  11.659  46.125  1.00  0.00     0.000 C 
BRANCH   7   8
ATOM      8  C   UNL     1      36.805  13.141  46.079  1.00  0.00     0.006 C 
BRANCH   8   9
ATOM      9  C   UNL     1      35.592  14.078  46.017  1.00  0.00     0.053 C 
BRANCH   9  10
ATOM     10  C   UNL     1      35.873  15.394  46.675  1.00  0.00     0.041 C 
ATOM     11  O   UNL     1      35.167  16.401  46.411  1.00  0.00    -0.550 OA
ATOM     12  O   UNL     1      36.937  15.514  47.561  1.00  0.00    -0.550 OA
ENDBRANCH   9  10
ENDBRANCH   8   9
ENDBRANCH   7   8
ENDBRANCH   6   7
ENDBRANCH   5   6
ENDBRANCH   4   5
ENDBRANCH   3   4
ENDBRANCH   1   3
BRANCH   2  13
ATOM     13  C   UNL     1      31.036   7.379  48.068  1.00  0.00     0.027 C 
BRANCH  13  14
ATOM     14  C   UNL     1      31.767   6.237  47.347  1.00  0.00     0.004 C 
BRANCH  14  15
ATOM     15  C   UNL     1      33.290   6.455  47.314  1.00  0.00     0.000 C 
BRANCH  15  16
ATOM     16  C   UNL     1      33.940   5.956  46.011  1.00  0.00     0.000 C 
BRANCH  16  17
ATOM     17  C   UNL     1      33.831   6.920  44.815  1.00  0.00    -0.000 C 
BRANCH  17  18
ATOM     18  C   UNL     1      34.217   8.365  45.172  1.00  0.00    -0.000 C 
BRANCH  18  19
ATOM     19  C   UNL     1      34.734   9.153  43.957  1.00  0.00    -0.003 C 
ATOM     20  C   UNL     1      33.814  10.312  43.570  1.00  0.00     0.004 C 
ENDBRANCH  18  19
ENDBRANCH  17  18
ENDBRANCH  16  17
ENDBRANCH  15  16
ENDBRANCH  14  15
ENDBRANCH  13  14
ENDBRANCH   2  13
TORSDOF 15
ENDMDL
MODEL 5
REMARK VINA RESULT:    -4.114      2.092      5.774
REMARK INTER + INTRA:          -9.882
REMARK INTER:                  -8.277
REMARK INTRA:                  -1.605
REMARK UNBOUND:                -2.161
REMARK SMILES CCCCCCCCC=CCCCCCCCC(=O)[O-]
REMARK SMILES IDX 10 1 9 2 11 3 12 4 13 5 14 6 15 7 16 8 17 9 18 10 19 11
REMARK SMILES IDX 20 12 8 13 7 14 6 15 5 16 4 17 3 18 2 19 1 20
REMARK H PARENT
REMARK Flexibility Score: inf
ROOT
ATOM      1  C   UNL     1      32.829  10.049  48.225  1.00  0.00    -0.031 C 
ATOM      2  C   UNL     1      33.809   9.873  49.124  1.00  0.00    -0.031 C 
ENDROOT
BRANCH   1   3
ATOM      3  C   UNL     1      31.411   9.635  48.511  1.00  0.00     0.027 C 
BRANCH   3   4
ATOM      4  C   UNL     1      31.346   8.229  49.121  1.00  0.00     0.004 C 
BRANCH   4   5
ATOM      5  C   UNL     1      29.970   7.573  48.926  1.00  0.00     0.000 C 
BRANCH   5   6
ATOM      6  C   UNL     1      30.097   6.251  48.154  1.00  0.00     0.000 C 
BRANCH   6   7
ATOM      7  C   UNL     1      31.318   6.226  47.222  1.00  0.00     0.000 C 
BRANCH   7   8
ATOM      8  C   UNL     1      32.507   5.455  47.823  1.00  0.00     0.006 C 
BRANCH   8   9
ATOM      9  C   UNL     1      33.855   5.968  47.298  1.00  0.00     0.053 C 
BRANCH   9  10
ATOM     10  C   UNL     1      34.864   4.866  47.192  1.00  0.00     0.041 C 
ATOM     11  O   UNL     1      35.471   4.459  48.217  1.00  0.00    -0.550 OA
ATOM     12  O   UNL     1      35.154   4.307  45.954  1.00  0.00    -0.550 OA
ENDBRANCH   9  10
ENDBRANCH   8   9
ENDBRANCH   7   8
ENDBRANCH   6   7
ENDBRANCH   5   6
ENDBRANCH   4   5
ENDBRANCH   3   4
ENDBRANCH   1   3
BRANCH   2  13
ATOM     13  C   UNL     1      35.215  10.342  48.860  1.00  0.00     0.027 C 
BRANCH  13  14
ATOM     14  C   UNL     1      35.341  11.872  48.910  1.00  0.00     0.004 C 
BRANCH  14  15
ATOM     15  C   UNL     1      35.564  12.480  47.514  1.00  0.00     0.000 C 
BRANCH  15  16
ATOM     16  C   UNL     1      36.122  11.466  46.500  1.00  0.00     0.000 C 
BRANCH  16  17
ATOM     17  C   UNL     1      35.150  11.058  45.377  1.00  0.00    -0.000 C 
BRANCH  17  18
ATOM     18  C   UNL     1      34.945   9.537  45.284  1.00  0.00    -0.000 C 
BRANCH  18  19
ATOM     19  C   UNL     1      34.376   9.102  43.924  1.00  0.00    -0.003 C 
ATOM     20  C   UNL     1      33.657  10.238  43.195  1.00  0.00     0.004 C 
ENDBRANCH  18  19
ENDBRANCH  17  18
ENDBRANCH  16  17
ENDBRANCH  15  16
ENDBRANCH  14  15
ENDBRANCH  13  14
ENDBRANCH   2  13
TORSDOF 15
ENDMDL
MODEL 6
REMARK VINA RESULT:    -4.046     17.645     19.154
REMARK INTER + INTRA:          -9.755
REMARK INTER:                  -7.059
REMARK INTRA:                  -2.696
REMARK UNBOUND:                -2.161
REMARK SMILES CCCCCCCCC=CCCCCCCCC(=O)[O-]
REMARK SMILES IDX 10 1 9 2 11 3 12 4 13 5 14 6 15 7 16 8 17 9 18 10 19 11
REMARK SMILES IDX 20 12 8 13 7 14 6 15 5 16 4 17 3 18 2 19 1 20
REMARK H PARENT
REMARK Flexibility Score: inf
ROOT
ATOM      1  C   UNL     1      18.859  10.152  34.794  1.00  0.00    -0.031 C 
ATOM      2  C   UNL     1      19.332   9.756  33.602  1.00  0.00    -0.031 C 
ENDROOT
BRANCH   1   3
ATOM      3  C   UNL     1      19.779  10.481  35.939  1.00  0.00     0.027 C 
BRANCH   3   4
ATOM      4  C   UNL     1      21.239  10.151  35.603  1.00  0.00     0.004 C 
BRANCH   4   5
ATOM      5  C   UNL     1      22.090  11.414  35.403  1.00  0.00     0.000 C 
BRANCH   5   6
ATOM      6  C   UNL     1      21.238  12.682  35.559  1.00  0.00     0.000 C 
BRANCH   6   7
ATOM      7  C   UNL     1      21.139  13.492  34.256  1.00  0.00     0.000 C 
BRANCH   7   8
ATOM      8  C   UNL     1      21.553  12.677  33.018  1.00  0.00     0.006 C 
BRANCH   8   9
ATOM      9  C   UNL     1      20.591  12.881  31.841  1.00  0.00     0.053 C 
BRANCH   9  10
ATOM     10  C   UNL     1      20.857  14.169  31.124  1.00  0.00     0.041 C 
ATOM     11  O   UNL     1      19.925  14.770  30.529  1.00  0.00    -0.550 OA
ATOM     12  O   UNL     1      22.144  14.691  31.089  1.00  0.00    -0.550 OA
ENDBRANCH   9  10
ENDBRANCH   8   9
ENDBRANCH   7   8
ENDBRANCH   6   7
ENDBRANCH   5   6
ENDBRANCH   4   5
ENDBRANCH   3   4
ENDBRANCH   1   3
BRANCH   2  13
ATOM     13  C   UNL     1      18.414   9.484  32.441  1.00  0.00     0.027 C 
BRANCH  13  14
ATOM     14  C   UNL     1      18.700   8.131  31.772  1.00  0.00     0.004 C 
BRANCH  14  15
ATOM     15  C   UNL     1      20.053   7.543  32.211  1.00  0.00     0.000 C 
BRANCH  15  16
ATOM     16  C   UNL     1      19.905   6.268  33.060  1.00  0.00     0.000 C 
BRANCH  16  17
ATOM     17  C   UNL     1      18.469   5.944  33.511  1.00  0.00    -0.000 C 
BRANCH  17  18
ATOM     18  C   UNL     1      18.215   6.275  34.992  1.00  0.00    -0.000 C 
BRANCH  18  19
ATOM     19  C   UNL     1      19.507   6.631  35.744  1.00  0.00    -0.003 C 
ATOM     20  C   UNL     1      19.249   7.074  37.185  1.00  0.00     0.004 C 
ENDBRANCH  18  19
ENDBRANCH  17  18
ENDBRANCH  16  17
ENDBRANCH  15  16
ENDBRANCH  14  15
ENDBRANCH  13  14
ENDBRANCH   2  13
TORSDOF 15
ENDMDL
MODEL 7
REMARK VINA RESULT:    -4.012     17.707     19.155
REMARK INTER + INTRA:          -9.691
REMARK INTER:                  -6.969
REMARK INTRA:                  -2.723
REMARK UNBOUND:                -2.161
REMARK SMILES CCCCCCCCC=CCCCCCCCC(=O)[O-]
REMARK SMILES IDX 10 1 9 2 11 3 12 4 13 5 14 6 15 7 16 8 17 9 18 10 19 11
REMARK SMILES IDX 20 12 8 13 7 14 6 15 5 16 4 17 3 18 2 19 1 20
REMARK H PARENT
REMARK Flexibility Score: inf
ROOT
ATOM      1  C   UNL     1      21.045   9.330  35.781  1.00  0.00    -0.031 C 
ATOM      2  C   UNL     1      19.774   9.093  36.140  1.00  0.00    -0.031 C 
ENDROOT
BRANCH   1   3
ATOM      3  C   UNL     1      21.405  10.456  34.849  1.00  0.00     0.027 C 
BRANCH   3   4
ATOM      4  C   UNL     1      21.824  11.714  35.620  1.00  0.00     0.004 C 
BRANCH   4   5
ATOM      5  C   UNL     1      20.911  12.912  35.318  1.00  0.00     0.000 C 
BRANCH   5   6
ATOM      6  C   UNL     1      19.556  12.763  36.026  1.00  0.00     0.000 C 
BRANCH   6   7
ATOM      7  C   UNL     1      18.368  13.045  35.094  1.00  0.00     0.000 C 
BRANCH   7   8
ATOM      8  C   UNL     1      18.222  11.989  33.984  1.00  0.00     0.006 C 
BRANCH   8   9
ATOM      9  C   UNL     1      18.055  12.625  32.597  1.00  0.00     0.053 C 
BRANCH   9  10
ATOM     10  C   UNL     1      19.365  12.742  31.881  1.00  0.00     0.041 C 
ATOM     11  O   UNL     1      20.213  11.814  31.950  1.00  0.00    -0.550 OA
ATOM     12  O   UNL     1      19.661  13.890  31.157  1.00  0.00    -0.550 OA
ENDBRANCH   9  10
ENDBRANCH   8   9
ENDBRANCH   7   8
ENDBRANCH   6   7
ENDBRANCH   5   6
ENDBRANCH   4   5
ENDBRANCH   3   4
ENDBRANCH   1   3
BRANCH   2  13
ATOM     13  C   UNL     1      19.421   8.004  37.118  1.00  0.00     0.027 C 
BRANCH  13  14
ATOM     14  C   UNL     1      19.330   6.624  36.450  1.00  0.00     0.004 C 
BRANCH  14  15
ATOM     15  C   UNL     1      18.106   6.508  35.526  1.00  0.00     0.000 C 
BRANCH  15  16
ATOM     16  C   UNL     1      18.479   6.146  34.077  1.00  0.00     0.000 C 
BRANCH  16  17
ATOM     17  C   UNL     1      19.916   6.510  33.661  1.00  0.00    -0.000 C 
BRANCH  17  18
ATOM     18  C   UNL     1      19.968   7.595  32.571  1.00  0.00    -0.000 C 
BRANCH  18  19
ATOM     19  C   UNL     1      18.809   8.598  32.684  1.00  0.00    -0.003 C 
ATOM     20  C   UNL     1      18.182   8.932  31.329  1.00  0.00     0.004 C 
ENDBRANCH  18  19
ENDBRANCH  17  18
ENDBRANCH  16  17
ENDBRANCH  15  16
ENDBRANCH  14  15
ENDBRANCH  13  14
ENDBRANCH   2  13
TORSDOF 15
ENDMDL
MODEL 8
REMARK VINA RESULT:    -4.003     17.543     19.121
REMARK INTER + INTRA:          -9.674
REMARK INTER:                  -7.528
REMARK INTRA:                  -2.145
REMARK UNBOUND:                -2.161
REMARK SMILES CCCCCCCCC=CCCCCCCCC(=O)[O-]
REMARK SMILES IDX 10 1 9 2 11 3 12 4 13 5 14 6 15 7 16 8 17 9 18 10 19 11
REMARK SMILES IDX 20 12 8 13 7 14 6 15 5 16 4 17 3 18 2 19 1 20
REMARK H PARENT
REMARK Flexibility Score: inf
ROOT
ATOM      1  C   UNL     1      21.575  10.007  35.444  1.00  0.00    -0.031 C 
ATOM      2  C   UNL     1      20.342   9.888  35.960  1.00  0.00    -0.031 C 
ENDROOT
BRANCH   1   3
ATOM      3  C   UNL     1      22.182  11.353  35.151  1.00  0.00     0.027 C 
BRANCH   3   4
ATOM      4  C   UNL     1      21.217  12.495  35.497  1.00  0.00     0.004 C 
BRANCH   4   5
ATOM      5  C   UNL     1      21.067  13.499  34.344  1.00  0.00     0.000 C 
BRANCH   5   6
ATOM      6  C   UNL     1      21.475  12.865  33.006  1.00  0.00     0.000 C 
BRANCH   6   7
ATOM      7  C   UNL     1      20.896  13.615  31.796  1.00  0.00     0.000 C 
BRANCH   7   8
ATOM      8  C   UNL     1      21.974  14.357  30.986  1.00  0.00     0.006 C 
BRANCH   8   9
ATOM      9  C   UNL     1      21.893  15.878  31.171  1.00  0.00     0.053 C 
BRANCH   9  10
ATOM     10  C   UNL     1      22.941  16.589  30.371  1.00  0.00     0.041 C 
ATOM     11  O   UNL     1      22.654  17.639  29.738  1.00  0.00    -0.550 OA
ATOM     12  O   UNL     1      24.229  16.075  30.300  1.00  0.00    -0.550 OA
ENDBRANCH   9  10
ENDBRANCH   8   9
ENDBRANCH   7   8
ENDBRANCH   6   7
ENDBRANCH   5   6
ENDBRANCH   4   5
ENDBRANCH   3   4
ENDBRANCH   1   3
BRANCH   2  13
ATOM     13  C   UNL     1      19.760   8.544  36.308  1.00  0.00     0.027 C 
BRANCH  13  14
ATOM     14  C   UNL     1      20.161   7.454  35.303  1.00  0.00     0.004 C 
BRANCH  14  15
ATOM     15  C   UNL     1      18.945   6.661  34.793  1.00  0.00     0.000 C 
BRANCH  15  16
ATOM     16  C   UNL     1      19.129   6.137  33.358  1.00  0.00     0.000 C 
BRANCH  16  17
ATOM     17  C   UNL     1      20.237   6.832  32.544  1.00  0.00    -0.000 C 
BRANCH  17  18
ATOM     18  C   UNL     1      19.702   7.955  31.639  1.00  0.00    -0.000 C 
BRANCH  18  19
ATOM     19  C   UNL     1      20.150   9.349  32.104  1.00  0.00    -0.003 C 
ATOM     20  C   UNL     1      18.987  10.209  32.600  1.00  0.00     0.004 C 
ENDBRANCH  18  19
ENDBRANCH  17  18
ENDBRANCH  16  17
ENDBRANCH  15  16
ENDBRANCH  14  15
ENDBRANCH  13  14
ENDBRANCH   2  13
TORSDOF 15
ENDMDL
MODEL 9
REMARK VINA RESULT:    -3.950     17.817     19.730
REMARK INTER + INTRA:          -9.574
REMARK INTER:                  -7.028
REMARK INTRA:                  -2.546
REMARK UNBOUND:                -2.161
REMARK SMILES CCCCCCCCC=CCCCCCCCC(=O)[O-]
REMARK SMILES IDX 10 1 9 2 11 3 12 4 13 5 14 6 15 7 16 8 17 9 18 10 19 11
REMARK SMILES IDX 20 12 8 13 7 14 6 15 5 16 4 17 3 18 2 19 1 20
REMARK H PARENT
REMARK Flexibility Score: inf
ROOT
ATOM      1  C   UNL     1      21.219  10.140  34.840  1.00  0.00    -0.031 C 
ATOM      2  C   UNL     1      21.374  11.218  35.624  1.00  0.00    -0.031 C 
ENDROOT
BRANCH   1   3
ATOM      3  C   UNL     1      20.819   8.804  35.406  1.00  0.00     0.027 C 
BRANCH   3   4
ATOM      4  C   UNL     1      19.710   8.944  36.456  1.00  0.00     0.004 C 
BRANCH   4   5
ATOM      5  C   UNL     1      19.376   7.605  37.131  1.00  0.00     0.000 C 
BRANCH   5   6
ATOM      6  C   UNL     1      19.335   6.466  36.103  1.00  0.00     0.000 C 
BRANCH   6   7
ATOM      7  C   UNL     1      17.928   6.238  35.528  1.00  0.00     0.000 C 
BRANCH   7   8
ATOM      8  C   UNL     1      17.883   6.382  33.996  1.00  0.00     0.006 C 
BRANCH   8   9
ATOM      9  C   UNL     1      19.266   6.203  33.356  1.00  0.00     0.053 C 
BRANCH   9  10
ATOM     10  C   UNL     1      19.165   5.909  31.891  1.00  0.00     0.041 C 
ATOM     11  O   UNL     1      20.200   5.876  31.176  1.00  0.00    -0.550 OA
ATOM     12  O   UNL     1      17.921   5.699  31.309  1.00  0.00    -0.550 OA
ENDBRANCH   9  10
ENDBRANCH   8   9
ENDBRANCH   7   8
ENDBRANCH   6   7
ENDBRANCH   5   6
ENDBRANCH   4   5
ENDBRANCH   3   4
ENDBRANCH   1   3
BRANCH   2  13
ATOM     13  C   UNL     1      21.716  12.568  35.051  1.00  0.00     0.027 C 
BRANCH  13  14
ATOM     14  C   UNL     1      20.532  13.544  35.105  1.00  0.00     0.004 C 
BRANCH  14  15
ATOM     15  C   UNL     1      19.391  13.022  35.996  1.00  0.00     0.000 C 
BRANCH  15  16
ATOM     16  C   UNL     1      18.042  12.943  35.260  1.00  0.00     0.000 C 
BRANCH  16  17
ATOM     17  C   UNL     1      17.875  11.730  34.326  1.00  0.00    -0.000 C 
BRANCH  17  18
ATOM     18  C   UNL     1      18.083  12.081  32.843  1.00  0.00    -0.000 C 
BRANCH  18  19
ATOM     19  C   UNL     1      19.101  11.157  32.157  1.00  0.00    -0.003 C 
ATOM     20  C   UNL     1      18.681   9.686  32.190  1.00  0.00     0.004 C 
ENDBRANCH  18  19
ENDBRANCH  17  18
ENDBRANCH  16  17
ENDBRANCH  15  16
ENDBRANCH  14  15
ENDBRANCH  13  14
ENDBRANCH   2  13
TORSDOF 15
ENDMDL
