MODEL 1
REMARK VINA RESULT:    -5.763      0.000      0.000
REMARK INTER + INTRA:          -6.343
REMARK INTER:                  -6.269
REMARK INTRA:                  -0.075
REMARK UNBOUND:                -0.075
REMARK SMILES CC(=O)[C@@H]1CC[C@@H]2[C@H]3CC=C4C[C@H](O)CC[C@]4(C)[C@H]3CC[C@]21C
REMARK SMILES IDX 4 1 5 2 6 3 7 4 22 5 21 6 20 7 19 8 8 9 9 10 10 11 11 12
REMARK SMILES IDX 17 13 16 14 15 15 13 16 12 17 18 18 23 19 2 20 1 21 3 22
REMARK SMILES IDX 14 23
REMARK H PARENT 14 24
REMARK Flexibility Score: inf
ROOT
ATOM      1  C   UNL     1      55.621 -17.714  -3.294  1.00  0.00     0.062 C 
ATOM      2  C   UNL     1      54.484 -18.704  -2.937  1.00  0.00     0.012 C 
ATOM      3  C   UNL     1      54.920 -19.420  -1.647  1.00  0.00     0.005 C 
ATOM      4  C   UNL     1      56.326 -18.895  -1.367  1.00  0.00    -0.001 C 
ATOM      5  C   UNL     1      56.352 -17.473  -1.951  1.00  0.00    -0.020 C 
ATOM      6  C   UNL     1      57.831 -16.998  -2.090  1.00  0.00     0.008 C 
ATOM      7  C   UNL     1      58.814 -17.735  -1.141  1.00  0.00     0.005 C 
ATOM      8  C   UNL     1      58.195 -18.142   0.236  1.00  0.00     0.003 C 
ATOM      9  C   UNL     1      56.841 -18.944   0.088  1.00  0.00     0.000 C 
ATOM     10  C   UNL     1      56.952 -20.390   0.579  1.00  0.00     0.031 C 
ATOM     11  C   UNL     1      57.515 -20.413   1.965  1.00  0.00    -0.027 C 
ATOM     12  C   UNL     1      58.562 -19.636   2.307  1.00  0.00    -0.065 C 
ATOM     13  C   UNL     1      59.260 -18.778   1.238  1.00  0.00    -0.008 C 
ATOM     14  C   UNL     1      60.051 -17.612   1.919  1.00  0.00     0.014 C 
ATOM     15  C   UNL     1      60.849 -18.039   3.155  1.00  0.00     0.033 C 
ATOM     16  C   UNL     1      59.928 -18.652   4.211  1.00  0.00     0.118 C 
ATOM     17  C   UNL     1      59.218 -19.889   3.652  1.00  0.00     0.063 C 
ATOM     18  C   UNL     1      60.275 -19.697   0.504  1.00  0.00     0.016 C 
ATOM     19  C   UNL     1      55.549 -16.448  -1.083  1.00  0.00     0.012 C 
ENDROOT
BRANCH   1  20
ATOM     20  C   UNL     1      55.204 -16.449  -4.029  1.00  0.00     0.133 C 
ATOM     21  C   UNL     1      56.144 -15.665  -4.902  1.00  0.00     0.088 C 
ATOM     22  O   UNL     1      54.056 -16.050  -3.901  1.00  0.00    -0.300 OA
ENDBRANCH   1  20
BRANCH  16  23
ATOM     23  O   UNL     1      58.989 -17.699   4.639  1.00  0.00    -0.393 OA
ATOM     24  H   UNL     1      58.691 -17.205   3.831  1.00  0.00     0.210 HD
ENDBRANCH  16  23
TORSDOF 2
ENDMDL
MODEL 2
REMARK VINA RESULT:    -5.635      1.712      6.860
REMARK INTER + INTRA:          -6.203
REMARK INTER:                  -6.081
REMARK INTRA:                  -0.123
REMARK UNBOUND:                -0.075
REMARK SMILES CC(=O)[C@@H]1CC[C@@H]2[C@H]3CC=C4C[C@H](O)CC[C@]4(C)[C@H]3CC[C@]21C
REMARK SMILES IDX 4 1 5 2 6 3 7 4 22 5 21 6 20 7 19 8 8 9 9 10 10 11 11 12
REMARK SMILES IDX 17 13 16 14 15 15 13 16 12 17 18 18 23 19 2 20 1 21 3 22
REMARK SMILES IDX 14 23
REMARK H PARENT 14 24
REMARK Flexibility Score: inf
ROOT
ATOM      1  C   UNL     1      59.077 -18.783   2.050  1.00  0.00     0.062 C 
ATOM      2  C   UNL     1      58.346 -20.127   1.801  1.00  0.00     0.012 C 
ATOM      3  C   UNL     1      57.516 -19.939   0.520  1.00  0.00     0.005 C 
ATOM      4  C   UNL     1      57.717 -18.475   0.137  1.00  0.00    -0.001 C 
ATOM      5  C   UNL     1      59.116 -18.108   0.657  1.00  0.00    -0.020 C 
ATOM      6  C   UNL     1      59.265 -16.555   0.690  1.00  0.00     0.008 C 
ATOM      7  C   UNL     1      58.305 -15.817  -0.282  1.00  0.00     0.005 C 
ATOM      8  C   UNL     1      58.002 -16.598  -1.602  1.00  0.00     0.003 C 
ATOM      9  C   UNL     1      57.516 -18.079  -1.342  1.00  0.00     0.000 C 
ATOM     10  C   UNL     1      56.066 -18.312  -1.777  1.00  0.00     0.031 C 
ATOM     11  C   UNL     1      55.882 -17.859  -3.192  1.00  0.00    -0.027 C 
ATOM     12  C   UNL     1      56.405 -16.696  -3.626  1.00  0.00    -0.065 C 
ATOM     13  C   UNL     1      57.123 -15.761  -2.637  1.00  0.00    -0.008 C 
ATOM     14  C   UNL     1      58.071 -14.787  -3.412  1.00  0.00     0.014 C 
ATOM     15  C   UNL     1      57.446 -14.181  -4.673  1.00  0.00     0.033 C 
ATOM     16  C   UNL     1      57.015 -15.279  -5.647  1.00  0.00     0.118 C 
ATOM     17  C   UNL     1      55.978 -16.199  -4.995  1.00  0.00     0.063 C 
ATOM     18  C   UNL     1      56.028 -14.920  -1.925  1.00  0.00     0.016 C 
ATOM     19  C   UNL     1      60.264 -18.729  -0.205  1.00  0.00     0.012 C 
ENDROOT
BRANCH   1  20
ATOM     20  C   UNL     1      60.423 -18.871   2.753  1.00  0.00     0.133 C 
ATOM     21  C   UNL     1      61.208 -20.149   2.858  1.00  0.00     0.088 C 
ATOM     22  O   UNL     1      60.885 -17.859   3.260  1.00  0.00    -0.300 OA
ENDBRANCH   1  20
BRANCH  16  23
ATOM     23  O   UNL     1      58.136 -16.019  -6.059  1.00  0.00    -0.393 OA
ATOM     24  H   UNL     1      58.590 -16.338  -5.236  1.00  0.00     0.210 HD
ENDBRANCH  16  23
TORSDOF 2
ENDMDL
MODEL 3
REMARK VINA RESULT:    -5.626      1.754      7.264
REMARK INTER + INTRA:          -6.194
REMARK INTER:                  -6.092
REMARK INTRA:                  -0.102
REMARK UNBOUND:                -0.075
REMARK SMILES CC(=O)[C@@H]1CC[C@@H]2[C@H]3CC=C4C[C@H](O)CC[C@]4(C)[C@H]3CC[C@]21C
REMARK SMILES IDX 4 1 5 2 6 3 7 4 22 5 21 6 20 7 19 8 8 9 9 10 10 11 11 12
REMARK SMILES IDX 17 13 16 14 15 15 13 16 12 17 18 18 23 19 2 20 1 21 3 22
REMARK SMILES IDX 14 23
REMARK H PARENT 14 24
REMARK Flexibility Score: inf
ROOT
ATOM      1  C   UNL     1      59.586 -19.057  -0.123  1.00  0.00     0.062 C 
ATOM      2  C   UNL     1      60.903 -18.727  -0.871  1.00  0.00     0.012 C 
ATOM      3  C   UNL     1      60.511 -17.859  -2.078  1.00  0.00     0.005 C 
ATOM      4  C   UNL     1      58.986 -17.806  -2.040  1.00  0.00    -0.001 C 
ATOM      5  C   UNL     1      58.612 -17.934  -0.554  1.00  0.00    -0.020 C 
ATOM      6  C   UNL     1      57.100 -18.300  -0.431  1.00  0.00     0.008 C 
ATOM      7  C   UNL     1      56.257 -17.892  -1.669  1.00  0.00     0.005 C 
ATOM      8  C   UNL     1      56.744 -16.584  -2.375  1.00  0.00     0.003 C 
ATOM      9  C   UNL     1      58.285 -16.610  -2.722  1.00  0.00     0.000 C 
ATOM     10  C   UNL     1      58.553 -16.609  -4.230  1.00  0.00     0.031 C 
ATOM     11  C   UNL     1      57.810 -15.481  -4.876  1.00  0.00    -0.027 C 
ATOM     12  C   UNL     1      56.534 -15.206  -4.545  1.00  0.00    -0.065 C 
ATOM     13  C   UNL     1      55.783 -16.118  -3.560  1.00  0.00    -0.008 C 
ATOM     14  C   UNL     1      54.571 -15.350  -2.936  1.00  0.00     0.014 C 
ATOM     15  C   UNL     1      53.758 -14.540  -3.951  1.00  0.00     0.033 C 
ATOM     16  C   UNL     1      54.642 -13.511  -4.657  1.00  0.00     0.118 C 
ATOM     17  C   UNL     1      55.782 -14.207  -5.407  1.00  0.00     0.063 C 
ATOM     18  C   UNL     1      55.236 -17.322  -4.375  1.00  0.00     0.016 C 
ATOM     19  C   UNL     1      58.906 -16.630   0.258  1.00  0.00     0.012 C 
ENDROOT
BRANCH   1  20
ATOM     20  C   UNL     1      59.700 -19.258   1.381  1.00  0.00     0.133 C 
ATOM     21  C   UNL     1      58.601 -19.861   2.210  1.00  0.00     0.088 C 
ATOM     22  O   UNL     1      60.730 -18.910   1.942  1.00  0.00    -0.300 OA
ENDBRANCH   1  20
BRANCH  16  23
ATOM     23  O   UNL     1      55.157 -12.599  -3.720  1.00  0.00    -0.393 OA
ATOM     24  H   UNL     1      56.110 -12.454  -3.952  1.00  0.00     0.210 HD
ENDBRANCH  16  23
TORSDOF 2
ENDMDL
MODEL 4
REMARK VINA RESULT:    -5.561      2.289      7.358
REMARK INTER + INTRA:          -6.124
REMARK INTER:                  -5.995
REMARK INTRA:                  -0.129
REMARK UNBOUND:                -0.075
REMARK SMILES CC(=O)[C@@H]1CC[C@@H]2[C@H]3CC=C4C[C@H](O)CC[C@]4(C)[C@H]3CC[C@]21C
REMARK SMILES IDX 4 1 5 2 6 3 7 4 22 5 21 6 20 7 19 8 8 9 9 10 10 11 11 12
REMARK SMILES IDX 17 13 16 14 15 15 13 16 12 17 18 18 23 19 2 20 1 21 3 22
REMARK SMILES IDX 14 23
REMARK H PARENT 14 24
REMARK Flexibility Score: inf
ROOT
ATOM      1  C   UNL     1      60.209 -20.173   5.111  1.00  0.00     0.062 C 
ATOM      2  C   UNL     1      61.646 -20.602   4.721  1.00  0.00     0.012 C 
ATOM      3  C   UNL     1      61.810 -20.264   3.229  1.00  0.00     0.005 C 
ATOM      4  C   UNL     1      60.440 -19.752   2.793  1.00  0.00    -0.001 C 
ATOM      5  C   UNL     1      59.826 -19.113   4.049  1.00  0.00    -0.020 C 
ATOM      6  C   UNL     1      58.292 -18.927   3.838  1.00  0.00     0.008 C 
ATOM      7  C   UNL     1      57.872 -18.862   2.345  1.00  0.00     0.005 C 
ATOM      8  C   UNL     1      58.930 -18.193   1.408  1.00  0.00     0.003 C 
ATOM      9  C   UNL     1      60.373 -18.819   1.564  1.00  0.00     0.000 C 
ATOM     10  C   UNL     1      60.844 -19.545   0.301  1.00  0.00     0.031 C 
ATOM     11  C   UNL     1      60.706 -18.641  -0.884  1.00  0.00    -0.027 C 
ATOM     12  C   UNL     1      59.604 -17.887  -1.063  1.00  0.00    -0.065 C 
ATOM     13  C   UNL     1      58.418 -18.021  -0.093  1.00  0.00    -0.008 C 
ATOM     14  C   UNL     1      57.522 -16.740  -0.162  1.00  0.00     0.014 C 
ATOM     15  C   UNL     1      57.252 -16.245  -1.587  1.00  0.00     0.033 C 
ATOM     16  C   UNL     1      58.564 -15.931  -2.309  1.00  0.00     0.118 C 
ATOM     17  C   UNL     1      59.441 -17.184  -2.399  1.00  0.00     0.063 C 
ATOM     18  C   UNL     1      57.575 -19.237  -0.565  1.00  0.00     0.016 C 
ATOM     19  C   UNL     1      60.479 -17.738   4.409  1.00  0.00     0.012 C 
ENDROOT
BRANCH   1  20
ATOM     20  C   UNL     1      60.007 -19.732   6.553  1.00  0.00     0.133 C 
ATOM     21  C   UNL     1      61.148 -19.388   7.469  1.00  0.00     0.088 C 
ATOM     22  O   UNL     1      58.867 -19.658   6.988  1.00  0.00    -0.300 OA
ENDBRANCH   1  20
BRANCH  16  23
ATOM     23  O   UNL     1      59.245 -14.902  -1.639  1.00  0.00    -0.393 OA
ATOM     24  H   UNL     1      58.762 -14.058  -1.839  1.00  0.00     0.210 HD
ENDBRANCH  16  23
TORSDOF 2
ENDMDL
MODEL 5
REMARK VINA RESULT:    -5.545      2.494      4.043
REMARK INTER + INTRA:          -6.106
REMARK INTER:                  -6.083
REMARK INTRA:                  -0.024
REMARK UNBOUND:                -0.075
REMARK SMILES CC(=O)[C@@H]1CC[C@@H]2[C@H]3CC=C4C[C@H](O)CC[C@]4(C)[C@H]3CC[C@]21C
REMARK SMILES IDX 4 1 5 2 6 3 7 4 22 5 21 6 20 7 19 8 8 9 9 10 10 11 11 12
REMARK SMILES IDX 17 13 16 14 15 15 13 16 12 17 18 18 23 19 2 20 1 21 3 22
REMARK SMILES IDX 14 23
REMARK H PARENT 14 24
REMARK Flexibility Score: inf
ROOT
ATOM      1  C   UNL     1      56.651 -14.167  -4.974  1.00  0.00     0.062 C 
ATOM      2  C   UNL     1      57.749 -14.814  -5.856  1.00  0.00     0.012 C 
ATOM      3  C   UNL     1      58.403 -15.912  -4.999  1.00  0.00     0.005 C 
ATOM      4  C   UNL     1      57.734 -15.789  -3.633  1.00  0.00    -0.001 C 
ATOM      5  C   UNL     1      56.323 -15.251  -3.918  1.00  0.00    -0.020 C 
ATOM      6  C   UNL     1      55.700 -14.705  -2.596  1.00  0.00     0.008 C 
ATOM      7  C   UNL     1      56.323 -15.320  -1.314  1.00  0.00     0.005 C 
ATOM      8  C   UNL     1      56.777 -16.808  -1.470  1.00  0.00     0.003 C 
ATOM      9  C   UNL     1      57.715 -17.036  -2.721  1.00  0.00     0.000 C 
ATOM     10  C   UNL     1      59.137 -17.447  -2.329  1.00  0.00     0.031 C 
ATOM     11  C   UNL     1      59.088 -18.615  -1.394  1.00  0.00    -0.027 C 
ATOM     12  C   UNL     1      58.205 -18.659  -0.378  1.00  0.00    -0.065 C 
ATOM     13  C   UNL     1      57.290 -17.452  -0.104  1.00  0.00    -0.008 C 
ATOM     14  C   UNL     1      56.042 -17.903   0.726  1.00  0.00     0.014 C 
ATOM     15  C   UNL     1      56.373 -18.851   1.883  1.00  0.00     0.033 C 
ATOM     16  C   UNL     1      57.067 -20.113   1.368  1.00  0.00     0.118 C 
ATOM     17  C   UNL     1      58.375 -19.756   0.657  1.00  0.00     0.063 C 
ATOM     18  C   UNL     1      58.109 -16.442   0.747  1.00  0.00     0.016 C 
ATOM     19  C   UNL     1      55.377 -16.331  -4.540  1.00  0.00     0.012 C 
ENDROOT
BRANCH   1  20
ATOM     20  C   UNL     1      55.443 -13.606  -5.709  1.00  0.00     0.133 C 
ATOM     21  C   UNL     1      54.306 -12.920  -5.005  1.00  0.00     0.088 C 
ATOM     22  O   UNL     1      55.393 -13.721  -6.925  1.00  0.00    -0.300 OA
ENDBRANCH   1  20
BRANCH  16  23
ATOM     23  O   UNL     1      56.210 -20.810   0.499  1.00  0.00    -0.393 OA
ATOM     24  H   UNL     1      55.465 -21.164   1.051  1.00  0.00     0.210 HD
ENDBRANCH  16  23
TORSDOF 2
ENDMDL
MODEL 6
REMARK VINA RESULT:    -5.508      2.617      4.674
REMARK INTER + INTRA:          -6.065
REMARK INTER:                  -6.088
REMARK INTRA:                   0.023
REMARK UNBOUND:                -0.075
REMARK SMILES CC(=O)[C@@H]1CC[C@@H]2[C@H]3CC=C4C[C@H](O)CC[C@]4(C)[C@H]3CC[C@]21C
REMARK SMILES IDX 4 1 5 2 6 3 7 4 22 5 21 6 20 7 19 8 8 9 9 10 10 11 11 12
REMARK SMILES IDX 17 13 16 14 15 15 13 16 12 17 18 18 23 19 2 20 1 21 3 22
REMARK SMILES IDX 14 23
REMARK H PARENT 14 24
REMARK Flexibility Score: inf
ROOT
ATOM      1  C   UNL     1      58.014 -19.741   0.335  1.00  0.00     0.062 C 
ATOM      2  C   UNL     1      56.627 -19.992   0.979  1.00  0.00     0.012 C 
ATOM      3  C   UNL     1      56.866 -20.098   2.495  1.00  0.00     0.005 C 
ATOM      4  C   UNL     1      58.381 -20.007   2.658  1.00  0.00    -0.001 C 
ATOM      5  C   UNL     1      58.865 -19.143   1.482  1.00  0.00    -0.020 C 
ATOM      6  C   UNL     1      60.405 -19.319   1.311  1.00  0.00     0.008 C 
ATOM      7  C   UNL     1      61.126 -19.789   2.603  1.00  0.00     0.005 C 
ATOM      8  C   UNL     1      60.490 -19.250   3.926  1.00  0.00     0.003 C 
ATOM      9  C   UNL     1      58.935 -19.520   4.015  1.00  0.00     0.000 C 
ATOM     10  C   UNL     1      58.566 -20.493   5.138  1.00  0.00     0.031 C 
ATOM     11  C   UNL     1      59.170 -20.033   6.427  1.00  0.00    -0.027 C 
ATOM     12  C   UNL     1      60.441 -19.588   6.483  1.00  0.00    -0.065 C 
ATOM     13  C   UNL     1      61.327 -19.639   5.227  1.00  0.00    -0.008 C 
ATOM     14  C   UNL     1      62.515 -18.630   5.367  1.00  0.00     0.014 C 
ATOM     15  C   UNL     1      63.189 -18.649   6.743  1.00  0.00     0.033 C 
ATOM     16  C   UNL     1      62.179 -18.331   7.847  1.00  0.00     0.118 C 
ATOM     17  C   UNL     1      61.049 -19.366   7.856  1.00  0.00     0.063 C 
ATOM     18  C   UNL     1      61.911 -21.076   5.136  1.00  0.00     0.016 C 
ATOM     19  C   UNL     1      58.524 -17.627   1.665  1.00  0.00     0.012 C 
ENDROOT
BRANCH   1  20
ATOM     20  C   UNL     1      58.020 -18.929  -0.952  1.00  0.00     0.133 C 
ATOM     21  C   UNL     1      56.761 -18.516  -1.662  1.00  0.00     0.088 C 
ATOM     22  O   UNL     1      59.095 -18.601  -1.432  1.00  0.00    -0.300 OA
ENDBRANCH   1  20
BRANCH  16  23
ATOM     23  O   UNL     1      61.659 -17.039   7.662  1.00  0.00    -0.393 OA
ATOM     24  H   UNL     1      60.972 -16.901   8.365  1.00  0.00     0.210 HD
ENDBRANCH  16  23
TORSDOF 2
ENDMDL
MODEL 7
REMARK VINA RESULT:    -5.466      2.535      7.604
REMARK INTER + INTRA:          -6.020
REMARK INTER:                  -5.895
REMARK INTRA:                  -0.126
REMARK UNBOUND:                -0.075
REMARK SMILES CC(=O)[C@@H]1CC[C@@H]2[C@H]3CC=C4C[C@H](O)CC[C@]4(C)[C@H]3CC[C@]21C
REMARK SMILES IDX 4 1 5 2 6 3 7 4 22 5 21 6 20 7 19 8 8 9 9 10 10 11 11 12
REMARK SMILES IDX 17 13 16 14 15 15 13 16 12 17 18 18 23 19 2 20 1 21 3 22
REMARK SMILES IDX 14 23
REMARK H PARENT 14 24
REMARK Flexibility Score: inf
ROOT
ATOM      1  C   UNL     1      57.137 -17.897  -0.030  1.00  0.00     0.062 C 
ATOM      2  C   UNL     1      55.642 -17.775   0.360  1.00  0.00     0.012 C 
ATOM      3  C   UNL     1      55.009 -16.799  -0.647  1.00  0.00     0.005 C 
ATOM      4  C   UNL     1      56.173 -16.320  -1.510  1.00  0.00    -0.001 C 
ATOM      5  C   UNL     1      57.176 -17.486  -1.522  1.00  0.00    -0.020 C 
ATOM      6  C   UNL     1      58.562 -16.971  -2.020  1.00  0.00     0.008 C 
ATOM      7  C   UNL     1      58.475 -15.684  -2.884  1.00  0.00     0.005 C 
ATOM      8  C   UNL     1      57.184 -15.585  -3.761  1.00  0.00     0.003 C 
ATOM      9  C   UNL     1      55.858 -15.801  -2.930  1.00  0.00     0.000 C 
ATOM     10  C   UNL     1      54.985 -14.543  -2.869  1.00  0.00     0.031 C 
ATOM     11  C   UNL     1      54.749 -14.023  -4.252  1.00  0.00    -0.027 C 
ATOM     12  C   UNL     1      55.750 -13.954  -5.152  1.00  0.00    -0.065 C 
ATOM     13  C   UNL     1      57.184 -14.322  -4.735  1.00  0.00    -0.008 C 
ATOM     14  C   UNL     1      58.036 -14.675  -5.999  1.00  0.00     0.014 C 
ATOM     15  C   UNL     1      57.838 -13.711  -7.172  1.00  0.00     0.033 C 
ATOM     16  C   UNL     1      56.370 -13.672  -7.601  1.00  0.00     0.118 C 
ATOM     17  C   UNL     1      55.485 -13.200  -6.443  1.00  0.00     0.063 C 
ATOM     18  C   UNL     1      57.801 -13.066  -4.060  1.00  0.00     0.016 C 
ATOM     19  C   UNL     1      56.706 -18.680  -2.417  1.00  0.00     0.012 C 
ENDROOT
BRANCH   1  20
ATOM     20  C   UNL     1      57.806 -19.227   0.282  1.00  0.00     0.133 C 
ATOM     21  C   UNL     1      57.038 -20.448   0.704  1.00  0.00     0.088 C 
ATOM     22  O   UNL     1      59.023 -19.305   0.190  1.00  0.00    -0.300 OA
ENDBRANCH   1  20
BRANCH  16  23
ATOM     23  O   UNL     1      55.966 -14.943  -8.041  1.00  0.00    -0.393 OA
ATOM     24  H   UNL     1      55.670 -14.842  -8.983  1.00  0.00     0.210 HD
ENDBRANCH  16  23
TORSDOF 2
ENDMDL
MODEL 8
REMARK VINA RESULT:    -5.381      3.159      8.371
REMARK INTER + INTRA:          -5.928
REMARK INTER:                  -5.827
REMARK INTRA:                  -0.101
REMARK UNBOUND:                -0.075
REMARK SMILES CC(=O)[C@@H]1CC[C@@H]2[C@H]3CC=C4C[C@H](O)CC[C@]4(C)[C@H]3CC[C@]21C
REMARK SMILES IDX 4 1 5 2 6 3 7 4 22 5 21 6 20 7 19 8 8 9 9 10 10 11 11 12
REMARK SMILES IDX 17 13 16 14 15 15 13 16 12 17 18 18 23 19 2 20 1 21 3 22
REMARK SMILES IDX 14 23
REMARK H PARENT 14 24
REMARK Flexibility Score: inf
ROOT
ATOM      1  C   UNL     1      63.074 -19.098   5.945  1.00  0.00     0.062 C 
ATOM      2  C   UNL     1      62.860 -17.677   6.526  1.00  0.00     0.012 C 
ATOM      3  C   UNL     1      61.745 -17.029   5.687  1.00  0.00     0.005 C 
ATOM      4  C   UNL     1      61.432 -18.053   4.599  1.00  0.00    -0.001 C 
ATOM      5  C   UNL     1      61.741 -19.422   5.227  1.00  0.00    -0.020 C 
ATOM      6  C   UNL     1      61.852 -20.495   4.101  1.00  0.00     0.008 C 
ATOM      7  C   UNL     1      61.099 -20.111   2.799  1.00  0.00     0.005 C 
ATOM      8  C   UNL     1      59.797 -19.277   3.031  1.00  0.00     0.003 C 
ATOM      9  C   UNL     1      60.034 -18.009   3.943  1.00  0.00     0.000 C 
ATOM     10  C   UNL     1      59.825 -16.691   3.191  1.00  0.00     0.031 C 
ATOM     11  C   UNL     1      58.492 -16.701   2.511  1.00  0.00    -0.027 C 
ATOM     12  C   UNL     1      58.057 -17.787   1.845  1.00  0.00    -0.065 C 
ATOM     13  C   UNL     1      58.976 -19.011   1.690  1.00  0.00    -0.008 C 
ATOM     14  C   UNL     1      58.123 -20.285   1.375  1.00  0.00     0.014 C 
ATOM     15  C   UNL     1      57.024 -20.057   0.333  1.00  0.00     0.033 C 
ATOM     16  C   UNL     1      56.062 -18.959   0.791  1.00  0.00     0.118 C 
ATOM     17  C   UNL     1      56.811 -17.637   0.991  1.00  0.00     0.063 C 
ATOM     18  C   UNL     1      59.910 -18.732   0.480  1.00  0.00     0.016 C 
ATOM     19  C   UNL     1      60.666 -19.864   6.273  1.00  0.00     0.012 C 
ENDROOT
BRANCH   1  20
ATOM     20  C   UNL     1      63.543 -20.161   6.928  1.00  0.00     0.133 C 
ATOM     21  C   UNL     1      64.095 -21.490   6.491  1.00  0.00     0.088 C 
ATOM     22  O   UNL     1      63.464 -19.927   8.125  1.00  0.00    -0.300 OA
ENDBRANCH   1  20
BRANCH  16  23
ATOM     23  O   UNL     1      55.425 -19.347   1.982  1.00  0.00    -0.393 OA
ATOM     24  H   UNL     1      55.293 -20.329   1.932  1.00  0.00     0.210 HD
ENDBRANCH  16  23
TORSDOF 2
ENDMDL
MODEL 9
REMARK VINA RESULT:    -5.366      1.299      6.891
REMARK INTER + INTRA:          -5.911
REMARK INTER:                  -5.801
REMARK INTRA:                  -0.111
REMARK UNBOUND:                -0.075
REMARK SMILES CC(=O)[C@@H]1CC[C@@H]2[C@H]3CC=C4C[C@H](O)CC[C@]4(C)[C@H]3CC[C@]21C
REMARK SMILES IDX 4 1 5 2 6 3 7 4 22 5 21 6 20 7 19 8 8 9 9 10 10 11 11 12
REMARK SMILES IDX 17 13 16 14 15 15 13 16 12 17 18 18 23 19 2 20 1 21 3 22
REMARK SMILES IDX 14 23
REMARK H PARENT 14 24
REMARK Flexibility Score: inf
ROOT
ATOM      1  C   UNL     1      59.390 -19.830   2.102  1.00  0.00     0.062 C 
ATOM      2  C   UNL     1      60.772 -19.509   1.478  1.00  0.00     0.012 C 
ATOM      3  C   UNL     1      60.490 -18.831   0.125  1.00  0.00     0.005 C 
ATOM      4  C   UNL     1      58.972 -18.879  -0.025  1.00  0.00    -0.001 C 
ATOM      5  C   UNL     1      58.420 -18.842   1.409  1.00  0.00    -0.020 C 
ATOM      6  C   UNL     1      56.927 -19.293   1.401  1.00  0.00     0.008 C 
ATOM      7  C   UNL     1      56.227 -19.106   0.028  1.00  0.00     0.005 C 
ATOM      8  C   UNL     1      56.729 -17.868  -0.786  1.00  0.00     0.003 C 
ATOM      9  C   UNL     1      58.302 -17.832  -0.941  1.00  0.00     0.000 C 
ATOM     10  C   UNL     1      58.758 -18.004  -2.393  1.00  0.00     0.031 C 
ATOM     11  C   UNL     1      58.045 -17.023  -3.269  1.00  0.00    -0.027 C 
ATOM     12  C   UNL     1      56.724 -16.796  -3.132  1.00  0.00    -0.065 C 
ATOM     13  C   UNL     1      55.903 -17.625  -2.128  1.00  0.00    -0.008 C 
ATOM     14  C   UNL     1      54.583 -16.869  -1.762  1.00  0.00     0.014 C 
ATOM     15  C   UNL     1      53.863 -16.253  -2.967  1.00  0.00     0.033 C 
ATOM     16  C   UNL     1      54.775 -15.265  -3.696  1.00  0.00     0.118 C 
ATOM     17  C   UNL     1      56.036 -15.970  -4.204  1.00  0.00     0.063 C 
ATOM     18  C   UNL     1      55.529 -18.958  -2.833  1.00  0.00     0.016 C 
ATOM     19  C   UNL     1      58.540 -17.428   2.067  1.00  0.00     0.012 C 
ENDROOT
BRANCH   1  20
ATOM     20  C   UNL     1      59.323 -19.829   3.622  1.00  0.00     0.133 C 
ATOM     21  C   UNL     1      60.466 -19.382   4.489  1.00  0.00     0.088 C 
ATOM     22  O   UNL     1      58.296 -20.213   4.162  1.00  0.00    -0.300 OA
ENDBRANCH   1  20
BRANCH  16  23
ATOM     23  O   UNL     1      55.117 -14.207  -2.837  1.00  0.00    -0.393 OA
ATOM     24  H   UNL     1      54.507 -14.260  -2.056  1.00  0.00     0.210 HD
ENDBRANCH  16  23
TORSDOF 2
ENDMDL
