MODEL 1
REMARK VINA RESULT:    -4.484      0.000      0.000
REMARK INTER + INTRA:          -6.549
REMARK INTER:                  -6.056
REMARK INTRA:                  -0.493
REMARK UNBOUND:                -0.493
REMARK SMILES CCCCCCCC(=O)[O-]
REMARK SMILES IDX 5 1 6 2 7 3 8 4 9 5 10 6 4 7 3 8 2 9 1 10
REMARK H PARENT
REMARK Flexibility Score: inf
ROOT
ATOM      1  C   UNL     1      13.241  75.219  69.898  1.00  0.00     0.000 C 
ENDROOT
BRANCH   1   2
ATOM      2  C   UNL     1      13.633  76.517  70.625  1.00  0.00     0.006 C 
BRANCH   2   3
ATOM      3  C   UNL     1      15.108  76.520  71.050  1.00  0.00     0.053 C 
BRANCH   3   4
ATOM      4  C   UNL     1      15.426  75.385  71.974  1.00  0.00     0.041 C 
ATOM      5  O   UNL     1      16.297  74.534  71.655  1.00  0.00    -0.550 OA
ATOM      6  O   UNL     1      14.738  75.250  73.173  1.00  0.00    -0.550 OA
ENDBRANCH   3   4
ENDBRANCH   2   3
ENDBRANCH   1   2
BRANCH   1   7
ATOM      7  C   UNL     1      13.646  75.227  68.415  1.00  0.00     0.000 C 
BRANCH   7   8
ATOM      8  C   UNL     1      14.768  74.226  68.101  1.00  0.00    -0.000 C 
BRANCH   8   9
ATOM      9  C   UNL     1      14.636  72.967  68.966  1.00  0.00    -0.003 C 
ATOM     10  C   UNL     1      15.360  71.783  68.330  1.00  0.00     0.004 C 
ENDBRANCH   8   9
ENDBRANCH   7   8
ENDBRANCH   1   7
TORSDOF 6
ENDMDL
MODEL 2
REMARK VINA RESULT:    -4.460      2.571      4.623
REMARK INTER + INTRA:          -6.517
REMARK INTER:                  -6.069
REMARK INTRA:                  -0.448
REMARK UNBOUND:                -0.493
REMARK SMILES CCCCCCCC(=O)[O-]
REMARK SMILES IDX 5 1 6 2 7 3 8 4 9 5 10 6 4 7 3 8 2 9 1 10
REMARK H PARENT
REMARK Flexibility Score: inf
ROOT
ATOM      1  C   UNL     1      15.962  74.491  71.237  1.00  0.00     0.000 C 
ENDROOT
BRANCH   1   2
ATOM      2  C   UNL     1      15.362  74.398  69.823  1.00  0.00     0.006 C 
BRANCH   2   3
ATOM      3  C   UNL     1      13.842  74.610  69.825  1.00  0.00     0.053 C 
BRANCH   3   4
ATOM      4  C   UNL     1      13.448  75.833  69.055  1.00  0.00     0.041 C 
ATOM      5  O   UNL     1      12.881  75.722  67.936  1.00  0.00    -0.550 OA
ATOM      6  O   UNL     1      13.734  77.095  69.559  1.00  0.00    -0.550 OA
ENDBRANCH   3   4
ENDBRANCH   2   3
ENDBRANCH   1   2
BRANCH   1   7
ATOM      7  C   UNL     1      14.940  74.960  72.284  1.00  0.00     0.000 C 
BRANCH   7   8
ATOM      8  C   UNL     1      15.356  76.267  72.976  1.00  0.00    -0.000 C 
BRANCH   8   9
ATOM      9  C   UNL     1      16.432  76.997  72.164  1.00  0.00    -0.003 C 
ATOM     10  C   UNL     1      17.670  77.275  73.013  1.00  0.00     0.004 C 
ENDBRANCH   8   9
ENDBRANCH   7   8
ENDBRANCH   1   7
TORSDOF 6
ENDMDL
MODEL 3
REMARK VINA RESULT:    -4.445      2.047      4.198
REMARK INTER + INTRA:          -6.497
REMARK INTER:                  -6.112
REMARK INTRA:                  -0.384
REMARK UNBOUND:                -0.493
REMARK SMILES CCCCCCCC(=O)[O-]
REMARK SMILES IDX 5 1 6 2 7 3 8 4 9 5 10 6 4 7 3 8 2 9 1 10
REMARK H PARENT
REMARK Flexibility Score: inf
ROOT
ATOM      1  C   UNL     1      14.211  76.512  70.717  1.00  0.00     0.000 C 
ENDROOT
BRANCH   1   2
ATOM      2  C   UNL     1      13.011  75.701  70.198  1.00  0.00     0.006 C 
BRANCH   2   3
ATOM      3  C   UNL     1      13.196  75.262  68.739  1.00  0.00     0.053 C 
BRANCH   3   4
ATOM      4  C   UNL     1      14.240  74.196  68.605  1.00  0.00     0.041 C 
ATOM      5  O   UNL     1      15.081  74.249  67.669  1.00  0.00    -0.550 OA
ATOM      6  O   UNL     1      14.264  73.129  69.493  1.00  0.00    -0.550 OA
ENDBRANCH   3   4
ENDBRANCH   2   3
ENDBRANCH   1   2
BRANCH   1   7
ATOM      7  C   UNL     1      14.817  75.918  71.998  1.00  0.00     0.000 C 
BRANCH   7   8
ATOM      8  C   UNL     1      16.130  75.164  71.738  1.00  0.00    -0.000 C 
BRANCH   8   9
ATOM      9  C   UNL     1      17.237  75.653  72.678  1.00  0.00    -0.003 C 
ATOM     10  C   UNL     1      17.177  77.167  72.862  1.00  0.00     0.004 C 
ENDBRANCH   8   9
ENDBRANCH   7   8
ENDBRANCH   1   7
TORSDOF 6
ENDMDL
MODEL 4
REMARK VINA RESULT:    -4.393      2.507      4.196
REMARK INTER + INTRA:          -6.427
REMARK INTER:                  -5.970
REMARK INTRA:                  -0.457
REMARK UNBOUND:                -0.493
REMARK SMILES CCCCCCCC(=O)[O-]
REMARK SMILES IDX 5 1 6 2 7 3 8 4 9 5 10 6 4 7 3 8 2 9 1 10
REMARK H PARENT
REMARK Flexibility Score: inf
ROOT
ATOM      1  C   UNL     1      15.124  74.857  71.586  1.00  0.00     0.000 C 
ENDROOT
BRANCH   1   2
ATOM      2  C   UNL     1      15.753  74.018  70.459  1.00  0.00     0.006 C 
BRANCH   2   3
ATOM      3  C   UNL     1      14.703  73.204  69.690  1.00  0.00     0.053 C 
BRANCH   3   4
ATOM      4  C   UNL     1      15.192  72.807  68.331  1.00  0.00     0.041 C 
ATOM      5  O   UNL     1      15.412  73.685  67.455  1.00  0.00    -0.550 OA
ATOM      6  O   UNL     1      15.374  71.465  68.020  1.00  0.00    -0.550 OA
ENDBRANCH   3   4
ENDBRANCH   2   3
ENDBRANCH   1   2
BRANCH   1   7
ATOM      7  C   UNL     1      14.902  76.322  71.178  1.00  0.00     0.000 C 
BRANCH   7   8
ATOM      8  C   UNL     1      13.491  76.575  70.623  1.00  0.00    -0.000 C 
BRANCH   8   9
ATOM      9  C   UNL     1      13.552  77.039  69.164  1.00  0.00    -0.003 C 
ATOM     10  C   UNL     1      12.941  75.999  68.228  1.00  0.00     0.004 C 
ENDBRANCH   8   9
ENDBRANCH   7   8
ENDBRANCH   1   7
TORSDOF 6
ENDMDL
MODEL 5
REMARK VINA RESULT:    -4.260      1.442      2.042
REMARK INTER + INTRA:          -6.246
REMARK INTER:                  -5.925
REMARK INTRA:                  -0.322
REMARK UNBOUND:                -0.493
REMARK SMILES CCCCCCCC(=O)[O-]
REMARK SMILES IDX 5 1 6 2 7 3 8 4 9 5 10 6 4 7 3 8 2 9 1 10
REMARK H PARENT
REMARK Flexibility Score: inf
ROOT
ATOM      1  C   UNL     1      14.163  76.109  70.698  1.00  0.00     0.000 C 
ENDROOT
BRANCH   1   2
ATOM      2  C   UNL     1      14.589  75.376  71.982  1.00  0.00     0.006 C 
BRANCH   2   3
ATOM      3  C   UNL     1      15.252  76.320  72.994  1.00  0.00     0.053 C 
BRANCH   3   4
ATOM      4  C   UNL     1      16.727  76.438  72.764  1.00  0.00     0.041 C 
ATOM      5  O   UNL     1      17.277  77.571  72.750  1.00  0.00    -0.550 OA
ATOM      6  O   UNL     1      17.490  75.300  72.535  1.00  0.00    -0.550 OA
ENDBRANCH   3   4
ENDBRANCH   2   3
ENDBRANCH   1   2
BRANCH   1   7
ATOM      7  C   UNL     1      13.149  75.306  69.867  1.00  0.00     0.000 C 
BRANCH   7   8
ATOM      8  C   UNL     1      13.596  75.114  68.410  1.00  0.00    -0.000 C 
BRANCH   8   9
ATOM      9  C   UNL     1      14.862  74.254  68.334  1.00  0.00    -0.003 C 
ATOM     10  C   UNL     1      14.610  72.851  68.882  1.00  0.00     0.004 C 
ENDBRANCH   8   9
ENDBRANCH   7   8
ENDBRANCH   1   7
TORSDOF 6
ENDMDL
MODEL 6
REMARK VINA RESULT:    -4.212      2.843      5.026
REMARK INTER + INTRA:          -6.182
REMARK INTER:                  -6.001
REMARK INTRA:                  -0.181
REMARK UNBOUND:                -0.493
REMARK SMILES CCCCCCCC(=O)[O-]
REMARK SMILES IDX 5 1 6 2 7 3 8 4 9 5 10 6 4 7 3 8 2 9 1 10
REMARK H PARENT
REMARK Flexibility Score: inf
ROOT
ATOM      1  C   UNL     1      14.698  75.511  72.228  1.00  0.00     0.000 C 
ENDROOT
BRANCH   1   2
ATOM      2  C   UNL     1      14.223  76.170  70.921  1.00  0.00     0.006 C 
BRANCH   2   3
ATOM      3  C   UNL     1      13.025  75.435  70.305  1.00  0.00     0.053 C 
BRANCH   3   4
ATOM      4  C   UNL     1      13.305  74.989  68.902  1.00  0.00     0.041 C 
ATOM      5  O   UNL     1      13.926  73.914  68.691  1.00  0.00    -0.550 OA
ATOM      6  O   UNL     1      12.907  75.776  67.829  1.00  0.00    -0.550 OA
ENDBRANCH   3   4
ENDBRANCH   2   3
ENDBRANCH   1   2
BRANCH   1   7
ATOM      7  C   UNL     1      15.449  76.490  73.144  1.00  0.00     0.000 C 
BRANCH   7   8
ATOM      8  C   UNL     1      16.592  77.220  72.422  1.00  0.00    -0.000 C 
BRANCH   8   9
ATOM      9  C   UNL     1      17.954  76.790  72.978  1.00  0.00    -0.003 C 
ATOM     10  C   UNL     1      18.679  77.964  73.632  1.00  0.00     0.004 C 
ENDBRANCH   8   9
ENDBRANCH   7   8
ENDBRANCH   1   7
TORSDOF 6
ENDMDL
MODEL 7
REMARK VINA RESULT:    -4.188      1.614      2.172
REMARK INTER + INTRA:          -6.150
REMARK INTER:                  -5.837
REMARK INTRA:                  -0.313
REMARK UNBOUND:                -0.493
REMARK SMILES CCCCCCCC(=O)[O-]
REMARK SMILES IDX 5 1 6 2 7 3 8 4 9 5 10 6 4 7 3 8 2 9 1 10
REMARK H PARENT
REMARK Flexibility Score: inf
ROOT
ATOM      1  C   UNL     1      15.366  75.006  69.978  1.00  0.00     0.000 C 
ENDROOT
BRANCH   1   2
ATOM      2  C   UNL     1      15.662  74.362  71.344  1.00  0.00     0.006 C 
BRANCH   2   3
ATOM      3  C   UNL     1      16.754  75.116  72.115  1.00  0.00     0.053 C 
BRANCH   3   4
ATOM      4  C   UNL     1      16.250  76.410  72.676  1.00  0.00     0.041 C 
ATOM      5  O   UNL     1      15.106  76.471  73.199  1.00  0.00    -0.550 OA
ATOM      6  O   UNL     1      17.030  77.556  72.593  1.00  0.00    -0.550 OA
ENDBRANCH   3   4
ENDBRANCH   2   3
ENDBRANCH   1   2
BRANCH   1   7
ATOM      7  C   UNL     1      14.116  74.416  69.305  1.00  0.00     0.000 C 
BRANCH   7   8
ATOM      8  C   UNL     1      14.212  72.896  69.105  1.00  0.00    -0.000 C 
BRANCH   8   9
ATOM      9  C   UNL     1      15.352  72.541  68.145  1.00  0.00    -0.003 C 
ATOM     10  C   UNL     1      15.854  71.119  68.386  1.00  0.00     0.004 C 
ENDBRANCH   8   9
ENDBRANCH   7   8
ENDBRANCH   1   7
TORSDOF 6
ENDMDL
MODEL 8
REMARK VINA RESULT:    -4.176      1.870      3.300
REMARK INTER + INTRA:          -6.134
REMARK INTER:                  -5.751
REMARK INTRA:                  -0.383
REMARK UNBOUND:                -0.493
REMARK SMILES CCCCCCCC(=O)[O-]
REMARK SMILES IDX 5 1 6 2 7 3 8 4 9 5 10 6 4 7 3 8 2 9 1 10
REMARK H PARENT
REMARK Flexibility Score: inf
ROOT
ATOM      1  C   UNL     1      15.440  75.060  69.588  1.00  0.00     0.000 C 
ENDROOT
BRANCH   1   2
ATOM      2  C   UNL     1      15.665  74.197  70.842  1.00  0.00     0.006 C 
BRANCH   2   3
ATOM      3  C   UNL     1      15.445  74.990  72.137  1.00  0.00     0.053 C 
BRANCH   3   4
ATOM      4  C   UNL     1      16.637  75.826  72.489  1.00  0.00     0.041 C 
ATOM      5  O   UNL     1      16.575  77.082  72.410  1.00  0.00    -0.550 OA
ATOM      6  O   UNL     1      17.825  75.220  72.874  1.00  0.00    -0.550 OA
ENDBRANCH   3   4
ENDBRANCH   2   3
ENDBRANCH   1   2
BRANCH   1   7
ATOM      7  C   UNL     1      14.085  74.787  68.917  1.00  0.00     0.000 C 
BRANCH   7   8
ATOM      8  C   UNL     1      13.218  76.049  68.797  1.00  0.00    -0.000 C 
BRANCH   8   9
ATOM      9  C   UNL     1      13.640  77.104  69.826  1.00  0.00    -0.003 C 
ATOM     10  C   UNL     1      14.031  78.413  69.145  1.00  0.00     0.004 C 
ENDBRANCH   8   9
ENDBRANCH   7   8
ENDBRANCH   1   7
TORSDOF 6
ENDMDL
MODEL 9
REMARK VINA RESULT:    -4.139      2.247      4.298
REMARK INTER + INTRA:          -6.083
REMARK INTER:                  -5.682
REMARK INTRA:                  -0.401
REMARK UNBOUND:                -0.493
REMARK SMILES CCCCCCCC(=O)[O-]
REMARK SMILES IDX 5 1 6 2 7 3 8 4 9 5 10 6 4 7 3 8 2 9 1 10
REMARK H PARENT
REMARK Flexibility Score: inf
ROOT
ATOM      1  C   UNL     1      14.968  74.054  70.260  1.00  0.00     0.000 C 
ENDROOT
BRANCH   1   2
ATOM      2  C   UNL     1      14.866  74.846  68.945  1.00  0.00     0.006 C 
BRANCH   2   3
ATOM      3  C   UNL     1      13.537  75.604  68.828  1.00  0.00     0.053 C 
BRANCH   3   4
ATOM      4  C   UNL     1      13.509  76.822  69.699  1.00  0.00     0.041 C 
ATOM      5  O   UNL     1      12.981  76.773  70.841  1.00  0.00    -0.550 OA
ATOM      6  O   UNL     1      14.040  78.020  69.238  1.00  0.00    -0.550 OA
ENDBRANCH   3   4
ENDBRANCH   2   3
ENDBRANCH   1   2
BRANCH   1   7
ATOM      7  C   UNL     1      16.114  74.544  71.159  1.00  0.00     0.000 C 
BRANCH   7   8
ATOM      8  C   UNL     1      15.622  75.054  72.522  1.00  0.00    -0.000 C 
BRANCH   8   9
ATOM      9  C   UNL     1      15.919  76.549  72.687  1.00  0.00    -0.003 C 
ATOM     10  C   UNL     1      17.410  76.796  72.902  1.00  0.00     0.004 C 
ENDBRANCH   8   9
ENDBRANCH   7   8
ENDBRANCH   1   7
TORSDOF 6
ENDMDL
