MODEL 1
REMARK VINA RESULT:    -3.525      0.000      0.000
REMARK INTER + INTRA:          -7.230
REMARK INTER:                  -5.379
REMARK INTRA:                  -1.851
REMARK UNBOUND:                -1.851
REMARK SMILES CC(=O)CCC=C(C)CCC=C(C)CCC=C(C)C
REMARK SMILES IDX 10 1 11 2 12 3 13 4 14 5 15 6 16 7 18 8 17 9 19 10 9 11 7 12
REMARK SMILES IDX 6 13 8 14 5 15 4 16 2 17 3 18 1 19
REMARK H PARENT
REMARK Flexibility Score: inf
ROOT
ATOM      1  C   UNL     1       4.143 146.960  -6.144  1.00  0.00     0.032 C 
ENDROOT
BRANCH   1   2
ATOM      2  C   UNL     1       4.990 145.910  -6.826  1.00  0.00    -0.028 C 
ATOM      3  C   UNL     1       5.184 145.826  -8.161  1.00  0.00    -0.077 C 
ATOM      4  C   UNL     1       4.477 146.748  -9.125  1.00  0.00     0.039 C 
BRANCH   3   5
ATOM      5  C   UNL     1       6.158 144.797  -8.701  1.00  0.00     0.034 C 
BRANCH   5   6
ATOM      6  C   UNL     1       5.766 143.362  -8.320  1.00  0.00     0.032 C 
BRANCH   6   7
ATOM      7  C   UNL     1       4.500 142.910  -9.011  1.00  0.00    -0.028 C 
ATOM      8  C   UNL     1       3.302 142.656  -6.834  1.00  0.00     0.039 C 
ATOM      9  C   UNL     1       3.373 142.584  -8.340  1.00  0.00    -0.080 C 
ATOM     10  C   UNL     1       2.162 142.140  -9.125  1.00  0.00     0.039 C 
ENDBRANCH   6   7
ENDBRANCH   5   6
ENDBRANCH   3   5
ENDBRANCH   1   2
BRANCH   1  11
ATOM     11  C   UNL     1       2.900 146.331  -5.500  1.00  0.00     0.034 C 
BRANCH  11  12
ATOM     12  C   UNL     1       1.657 146.499  -6.360  1.00  0.00    -0.077 C 
ATOM     13  C   UNL     1       0.679 147.398  -6.092  1.00  0.00    -0.028 C 
ATOM     14  C   UNL     1       1.498 145.627  -7.581  1.00  0.00     0.039 C 
BRANCH  13  15
ATOM     15  C   UNL     1       0.656 148.361  -4.925  1.00  0.00     0.035 C 
BRANCH  15  16
ATOM     16  C   UNL     1      -0.732 148.984  -4.735  1.00  0.00     0.079 C 
BRANCH  16  17
ATOM     17  C   UNL     1      -1.417 148.466  -3.498  1.00  0.00     0.130 C 
ATOM     18  O   UNL     1      -2.573 148.786  -3.268  1.00  0.00    -0.300 OA
ATOM     19  C   UNL     1      -0.717 147.532  -2.558  1.00  0.00     0.087 C 
ENDBRANCH  16  17
ENDBRANCH  15  16
ENDBRANCH  13  15
ENDBRANCH  11  12
ENDBRANCH   1  11
TORSDOF 9
ENDMDL
MODEL 2
REMARK VINA RESULT:    -2.822      2.376      6.899
REMARK INTER + INTRA:          -6.158
REMARK INTER:                  -5.722
REMARK INTRA:                  -0.436
REMARK UNBOUND:                -1.851
REMARK SMILES CC(=O)CCC=C(C)CCC=C(C)CCC=C(C)C
REMARK SMILES IDX 10 1 11 2 12 3 13 4 14 5 15 6 16 7 18 8 17 9 19 10 9 11 7 12
REMARK SMILES IDX 6 13 8 14 5 15 4 16 2 17 3 18 1 19
REMARK H PARENT
REMARK Flexibility Score: inf
ROOT
ATOM      1  C   UNL     1       4.230 147.290  -6.532  1.00  0.00     0.032 C 
ENDROOT
BRANCH   1   2
ATOM      2  C   UNL     1       2.761 147.229  -6.180  1.00  0.00    -0.028 C 
ATOM      3  C   UNL     1       1.828 146.551  -6.885  1.00  0.00    -0.077 C 
ATOM      4  C   UNL     1       2.167 145.847  -8.176  1.00  0.00     0.039 C 
BRANCH   3   5
ATOM      5  C   UNL     1       0.413 146.472  -6.348  1.00  0.00     0.034 C 
BRANCH   5   6
ATOM      6  C   UNL     1       0.051 147.678  -5.470  1.00  0.00     0.032 C 
BRANCH   6   7
ATOM      7  C   UNL     1       0.027 147.330  -3.999  1.00  0.00    -0.028 C 
ATOM      8  C   UNL     1      -1.762 149.013  -3.543  1.00  0.00     0.039 C 
ATOM      9  C   UNL     1      -0.796 147.936  -3.113  1.00  0.00    -0.080 C 
ATOM     10  C   UNL     1      -0.739 147.517  -1.663  1.00  0.00     0.039 C 
ENDBRANCH   6   7
ENDBRANCH   5   6
ENDBRANCH   3   5
ENDBRANCH   1   2
BRANCH   1  11
ATOM     11  C   UNL     1       4.769 145.898  -6.887  1.00  0.00     0.034 C 
BRANCH  11  12
ATOM     12  C   UNL     1       5.374 145.852  -8.281  1.00  0.00    -0.077 C 
ATOM     13  C   UNL     1       5.713 144.701  -8.911  1.00  0.00    -0.028 C 
ATOM     14  C   UNL     1       5.609 147.151  -9.012  1.00  0.00     0.039 C 
BRANCH  13  15
ATOM     15  C   UNL     1       5.551 143.304  -8.353  1.00  0.00     0.035 C 
BRANCH  15  16
ATOM     16  C   UNL     1       4.488 142.509  -9.121  1.00  0.00     0.079 C 
BRANCH  16  17
ATOM     17  C   UNL     1       3.142 142.570  -8.446  1.00  0.00     0.130 C 
ATOM     18  O   UNL     1       2.126 142.539  -9.123  1.00  0.00    -0.300 OA
ATOM     19  C   UNL     1       3.026 142.633  -6.954  1.00  0.00     0.087 C 
ENDBRANCH  16  17
ENDBRANCH  15  16
ENDBRANCH  13  15
ENDBRANCH  11  12
ENDBRANCH   1  11
TORSDOF 9
ENDMDL
MODEL 3
REMARK VINA RESULT:    -2.744      2.292      7.014
REMARK INTER + INTRA:          -6.039
REMARK INTER:                  -5.162
REMARK INTRA:                  -0.876
REMARK UNBOUND:                -1.851
REMARK SMILES CC(=O)CCC=C(C)CCC=C(C)CCC=C(C)C
REMARK SMILES IDX 10 1 11 2 12 3 13 4 14 5 15 6 16 7 18 8 17 9 19 10 9 11 7 12
REMARK SMILES IDX 6 13 8 14 5 15 4 16 2 17 3 18 1 19
REMARK H PARENT
REMARK Flexibility Score: inf
ROOT
ATOM      1  C   UNL     1       2.247 144.631  -7.228  1.00  0.00     0.032 C 
ENDROOT
BRANCH   1   2
ATOM      2  C   UNL     1       1.599 145.976  -6.993  1.00  0.00    -0.028 C 
ATOM      3  C   UNL     1       1.989 146.865  -6.052  1.00  0.00    -0.077 C 
ATOM      4  C   UNL     1       3.084 146.544  -5.064  1.00  0.00     0.039 C 
BRANCH   3   5
ATOM      5  C   UNL     1       1.329 148.229  -6.009  1.00  0.00     0.034 C 
BRANCH   5   6
ATOM      6  C   UNL     1      -0.042 148.195  -5.318  1.00  0.00     0.032 C 
BRANCH   6   7
ATOM      7  C   UNL     1       0.051 147.732  -3.881  1.00  0.00    -0.028 C 
ATOM      8  C   UNL     1      -2.218 148.634  -3.355  1.00  0.00     0.039 C 
ATOM      9  C   UNL     1      -0.936 147.932  -2.980  1.00  0.00    -0.080 C 
ATOM     10  C   UNL     1      -0.743 147.434  -1.567  1.00  0.00     0.039 C 
ENDBRANCH   6   7
ENDBRANCH   5   6
ENDBRANCH   3   5
ENDBRANCH   1   2
BRANCH   1  11
ATOM     11  C   UNL     1       2.655 144.466  -8.698  1.00  0.00     0.034 C 
BRANCH  11  12
ATOM     12  C   UNL     1       3.368 143.148  -8.955  1.00  0.00    -0.077 C 
ATOM     13  C   UNL     1       4.709 143.044  -9.124  1.00  0.00    -0.028 C 
ATOM     14  C   UNL     1       2.549 141.883  -9.022  1.00  0.00     0.039 C 
BRANCH  13  15
ATOM     15  C   UNL     1       5.698 144.188  -9.086  1.00  0.00     0.035 C 
BRANCH  15  16
ATOM     16  C   UNL     1       5.876 144.733  -7.664  1.00  0.00     0.079 C 
BRANCH  16  17
ATOM     17  C   UNL     1       5.561 146.204  -7.581  1.00  0.00     0.130 C 
ATOM     18  O   UNL     1       5.636 146.778  -6.505  1.00  0.00    -0.300 OA
ATOM     19  C   UNL     1       5.189 146.987  -8.803  1.00  0.00     0.087 C 
ENDBRANCH  16  17
ENDBRANCH  15  16
ENDBRANCH  13  15
ENDBRANCH  11  12
ENDBRANCH   1  11
TORSDOF 9
ENDMDL
MODEL 4
REMARK VINA RESULT:    -2.701      2.180      6.768
REMARK INTER + INTRA:          -5.973
REMARK INTER:                  -4.370
REMARK INTRA:                  -1.602
REMARK UNBOUND:                -1.851
REMARK SMILES CC(=O)CCC=C(C)CCC=C(C)CCC=C(C)C
REMARK SMILES IDX 10 1 11 2 12 3 13 4 14 5 15 6 16 7 18 8 17 9 19 10 9 11 7 12
REMARK SMILES IDX 6 13 8 14 5 15 4 16 2 17 3 18 1 19
REMARK H PARENT
REMARK Flexibility Score: inf
ROOT
ATOM      1  C   UNL     1       5.357 146.719  -6.659  1.00  0.00     0.032 C 
ENDROOT
BRANCH   1   2
ATOM      2  C   UNL     1       3.917 147.156  -6.803  1.00  0.00    -0.028 C 
ATOM      3  C   UNL     1       2.932 146.860  -5.926  1.00  0.00    -0.077 C 
ATOM      4  C   UNL     1       3.172 145.964  -4.736  1.00  0.00     0.039 C 
BRANCH   3   5
ATOM      5  C   UNL     1       1.558 147.469  -6.129  1.00  0.00     0.034 C 
BRANCH   5   6
ATOM      6  C   UNL     1       0.554 147.020  -5.058  1.00  0.00     0.032 C 
BRANCH   6   7
ATOM      7  C   UNL     1      -0.537 148.042  -4.830  1.00  0.00    -0.028 C 
ATOM      8  C   UNL     1      -0.643 147.510  -2.392  1.00  0.00     0.039 C 
ATOM      9  C   UNL     1      -1.089 148.269  -3.618  1.00  0.00    -0.080 C 
ATOM     10  C   UNL     1      -2.177 149.310  -3.497  1.00  0.00     0.039 C 
ENDBRANCH   6   7
ENDBRANCH   5   6
ENDBRANCH   3   5
ENDBRANCH   1   2
BRANCH   1  11
ATOM     11  C   UNL     1       5.695 145.605  -7.659  1.00  0.00     0.034 C 
BRANCH  11  12
ATOM     12  C   UNL     1       5.899 144.260  -6.979  1.00  0.00    -0.077 C 
ATOM     13  C   UNL     1       5.596 143.074  -7.560  1.00  0.00    -0.028 C 
ATOM     14  C   UNL     1       6.473 144.235  -5.583  1.00  0.00     0.039 C 
BRANCH  13  15
ATOM     15  C   UNL     1       5.021 142.889  -8.947  1.00  0.00     0.035 C 
BRANCH  15  16
ATOM     16  C   UNL     1       3.524 142.559  -8.898  1.00  0.00     0.079 C 
BRANCH  16  17
ATOM     17  C   UNL     1       2.718 143.689  -8.310  1.00  0.00     0.130 C 
ATOM     18  O   UNL     1       2.367 143.636  -7.141  1.00  0.00    -0.300 OA
ATOM     19  C   UNL     1       2.366 144.896  -9.125  1.00  0.00     0.087 C 
ENDBRANCH  16  17
ENDBRANCH  15  16
ENDBRANCH  13  15
ENDBRANCH  11  12
ENDBRANCH   1  11
TORSDOF 9
ENDMDL
MODEL 5
REMARK VINA RESULT:    -2.515      1.343      2.787
REMARK INTER + INTRA:          -5.689
REMARK INTER:                  -4.587
REMARK INTRA:                  -1.102
REMARK UNBOUND:                -1.851
REMARK SMILES CC(=O)CCC=C(C)CCC=C(C)CCC=C(C)C
REMARK SMILES IDX 10 1 11 2 12 3 13 4 14 5 15 6 16 7 18 8 17 9 19 10 9 11 7 12
REMARK SMILES IDX 6 13 8 14 5 15 4 16 2 17 3 18 1 19
REMARK H PARENT
REMARK Flexibility Score: inf
ROOT
ATOM      1  C   UNL     1       1.891 144.867  -6.152  1.00  0.00     0.032 C 
ENDROOT
BRANCH   1   2
ATOM      2  C   UNL     1       2.397 143.772  -7.061  1.00  0.00    -0.028 C 
ATOM      3  C   UNL     1       2.720 143.939  -8.363  1.00  0.00    -0.077 C 
ATOM      4  C   UNL     1       2.513 145.257  -9.068  1.00  0.00     0.039 C 
BRANCH   3   5
ATOM      5  C   UNL     1       3.334 142.780  -9.125  1.00  0.00     0.034 C 
BRANCH   5   6
ATOM      6  C   UNL     1       4.868 142.819  -9.114  1.00  0.00     0.032 C 
BRANCH   6   7
ATOM      7  C   UNL     1       5.427 143.021  -7.724  1.00  0.00    -0.028 C 
ATOM      8  C   UNL     1       6.006 145.402  -8.212  1.00  0.00     0.039 C 
ATOM      9  C   UNL     1       5.951 144.196  -7.307  1.00  0.00    -0.080 C 
ATOM     10  C   UNL     1       6.487 144.293  -5.898  1.00  0.00     0.039 C 
ENDBRANCH   6   7
ENDBRANCH   5   6
ENDBRANCH   3   5
ENDBRANCH   1   2
BRANCH   1  11
ATOM     11  C   UNL     1       3.053 145.568  -5.436  1.00  0.00     0.034 C 
BRANCH  11  12
ATOM     12  C   UNL     1       3.130 147.049  -5.772  1.00  0.00    -0.077 C 
ATOM     13  C   UNL     1       2.039 147.829  -5.966  1.00  0.00    -0.028 C 
ATOM     14  C   UNL     1       4.489 147.694  -5.893  1.00  0.00     0.039 C 
BRANCH  13  15
ATOM     15  C   UNL     1       0.599 147.375  -5.883  1.00  0.00     0.035 C 
BRANCH  15  16
ATOM     16  C   UNL     1      -0.212 148.243  -4.913  1.00  0.00     0.079 C 
BRANCH  16  17
ATOM     17  C   UNL     1      -0.864 147.421  -3.832  1.00  0.00     0.130 C 
ATOM     18  O   UNL     1      -1.444 146.387  -4.127  1.00  0.00    -0.300 OA
ATOM     19  C   UNL     1      -0.785 147.830  -2.393  1.00  0.00     0.087 C 
ENDBRANCH  16  17
ENDBRANCH  15  16
ENDBRANCH  13  15
ENDBRANCH  11  12
ENDBRANCH   1  11
TORSDOF 9
ENDMDL
MODEL 6
REMARK VINA RESULT:    -2.360      2.314      7.161
REMARK INTER + INTRA:          -5.453
REMARK INTER:                  -4.914
REMARK INTRA:                  -0.539
REMARK UNBOUND:                -1.851
REMARK SMILES CC(=O)CCC=C(C)CCC=C(C)CCC=C(C)C
REMARK SMILES IDX 10 1 11 2 12 3 13 4 14 5 15 6 16 7 18 8 17 9 19 10 9 11 7 12
REMARK SMILES IDX 6 13 8 14 5 15 4 16 2 17 3 18 1 19
REMARK H PARENT
REMARK Flexibility Score: inf
ROOT
ATOM      1  C   UNL     1       2.815 145.480  -8.579  1.00  0.00     0.032 C 
ENDROOT
BRANCH   1   2
ATOM      2  C   UNL     1       1.632 145.781  -7.688  1.00  0.00    -0.028 C 
ATOM      3  C   UNL     1       1.654 146.637  -6.642  1.00  0.00    -0.077 C 
ATOM      4  C   UNL     1       2.926 147.321  -6.204  1.00  0.00     0.039 C 
BRANCH   3   5
ATOM      5  C   UNL     1       0.362 146.939  -5.909  1.00  0.00     0.034 C 
BRANCH   5   6
ATOM      6  C   UNL     1       0.457 148.208  -5.051  1.00  0.00     0.032 C 
BRANCH   6   7
ATOM      7  C   UNL     1      -0.904 148.743  -4.665  1.00  0.00    -0.028 C 
ATOM      8  C   UNL     1      -0.841 147.555  -2.468  1.00  0.00     0.039 C 
ATOM      9  C   UNL     1      -1.503 148.447  -3.490  1.00  0.00    -0.080 C 
ATOM     10  C   UNL     1      -2.866 149.030  -3.202  1.00  0.00     0.039 C 
ENDBRANCH   6   7
ENDBRANCH   5   6
ENDBRANCH   3   5
ENDBRANCH   1   2
BRANCH   1  11
ATOM     11  C   UNL     1       2.741 144.047  -9.125  1.00  0.00     0.034 C 
BRANCH  11  12
ATOM     12  C   UNL     1       3.414 143.043  -8.203  1.00  0.00    -0.077 C 
ATOM     13  C   UNL     1       4.755 142.858  -8.149  1.00  0.00    -0.028 C 
ATOM     14  C   UNL     1       2.550 142.205  -7.291  1.00  0.00     0.039 C 
BRANCH  13  15
ATOM     15  C   UNL     1       5.785 143.600  -8.973  1.00  0.00     0.035 C 
BRANCH  15  16
ATOM     16  C   UNL     1       6.655 144.513  -8.100  1.00  0.00     0.079 C 
BRANCH  16  17
ATOM     17  C   UNL     1       5.928 145.771  -7.702  1.00  0.00     0.130 C 
ATOM     18  O   UNL     1       5.603 145.937  -6.536  1.00  0.00    -0.300 OA
ATOM     19  C   UNL     1       5.627 146.842  -8.704  1.00  0.00     0.087 C 
ENDBRANCH  16  17
ENDBRANCH  15  16
ENDBRANCH  13  15
ENDBRANCH  11  12
ENDBRANCH   1  11
TORSDOF 9
ENDMDL
MODEL 7
REMARK VINA RESULT:    -2.329      1.262      3.103
REMARK INTER + INTRA:          -5.406
REMARK INTER:                  -5.164
REMARK INTRA:                  -0.241
REMARK UNBOUND:                -1.851
REMARK SMILES CC(=O)CCC=C(C)CCC=C(C)CCC=C(C)C
REMARK SMILES IDX 10 1 11 2 12 3 13 4 14 5 15 6 16 7 18 8 17 9 19 10 9 11 7 12
REMARK SMILES IDX 6 13 8 14 5 15 4 16 2 17 3 18 1 19
REMARK H PARENT
REMARK Flexibility Score: inf
ROOT
ATOM      1  C   UNL     1       2.274 144.594  -6.377  1.00  0.00     0.032 C 
ENDROOT
BRANCH   1   2
ATOM      2  C   UNL     1       3.487 144.167  -7.170  1.00  0.00    -0.028 C 
ATOM      3  C   UNL     1       3.512 143.136  -8.044  1.00  0.00    -0.077 C 
ATOM      4  C   UNL     1       2.316 142.238  -8.245  1.00  0.00     0.039 C 
BRANCH   3   5
ATOM      5  C   UNL     1       4.764 142.895  -8.864  1.00  0.00     0.034 C 
BRANCH   5   6
ATOM      6  C   UNL     1       5.923 143.811  -8.448  1.00  0.00     0.032 C 
BRANCH   6   7
ATOM      7  C   UNL     1       5.835 145.176  -9.093  1.00  0.00    -0.028 C 
ATOM      8  C   UNL     1       5.586 146.301  -6.876  1.00  0.00     0.039 C 
ATOM      9  C   UNL     1       5.679 146.316  -8.382  1.00  0.00    -0.080 C 
ATOM     10  C   UNL     1       5.598 147.629  -9.123  1.00  0.00     0.039 C 
ENDBRANCH   6   7
ENDBRANCH   5   6
ENDBRANCH   3   5
ENDBRANCH   1   2
BRANCH   1  11
ATOM     11  C   UNL     1       1.565 145.777  -7.051  1.00  0.00     0.034 C 
BRANCH  11  12
ATOM     12  C   UNL     1       1.488 146.996  -6.145  1.00  0.00    -0.077 C 
ATOM     13  C   UNL     1       0.398 147.308  -5.403  1.00  0.00    -0.028 C 
ATOM     14  C   UNL     1       2.686 147.910  -6.057  1.00  0.00     0.039 C 
BRANCH  13  15
ATOM     15  C   UNL     1      -0.892 146.519  -5.350  1.00  0.00     0.035 C 
BRANCH  15  16
ATOM     16  C   UNL     1      -1.452 146.449  -3.923  1.00  0.00     0.079 C 
BRANCH  16  17
ATOM     17  C   UNL     1      -1.109 147.679  -3.123  1.00  0.00     0.130 C 
ATOM     18  O   UNL     1      -0.431 147.572  -2.112  1.00  0.00    -0.300 OA
ATOM     19  C   UNL     1      -1.555 149.040  -3.563  1.00  0.00     0.087 C 
ENDBRANCH  16  17
ENDBRANCH  15  16
ENDBRANCH  13  15
ENDBRANCH  11  12
ENDBRANCH   1  11
TORSDOF 9
ENDMDL
MODEL 8
REMARK VINA RESULT:    -1.293      2.459      6.997
REMARK INTER + INTRA:          -3.824
REMARK INTER:                  -3.882
REMARK INTRA:                   0.059
REMARK UNBOUND:                -1.851
REMARK SMILES CC(=O)CCC=C(C)CCC=C(C)CCC=C(C)C
REMARK SMILES IDX 10 1 11 2 12 3 13 4 14 5 15 6 16 7 18 8 17 9 19 10 9 11 7 12
REMARK SMILES IDX 6 13 8 14 5 15 4 16 2 17 3 18 1 19
REMARK H PARENT
REMARK Flexibility Score: inf
ROOT
ATOM      1  C   UNL     1       3.988 147.208  -7.176  1.00  0.00     0.032 C 
ENDROOT
BRANCH   1   2
ATOM      2  C   UNL     1       2.527 147.324  -6.809  1.00  0.00    -0.028 C 
ATOM      3  C   UNL     1       1.649 146.296  -6.806  1.00  0.00    -0.077 C 
ATOM      4  C   UNL     1       2.045 144.915  -7.270  1.00  0.00     0.039 C 
BRANCH   3   5
ATOM      5  C   UNL     1       0.241 146.531  -6.297  1.00  0.00     0.034 C 
BRANCH   5   6
ATOM      6  C   UNL     1       0.140 147.776  -5.405  1.00  0.00     0.032 C 
BRANCH   6   7
ATOM      7  C   UNL     1       0.095 147.426  -3.935  1.00  0.00    -0.028 C 
ATOM      8  C   UNL     1      -1.808 148.995  -3.533  1.00  0.00     0.039 C 
ATOM      9  C   UNL     1      -0.789 147.980  -3.075  1.00  0.00    -0.080 C 
ATOM     10  C   UNL     1      -0.748 147.566  -1.623  1.00  0.00     0.039 C 
ENDBRANCH   6   7
ENDBRANCH   5   6
ENDBRANCH   3   5
ENDBRANCH   1   2
BRANCH   1  11
ATOM     11  C   UNL     1       4.160 146.537  -8.546  1.00  0.00     0.034 C 
BRANCH  11  12
ATOM     12  C   UNL     1       5.605 146.156  -8.825  1.00  0.00    -0.077 C 
ATOM     13  C   UNL     1       6.054 144.878  -8.824  1.00  0.00    -0.028 C 
ATOM     14  C   UNL     1       6.598 147.252  -9.125  1.00  0.00     0.039 C 
BRANCH  13  15
ATOM     15  C   UNL     1       5.219 143.645  -8.554  1.00  0.00     0.035 C 
BRANCH  15  16
ATOM     16  C   UNL     1       5.585 142.999  -7.212  1.00  0.00     0.079 C 
BRANCH  16  17
ATOM     17  C   UNL     1       5.751 144.024  -6.120  1.00  0.00     0.130 C 
ATOM     18  O   UNL     1       4.832 144.788  -5.865  1.00  0.00    -0.300 OA
ATOM     19  C   UNL     1       7.011 144.101  -5.315  1.00  0.00     0.087 C 
ENDBRANCH  16  17
ENDBRANCH  15  16
ENDBRANCH  13  15
ENDBRANCH  11  12
ENDBRANCH   1  11
TORSDOF 9
ENDMDL
