MODEL 1
REMARK VINA RESULT:    -5.390      0.000      0.000
REMARK INTER + INTRA:          -7.340
REMARK INTER:                  -6.808
REMARK INTRA:                  -0.532
REMARK UNBOUND:                -0.532
REMARK SMILES Oc1ccc(CCc2cc(O)cc(O)c2)cc1
REMARK SMILES IDX 6 1 5 2 4 3 3 4 2 5 16 6 17 7 1 8 7 10 8 11 15 12 9 13 13 14
REMARK SMILES IDX 10 15 12 16 14 17 11 19
REMARK H PARENT 1 9 14 18 11 20
REMARK Flexibility Score: inf
ROOT
ATOM      1  C   UNL     1     170.710 179.749 183.185  1.00  0.00     0.040 C 
ENDROOT
BRANCH   1   2
ATOM      2  C   UNL     1     171.996 179.209 182.620  1.00  0.00    -0.047 A 
ATOM      3  C   UNL     1     172.039 177.922 182.061  1.00  0.00     0.007 A 
ATOM      4  C   UNL     1     173.226 177.433 181.506  1.00  0.00     0.046 A 
ATOM      5  C   UNL     1     174.379 178.231 181.497  1.00  0.00     0.115 A 
ATOM      6  C   UNL     1     173.150 180.009 182.596  1.00  0.00     0.007 A 
ATOM      7  C   UNL     1     174.336 179.518 182.041  1.00  0.00     0.046 A 
BRANCH   5   8
ATOM      8  O   UNL     1     175.567 177.755 180.948  1.00  0.00    -0.508 OA
ATOM      9  H   UNL     1     175.937 176.844 181.194  1.00  0.00     0.293 HD
ENDBRANCH   5   8
ENDBRANCH   1   2
BRANCH   1  10
ATOM     10  C   UNL     1     169.726 180.083 182.060  1.00  0.00     0.040 C 
BRANCH  10  11
ATOM     11  C   UNL     1     168.448 179.306 182.226  1.00  0.00    -0.040 A 
ATOM     12  C   UNL     1     167.426 179.409 181.269  1.00  0.00     0.050 A 
ATOM     13  C   UNL     1     168.245 178.517 183.370  1.00  0.00     0.050 A 
ATOM     14  C   UNL     1     166.223 178.711 181.440  1.00  0.00     0.119 A 
ATOM     15  C   UNL     1     167.044 177.819 183.544  1.00  0.00     0.119 A 
ATOM     16  C   UNL     1     166.036 177.916 182.576  1.00  0.00     0.092 A 
BRANCH  14  17
ATOM     17  O   UNL     1     165.208 178.803 180.491  1.00  0.00    -0.508 OA
ATOM     18  H   UNL     1     164.591 179.605 180.452  1.00  0.00     0.293 HD
ENDBRANCH  14  17
BRANCH  15  19
ATOM     19  O   UNL     1     166.863 177.036 184.682  1.00  0.00    -0.508 OA
ATOM     20  H   UNL     1     166.732 176.033 184.619  1.00  0.00     0.293 HD
ENDBRANCH  15  19
ENDBRANCH  10  11
ENDBRANCH   1  10
TORSDOF 6
ENDMDL
MODEL 2
REMARK VINA RESULT:    -5.344      0.130      2.037
REMARK INTER + INTRA:          -7.281
REMARK INTER:                  -6.747
REMARK INTRA:                  -0.534
REMARK UNBOUND:                -0.532
REMARK SMILES Oc1ccc(CCc2cc(O)cc(O)c2)cc1
REMARK SMILES IDX 6 1 5 2 4 3 3 4 2 5 16 6 17 7 1 8 7 10 8 11 15 12 9 13 13 14
REMARK SMILES IDX 10 15 12 16 14 17 11 19
REMARK H PARENT 1 9 14 18 11 20
REMARK Flexibility Score: inf
ROOT
ATOM      1  C   UNL     1     170.692 179.833 183.091  1.00  0.00     0.040 C 
ENDROOT
BRANCH   1   2
ATOM      2  C   UNL     1     171.988 179.282 182.560  1.00  0.00    -0.047 A 
ATOM      3  C   UNL     1     172.026 178.013 181.960  1.00  0.00     0.007 A 
ATOM      4  C   UNL     1     173.224 177.516 181.437  1.00  0.00     0.046 A 
ATOM      5  C   UNL     1     174.392 178.287 181.499  1.00  0.00     0.115 A 
ATOM      6  C   UNL     1     173.159 180.056 182.608  1.00  0.00     0.007 A 
ATOM      7  C   UNL     1     174.355 179.557 182.084  1.00  0.00     0.046 A 
BRANCH   5   8
ATOM      8  O   UNL     1     175.591 177.803 180.982  1.00  0.00    -0.508 OA
ATOM      9  H   UNL     1     175.901 176.855 181.161  1.00  0.00     0.293 HD
ENDBRANCH   5   8
ENDBRANCH   1   2
BRANCH   1  10
ATOM     10  C   UNL     1     169.686 180.033 181.954  1.00  0.00     0.040 C 
BRANCH  10  11
ATOM     11  C   UNL     1     168.414 179.277 182.234  1.00  0.00    -0.040 A 
ATOM     12  C   UNL     1     168.310 178.464 183.375  1.00  0.00     0.050 A 
ATOM     13  C   UNL     1     167.344 179.334 181.327  1.00  0.00     0.050 A 
ATOM     14  C   UNL     1     167.138 177.735 183.618  1.00  0.00     0.119 A 
ATOM     15  C   UNL     1     166.173 178.606 181.567  1.00  0.00     0.119 A 
ATOM     16  C   UNL     1     166.072 177.809 182.716  1.00  0.00     0.092 A 
BRANCH  14  17
ATOM     17  O   UNL     1     167.025 176.932 184.750  1.00  0.00    -0.508 OA
ATOM     18  H   UNL     1     167.777 176.320 185.043  1.00  0.00     0.293 HD
ENDBRANCH  14  17
BRANCH  15  19
ATOM     19  O   UNL     1     165.119 178.680 180.660  1.00  0.00    -0.508 OA
ATOM     20  H   UNL     1     165.024 178.012 179.904  1.00  0.00     0.293 HD
ENDBRANCH  15  19
ENDBRANCH  10  11
ENDBRANCH   1  10
TORSDOF 6
ENDMDL
MODEL 3
REMARK VINA RESULT:    -5.333      1.604      2.603
REMARK INTER + INTRA:          -7.267
REMARK INTER:                  -6.655
REMARK INTRA:                  -0.612
REMARK UNBOUND:                -0.532
REMARK SMILES Oc1ccc(CCc2cc(O)cc(O)c2)cc1
REMARK SMILES IDX 6 1 5 2 4 3 3 4 2 5 16 6 17 7 1 8 7 10 8 11 15 12 9 13 13 14
REMARK SMILES IDX 10 15 12 16 14 17 11 19
REMARK H PARENT 1 9 14 18 11 20
REMARK Flexibility Score: inf
ROOT
ATOM      1  C   UNL     1     169.846 178.427 183.310  1.00  0.00     0.040 C 
ENDROOT
BRANCH   1   2
ATOM      2  C   UNL     1     171.286 178.651 182.937  1.00  0.00    -0.047 A 
ATOM      3  C   UNL     1     172.013 177.645 182.280  1.00  0.00     0.007 A 
ATOM      4  C   UNL     1     173.341 177.865 181.904  1.00  0.00     0.046 A 
ATOM      5  C   UNL     1     173.952 179.098 182.171  1.00  0.00     0.115 A 
ATOM      6  C   UNL     1     171.900 179.889 183.190  1.00  0.00     0.007 A 
ATOM      7  C   UNL     1     173.228 180.107 182.813  1.00  0.00     0.046 A 
BRANCH   5   8
ATOM      8  O   UNL     1     175.275 179.329 181.801  1.00  0.00    -0.508 OA
ATOM      9  H   UNL     1     175.988 178.617 181.910  1.00  0.00     0.293 HD
ENDBRANCH   5   8
ENDBRANCH   1   2
BRANCH   1  10
ATOM     10  C   UNL     1     169.007 179.667 182.988  1.00  0.00     0.040 C 
BRANCH  10  11
ATOM     11  C   UNL     1     168.241 179.469 181.707  1.00  0.00    -0.040 A 
ATOM     12  C   UNL     1     166.896 179.065 181.741  1.00  0.00     0.050 A 
ATOM     13  C   UNL     1     168.881 179.632 180.468  1.00  0.00     0.050 A 
ATOM     14  C   UNL     1     166.193 178.849 180.548  1.00  0.00     0.119 A 
ATOM     15  C   UNL     1     168.181 179.416 179.275  1.00  0.00     0.119 A 
ATOM     16  C   UNL     1     166.836 179.027 179.319  1.00  0.00     0.092 A 
BRANCH  14  17
ATOM     17  O   UNL     1     164.857 178.454 180.574  1.00  0.00    -0.508 OA
ATOM     18  H   UNL     1     164.321 178.342 179.722  1.00  0.00     0.293 HD
ENDBRANCH  14  17
BRANCH  15  19
ATOM     19  O   UNL     1     168.831 179.589 178.056  1.00  0.00    -0.508 OA
ATOM     20  H   UNL     1     168.983 178.813 177.422  1.00  0.00     0.293 HD
ENDBRANCH  15  19
ENDBRANCH  10  11
ENDBRANCH   1  10
TORSDOF 6
ENDMDL
MODEL 4
REMARK VINA RESULT:    -5.331     16.259     17.667
REMARK INTER + INTRA:          -7.265
REMARK INTER:                  -6.497
REMARK INTRA:                  -0.768
REMARK UNBOUND:                -0.532
REMARK SMILES Oc1ccc(CCc2cc(O)cc(O)c2)cc1
REMARK SMILES IDX 6 1 5 2 4 3 3 4 2 5 16 6 17 7 1 8 7 10 8 11 15 12 9 13 13 14
REMARK SMILES IDX 10 15 12 16 14 17 11 19
REMARK H PARENT 1 9 14 18 11 20
REMARK Flexibility Score: inf
ROOT
ATOM      1  C   UNL     1     161.028 162.072 183.524  1.00  0.00     0.040 C 
ENDROOT
BRANCH   1   2
ATOM      2  C   UNL     1     162.506 161.965 183.256  1.00  0.00    -0.047 A 
ATOM      3  C   UNL     1     163.343 163.075 183.450  1.00  0.00     0.007 A 
ATOM      4  C   UNL     1     164.720 162.965 183.234  1.00  0.00     0.046 A 
ATOM      5  C   UNL     1     165.274 161.743 182.831  1.00  0.00     0.115 A 
ATOM      6  C   UNL     1     163.067 160.738 182.866  1.00  0.00     0.007 A 
ATOM      7  C   UNL     1     164.445 160.631 182.650  1.00  0.00     0.046 A 
BRANCH   5   8
ATOM      8  O   UNL     1     166.644 161.621 182.612  1.00  0.00    -0.508 OA
ATOM      9  H   UNL     1     167.208 162.415 182.331  1.00  0.00     0.293 HD
ENDBRANCH   5   8
ENDBRANCH   1   2
BRANCH   1  10
ATOM     10  C   UNL     1     160.238 162.029 182.213  1.00  0.00     0.040 C 
BRANCH  10  11
ATOM     11  C   UNL     1     160.480 163.279 181.409  1.00  0.00    -0.040 A 
ATOM     12  C   UNL     1     161.134 163.208 180.168  1.00  0.00     0.050 A 
ATOM     13  C   UNL     1     160.103 164.532 181.919  1.00  0.00     0.050 A 
ATOM     14  C   UNL     1     161.387 164.375 179.435  1.00  0.00     0.119 A 
ATOM     15  C   UNL     1     160.355 165.699 181.190  1.00  0.00     0.119 A 
ATOM     16  C   UNL     1     160.996 165.617 179.946  1.00  0.00     0.092 A 
BRANCH  14  17
ATOM     17  O   UNL     1     162.030 164.312 178.201  1.00  0.00    -0.508 OA
ATOM     18  H   UNL     1     161.547 164.538 177.340  1.00  0.00     0.293 HD
ENDBRANCH  14  17
BRANCH  15  19
ATOM     19  O   UNL     1     159.969 166.931 181.709  1.00  0.00    -0.508 OA
ATOM     20  H   UNL     1     159.006 167.120 181.965  1.00  0.00     0.293 HD
ENDBRANCH  15  19
ENDBRANCH  10  11
ENDBRANCH   1  10
TORSDOF 6
ENDMDL
MODEL 5
REMARK VINA RESULT:    -5.330      1.590      2.375
REMARK INTER + INTRA:          -7.263
REMARK INTER:                  -6.648
REMARK INTRA:                  -0.616
REMARK UNBOUND:                -0.532
REMARK SMILES Oc1ccc(CCc2cc(O)cc(O)c2)cc1
REMARK SMILES IDX 6 1 5 2 4 3 3 4 2 5 16 6 17 7 1 8 7 10 8 11 15 12 9 13 13 14
REMARK SMILES IDX 10 15 12 16 14 17 11 19
REMARK H PARENT 1 9 14 18 11 20
REMARK Flexibility Score: inf
ROOT
ATOM      1  C   UNL     1     169.899 178.384 183.337  1.00  0.00     0.040 C 
ENDROOT
BRANCH   1   2
ATOM      2  C   UNL     1     171.335 178.615 182.948  1.00  0.00    -0.047 A 
ATOM      3  C   UNL     1     172.052 177.622 182.263  1.00  0.00     0.007 A 
ATOM      4  C   UNL     1     173.375 177.851 181.873  1.00  0.00     0.046 A 
ATOM      5  C   UNL     1     173.990 179.078 182.156  1.00  0.00     0.115 A 
ATOM      6  C   UNL     1     171.951 179.848 183.217  1.00  0.00     0.007 A 
ATOM      7  C   UNL     1     173.274 180.075 182.827  1.00  0.00     0.046 A 
BRANCH   5   8
ATOM      8  O   UNL     1     175.308 179.317 181.773  1.00  0.00    -0.508 OA
ATOM      9  H   UNL     1     175.854 180.062 182.191  1.00  0.00     0.293 HD
ENDBRANCH   5   8
ENDBRANCH   1   2
BRANCH   1  10
ATOM     10  C   UNL     1     169.049 179.616 183.015  1.00  0.00     0.040 C 
BRANCH  10  11
ATOM     11  C   UNL     1     168.288 179.414 181.732  1.00  0.00    -0.040 A 
ATOM     12  C   UNL     1     168.906 179.658 180.495  1.00  0.00     0.050 A 
ATOM     13  C   UNL     1     166.936 179.033 181.764  1.00  0.00     0.050 A 
ATOM     14  C   UNL     1     168.188 179.501 179.302  1.00  0.00     0.119 A 
ATOM     15  C   UNL     1     166.217 178.876 180.574  1.00  0.00     0.119 A 
ATOM     16  C   UNL     1     166.846 179.108 179.344  1.00  0.00     0.092 A 
BRANCH  14  17
ATOM     17  O   UNL     1     168.797 179.736 178.072  1.00  0.00    -0.508 OA
ATOM     18  H   UNL     1     168.256 179.815 177.219  1.00  0.00     0.293 HD
ENDBRANCH  14  17
BRANCH  15  19
ATOM     19  O   UNL     1     164.879 178.492 180.626  1.00  0.00    -0.508 OA
ATOM     20  H   UNL     1     164.590 177.548 180.396  1.00  0.00     0.293 HD
ENDBRANCH  15  19
ENDBRANCH  10  11
ENDBRANCH   1  10
TORSDOF 6
ENDMDL
MODEL 6
REMARK VINA RESULT:    -5.329     16.674     18.416
REMARK INTER + INTRA:          -7.262
REMARK INTER:                  -6.773
REMARK INTRA:                  -0.489
REMARK UNBOUND:                -0.532
REMARK SMILES Oc1ccc(CCc2cc(O)cc(O)c2)cc1
REMARK SMILES IDX 6 1 5 2 4 3 3 4 2 5 16 6 17 7 1 8 7 10 8 11 15 12 9 13 13 14
REMARK SMILES IDX 10 15 12 16 14 17 11 19
REMARK H PARENT 1 9 14 18 11 20
REMARK Flexibility Score: inf
ROOT
ATOM      1  C   UNL     1     164.849 160.254 182.684  1.00  0.00     0.040 C 
ENDROOT
BRANCH   1   2
ATOM      2  C   UNL     1     165.706 161.322 183.309  1.00  0.00    -0.047 A 
ATOM      3  C   UNL     1     166.856 160.974 184.035  1.00  0.00     0.007 A 
ATOM      4  C   UNL     1     167.670 161.968 184.587  1.00  0.00     0.046 A 
ATOM      5  C   UNL     1     167.347 163.320 184.410  1.00  0.00     0.115 A 
ATOM      6  C   UNL     1     165.394 162.679 183.123  1.00  0.00     0.007 A 
ATOM      7  C   UNL     1     166.209 163.672 183.677  1.00  0.00     0.046 A 
BRANCH   5   8
ATOM      8  O   UNL     1     168.149 164.319 184.956  1.00  0.00    -0.508 OA
ATOM      9  H   UNL     1     168.971 164.097 185.506  1.00  0.00     0.293 HD
ENDBRANCH   5   8
ENDBRANCH   1   2
BRANCH   1  10
ATOM     10  C   UNL     1     164.288 160.731 181.341  1.00  0.00     0.040 C 
BRANCH  10  11
ATOM     11  C   UNL     1     162.794 160.897 181.421  1.00  0.00    -0.040 A 
ATOM     12  C   UNL     1     162.158 161.001 182.669  1.00  0.00     0.050 A 
ATOM     13  C   UNL     1     162.019 160.891 180.250  1.00  0.00     0.050 A 
ATOM     14  C   UNL     1     160.764 161.122 182.744  1.00  0.00     0.119 A 
ATOM     15  C   UNL     1     160.627 161.011 180.322  1.00  0.00     0.119 A 
ATOM     16  C   UNL     1     160.002 161.129 181.571  1.00  0.00     0.092 A 
BRANCH  14  17
ATOM     17  O   UNL     1     160.127 161.232 183.978  1.00  0.00    -0.508 OA
ATOM     18  H   UNL     1     160.641 161.458 184.821  1.00  0.00     0.293 HD
ENDBRANCH  14  17
BRANCH  15  19
ATOM     19  O   UNL     1     159.875 161.010 179.150  1.00  0.00    -0.508 OA
ATOM     20  H   UNL     1     159.382 161.838 178.836  1.00  0.00     0.293 HD
ENDBRANCH  15  19
ENDBRANCH  10  11
ENDBRANCH   1  10
TORSDOF 6
ENDMDL
MODEL 7
REMARK VINA RESULT:    -5.321     15.956     17.515
REMARK INTER + INTRA:          -7.253
REMARK INTER:                  -6.513
REMARK INTRA:                  -0.740
REMARK UNBOUND:                -0.532
REMARK SMILES Oc1ccc(CCc2cc(O)cc(O)c2)cc1
REMARK SMILES IDX 6 1 5 2 4 3 3 4 2 5 16 6 17 7 1 8 7 10 8 11 15 12 9 13 13 14
REMARK SMILES IDX 10 15 12 16 14 17 11 19
REMARK H PARENT 1 9 14 18 11 20
REMARK Flexibility Score: inf
ROOT
ATOM      1  C   UNL     1     161.028 162.522 183.635  1.00  0.00     0.040 C 
ENDROOT
BRANCH   1   2
ATOM      2  C   UNL     1     162.463 162.185 183.334  1.00  0.00    -0.047 A 
ATOM      3  C   UNL     1     163.463 163.161 183.466  1.00  0.00     0.007 A 
ATOM      4  C   UNL     1     164.801 162.838 183.218  1.00  0.00     0.046 A 
ATOM      5  C   UNL     1     165.152 161.533 182.846  1.00  0.00     0.115 A 
ATOM      6  C   UNL     1     162.822 160.875 182.974  1.00  0.00     0.007 A 
ATOM      7  C   UNL     1     164.160 160.555 182.726  1.00  0.00     0.046 A 
BRANCH   5   8
ATOM      8  O   UNL     1     166.481 161.199 182.596  1.00  0.00    -0.508 OA
ATOM      9  H   UNL     1     166.916 160.395 183.033  1.00  0.00     0.293 HD
ENDBRANCH   5   8
ENDBRANCH   1   2
BRANCH   1  10
ATOM     10  C   UNL     1     160.197 162.545 182.349  1.00  0.00     0.040 C 
BRANCH  10  11
ATOM     11  C   UNL     1     160.519 163.768 181.533  1.00  0.00    -0.040 A 
ATOM     12  C   UNL     1     160.135 165.042 181.984  1.00  0.00     0.050 A 
ATOM     13  C   UNL     1     161.156 163.641 180.288  1.00  0.00     0.050 A 
ATOM     14  C   UNL     1     160.406 166.178 181.209  1.00  0.00     0.119 A 
ATOM     15  C   UNL     1     161.427 164.773 179.512  1.00  0.00     0.119 A 
ATOM     16  C   UNL     1     161.053 166.041 179.976  1.00  0.00     0.092 A 
BRANCH  14  17
ATOM     17  O   UNL     1     160.033 167.444 181.652  1.00  0.00    -0.508 OA
ATOM     18  H   UNL     1     159.501 167.572 182.505  1.00  0.00     0.293 HD
ENDBRANCH  14  17
BRANCH  15  19
ATOM     19  O   UNL     1     162.065 164.627 178.283  1.00  0.00    -0.508 OA
ATOM     20  H   UNL     1     161.545 164.432 177.436  1.00  0.00     0.293 HD
ENDBRANCH  15  19
ENDBRANCH  10  11
ENDBRANCH   1  10
TORSDOF 6
ENDMDL
MODEL 8
REMARK VINA RESULT:    -5.285     16.269     18.407
REMARK INTER + INTRA:          -7.207
REMARK INTER:                  -6.453
REMARK INTRA:                  -0.754
REMARK UNBOUND:                -0.532
REMARK SMILES Oc1ccc(CCc2cc(O)cc(O)c2)cc1
REMARK SMILES IDX 6 1 5 2 4 3 3 4 2 5 16 6 17 7 1 8 7 10 8 11 15 12 9 13 13 14
REMARK SMILES IDX 10 15 12 16 14 17 11 19
REMARK H PARENT 1 9 14 18 11 20
REMARK Flexibility Score: inf
ROOT
ATOM      1  C   UNL     1     160.272 161.631 181.973  1.00  0.00     0.040 C 
ENDROOT
BRANCH   1   2
ATOM      2  C   UNL     1     160.444 163.021 181.423  1.00  0.00    -0.047 A 
ATOM      3  C   UNL     1     160.940 163.212 180.124  1.00  0.00     0.007 A 
ATOM      4  C   UNL     1     161.069 164.503 179.601  1.00  0.00     0.046 A 
ATOM      5  C   UNL     1     160.693 165.613 180.368  1.00  0.00     0.115 A 
ATOM      6  C   UNL     1     160.057 164.136 182.183  1.00  0.00     0.007 A 
ATOM      7  C   UNL     1     160.186 165.426 181.658  1.00  0.00     0.046 A 
BRANCH   5   8
ATOM      8  O   UNL     1     160.817 166.904 179.859  1.00  0.00    -0.508 OA
ATOM      9  H   UNL     1     161.725 167.323 179.695  1.00  0.00     0.293 HD
ENDBRANCH   5   8
ENDBRANCH   1   2
BRANCH   1  10
ATOM     10  C   UNL     1     161.095 161.451 183.252  1.00  0.00     0.040 C 
BRANCH  10  11
ATOM     11  C   UNL     1     162.562 161.628 182.966  1.00  0.00    -0.040 A 
ATOM     12  C   UNL     1     163.258 160.671 182.210  1.00  0.00     0.050 A 
ATOM     13  C   UNL     1     163.259 162.724 183.500  1.00  0.00     0.050 A 
ATOM     14  C   UNL     1     164.631 160.819 181.971  1.00  0.00     0.119 A 
ATOM     15  C   UNL     1     164.630 162.875 183.264  1.00  0.00     0.119 A 
ATOM     16  C   UNL     1     165.313 161.922 182.496  1.00  0.00     0.092 A 
BRANCH  14  17
ATOM     17  O   UNL     1     165.325 159.877 181.217  1.00  0.00    -0.508 OA
ATOM     18  H   UNL     1     166.338 159.843 181.213  1.00  0.00     0.293 HD
ENDBRANCH  14  17
BRANCH  15  19
ATOM     19  O   UNL     1     165.303 163.971 183.797  1.00  0.00    -0.508 OA
ATOM     20  H   UNL     1     164.811 164.704 184.293  1.00  0.00     0.293 HD
ENDBRANCH  15  19
ENDBRANCH  10  11
ENDBRANCH   1  10
TORSDOF 6
ENDMDL
MODEL 9
REMARK VINA RESULT:    -5.141      9.279     12.205
REMARK INTER + INTRA:          -7.026
REMARK INTER:                  -6.387
REMARK INTRA:                  -0.639
REMARK UNBOUND:                -0.532
REMARK SMILES Oc1ccc(CCc2cc(O)cc(O)c2)cc1
REMARK SMILES IDX 6 1 5 2 4 3 3 4 2 5 16 6 17 7 1 8 7 10 8 11 15 12 9 13 13 14
REMARK SMILES IDX 10 15 12 16 14 17 11 19
REMARK H PARENT 1 9 14 18 11 20
REMARK Flexibility Score: inf
ROOT
ATOM      1  C   UNL     1     178.310 171.499 183.244  1.00  0.00     0.040 C 
ENDROOT
BRANCH   1   2
ATOM      2  C   UNL     1     178.583 170.153 182.628  1.00  0.00    -0.047 A 
ATOM      3  C   UNL     1     179.875 169.606 182.664  1.00  0.00     0.007 A 
ATOM      4  C   UNL     1     180.121 168.342 182.121  1.00  0.00     0.046 A 
ATOM      5  C   UNL     1     179.076 167.608 181.546  1.00  0.00     0.115 A 
ATOM      6  C   UNL     1     177.536 169.408 182.062  1.00  0.00     0.007 A 
ATOM      7  C   UNL     1     177.784 168.143 181.520  1.00  0.00     0.046 A 
BRANCH   5   8
ATOM      8  O   UNL     1     179.308 166.347 181.001  1.00  0.00    -0.508 OA
ATOM      9  H   UNL     1     179.788 166.233 180.116  1.00  0.00     0.293 HD
ENDBRANCH   5   8
ENDBRANCH   1   2
BRANCH   1  10
ATOM     10  C   UNL     1     179.380 172.511 182.825  1.00  0.00     0.040 C 
BRANCH  10  11
ATOM     11  C   UNL     1     178.959 173.242 181.578  1.00  0.00    -0.040 A 
ATOM     12  C   UNL     1     179.348 172.769 180.315  1.00  0.00     0.050 A 
ATOM     13  C   UNL     1     178.221 174.433 181.672  1.00  0.00     0.050 A 
ATOM     14  C   UNL     1     178.983 173.467 179.156  1.00  0.00     0.119 A 
ATOM     15  C   UNL     1     177.856 175.132 180.517  1.00  0.00     0.119 A 
ATOM     16  C   UNL     1     178.236 174.645 179.259  1.00  0.00     0.092 A 
BRANCH  14  17
ATOM     17  O   UNL     1     179.361 173.001 177.898  1.00  0.00    -0.508 OA
ATOM     18  H   UNL     1     179.441 172.011 177.703  1.00  0.00     0.293 HD
ENDBRANCH  14  17
BRANCH  15  19
ATOM     19  O   UNL     1     177.119 176.308 180.629  1.00  0.00    -0.508 OA
ATOM     20  H   UNL     1     176.220 176.415 180.174  1.00  0.00     0.293 HD
ENDBRANCH  15  19
ENDBRANCH  10  11
ENDBRANCH   1  10
TORSDOF 6
ENDMDL
