MODEL 1
REMARK VINA RESULT:    -4.639      0.000      0.000
REMARK INTER + INTRA:          -4.928
REMARK INTER:                  -4.910
REMARK INTRA:                  -0.017
REMARK UNBOUND:                -0.017
REMARK SMILES O=C([O-])c1cccnc1
REMARK SMILES IDX 4 1 5 2 9 3 6 4 8 5 7 6 2 7 1 8 3 9
REMARK H PARENT
REMARK Flexibility Score: inf
ROOT
ATOM      1  C   UNL     1     135.494 123.295 139.919  1.00  0.00     0.016 A 
ATOM      2  C   UNL     1     134.954 123.221 138.625  1.00  0.00     0.013 A 
ATOM      3  C   UNL     1     136.890 123.226 140.066  1.00  0.00     0.120 A 
ATOM      4  C   UNL     1     135.797 123.085 137.520  1.00  0.00     0.021 A 
ATOM      5  N   UNL     1     137.689 123.092 138.973  1.00  0.00    -0.264 NA
ATOM      6  C   UNL     1     137.177 123.021 137.716  1.00  0.00     0.111 A 
ENDROOT
BRANCH   1   7
ATOM      7  C   UNL     1     134.611 123.440 141.097  1.00  0.00     0.073 C 
ATOM      8  O   UNL     1     133.811 122.520 141.415  1.00  0.00    -0.545 OA
ATOM      9  O   UNL     1     134.653 124.595 141.869  1.00  0.00    -0.545 OA
ENDBRANCH   1   7
TORSDOF 1
ENDMDL
MODEL 2
REMARK VINA RESULT:    -4.590      2.141      2.735
REMARK INTER + INTRA:          -4.876
REMARK INTER:                  -4.852
REMARK INTRA:                  -0.024
REMARK UNBOUND:                -0.017
REMARK SMILES O=C([O-])c1cccnc1
REMARK SMILES IDX 4 1 5 2 9 3 6 4 8 5 7 6 2 7 1 8 3 9
REMARK H PARENT
REMARK Flexibility Score: inf
ROOT
ATOM      1  C   UNL     1     136.845 123.118 139.924  1.00  0.00     0.016 A 
ATOM      2  C   UNL     1     137.462 123.007 138.668  1.00  0.00     0.013 A 
ATOM      3  C   UNL     1     135.444 123.226 139.974  1.00  0.00     0.120 A 
ATOM      4  C   UNL     1     136.689 123.004 137.505  1.00  0.00     0.021 A 
ATOM      5  N   UNL     1     134.714 123.222 138.826  1.00  0.00    -0.264 NA
ATOM      6  C   UNL     1     135.302 123.115 137.605  1.00  0.00     0.111 A 
ENDROOT
BRANCH   1   7
ATOM      7  C   UNL     1     137.653 123.122 141.163  1.00  0.00     0.073 C 
ATOM      8  O   UNL     1     138.911 123.094 141.108  1.00  0.00    -0.545 OA
ATOM      9  O   UNL     1     137.032 123.156 142.407  1.00  0.00    -0.545 OA
ENDBRANCH   1   7
TORSDOF 1
ENDMDL
MODEL 3
REMARK VINA RESULT:    -4.572      2.210      3.017
REMARK INTER + INTRA:          -4.857
REMARK INTER:                  -4.841
REMARK INTRA:                  -0.016
REMARK UNBOUND:                -0.017
REMARK SMILES O=C([O-])c1cccnc1
REMARK SMILES IDX 4 1 5 2 9 3 6 4 8 5 7 6 2 7 1 8 3 9
REMARK H PARENT
REMARK Flexibility Score: inf
ROOT
ATOM      1  C   UNL     1     136.414 123.223 138.994  1.00  0.00     0.016 A 
ATOM      2  C   UNL     1     136.145 123.068 140.363  1.00  0.00     0.013 A 
ATOM      3  C   UNL     1     137.755 123.238 138.573  1.00  0.00     0.120 A 
ATOM      4  C   UNL     1     137.196 122.931 141.273  1.00  0.00     0.021 A 
ATOM      5  N   UNL     1     138.760 123.104 139.480  1.00  0.00    -0.264 NA
ATOM      6  C   UNL     1     138.511 122.952 140.807  1.00  0.00     0.111 A 
ENDROOT
BRANCH   1   7
ATOM      7  C   UNL     1     135.310 123.368 138.021  1.00  0.00     0.073 C 
ATOM      8  O   UNL     1     134.836 122.359 137.433  1.00  0.00    -0.545 OA
ATOM      9  O   UNL     1     134.779 124.623 137.741  1.00  0.00    -0.545 OA
ENDBRANCH   1   7
TORSDOF 1
ENDMDL
MODEL 4
REMARK VINA RESULT:    -4.568      2.369      3.240
REMARK INTER + INTRA:          -4.852
REMARK INTER:                  -4.836
REMARK INTRA:                  -0.016
REMARK UNBOUND:                -0.017
REMARK SMILES O=C([O-])c1cccnc1
REMARK SMILES IDX 4 1 5 2 9 3 6 4 8 5 7 6 2 7 1 8 3 9
REMARK H PARENT
REMARK Flexibility Score: inf
ROOT
ATOM      1  C   UNL     1     136.427 123.301 139.009  1.00  0.00     0.016 A 
ATOM      2  C   UNL     1     137.768 123.303 138.597  1.00  0.00     0.013 A 
ATOM      3  C   UNL     1     136.148 123.123 140.376  1.00  0.00     0.120 A 
ATOM      4  C   UNL     1     138.791 123.132 139.533  1.00  0.00     0.021 A 
ATOM      5  N   UNL     1     137.162 122.957 141.267  1.00  0.00    -0.264 NA
ATOM      6  C   UNL     1     138.464 122.958 140.878  1.00  0.00     0.111 A 
ENDROOT
BRANCH   1   7
ATOM      7  C   UNL     1     135.336 123.481 138.028  1.00  0.00     0.073 C 
ATOM      8  O   UNL     1     134.924 124.635 137.731  1.00  0.00    -0.545 OA
ATOM      9  O   UNL     1     134.748 122.378 137.418  1.00  0.00    -0.545 OA
ENDBRANCH   1   7
TORSDOF 1
ENDMDL
MODEL 5
REMARK VINA RESULT:    -4.501      3.199      4.007
REMARK INTER + INTRA:          -4.782
REMARK INTER:                  -4.761
REMARK INTRA:                  -0.020
REMARK UNBOUND:                -0.017
REMARK SMILES O=C([O-])c1cccnc1
REMARK SMILES IDX 4 1 5 2 9 3 6 4 8 5 7 6 2 7 1 8 3 9
REMARK H PARENT
REMARK Flexibility Score: inf
ROOT
ATOM      1  C   UNL     1     135.778 123.982 143.006  1.00  0.00     0.016 A 
ATOM      2  C   UNL     1     136.698 123.318 142.180  1.00  0.00     0.013 A 
ATOM      3  C   UNL     1     134.405 123.796 142.764  1.00  0.00     0.120 A 
ATOM      4  C   UNL     1     136.245 122.493 141.148  1.00  0.00     0.021 A 
ATOM      5  N   UNL     1     133.991 122.988 141.751  1.00  0.00    -0.264 NA
ATOM      6  C   UNL     1     134.873 122.339 140.946  1.00  0.00     0.111 A 
ENDROOT
BRANCH   1   7
ATOM      7  C   UNL     1     136.244 124.858 144.102  1.00  0.00     0.073 C 
ATOM      8  O   UNL     1     135.642 125.934 144.364  1.00  0.00    -0.545 OA
ATOM      9  O   UNL     1     137.356 124.506 144.859  1.00  0.00    -0.545 OA
ENDBRANCH   1   7
TORSDOF 1
ENDMDL
MODEL 6
REMARK VINA RESULT:    -4.496      1.351      2.200
REMARK INTER + INTRA:          -4.776
REMARK INTER:                  -4.757
REMARK INTRA:                  -0.018
REMARK UNBOUND:                -0.017
REMARK SMILES O=C([O-])c1cccnc1
REMARK SMILES IDX 4 1 5 2 9 3 6 4 8 5 7 6 2 7 1 8 3 9
REMARK H PARENT
REMARK Flexibility Score: inf
ROOT
ATOM      1  C   UNL     1     136.057 123.111 140.999  1.00  0.00     0.016 A 
ATOM      2  C   UNL     1     137.286 122.834 141.618  1.00  0.00     0.013 A 
ATOM      3  C   UNL     1     136.060 123.475 139.641  1.00  0.00     0.120 A 
ATOM      4  C   UNL     1     138.474 122.922 140.890  1.00  0.00     0.021 A 
ATOM      5  N   UNL     1     137.231 123.554 138.954  1.00  0.00    -0.264 NA
ATOM      6  C   UNL     1     138.426 123.288 139.544  1.00  0.00     0.111 A 
ENDROOT
BRANCH   1   7
ATOM      7  C   UNL     1     134.792 123.022 141.759  1.00  0.00     0.073 C 
ATOM      8  O   UNL     1     133.841 122.308 141.341  1.00  0.00    -0.545 OA
ATOM      9  O   UNL     1     134.635 123.725 142.948  1.00  0.00    -0.545 OA
ENDBRANCH   1   7
TORSDOF 1
ENDMDL
MODEL 7
REMARK VINA RESULT:    -4.419      2.853      3.983
REMARK INTER + INTRA:          -4.695
REMARK INTER:                  -4.672
REMARK INTRA:                  -0.023
REMARK UNBOUND:                -0.017
REMARK SMILES O=C([O-])c1cccnc1
REMARK SMILES IDX 4 1 5 2 9 3 6 4 8 5 7 6 2 7 1 8 3 9
REMARK H PARENT
REMARK Flexibility Score: inf
ROOT
ATOM      1  C   UNL     1     136.264 123.345 139.547  1.00  0.00     0.016 A 
ATOM      2  C   UNL     1     137.152 123.099 140.606  1.00  0.00     0.013 A 
ATOM      3  C   UNL     1     134.917 123.609 139.851  1.00  0.00     0.120 A 
ATOM      4  C   UNL     1     136.693 123.120 141.925  1.00  0.00     0.021 A 
ATOM      5  N   UNL     1     134.495 123.623 141.144  1.00  0.00    -0.264 NA
ATOM      6  C   UNL     1     135.347 123.387 142.177  1.00  0.00     0.111 A 
ENDROOT
BRANCH   1   7
ATOM      7  C   UNL     1     136.738 123.326 138.146  1.00  0.00     0.073 C 
ATOM      8  O   UNL     1     137.947 123.554 137.875  1.00  0.00    -0.545 OA
ATOM      9  O   UNL     1     135.853 123.054 137.108  1.00  0.00    -0.545 OA
ENDBRANCH   1   7
TORSDOF 1
ENDMDL
MODEL 8
REMARK VINA RESULT:    -4.394      3.108      3.927
REMARK INTER + INTRA:          -4.668
REMARK INTER:                  -4.646
REMARK INTRA:                  -0.021
REMARK UNBOUND:                -0.017
REMARK SMILES O=C([O-])c1cccnc1
REMARK SMILES IDX 4 1 5 2 9 3 6 4 8 5 7 6 2 7 1 8 3 9
REMARK H PARENT
REMARK Flexibility Score: inf
ROOT
ATOM      1  C   UNL     1     136.213 123.085 141.119  1.00  0.00     0.016 A 
ATOM      2  C   UNL     1     135.052 122.439 140.666  1.00  0.00     0.013 A 
ATOM      3  C   UNL     1     136.156 123.786 142.336  1.00  0.00     0.120 A 
ATOM      4  C   UNL     1     133.877 122.498 141.418  1.00  0.00     0.021 A 
ATOM      5  N   UNL     1     134.999 123.829 143.050  1.00  0.00    -0.264 NA
ATOM      6  C   UNL     1     133.870 123.206 142.621  1.00  0.00     0.111 A 
ENDROOT
BRANCH   1   7
ATOM      7  C   UNL     1     137.463 123.029 140.331  1.00  0.00     0.073 C 
ATOM      8  O   UNL     1     137.427 123.001 139.072  1.00  0.00    -0.545 OA
ATOM      9  O   UNL     1     138.697 123.007 140.971  1.00  0.00    -0.545 OA
ENDBRANCH   1   7
TORSDOF 1
ENDMDL
MODEL 9
REMARK VINA RESULT:    -4.125     10.283     10.795
REMARK INTER + INTRA:          -4.383
REMARK INTER:                  -4.360
REMARK INTRA:                  -0.023
REMARK UNBOUND:                -0.017
REMARK SMILES O=C([O-])c1cccnc1
REMARK SMILES IDX 4 1 5 2 9 3 6 4 8 5 7 6 2 7 1 8 3 9
REMARK H PARENT
REMARK Flexibility Score: inf
ROOT
ATOM      1  C   UNL     1     131.603 132.559 138.225  1.00  0.00     0.016 A 
ATOM      2  C   UNL     1     131.815 132.747 139.600  1.00  0.00     0.013 A 
ATOM      3  C   UNL     1     132.154 133.493 137.330  1.00  0.00     0.120 A 
ATOM      4  C   UNL     1     132.559 133.839 140.052  1.00  0.00     0.021 A 
ATOM      5  N   UNL     1     132.874 134.548 137.796  1.00  0.00    -0.264 NA
ATOM      6  C   UNL     1     133.086 134.739 139.125  1.00  0.00     0.111 A 
ENDROOT
BRANCH   1   7
ATOM      7  C   UNL     1     130.817 131.407 137.734  1.00  0.00     0.073 C 
ATOM      8  O   UNL     1     130.455 131.344 136.529  1.00  0.00    -0.545 OA
ATOM      9  O   UNL     1     130.466 130.375 138.598  1.00  0.00    -0.545 OA
ENDBRANCH   1   7
TORSDOF 1
ENDMDL
