MODEL 1
REMARK VINA RESULT:    -4.684      0.000      0.000
REMARK INTER + INTRA:          -8.536
REMARK INTER:                  -7.149
REMARK INTRA:                  -1.387
REMARK UNBOUND:                -1.387
REMARK SMILES CCCCCCCCCCC(=O)[O-]
REMARK SMILES IDX 7 1 8 2 9 3 10 4 11 5 12 6 13 7 6 8 5 9 4 10 3 11 2 12 1 13
REMARK H PARENT
REMARK Flexibility Score: inf
ROOT
ATOM      1  C   UNL     1      12.078   7.026  19.175  1.00  0.00     0.000 C 
ENDROOT
BRANCH   1   2
ATOM      2  C   UNL     1      12.141   5.740  18.324  1.00  0.00     0.000 C 
BRANCH   2   3
ATOM      3  C   UNL     1      11.745   4.491  19.130  1.00  0.00     0.006 C 
BRANCH   3   4
ATOM      4  C   UNL     1      10.958   3.479  18.286  1.00  0.00     0.053 C 
BRANCH   4   5
ATOM      5  C   UNL     1       9.957   2.728  19.109  1.00  0.00     0.041 C 
ATOM      6  O   UNL     1       8.901   2.292  18.579  1.00  0.00    -0.550 OA
ATOM      7  O   UNL     1      10.206   2.478  20.453  1.00  0.00    -0.550 OA
ENDBRANCH   4   5
ENDBRANCH   3   4
ENDBRANCH   2   3
ENDBRANCH   1   2
BRANCH   1   8
ATOM      8  C   UNL     1      11.855   6.761  20.674  1.00  0.00     0.000 C 
BRANCH   8   9
ATOM      9  C   UNL     1      10.954   7.810  21.339  1.00  0.00    -0.000 C 
BRANCH   9  10
ATOM     10  C   UNL     1       9.478   7.552  21.015  1.00  0.00    -0.000 C 
BRANCH  10  11
ATOM     11  C   UNL     1       9.120   6.073  21.226  1.00  0.00    -0.000 C 
BRANCH  11  12
ATOM     12  C   UNL     1       8.078   5.568  20.216  1.00  0.00    -0.003 C 
ATOM     13  C   UNL     1       8.308   6.112  18.806  1.00  0.00     0.004 C 
ENDBRANCH  11  12
ENDBRANCH  10  11
ENDBRANCH   9  10
ENDBRANCH   8   9
ENDBRANCH   1   8
TORSDOF 9
ENDMDL
MODEL 2
REMARK VINA RESULT:    -4.668      3.119      4.379
REMARK INTER + INTRA:          -8.511
REMARK INTER:                  -7.314
REMARK INTRA:                  -1.196
REMARK UNBOUND:                -1.387
REMARK SMILES CCCCCCCCCCC(=O)[O-]
REMARK SMILES IDX 7 1 8 2 9 3 10 4 11 5 12 6 13 7 6 8 5 9 4 10 3 11 2 12 1 13
REMARK H PARENT
REMARK Flexibility Score: inf
ROOT
ATOM      1  C   UNL     1      11.927   4.614  19.288  1.00  0.00     0.000 C 
ENDROOT
BRANCH   1   2
ATOM      2  C   UNL     1      12.173   5.832  18.373  1.00  0.00     0.000 C 
BRANCH   2   3
ATOM      3  C   UNL     1      11.639   7.138  18.988  1.00  0.00     0.006 C 
BRANCH   3   4
ATOM      4  C   UNL     1      11.862   7.200  20.505  1.00  0.00     0.053 C 
BRANCH   4   5
ATOM      5  C   UNL     1      12.889   8.225  20.875  1.00  0.00     0.041 C 
ATOM      6  O   UNL     1      12.946   8.669  22.052  1.00  0.00    -0.550 OA
ATOM      7  O   UNL     1      13.808   8.664  19.930  1.00  0.00    -0.550 OA
ENDBRANCH   4   5
ENDBRANCH   3   4
ENDBRANCH   2   3
ENDBRANCH   1   2
BRANCH   1   8
ATOM      8  C   UNL     1      10.975   3.570  18.679  1.00  0.00     0.000 C 
BRANCH   8   9
ATOM      9  C   UNL     1       9.758   3.281  19.569  1.00  0.00    -0.000 C 
BRANCH   9  10
ATOM     10  C   UNL     1       9.679   4.274  20.733  1.00  0.00    -0.000 C 
BRANCH  10  11
ATOM     11  C   UNL     1       8.534   5.277  20.524  1.00  0.00    -0.000 C 
BRANCH  11  12
ATOM     12  C   UNL     1       7.780   5.044  19.206  1.00  0.00    -0.003 C 
ATOM     13  C   UNL     1       8.089   6.106  18.151  1.00  0.00     0.004 C 
ENDBRANCH  11  12
ENDBRANCH  10  11
ENDBRANCH   9  10
ENDBRANCH   8   9
ENDBRANCH   1   8
TORSDOF 9
ENDMDL
MODEL 3
REMARK VINA RESULT:    -4.664     18.541     19.609
REMARK INTER + INTRA:          -8.506
REMARK INTER:                  -7.092
REMARK INTRA:                  -1.413
REMARK UNBOUND:                -1.387
REMARK SMILES CCCCCCCCCCC(=O)[O-]
REMARK SMILES IDX 7 1 8 2 9 3 10 4 11 5 12 6 13 7 6 8 5 9 4 10 3 11 2 12 1 13
REMARK H PARENT
REMARK Flexibility Score: inf
ROOT
ATOM      1  C   UNL     1      17.889  -7.321  33.477  1.00  0.00     0.000 C 
ENDROOT
BRANCH   1   2
ATOM      2  C   UNL     1      19.092  -6.373  33.667  1.00  0.00     0.000 C 
BRANCH   2   3
ATOM      3  C   UNL     1      18.850  -4.993  33.031  1.00  0.00     0.006 C 
BRANCH   3   4
ATOM      4  C   UNL     1      18.975  -3.853  34.050  1.00  0.00     0.053 C 
BRANCH   4   5
ATOM      5  C   UNL     1      17.822  -2.901  33.964  1.00  0.00     0.041 C 
ATOM      6  O   UNL     1      16.827  -3.174  33.243  1.00  0.00    -0.550 OA
ATOM      7  O   UNL     1      17.830  -1.728  34.708  1.00  0.00    -0.550 OA
ENDBRANCH   4   5
ENDBRANCH   3   4
ENDBRANCH   2   3
ENDBRANCH   1   2
BRANCH   1   8
ATOM      8  C   UNL     1      16.763  -6.721  32.617  1.00  0.00     0.000 C 
BRANCH   8   9
ATOM      9  C   UNL     1      15.455  -6.525  33.396  1.00  0.00    -0.000 C 
BRANCH   9  10
ATOM     10  C   UNL     1      15.704  -6.564  34.908  1.00  0.00    -0.000 C 
BRANCH  10  11
ATOM     11  C   UNL     1      15.368  -5.212  35.555  1.00  0.00    -0.000 C 
BRANCH  11  12
ATOM     12  C   UNL     1      16.431  -4.761  36.568  1.00  0.00    -0.003 C 
ATOM     13  C   UNL     1      17.367  -5.894  36.988  1.00  0.00     0.004 C 
ENDBRANCH  11  12
ENDBRANCH  10  11
ENDBRANCH   9  10
ENDBRANCH   8   9
ENDBRANCH   1   8
TORSDOF 9
ENDMDL
MODEL 4
REMARK VINA RESULT:    -4.658      3.072      5.268
REMARK INTER + INTRA:          -8.496
REMARK INTER:                  -7.406
REMARK INTRA:                  -1.090
REMARK UNBOUND:                -1.387
REMARK SMILES CCCCCCCCCCC(=O)[O-]
REMARK SMILES IDX 7 1 8 2 9 3 10 4 11 5 12 6 13 7 6 8 5 9 4 10 3 11 2 12 1 13
REMARK H PARENT
REMARK Flexibility Score: inf
ROOT
ATOM      1  C   UNL     1       8.927   5.595  21.016  1.00  0.00     0.000 C 
ENDROOT
BRANCH   1   2
ATOM      2  C   UNL     1       9.519   7.018  20.921  1.00  0.00     0.000 C 
BRANCH   2   3
ATOM      3  C   UNL     1      10.933   7.099  21.521  1.00  0.00     0.006 C 
BRANCH   3   4
ATOM      4  C   UNL     1      11.503   8.523  21.477  1.00  0.00     0.053 C 
BRANCH   4   5
ATOM      5  C   UNL     1      12.995   8.521  21.346  1.00  0.00     0.041 C 
ATOM      6  O   UNL     1      13.721   8.383  22.366  1.00  0.00    -0.550 OA
ATOM      7  O   UNL     1      13.584   8.636  20.093  1.00  0.00    -0.550 OA
ENDBRANCH   4   5
ENDBRANCH   3   4
ENDBRANCH   2   3
ENDBRANCH   1   2
BRANCH   1   8
ATOM      8  C   UNL     1       7.978   5.245  19.856  1.00  0.00     0.000 C 
BRANCH   8   9
ATOM      9  C   UNL     1       8.511   4.114  18.968  1.00  0.00    -0.000 C 
BRANCH   9  10
ATOM     10  C   UNL     1       9.794   3.513  19.553  1.00  0.00    -0.000 C 
BRANCH  10  11
ATOM     11  C   UNL     1      10.935   3.548  18.525  1.00  0.00    -0.000 C 
BRANCH  11  12
ATOM     12  C   UNL     1      11.992   4.614  18.852  1.00  0.00    -0.003 C 
ATOM     13  C   UNL     1      11.743   5.937  18.127  1.00  0.00     0.004 C 
ENDBRANCH  11  12
ENDBRANCH  10  11
ENDBRANCH   9  10
ENDBRANCH   8   9
ENDBRANCH   1   8
TORSDOF 9
ENDMDL
MODEL 5
REMARK VINA RESULT:    -4.633     18.884     19.872
REMARK INTER + INTRA:          -8.458
REMARK INTER:                  -7.448
REMARK INTRA:                  -1.010
REMARK UNBOUND:                -1.387
REMARK SMILES CCCCCCCCCCC(=O)[O-]
REMARK SMILES IDX 7 1 8 2 9 3 10 4 11 5 12 6 13 7 6 8 5 9 4 10 3 11 2 12 1 13
REMARK H PARENT
REMARK Flexibility Score: inf
ROOT
ATOM      1  C   UNL     1      19.254  -5.843  33.427  1.00  0.00     0.000 C 
ENDROOT
BRANCH   1   2
ATOM      2  C   UNL     1      18.498  -4.498  33.387  1.00  0.00     0.000 C 
BRANCH   2   3
ATOM      3  C   UNL     1      18.965  -3.536  34.494  1.00  0.00     0.006 C 
BRANCH   3   4
ATOM      4  C   UNL     1      17.972  -2.390  34.727  1.00  0.00     0.053 C 
BRANCH   4   5
ATOM      5  C   UNL     1      18.325  -1.586  35.940  1.00  0.00     0.041 C 
ATOM      6  O   UNL     1      19.405  -0.941  35.981  1.00  0.00    -0.550 OA
ATOM      7  O   UNL     1      17.443  -1.520  37.012  1.00  0.00    -0.550 OA
ENDBRANCH   4   5
ENDBRANCH   3   4
ENDBRANCH   2   3
ENDBRANCH   1   2
BRANCH   1   8
ATOM      8  C   UNL     1      18.437  -6.989  34.050  1.00  0.00     0.000 C 
BRANCH   8   9
ATOM      9  C   UNL     1      17.552  -7.716  33.029  1.00  0.00    -0.000 C 
BRANCH   9  10
ATOM     10  C   UNL     1      16.096  -7.247  33.132  1.00  0.00    -0.000 C 
BRANCH  10  11
ATOM     11  C   UNL     1      15.703  -6.995  34.596  1.00  0.00    -0.000 C 
BRANCH  11  12
ATOM     12  C   UNL     1      15.138  -5.584  34.820  1.00  0.00    -0.003 C 
ATOM     13  C   UNL     1      15.723  -4.902  36.057  1.00  0.00     0.004 C 
ENDBRANCH  11  12
ENDBRANCH  10  11
ENDBRANCH   9  10
ENDBRANCH   8   9
ENDBRANCH   1   8
TORSDOF 9
ENDMDL
MODEL 6
REMARK VINA RESULT:    -4.626      1.924      3.115
REMARK INTER + INTRA:          -8.447
REMARK INTER:                  -7.301
REMARK INTRA:                  -1.146
REMARK UNBOUND:                -1.387
REMARK SMILES CCCCCCCCCCC(=O)[O-]
REMARK SMILES IDX 7 1 8 2 9 3 10 4 11 5 12 6 13 7 6 8 5 9 4 10 3 11 2 12 1 13
REMARK H PARENT
REMARK Flexibility Score: inf
ROOT
ATOM      1  C   UNL     1      10.233   4.131  21.375  1.00  0.00     0.000 C 
ENDROOT
BRANCH   1   2
ATOM      2  C   UNL     1      10.261   3.005  20.319  1.00  0.00     0.000 C 
BRANCH   2   3
ATOM      3  C   UNL     1       9.421   3.353  19.078  1.00  0.00     0.006 C 
BRANCH   3   4
ATOM      4  C   UNL     1       9.576   2.315  17.960  1.00  0.00     0.053 C 
BRANCH   4   5
ATOM      5  C   UNL     1       8.502   1.272  18.015  1.00  0.00     0.041 C 
ATOM      6  O   UNL     1       8.695   0.136  17.507  1.00  0.00    -0.550 OA
ATOM      7  O   UNL     1       7.301   1.543  18.658  1.00  0.00    -0.550 OA
ENDBRANCH   4   5
ENDBRANCH   3   4
ENDBRANCH   2   3
ENDBRANCH   1   2
BRANCH   1   8
ATOM      8  C   UNL     1      11.632   4.635  21.773  1.00  0.00     0.000 C 
BRANCH   8   9
ATOM      9  C   UNL     1      11.735   6.166  21.780  1.00  0.00    -0.000 C 
BRANCH   9  10
ATOM     10  C   UNL     1      10.905   6.779  20.646  1.00  0.00    -0.000 C 
BRANCH  10  11
ATOM     11  C   UNL     1      11.803   7.199  19.473  1.00  0.00    -0.000 C 
BRANCH  11  12
ATOM     12  C   UNL     1      11.645   6.282  18.251  1.00  0.00    -0.003 C 
ATOM     13  C   UNL     1      12.621   5.106  18.263  1.00  0.00     0.004 C 
ENDBRANCH  11  12
ENDBRANCH  10  11
ENDBRANCH   9  10
ENDBRANCH   8   9
ENDBRANCH   1   8
TORSDOF 9
ENDMDL
MODEL 7
REMARK VINA RESULT:    -4.622      3.123      4.906
REMARK INTER + INTRA:          -8.441
REMARK INTER:                  -7.183
REMARK INTRA:                  -1.258
REMARK UNBOUND:                -1.387
REMARK SMILES CCCCCCCCCCC(=O)[O-]
REMARK SMILES IDX 7 1 8 2 9 3 10 4 11 5 12 6 13 7 6 8 5 9 4 10 3 11 2 12 1 13
REMARK H PARENT
REMARK Flexibility Score: inf
ROOT
ATOM      1  C   UNL     1      10.142   7.504  18.808  1.00  0.00     0.000 C 
ENDROOT
BRANCH   1   2
ATOM      2  C   UNL     1       9.706   7.134  20.241  1.00  0.00     0.000 C 
BRANCH   2   3
ATOM      3  C   UNL     1      10.520   7.887  21.308  1.00  0.00     0.006 C 
BRANCH   3   4
ATOM      4  C   UNL     1      11.859   7.201  21.610  1.00  0.00     0.053 C 
BRANCH   4   5
ATOM      5  C   UNL     1      13.015   8.139  21.445  1.00  0.00     0.041 C 
ATOM      6  O   UNL     1      13.649   8.546  22.453  1.00  0.00    -0.550 OA
ATOM      7  O   UNL     1      13.414   8.535  20.175  1.00  0.00    -0.550 OA
ENDBRANCH   4   5
ENDBRANCH   3   4
ENDBRANCH   2   3
ENDBRANCH   1   2
BRANCH   1   8
ATOM      8  C   UNL     1      10.553   6.289  17.957  1.00  0.00     0.000 C 
BRANCH   8   9
ATOM      9  C   UNL     1      11.988   5.823  18.234  1.00  0.00    -0.000 C 
BRANCH   9  10
ATOM     10  C   UNL     1      11.997   4.544  19.080  1.00  0.00    -0.000 C 
BRANCH  10  11
ATOM     11  C   UNL     1      10.896   3.576  18.622  1.00  0.00    -0.000 C 
BRANCH  11  12
ATOM     12  C   UNL     1      10.022   3.084  19.786  1.00  0.00    -0.003 C 
ATOM     13  C   UNL     1      10.500   3.597  21.144  1.00  0.00     0.004 C 
ENDBRANCH  11  12
ENDBRANCH  10  11
ENDBRANCH   9  10
ENDBRANCH   8   9
ENDBRANCH   1   8
TORSDOF 9
ENDMDL
MODEL 8
REMARK VINA RESULT:    -4.613     19.008     19.992
REMARK INTER + INTRA:          -8.427
REMARK INTER:                  -7.402
REMARK INTRA:                  -1.025
REMARK UNBOUND:                -1.387
REMARK SMILES CCCCCCCCCCC(=O)[O-]
REMARK SMILES IDX 7 1 8 2 9 3 10 4 11 5 12 6 13 7 6 8 5 9 4 10 3 11 2 12 1 13
REMARK H PARENT
REMARK Flexibility Score: inf
ROOT
ATOM      1  C   UNL     1      15.861  -5.050  36.193  1.00  0.00     0.000 C 
ENDROOT
BRANCH   1   2
ATOM      2  C   UNL     1      17.237  -4.357  36.287  1.00  0.00     0.000 C 
BRANCH   2   3
ATOM      3  C   UNL     1      17.485  -3.397  35.111  1.00  0.00     0.006 C 
BRANCH   3   4
ATOM      4  C   UNL     1      18.810  -2.636  35.250  1.00  0.00     0.053 C 
BRANCH   4   5
ATOM      5  C   UNL     1      18.628  -1.325  35.951  1.00  0.00     0.041 C 
ATOM      6  O   UNL     1      17.559  -1.081  36.571  1.00  0.00    -0.550 OA
ATOM      7  O   UNL     1      19.652  -0.387  35.951  1.00  0.00    -0.550 OA
ENDBRANCH   4   5
ENDBRANCH   3   4
ENDBRANCH   2   3
ENDBRANCH   1   2
BRANCH   1   8
ATOM      8  C   UNL     1      15.262  -5.038  34.775  1.00  0.00     0.000 C 
BRANCH   8   9
ATOM      9  C   UNL     1      15.247  -6.426  34.121  1.00  0.00    -0.000 C 
BRANCH   9  10
ATOM     10  C   UNL     1      16.171  -6.468  32.899  1.00  0.00    -0.000 C 
BRANCH  10  11
ATOM     11  C   UNL     1      17.262  -7.535  33.072  1.00  0.00    -0.000 C 
BRANCH  11  12
ATOM     12  C   UNL     1      18.460  -7.027  33.890  1.00  0.00    -0.003 C 
ATOM     13  C   UNL     1      19.314  -6.016  33.124  1.00  0.00     0.004 C 
ENDBRANCH  11  12
ENDBRANCH  10  11
ENDBRANCH   9  10
ENDBRANCH   8   9
ENDBRANCH   1   8
TORSDOF 9
ENDMDL
MODEL 9
REMARK VINA RESULT:    -4.580      3.173      4.853
REMARK INTER + INTRA:          -8.376
REMARK INTER:                  -7.306
REMARK INTRA:                  -1.070
REMARK UNBOUND:                -1.387
REMARK SMILES CCCCCCCCCCC(=O)[O-]
REMARK SMILES IDX 7 1 8 2 9 3 10 4 11 5 12 6 13 7 6 8 5 9 4 10 3 11 2 12 1 13
REMARK H PARENT
REMARK Flexibility Score: inf
ROOT
ATOM      1  C   UNL     1      12.130   5.775  18.460  1.00  0.00     0.000 C 
ENDROOT
BRANCH   1   2
ATOM      2  C   UNL     1      11.797   7.116  19.149  1.00  0.00     0.000 C 
BRANCH   2   3
ATOM      3  C   UNL     1      11.744   6.984  20.681  1.00  0.00     0.006 C 
BRANCH   3   4
ATOM      4  C   UNL     1      11.306   8.286  21.363  1.00  0.00     0.053 C 
BRANCH   4   5
ATOM      5  C   UNL     1      12.466   9.018  21.964  1.00  0.00     0.041 C 
ATOM      6  O   UNL     1      12.286  10.117  22.551  1.00  0.00    -0.550 OA
ATOM      7  O   UNL     1      13.740   8.468  21.909  1.00  0.00    -0.550 OA
ENDBRANCH   4   5
ENDBRANCH   3   4
ENDBRANCH   2   3
ENDBRANCH   1   2
BRANCH   1   8
ATOM      8  C   UNL     1      11.769   4.542  19.307  1.00  0.00     0.000 C 
BRANCH   8   9
ATOM      9  C   UNL     1      10.788   3.597  18.600  1.00  0.00    -0.000 C 
BRANCH   9  10
ATOM     10  C   UNL     1       9.488   3.454  19.400  1.00  0.00    -0.000 C 
BRANCH  10  11
ATOM     11  C   UNL     1       8.339   4.215  18.722  1.00  0.00    -0.000 C 
BRANCH  11  12
ATOM     12  C   UNL     1       8.044   5.562  19.398  1.00  0.00    -0.003 C 
ATOM     13  C   UNL     1       8.352   5.553  20.896  1.00  0.00     0.004 C 
ENDBRANCH  11  12
ENDBRANCH  10  11
ENDBRANCH   9  10
ENDBRANCH   8   9
ENDBRANCH   1   8
TORSDOF 9
ENDMDL
