MODEL 1
REMARK VINA RESULT:    -8.286      0.000      0.000
REMARK INTER + INTRA:         -12.148
REMARK INTER:                 -11.192
REMARK INTRA:                  -0.955
REMARK UNBOUND:                -0.955
REMARK SMILES O=c1c(-c2ccc(O)cc2)coc2c([C@@H]3O[C@H](CO)[C@@H](O)[C@@H](O)[C@@H]3O)c(O)ccc12
REMARK SMILES IDX 3 1 11 2 12 3 13 4 30 5 2 6 1 7 29 8 28 9 26 10 14 11 4 12
REMARK SMILES IDX 5 13 6 14 7 15 10 16 9 17 8 18 15 20 24 21 16 22 22 23 17 24
REMARK SMILES IDX 20 25 25 26 23 28 18 30 19 31 21 33 27 35
REMARK H PARENT 8 19 25 27 23 29 19 32 21 34 27 36
REMARK Flexibility Score: inf
ROOT
ATOM      1  C   UNL     1     -24.285   6.635  13.945  1.00  0.00     0.065 A 
ATOM      2  C   UNL     1     -23.848   7.010  15.223  1.00  0.00     0.208 A 
ATOM      3  O   UNL     1     -24.112   8.218  15.706  1.00  0.00    -0.463 OA
ATOM      4  C   UNL     1     -24.793   9.140  15.031  1.00  0.00     0.147 A 
ATOM      5  C   UNL     1     -25.262   8.849  13.728  1.00  0.00     0.066 A 
ATOM      6  C   UNL     1     -24.997   7.580  13.185  1.00  0.00     0.200 A 
ATOM      7  O   UNL     1     -25.376   7.296  12.014  1.00  0.00    -0.288 OA
ATOM      8  C   UNL     1     -25.961   9.829  13.009  1.00  0.00     0.020 A 
ATOM      9  C   UNL     1     -26.184  11.085  13.569  1.00  0.00     0.047 A 
ATOM     10  C   UNL     1     -25.724  11.386  14.857  1.00  0.00     0.125 A 
ATOM     11  C   UNL     1     -25.041  10.405  15.615  1.00  0.00     0.069 A 
ENDROOT
BRANCH   1  12
ATOM     12  C   UNL     1     -23.984   5.275  13.430  1.00  0.00    -0.011 A 
ATOM     13  C   UNL     1     -22.725   4.990  12.873  1.00  0.00     0.013 A 
ATOM     14  C   UNL     1     -22.437   3.708  12.395  1.00  0.00     0.047 A 
ATOM     15  C   UNL     1     -23.400   2.694  12.472  1.00  0.00     0.115 A 
ATOM     16  C   UNL     1     -24.944   4.251  13.510  1.00  0.00     0.013 A 
ATOM     17  C   UNL     1     -24.652   2.970  13.032  1.00  0.00     0.047 A 
BRANCH  15  18
ATOM     18  O   UNL     1     -23.125   1.413  11.999  1.00  0.00    -0.508 OA
ATOM     19  H   UNL     1     -23.518   0.591  12.440  1.00  0.00     0.293 HD
ENDBRANCH  15  18
ENDBRANCH   1  12
BRANCH  11  20
ATOM     20  C   UNL     1     -24.500  10.705  17.010  1.00  0.00     0.188 C 
ATOM     21  C   UNL     1     -23.071  11.296  16.925  1.00  0.00     0.179 C 
ATOM     22  O   UNL     1     -25.371  11.582  17.707  1.00  0.00    -0.362 OA
ATOM     23  C   UNL     1     -22.534  11.667  18.328  1.00  0.00     0.177 C 
ATOM     24  C   UNL     1     -24.980  11.709  19.064  1.00  0.00     0.176 C 
ATOM     25  C   UNL     1     -23.601  12.402  19.177  1.00  0.00     0.177 C 
BRANCH  21  26
ATOM     26  O   UNL     1     -23.022  12.409  16.064  1.00  0.00    -0.387 OA
ATOM     27  H   UNL     1     -23.850  12.409  15.518  1.00  0.00     0.211 HD
ENDBRANCH  21  26
BRANCH  23  28
ATOM     28  O   UNL     1     -22.032  10.532  18.994  1.00  0.00    -0.387 OA
ATOM     29  H   UNL     1     -22.599   9.755  18.755  1.00  0.00     0.211 HD
ENDBRANCH  23  28
BRANCH  24  30
ATOM     30  C   UNL     1     -26.065  12.501  19.806  1.00  0.00     0.191 C 
BRANCH  30  31
ATOM     31  O   UNL     1     -26.909  11.632  20.511  1.00  0.00    -0.394 OA
ATOM     32  H   UNL     1     -26.943  10.792  19.984  1.00  0.00     0.210 HD
ENDBRANCH  30  31
ENDBRANCH  24  30
BRANCH  25  33
ATOM     33  O   UNL     1     -23.198  12.448  20.522  1.00  0.00    -0.388 OA
ATOM     34  H   UNL     1     -22.343  11.948  20.582  1.00  0.00     0.211 HD
ENDBRANCH  25  33
ENDBRANCH  11  20
BRANCH  10  35
ATOM     35  O   UNL     1     -25.943  12.663  15.374  1.00  0.00    -0.507 OA
ATOM     36  H   UNL     1     -25.447  13.474  15.023  1.00  0.00     0.293 HD
ENDBRANCH  10  35
TORSDOF 9
ENDMDL
MODEL 2
REMARK VINA RESULT:    -8.216      3.447      8.172
REMARK INTER + INTRA:         -12.053
REMARK INTER:                 -11.259
REMARK INTRA:                  -0.794
REMARK UNBOUND:                -0.955
REMARK SMILES O=c1c(-c2ccc(O)cc2)coc2c([C@@H]3O[C@H](CO)[C@@H](O)[C@@H](O)[C@@H]3O)c(O)ccc12
REMARK SMILES IDX 3 1 11 2 12 3 13 4 30 5 2 6 1 7 29 8 28 9 26 10 14 11 4 12
REMARK SMILES IDX 5 13 6 14 7 15 10 16 9 17 8 18 15 20 24 21 16 22 22 23 17 24
REMARK SMILES IDX 20 25 25 26 23 28 18 30 19 31 21 33 27 35
REMARK H PARENT 8 19 25 27 23 29 19 32 21 34 27 36
REMARK Flexibility Score: inf
ROOT
ATOM      1  C   UNL     1     -23.992  11.690  11.671  1.00  0.00     0.065 A 
ATOM      2  C   UNL     1     -24.257  10.432  11.112  1.00  0.00     0.208 A 
ATOM      3  O   UNL     1     -24.395   9.360  11.883  1.00  0.00    -0.463 OA
ATOM      4  C   UNL     1     -24.296   9.397  13.209  1.00  0.00     0.147 A 
ATOM      5  C   UNL     1     -24.019  10.625  13.855  1.00  0.00     0.066 A 
ATOM      6  C   UNL     1     -23.863  11.780  13.068  1.00  0.00     0.200 A 
ATOM      7  O   UNL     1     -23.588  12.888  13.610  1.00  0.00    -0.288 OA
ATOM      8  C   UNL     1     -23.893  10.660  15.252  1.00  0.00     0.020 A 
ATOM      9  C   UNL     1     -24.030   9.491  15.997  1.00  0.00     0.047 A 
ATOM     10  C   UNL     1     -24.302   8.270  15.370  1.00  0.00     0.125 A 
ATOM     11  C   UNL     1     -24.462   8.212  13.964  1.00  0.00     0.069 A 
ENDROOT
BRANCH   1  12
ATOM     12  C   UNL     1     -23.849  12.876  10.789  1.00  0.00    -0.011 A 
ATOM     13  C   UNL     1     -22.574  13.377  10.476  1.00  0.00     0.013 A 
ATOM     14  C   UNL     1     -22.436  14.489   9.639  1.00  0.00     0.047 A 
ATOM     15  C   UNL     1     -23.570  15.110   9.101  1.00  0.00     0.115 A 
ATOM     16  C   UNL     1     -24.983  13.501  10.240  1.00  0.00     0.013 A 
ATOM     17  C   UNL     1     -24.842  14.612   9.403  1.00  0.00     0.047 A 
BRANCH  15  18
ATOM     18  O   UNL     1     -23.446  16.218   8.266  1.00  0.00    -0.508 OA
ATOM     19  H   UNL     1     -23.254  16.117   7.277  1.00  0.00     0.293 HD
ENDBRANCH  15  18
ENDBRANCH   1  12
BRANCH  11  20
ATOM     20  C   UNL     1     -24.732   6.895  13.243  1.00  0.00     0.188 C 
ATOM     21  C   UNL     1     -23.427   6.070  13.110  1.00  0.00     0.179 C 
ATOM     22  O   UNL     1     -25.736   6.152  13.914  1.00  0.00    -0.362 OA
ATOM     23  C   UNL     1     -23.697   4.702  12.439  1.00  0.00     0.177 C 
ATOM     24  C   UNL     1     -26.129   5.026  13.147  1.00  0.00     0.176 C 
ATOM     25  C   UNL     1     -24.962   4.018  13.012  1.00  0.00     0.177 C 
BRANCH  21  26
ATOM     26  O   UNL     1     -22.798   5.896  14.357  1.00  0.00    -0.387 OA
ATOM     27  H   UNL     1     -22.089   6.585  14.441  1.00  0.00     0.211 HD
ENDBRANCH  21  26
BRANCH  23  28
ATOM     28  O   UNL     1     -23.764   4.830  11.038  1.00  0.00    -0.387 OA
ATOM     29  H   UNL     1     -24.685   5.105  10.795  1.00  0.00     0.211 HD
ENDBRANCH  23  28
BRANCH  24  30
ATOM     30  C   UNL     1     -27.346   4.382  13.825  1.00  0.00     0.191 C 
BRANCH  30  31
ATOM     31  O   UNL     1     -27.427   4.781  15.166  1.00  0.00    -0.394 OA
ATOM     32  H   UNL     1     -26.652   4.362  15.625  1.00  0.00     0.210 HD
ENDBRANCH  30  31
ENDBRANCH  24  30
BRANCH  25  33
ATOM     33  O   UNL     1     -25.348   2.949  12.186  1.00  0.00    -0.388 OA
ATOM     34  H   UNL     1     -26.193   3.221  11.742  1.00  0.00     0.211 HD
ENDBRANCH  25  33
ENDBRANCH  11  20
BRANCH  10  35
ATOM     35  O   UNL     1     -24.405   7.116  16.147  1.00  0.00    -0.507 OA
ATOM     36  H   UNL     1     -24.139   6.206  15.791  1.00  0.00     0.293 HD
ENDBRANCH  10  35
TORSDOF 9
ENDMDL
MODEL 3
REMARK VINA RESULT:    -7.864      1.232      1.306
REMARK INTER + INTRA:         -11.577
REMARK INTER:                 -11.054
REMARK INTRA:                  -0.524
REMARK UNBOUND:                -0.955
REMARK SMILES O=c1c(-c2ccc(O)cc2)coc2c([C@@H]3O[C@H](CO)[C@@H](O)[C@@H](O)[C@@H]3O)c(O)ccc12
REMARK SMILES IDX 3 1 11 2 12 3 13 4 30 5 2 6 1 7 29 8 28 9 26 10 14 11 4 12
REMARK SMILES IDX 5 13 6 14 7 15 10 16 9 17 8 18 15 20 24 21 16 22 22 23 17 24
REMARK SMILES IDX 20 25 25 26 23 28 18 30 19 31 21 33 27 35
REMARK H PARENT 8 19 25 27 23 29 19 32 21 34 27 36
REMARK Flexibility Score: inf
ROOT
ATOM      1  C   UNL     1     -24.630   6.424  13.404  1.00  0.00     0.065 A 
ATOM      2  C   UNL     1     -24.225   6.936  14.645  1.00  0.00     0.208 A 
ATOM      3  O   UNL     1     -24.493   8.191  14.984  1.00  0.00    -0.463 OA
ATOM      4  C   UNL     1     -25.148   9.036  14.192  1.00  0.00     0.147 A 
ATOM      5  C   UNL     1     -25.584   8.605  12.917  1.00  0.00     0.066 A 
ATOM      6  C   UNL     1     -25.314   7.282  12.525  1.00  0.00     0.200 A 
ATOM      7  O   UNL     1     -25.664   6.871  11.383  1.00  0.00    -0.288 OA
ATOM      8  C   UNL     1     -26.256   9.502  12.074  1.00  0.00     0.020 A 
ATOM      9  C   UNL     1     -26.485  10.813  12.486  1.00  0.00     0.047 A 
ATOM     10  C   UNL     1     -26.058  11.253  13.744  1.00  0.00     0.125 A 
ATOM     11  C   UNL     1     -25.402  10.359  14.626  1.00  0.00     0.069 A 
ENDROOT
BRANCH   1  12
ATOM     12  C   UNL     1     -24.326   5.014  13.052  1.00  0.00    -0.011 A 
ATOM     13  C   UNL     1     -23.035   4.651  12.631  1.00  0.00     0.013 A 
ATOM     14  C   UNL     1     -22.744   3.322  12.305  1.00  0.00     0.047 A 
ATOM     15  C   UNL     1     -23.737   2.340  12.402  1.00  0.00     0.115 A 
ATOM     16  C   UNL     1     -25.316   4.021  13.152  1.00  0.00     0.013 A 
ATOM     17  C   UNL     1     -25.021   2.693  12.828  1.00  0.00     0.047 A 
BRANCH  15  18
ATOM     18  O   UNL     1     -23.459   1.013  12.081  1.00  0.00    -0.508 OA
ATOM     19  H   UNL     1     -23.884   0.246  12.588  1.00  0.00     0.293 HD
ENDBRANCH  15  18
ENDBRANCH   1  12
BRANCH  11  20
ATOM     20  C   UNL     1     -24.897  10.810  15.993  1.00  0.00     0.188 C 
ATOM     21  C   UNL     1     -23.349  10.785  16.037  1.00  0.00     0.179 C 
ATOM     22  O   UNL     1     -25.393  12.100  16.310  1.00  0.00    -0.362 OA
ATOM     23  C   UNL     1     -22.820  11.302  17.396  1.00  0.00     0.177 C 
ATOM     24  C   UNL     1     -25.091  12.441  17.653  1.00  0.00     0.176 C 
ATOM     25  C   UNL     1     -23.563  12.581  17.855  1.00  0.00     0.177 C 
BRANCH  21  26
ATOM     26  O   UNL     1     -22.790  11.519  14.974  1.00  0.00    -0.387 OA
ATOM     27  H   UNL     1     -22.338  12.315  15.357  1.00  0.00     0.211 HD
ENDBRANCH  21  26
BRANCH  23  28
ATOM     28  O   UNL     1     -22.870  10.292  18.376  1.00  0.00    -0.387 OA
ATOM     29  H   UNL     1     -22.891   9.414  17.918  1.00  0.00     0.211 HD
ENDBRANCH  23  28
BRANCH  24  30
ATOM     30  C   UNL     1     -25.820  13.748  17.994  1.00  0.00     0.191 C 
BRANCH  30  31
ATOM     31  O   UNL     1     -26.765  14.054  17.005  1.00  0.00    -0.394 OA
ATOM     32  H   UNL     1     -27.606  13.602  17.277  1.00  0.00     0.210 HD
ENDBRANCH  30  31
ENDBRANCH  24  30
BRANCH  25  33
ATOM     33  O   UNL     1     -23.282  12.842  19.207  1.00  0.00    -0.388 OA
ATOM     34  H   UNL     1     -23.665  12.090  19.729  1.00  0.00     0.211 HD
ENDBRANCH  25  33
ENDBRANCH  11  20
BRANCH  10  35
ATOM     35  O   UNL     1     -26.281  12.581  14.111  1.00  0.00    -0.507 OA
ATOM     36  H   UNL     1     -26.279  13.330  13.429  1.00  0.00     0.293 HD
ENDBRANCH  10  35
TORSDOF 9
ENDMDL
MODEL 4
REMARK VINA RESULT:    -7.752      1.853      7.842
REMARK INTER + INTRA:         -11.427
REMARK INTER:                 -11.221
REMARK INTRA:                  -0.205
REMARK UNBOUND:                -0.955
REMARK SMILES O=c1c(-c2ccc(O)cc2)coc2c([C@@H]3O[C@H](CO)[C@@H](O)[C@@H](O)[C@@H]3O)c(O)ccc12
REMARK SMILES IDX 3 1 11 2 12 3 13 4 30 5 2 6 1 7 29 8 28 9 26 10 14 11 4 12
REMARK SMILES IDX 5 13 6 14 7 15 10 16 9 17 8 18 15 20 24 21 16 22 22 23 17 24
REMARK SMILES IDX 20 25 25 26 23 28 18 30 19 31 21 33 27 35
REMARK H PARENT 8 19 25 27 23 29 19 32 21 34 27 36
REMARK Flexibility Score: inf
ROOT
ATOM      1  C   UNL     1     -24.515  10.373  15.999  1.00  0.00     0.065 A 
ATOM      2  C   UNL     1     -24.655   8.982  15.888  1.00  0.00     0.208 A 
ATOM      3  O   UNL     1     -24.766   8.402  14.700  1.00  0.00    -0.463 OA
ATOM      4  C   UNL     1     -24.754   9.077  13.554  1.00  0.00     0.147 A 
ATOM      5  C   UNL     1     -24.628  10.486  13.575  1.00  0.00     0.066 A 
ATOM      6  C   UNL     1     -24.511  11.134  14.817  1.00  0.00     0.200 A 
ATOM      7  O   UNL     1     -24.424  12.393  14.874  1.00  0.00    -0.288 OA
ATOM      8  C   UNL     1     -24.636  11.200  12.367  1.00  0.00     0.020 A 
ATOM      9  C   UNL     1     -24.779  10.528  11.156  1.00  0.00     0.047 A 
ATOM     10  C   UNL     1     -24.906   9.134  11.122  1.00  0.00     0.125 A 
ATOM     11  C   UNL     1     -24.872   8.387  12.324  1.00  0.00     0.069 A 
ENDROOT
BRANCH   1  12
ATOM     12  C   UNL     1     -24.383  10.999  17.340  1.00  0.00    -0.011 A 
ATOM     13  C   UNL     1     -23.252  10.743  18.134  1.00  0.00     0.013 A 
ATOM     14  C   UNL     1     -23.122  11.337  19.393  1.00  0.00     0.047 A 
ATOM     15  C   UNL     1     -24.119  12.198  19.872  1.00  0.00     0.115 A 
ATOM     16  C   UNL     1     -25.377  11.868  17.825  1.00  0.00     0.013 A 
ATOM     17  C   UNL     1     -25.243  12.461  19.084  1.00  0.00     0.047 A 
BRANCH  15  18
ATOM     18  O   UNL     1     -24.001  12.795  21.124  1.00  0.00    -0.508 OA
ATOM     19  H   UNL     1     -23.408  12.401  21.845  1.00  0.00     0.293 HD
ENDBRANCH  15  18
ENDBRANCH   1  12
BRANCH  11  20
ATOM     20  C   UNL     1     -25.036   6.870  12.330  1.00  0.00     0.188 C 
ATOM     21  C   UNL     1     -23.669   6.175  12.556  1.00  0.00     0.179 C 
ATOM     22  O   UNL     1     -25.977   6.472  13.313  1.00  0.00    -0.362 OA
ATOM     23  C   UNL     1     -23.829   4.638  12.630  1.00  0.00     0.177 C 
ATOM     24  C   UNL     1     -26.279   5.091  13.192  1.00  0.00     0.176 C 
ATOM     25  C   UNL     1     -25.036   4.225  13.509  1.00  0.00     0.177 C 
BRANCH  21  26
ATOM     26  O   UNL     1     -23.027   6.664  13.709  1.00  0.00    -0.387 OA
ATOM     27  H   UNL     1     -22.431   7.408  13.435  1.00  0.00     0.211 HD
ENDBRANCH  21  26
BRANCH  23  28
ATOM     28  O   UNL     1     -23.909   4.075  11.341  1.00  0.00    -0.387 OA
ATOM     29  H   UNL     1     -23.184   3.407  11.248  1.00  0.00     0.211 HD
ENDBRANCH  23  28
BRANCH  24  30
ATOM     30  C   UNL     1     -27.441   4.767  14.142  1.00  0.00     0.191 C 
BRANCH  30  31
ATOM     31  O   UNL     1     -28.165   3.664  13.671  1.00  0.00    -0.394 OA
ATOM     32  H   UNL     1     -28.602   3.261  14.467  1.00  0.00     0.210 HD
ENDBRANCH  30  31
ENDBRANCH  24  30
BRANCH  25  33
ATOM     33  O   UNL     1     -25.336   2.867  13.308  1.00  0.00    -0.388 OA
ATOM     34  H   UNL     1     -25.840   2.565  14.108  1.00  0.00     0.211 HD
ENDBRANCH  25  33
ENDBRANCH  11  20
BRANCH  10  35
ATOM     35  O   UNL     1     -25.074   8.498   9.892  1.00  0.00    -0.507 OA
ATOM     36  H   UNL     1     -25.222   9.020   9.036  1.00  0.00     0.293 HD
ENDBRANCH  10  35
TORSDOF 9
ENDMDL
MODEL 5
REMARK VINA RESULT:    -7.672      1.795      8.389
REMARK INTER + INTRA:         -11.319
REMARK INTER:                 -10.325
REMARK INTRA:                  -0.994
REMARK UNBOUND:                -0.955
REMARK SMILES O=c1c(-c2ccc(O)cc2)coc2c([C@@H]3O[C@H](CO)[C@@H](O)[C@@H](O)[C@@H]3O)c(O)ccc12
REMARK SMILES IDX 3 1 11 2 12 3 13 4 30 5 2 6 1 7 29 8 28 9 26 10 14 11 4 12
REMARK SMILES IDX 5 13 6 14 7 15 10 16 9 17 8 18 15 20 24 21 16 22 22 23 17 24
REMARK SMILES IDX 20 25 25 26 23 28 18 30 19 31 21 33 27 35
REMARK H PARENT 8 19 25 27 23 29 19 32 21 34 27 36
REMARK Flexibility Score: inf
ROOT
ATOM      1  C   UNL     1     -24.360  11.052  16.540  1.00  0.00     0.065 A 
ATOM      2  C   UNL     1     -24.614   9.681  16.687  1.00  0.00     0.208 A 
ATOM      3  O   UNL     1     -24.679   8.884  15.628  1.00  0.00    -0.463 OA
ATOM      4  C   UNL     1     -24.514   9.314  14.380  1.00  0.00     0.147 A 
ATOM      5  C   UNL     1     -24.266  10.686  14.140  1.00  0.00     0.066 A 
ATOM      6  C   UNL     1     -24.193  11.559  15.240  1.00  0.00     0.200 A 
ATOM      7  O   UNL     1     -24.000  12.795  15.060  1.00  0.00    -0.288 OA
ATOM      8  C   UNL     1     -24.113  11.142  12.823  1.00  0.00     0.020 A 
ATOM      9  C   UNL     1     -24.216  10.252  11.756  1.00  0.00     0.047 A 
ATOM     10  C   UNL     1     -24.463   8.892  11.979  1.00  0.00     0.125 A 
ATOM     11  C   UNL     1     -24.593   8.401  13.301  1.00  0.00     0.069 A 
ENDROOT
BRANCH   1  12
ATOM     12  C   UNL     1     -24.283  11.923  17.741  1.00  0.00    -0.011 A 
ATOM     13  C   UNL     1     -23.048  12.152  18.373  1.00  0.00     0.013 A 
ATOM     14  C   UNL     1     -22.972  12.977  19.499  1.00  0.00     0.047 A 
ATOM     15  C   UNL     1     -24.127  13.588  20.004  1.00  0.00     0.115 A 
ATOM     16  C   UNL     1     -25.437  12.544  18.250  1.00  0.00     0.013 A 
ATOM     17  C   UNL     1     -25.357  13.370  19.376  1.00  0.00     0.047 A 
BRANCH  15  18
ATOM     18  O   UNL     1     -24.063  14.412  21.125  1.00  0.00    -0.508 OA
ATOM     19  H   UNL     1     -24.892  14.643  21.660  1.00  0.00     0.293 HD
ENDBRANCH  15  18
ENDBRANCH   1  12
BRANCH  11  20
ATOM     20  C   UNL     1     -24.891   6.931  13.583  1.00  0.00     0.188 C 
ATOM     21  C   UNL     1     -26.388   6.621  13.333  1.00  0.00     0.179 C 
ATOM     22  O   UNL     1     -24.060   6.092  12.797  1.00  0.00    -0.362 OA
ATOM     23  C   UNL     1     -26.692   5.120  13.550  1.00  0.00     0.177 C 
ATOM     24  C   UNL     1     -24.192   4.737  13.193  1.00  0.00     0.176 C 
ATOM     25  C   UNL     1     -25.619   4.214  12.898  1.00  0.00     0.177 C 
BRANCH  21  26
ATOM     26  O   UNL     1     -26.791   7.029  12.047  1.00  0.00    -0.387 OA
ATOM     27  H   UNL     1     -27.557   6.461  11.773  1.00  0.00     0.211 HD
ENDBRANCH  21  26
BRANCH  23  28
ATOM     28  O   UNL     1     -26.855   4.830  14.919  1.00  0.00    -0.387 OA
ATOM     29  H   UNL     1     -26.794   3.849  15.039  1.00  0.00     0.211 HD
ENDBRANCH  23  28
BRANCH  24  30
ATOM     30  C   UNL     1     -23.131   3.912  12.451  1.00  0.00     0.191 C 
BRANCH  30  31
ATOM     31  O   UNL     1     -23.010   2.640  13.026  1.00  0.00    -0.394 OA
ATOM     32  H   UNL     1     -22.109   2.610  13.443  1.00  0.00     0.210 HD
ENDBRANCH  30  31
ENDBRANCH  24  30
BRANCH  25  33
ATOM     33  O   UNL     1     -25.750   2.896  13.369  1.00  0.00    -0.388 OA
ATOM     34  H   UNL     1     -26.681   2.614  13.172  1.00  0.00     0.211 HD
ENDBRANCH  25  33
ENDBRANCH  11  20
BRANCH  10  35
ATOM     35  O   UNL     1     -24.587   8.036  10.885  1.00  0.00    -0.507 OA
ATOM     36  H   UNL     1     -24.929   8.361   9.988  1.00  0.00     0.293 HD
ENDBRANCH  10  35
TORSDOF 9
ENDMDL
MODEL 6
REMARK VINA RESULT:    -7.567      3.084      8.114
REMARK INTER + INTRA:         -11.177
REMARK INTER:                 -11.118
REMARK INTRA:                  -0.059
REMARK UNBOUND:                -0.955
REMARK SMILES O=c1c(-c2ccc(O)cc2)coc2c([C@@H]3O[C@H](CO)[C@@H](O)[C@@H](O)[C@@H]3O)c(O)ccc12
REMARK SMILES IDX 3 1 11 2 12 3 13 4 30 5 2 6 1 7 29 8 28 9 26 10 14 11 4 12
REMARK SMILES IDX 5 13 6 14 7 15 10 16 9 17 8 18 15 20 24 21 16 22 22 23 17 24
REMARK SMILES IDX 20 25 25 26 23 28 18 30 19 31 21 33 27 35
REMARK H PARENT 8 19 25 27 23 29 19 32 21 34 27 36
REMARK Flexibility Score: inf
ROOT
ATOM      1  C   UNL     1     -23.768  10.956  12.620  1.00  0.00     0.065 A 
ATOM      2  C   UNL     1     -23.718   9.657  12.092  1.00  0.00     0.208 A 
ATOM      3  O   UNL     1     -23.985   8.603  12.852  1.00  0.00    -0.463 OA
ATOM      4  C   UNL     1     -24.311   8.694  14.139  1.00  0.00     0.147 A 
ATOM      5  C   UNL     1     -24.374   9.966  14.755  1.00  0.00     0.066 A 
ATOM      6  C   UNL     1     -24.094  11.105  13.979  1.00  0.00     0.200 A 
ATOM      7  O   UNL     1     -24.114  12.254  14.504  1.00  0.00    -0.288 OA
ATOM      8  C   UNL     1     -24.697  10.061  16.116  1.00  0.00     0.020 A 
ATOM      9  C   UNL     1     -24.944   8.910  16.860  1.00  0.00     0.047 A 
ATOM     10  C   UNL     1     -24.883   7.645  16.263  1.00  0.00     0.125 A 
ATOM     11  C   UNL     1     -24.588   7.523  14.883  1.00  0.00     0.069 A 
ENDROOT
BRANCH   1  12
ATOM     12  C   UNL     1     -23.474  12.121  11.747  1.00  0.00    -0.011 A 
ATOM     13  C   UNL     1     -22.425  12.999  12.067  1.00  0.00     0.013 A 
ATOM     14  C   UNL     1     -22.140  14.093  11.243  1.00  0.00     0.047 A 
ATOM     15  C   UNL     1     -22.898  14.318  10.086  1.00  0.00     0.115 A 
ATOM     16  C   UNL     1     -24.226  12.350  10.581  1.00  0.00     0.013 A 
ATOM     17  C   UNL     1     -23.938  13.444   9.759  1.00  0.00     0.047 A 
BRANCH  15  18
ATOM     18  O   UNL     1     -22.624  15.404   9.258  1.00  0.00    -0.508 OA
ATOM     19  H   UNL     1     -22.687  16.356   9.596  1.00  0.00     0.293 HD
ENDBRANCH  15  18
ENDBRANCH   1  12
BRANCH  11  20
ATOM     20  C   UNL     1     -24.485   6.161  14.204  1.00  0.00     0.188 C 
ATOM     21  C   UNL     1     -25.772   5.856  13.398  1.00  0.00     0.179 C 
ATOM     22  O   UNL     1     -23.338   6.103  13.370  1.00  0.00    -0.362 OA
ATOM     23  C   UNL     1     -25.656   4.507  12.649  1.00  0.00     0.177 C 
ATOM     24  C   UNL     1     -23.129   4.784  12.892  1.00  0.00     0.176 C 
ATOM     25  C   UNL     1     -24.281   4.349  11.954  1.00  0.00     0.177 C 
BRANCH  21  26
ATOM     26  O   UNL     1     -26.079   6.897  12.502  1.00  0.00    -0.387 OA
ATOM     27  H   UNL     1     -25.644   7.724  12.833  1.00  0.00     0.211 HD
ENDBRANCH  21  26
BRANCH  23  28
ATOM     28  O   UNL     1     -25.930   3.425  13.509  1.00  0.00    -0.387 OA
ATOM     29  H   UNL     1     -25.546   3.630  14.398  1.00  0.00     0.211 HD
ENDBRANCH  23  28
BRANCH  24  30
ATOM     30  C   UNL     1     -21.776   4.744  12.168  1.00  0.00     0.191 C 
BRANCH  30  31
ATOM     31  O   UNL     1     -21.081   5.945  12.363  1.00  0.00    -0.394 OA
ATOM     32  H   UNL     1     -21.767   6.662  12.372  1.00  0.00     0.210 HD
ENDBRANCH  30  31
ENDBRANCH  24  30
BRANCH  25  33
ATOM     33  O   UNL     1     -24.093   3.015  11.554  1.00  0.00    -0.388 OA
ATOM     34  H   UNL     1     -23.150   2.786  11.759  1.00  0.00     0.211 HD
ENDBRANCH  25  33
ENDBRANCH  11  20
BRANCH  10  35
ATOM     35  O   UNL     1     -25.110   6.513  17.046  1.00  0.00    -0.507 OA
ATOM     36  H   UNL     1     -25.466   6.580  17.992  1.00  0.00     0.293 HD
ENDBRANCH  10  35
TORSDOF 9
ENDMDL
MODEL 7
REMARK VINA RESULT:    -7.517      2.176      4.633
REMARK INTER + INTRA:         -11.109
REMARK INTER:                  -9.933
REMARK INTRA:                  -1.177
REMARK UNBOUND:                -0.955
REMARK SMILES O=c1c(-c2ccc(O)cc2)coc2c([C@@H]3O[C@H](CO)[C@@H](O)[C@@H](O)[C@@H]3O)c(O)ccc12
REMARK SMILES IDX 3 1 11 2 12 3 13 4 30 5 2 6 1 7 29 8 28 9 26 10 14 11 4 12
REMARK SMILES IDX 5 13 6 14 7 15 10 16 9 17 8 18 15 20 24 21 16 22 22 23 17 24
REMARK SMILES IDX 20 25 25 26 23 28 18 30 19 31 21 33 27 35
REMARK H PARENT 8 19 25 27 23 29 19 32 21 34 27 36
REMARK Flexibility Score: inf
ROOT
ATOM      1  C   UNL     1     -24.423   6.676  13.676  1.00  0.00     0.065 A 
ATOM      2  C   UNL     1     -24.671   7.681  12.730  1.00  0.00     0.208 A 
ATOM      3  O   UNL     1     -24.768   8.953  13.097  1.00  0.00    -0.463 OA
ATOM      4  C   UNL     1     -24.642   9.360  14.358  1.00  0.00     0.147 A 
ATOM      5  C   UNL     1     -24.402   8.410  15.379  1.00  0.00     0.066 A 
ATOM      6  C   UNL     1     -24.296   7.053  15.025  1.00  0.00     0.200 A 
ATOM      7  O   UNL     1     -24.110   6.175  15.914  1.00  0.00    -0.288 OA
ATOM      8  C   UNL     1     -24.291   8.837  16.710  1.00  0.00     0.020 A 
ATOM      9  C   UNL     1     -24.425  10.186  17.027  1.00  0.00     0.047 A 
ATOM     10  C   UNL     1     -24.665  11.136  16.027  1.00  0.00     0.125 A 
ATOM     11  C   UNL     1     -24.753  10.735  14.671  1.00  0.00     0.069 A 
ENDROOT
BRANCH   1  12
ATOM     12  C   UNL     1     -24.310   5.261  13.239  1.00  0.00    -0.011 A 
ATOM     13  C   UNL     1     -23.061   4.731  12.870  1.00  0.00     0.013 A 
ATOM     14  C   UNL     1     -22.950   3.397  12.466  1.00  0.00     0.047 A 
ATOM     15  C   UNL     1     -24.084   2.575  12.432  1.00  0.00     0.115 A 
ATOM     16  C   UNL     1     -25.442   4.429  13.207  1.00  0.00     0.013 A 
ATOM     17  C   UNL     1     -25.328   3.095  12.804  1.00  0.00     0.047 A 
BRANCH  15  18
ATOM     18  O   UNL     1     -23.987   1.244  12.031  1.00  0.00    -0.508 OA
ATOM     19  H   UNL     1     -24.237   0.955  11.093  1.00  0.00     0.293 HD
ENDBRANCH  15  18
ENDBRANCH   1  12
BRANCH  11  20
ATOM     20  C   UNL     1     -25.041  11.737  13.557  1.00  0.00     0.188 C 
ATOM     21  C   UNL     1     -26.563  11.996  13.438  1.00  0.00     0.179 C 
ATOM     22  O   UNL     1     -24.335  12.947  13.778  1.00  0.00    -0.362 OA
ATOM     23  C   UNL     1     -26.866  13.061  12.356  1.00  0.00     0.177 C 
ATOM     24  C   UNL     1     -24.441  13.806  12.654  1.00  0.00     0.176 C 
ATOM     25  C   UNL     1     -25.904  14.270  12.452  1.00  0.00     0.177 C 
BRANCH  21  26
ATOM     26  O   UNL     1     -27.121  12.372  14.675  1.00  0.00    -0.387 OA
ATOM     27  H   UNL     1     -28.046  12.016  14.714  1.00  0.00     0.211 HD
ENDBRANCH  21  26
BRANCH  23  28
ATOM     28  O   UNL     1     -26.856  12.490  11.069  1.00  0.00    -0.387 OA
ATOM     29  H   UNL     1     -26.511  13.165  10.432  1.00  0.00     0.211 HD
ENDBRANCH  23  28
BRANCH  24  30
ATOM     30  C   UNL     1     -23.502  15.000  12.869  1.00  0.00     0.191 C 
BRANCH  30  31
ATOM     31  O   UNL     1     -24.213  16.098  13.373  1.00  0.00    -0.394 OA
ATOM     32  H   UNL     1     -24.952  15.720  13.919  1.00  0.00     0.210 HD
ENDBRANCH  30  31
ENDBRANCH  24  30
BRANCH  25  33
ATOM     33  O   UNL     1     -26.000  15.055  11.291  1.00  0.00    -0.388 OA
ATOM     34  H   UNL     1     -26.951  15.327  11.206  1.00  0.00     0.211 HD
ENDBRANCH  25  33
ENDBRANCH  11  20
BRANCH  10  35
ATOM     35  O   UNL     1     -24.821  12.475  16.386  1.00  0.00    -0.507 OA
ATOM     36  H   UNL     1     -24.206  12.924  17.054  1.00  0.00     0.293 HD
ENDBRANCH  10  35
TORSDOF 9
ENDMDL
MODEL 8
REMARK VINA RESULT:    -7.370      4.577      8.569
REMARK INTER + INTRA:         -10.910
REMARK INTER:                 -10.444
REMARK INTRA:                  -0.466
REMARK UNBOUND:                -0.955
REMARK SMILES O=c1c(-c2ccc(O)cc2)coc2c([C@@H]3O[C@H](CO)[C@@H](O)[C@@H](O)[C@@H]3O)c(O)ccc12
REMARK SMILES IDX 3 1 11 2 12 3 13 4 30 5 2 6 1 7 29 8 28 9 26 10 14 11 4 12
REMARK SMILES IDX 5 13 6 14 7 15 10 16 9 17 8 18 15 20 24 21 16 22 22 23 17 24
REMARK SMILES IDX 20 25 25 26 23 28 18 30 19 31 21 33 27 35
REMARK H PARENT 8 19 25 27 23 29 19 32 21 34 27 36
REMARK Flexibility Score: inf
ROOT
ATOM      1  C   UNL     1     -25.161  11.074  11.391  1.00  0.00     0.065 A 
ATOM      2  C   UNL     1     -24.161  10.092  11.368  1.00  0.00     0.208 A 
ATOM      3  O   UNL     1     -24.460   8.811  11.551  1.00  0.00    -0.463 OA
ATOM      4  C   UNL     1     -25.698   8.375  11.767  1.00  0.00     0.147 A 
ATOM      5  C   UNL     1     -26.767   9.300  11.818  1.00  0.00     0.066 A 
ATOM      6  C   UNL     1     -26.485  10.665  11.630  1.00  0.00     0.200 A 
ATOM      7  O   UNL     1     -27.412  11.522  11.697  1.00  0.00    -0.288 OA
ATOM      8  C   UNL     1     -28.069   8.842  12.066  1.00  0.00     0.020 A 
ATOM      9  C   UNL     1     -28.307   7.485  12.272  1.00  0.00     0.047 A 
ATOM     10  C   UNL     1     -27.258   6.559  12.226  1.00  0.00     0.125 A 
ATOM     11  C   UNL     1     -25.939   6.992  11.948  1.00  0.00     0.069 A 
ENDROOT
BRANCH   1  12
ATOM     12  C   UNL     1     -24.804  12.499  11.175  1.00  0.00    -0.011 A 
ATOM     13  C   UNL     1     -24.581  12.984   9.874  1.00  0.00     0.013 A 
ATOM     14  C   UNL     1     -24.252  14.327   9.667  1.00  0.00     0.047 A 
ATOM     15  C   UNL     1     -24.147  15.203  10.755  1.00  0.00     0.115 A 
ATOM     16  C   UNL     1     -24.702  13.385  12.262  1.00  0.00     0.013 A 
ATOM     17  C   UNL     1     -24.374  14.727  12.051  1.00  0.00     0.047 A 
BRANCH  15  18
ATOM     18  O   UNL     1     -23.819  16.543  10.562  1.00  0.00    -0.508 OA
ATOM     19  H   UNL     1     -22.907  16.906  10.812  1.00  0.00     0.293 HD
ENDBRANCH  15  18
ENDBRANCH   1  12
BRANCH  11  20
ATOM     20  C   UNL     1     -24.766   6.017  11.918  1.00  0.00     0.188 C 
ATOM     21  C   UNL     1     -23.735   6.369  13.020  1.00  0.00     0.179 C 
ATOM     22  O   UNL     1     -25.222   4.681  12.058  1.00  0.00    -0.362 OA
ATOM     23  C   UNL     1     -22.572   5.349  13.045  1.00  0.00     0.177 C 
ATOM     24  C   UNL     1     -24.165   3.761  11.835  1.00  0.00     0.176 C 
ATOM     25  C   UNL     1     -23.082   3.891  12.933  1.00  0.00     0.177 C 
BRANCH  21  26
ATOM     26  O   UNL     1     -24.344   6.459  14.286  1.00  0.00    -0.387 OA
ATOM     27  H   UNL     1     -23.797   7.068  14.846  1.00  0.00     0.211 HD
ENDBRANCH  21  26
BRANCH  23  28
ATOM     28  O   UNL     1     -21.619   5.645  12.051  1.00  0.00    -0.387 OA
ATOM     29  H   UNL     1     -20.718   5.472  12.423  1.00  0.00     0.211 HD
ENDBRANCH  23  28
BRANCH  24  30
ATOM     30  C   UNL     1     -24.758   2.346  11.801  1.00  0.00     0.191 C 
BRANCH  30  31
ATOM     31  O   UNL     1     -24.656   1.743  13.062  1.00  0.00    -0.394 OA
ATOM     32  H   UNL     1     -24.564   0.768  12.895  1.00  0.00     0.210 HD
ENDBRANCH  30  31
ENDBRANCH  24  30
BRANCH  25  33
ATOM     33  O   UNL     1     -22.010   3.027  12.650  1.00  0.00    -0.388 OA
ATOM     34  H   UNL     1     -21.815   3.120  11.681  1.00  0.00     0.211 HD
ENDBRANCH  25  33
ENDBRANCH  11  20
BRANCH  10  35
ATOM     35  O   UNL     1     -27.531   5.212  12.464  1.00  0.00    -0.507 OA
ATOM     36  H   UNL     1     -27.215   4.483  11.834  1.00  0.00     0.293 HD
ENDBRANCH  10  35
TORSDOF 9
ENDMDL
MODEL 9
REMARK VINA RESULT:    -7.336      2.973      8.360
REMARK INTER + INTRA:         -10.865
REMARK INTER:                 -10.337
REMARK INTRA:                  -0.528
REMARK UNBOUND:                -0.955
REMARK SMILES O=c1c(-c2ccc(O)cc2)coc2c([C@@H]3O[C@H](CO)[C@@H](O)[C@@H](O)[C@@H]3O)c(O)ccc12
REMARK SMILES IDX 3 1 11 2 12 3 13 4 30 5 2 6 1 7 29 8 28 9 26 10 14 11 4 12
REMARK SMILES IDX 5 13 6 14 7 15 10 16 9 17 8 18 15 20 24 21 16 22 22 23 17 24
REMARK SMILES IDX 20 25 25 26 23 28 18 30 19 31 21 33 27 35
REMARK H PARENT 8 19 25 27 23 29 19 32 21 34 27 36
REMARK Flexibility Score: inf
ROOT
ATOM      1  C   UNL     1     -25.637  12.028  12.249  1.00  0.00     0.065 A 
ATOM      2  C   UNL     1     -25.749  10.787  11.606  1.00  0.00     0.208 A 
ATOM      3  O   UNL     1     -25.568   9.655  12.275  1.00  0.00    -0.463 OA
ATOM      4  C   UNL     1     -25.274   9.613  13.572  1.00  0.00     0.147 A 
ATOM      5  C   UNL     1     -25.130  10.821  14.296  1.00  0.00     0.066 A 
ATOM      6  C   UNL     1     -25.313  12.039  13.617  1.00  0.00     0.200 A 
ATOM      7  O   UNL     1     -25.165  13.136  14.226  1.00  0.00    -0.288 OA
ATOM      8  C   UNL     1     -24.799  10.777  15.658  1.00  0.00     0.020 A 
ATOM      9  C   UNL     1     -24.602   9.553  16.292  1.00  0.00     0.047 A 
ATOM     10  C   UNL     1     -24.739   8.351  15.587  1.00  0.00     0.125 A 
ATOM     11  C   UNL     1     -25.101   8.366  14.218  1.00  0.00     0.069 A 
ENDROOT
BRANCH   1  12
ATOM     12  C   UNL     1     -25.852  13.281  11.481  1.00  0.00    -0.011 A 
ATOM     13  C   UNL     1     -27.130  13.864  11.418  1.00  0.00     0.013 A 
ATOM     14  C   UNL     1     -27.334  15.047  10.702  1.00  0.00     0.047 A 
ATOM     15  C   UNL     1     -26.262  15.666  10.045  1.00  0.00     0.115 A 
ATOM     16  C   UNL     1     -24.781  13.911  10.823  1.00  0.00     0.013 A 
ATOM     17  C   UNL     1     -24.988  15.095  10.109  1.00  0.00     0.047 A 
BRANCH  15  18
ATOM     18  O   UNL     1     -26.453  16.845   9.328  1.00  0.00    -0.508 OA
ATOM     19  H   UNL     1     -25.993  17.707   9.595  1.00  0.00     0.293 HD
ENDBRANCH  15  18
ENDBRANCH   1  12
BRANCH  11  20
ATOM     20  C   UNL     1     -25.232   7.079  13.410  1.00  0.00     0.188 C 
ATOM     21  C   UNL     1     -23.836   6.471  13.124  1.00  0.00     0.179 C 
ATOM     22  O   UNL     1     -26.063   6.148  14.083  1.00  0.00    -0.362 OA
ATOM     23  C   UNL     1     -23.956   5.129  12.363  1.00  0.00     0.177 C 
ATOM     24  C   UNL     1     -26.347   5.033  13.253  1.00  0.00     0.176 C 
ATOM     25  C   UNL     1     -25.061   4.224  12.960  1.00  0.00     0.177 C 
BRANCH  21  26
ATOM     26  O   UNL     1     -23.093   6.305  14.309  1.00  0.00    -0.387 OA
ATOM     27  H   UNL     1     -22.498   5.521  14.189  1.00  0.00     0.211 HD
ENDBRANCH  21  26
BRANCH  23  28
ATOM     28  O   UNL     1     -24.150   5.346  10.984  1.00  0.00    -0.387 OA
ATOM     29  H   UNL     1     -24.961   4.852  10.703  1.00  0.00     0.211 HD
ENDBRANCH  23  28
BRANCH  24  30
ATOM     30  C   UNL     1     -27.403   4.167  13.955  1.00  0.00     0.191 C 
BRANCH  30  31
ATOM     31  O   UNL     1     -27.756   4.730  15.189  1.00  0.00    -0.394 OA
ATOM     32  H   UNL     1     -28.239   4.020  15.688  1.00  0.00     0.210 HD
ENDBRANCH  30  31
ENDBRANCH  24  30
BRANCH  25  33
ATOM     33  O   UNL     1     -25.351   3.171  12.075  1.00  0.00    -0.388 OA
ATOM     34  H   UNL     1     -26.308   3.262  11.827  1.00  0.00     0.211 HD
ENDBRANCH  25  33
ENDBRANCH  11  20
BRANCH  10  35
ATOM     35  O   UNL     1     -24.507   7.145  16.250  1.00  0.00    -0.507 OA
ATOM     36  H   UNL     1     -23.573   6.769  16.363  1.00  0.00     0.293 HD
ENDBRANCH  10  35
TORSDOF 9
ENDMDL
