MODEL 1
REMARK VINA RESULT:    -4.860      0.000      0.000
REMARK INTER + INTRA:          -6.018
REMARK INTER:                  -6.849
REMARK INTRA:                   0.831
REMARK UNBOUND:                 0.831
REMARK SMILES CC1=CCC(=C(C)C)C(=O)CC(C)=CCC1
REMARK SMILES IDX 12 1 14 2 13 3 15 4 16 5 2 6 1 7 3 8 11 10 9 11 10 12 5 13
REMARK SMILES IDX 6 14 7 15 8 16 4 17
REMARK H PARENT
REMARK Flexibility Score: 60.00
ROOT
ATOM      1  C   UNL     1      -2.471 -23.132  -9.409  1.00  0.00    -0.070 C 
ATOM      2  C   UNL     1      -1.187 -23.450  -9.117  1.00  0.00    -0.027 C 
ATOM      3  C   UNL     1      -3.002 -21.824  -8.875  1.00  0.00     0.039 C 
ENDROOT
BRANCH   2   4
ATOM      4  C   UNL     1      -0.423 -24.646  -9.632  1.00  0.00     0.032 C 
BRANCH   4   5
ATOM      5  C   UNL     1       0.622 -24.267 -10.700  1.00  0.00     0.034 C 
BRANCH   5   6
ATOM      6  C   UNL     1       0.112 -24.504 -12.108  1.00  0.00    -0.077 C 
ATOM      7  C   UNL     1       0.507 -25.779 -12.808  1.00  0.00     0.039 C 
ATOM      8  C   UNL     1      -0.659 -23.622 -12.785  1.00  0.00    -0.023 CG0
ATOM      9  G   UNL     1      -1.127 -22.283 -12.270  1.00  0.00     0.000 G0
ENDBRANCH   5   6
ENDBRANCH   4   5
ENDBRANCH   2   4
BRANCH   1  10
ATOM     10  C   UNL     1      -3.372 -23.982 -10.290  1.00  0.00     0.111 C 
BRANCH  10  11
ATOM     11  C   UNL     1      -3.314 -23.539 -11.732  1.00  0.00     0.163 C 
ATOM     12  O   UNL     1      -3.806 -24.301 -12.606  1.00  0.00    -0.294 OA
BRANCH  11  13
ATOM     13  C   UNL     1      -2.652 -22.261 -12.142  1.00  0.00    -0.002 C 
ATOM     14  C   UNL     1      -3.363 -21.109 -12.325  1.00  0.00    -0.069 C 
ATOM     15  C   UNL     1      -2.691 -19.830 -12.778  1.00  0.00     0.039 C 
ATOM     16  C   UNL     1      -4.849 -21.043 -12.052  1.00  0.00     0.039 C 
BRANCH  13  17
ATOM     17  C   UNL     1      -1.139 -22.280 -12.275  1.00  0.00     0.066 CG0
ATOM     18  G   UNL     1      -0.686 -23.631 -12.773  1.00  0.00     0.000 G0
ENDBRANCH  13  17
ENDBRANCH  11  13
ENDBRANCH  10  11
ENDBRANCH   1  10
TORSDOF 0
ENDMDL
MODEL 2
REMARK VINA RESULT:    -4.073      1.543      4.200
REMARK INTER + INTRA:          -4.909
REMARK INTER:                  -5.809
REMARK INTRA:                   0.900
REMARK UNBOUND:                 0.831
REMARK SMILES CC1=CCC(=C(C)C)C(=O)CC(C)=CCC1
REMARK SMILES IDX 12 1 14 2 13 3 15 4 16 5 2 6 1 7 3 8 11 10 9 11 10 12 5 13
REMARK SMILES IDX 6 14 7 15 8 16 4 17
REMARK H PARENT
REMARK Flexibility Score: 60.00
ROOT
ATOM      1  C   UNL     1      -3.116 -22.964  -9.893  1.00  0.00    -0.070 C 
ATOM      2  C   UNL     1      -3.943 -22.887 -10.963  1.00  0.00    -0.027 C 
ATOM      3  C   UNL     1      -3.323 -21.965  -8.781  1.00  0.00     0.039 C 
ENDROOT
BRANCH   2   4
ATOM      4  C   UNL     1      -3.985 -23.843 -12.131  1.00  0.00     0.032 C 
BRANCH   4   5
ATOM      5  C   UNL     1      -3.462 -23.208 -13.434  1.00  0.00     0.034 C 
BRANCH   5   6
ATOM      6  C   UNL     1      -2.327 -22.234 -13.181  1.00  0.00    -0.077 C 
ATOM      7  C   UNL     1      -2.625 -20.758 -13.239  1.00  0.00     0.039 C 
ATOM      8  C   UNL     1      -1.054 -22.615 -12.929  1.00  0.00    -0.023 CG0
ATOM      9  G   UNL     1      -0.554 -24.037 -12.865  1.00  0.00     0.000 G0
ENDBRANCH   5   6
ENDBRANCH   4   5
ENDBRANCH   2   4
BRANCH   1  10
ATOM     10  C   UNL     1      -2.047 -24.032  -9.728  1.00  0.00     0.111 C 
BRANCH  10  11
ATOM     11  C   UNL     1      -0.733 -23.599 -10.332  1.00  0.00     0.163 C 
ATOM     12  O   UNL     1      -0.202 -22.540  -9.901  1.00  0.00    -0.294 OA
BRANCH  11  13
ATOM     13  C   UNL     1      -0.086 -24.359 -11.447  1.00  0.00    -0.002 C 
ATOM     14  C   UNL     1       0.833 -25.342 -11.209  1.00  0.00    -0.069 C 
ATOM     15  C   UNL     1       1.511 -26.079 -12.344  1.00  0.00     0.039 C 
ATOM     16  C   UNL     1       1.192 -25.768  -9.803  1.00  0.00     0.039 C 
BRANCH  13  17
ATOM     17  C   UNL     1      -0.550 -24.042 -12.858  1.00  0.00     0.066 CG0
ATOM     18  G   UNL     1      -1.039 -22.616 -12.928  1.00  0.00     0.000 G0
ENDBRANCH  13  17
ENDBRANCH  11  13
ENDBRANCH  10  11
ENDBRANCH   1  10
TORSDOF 0
ENDMDL
MODEL 3
REMARK VINA RESULT:    -3.743      4.415      7.208
REMARK INTER + INTRA:          -4.444
REMARK INTER:                  -5.219
REMARK INTRA:                   0.776
REMARK UNBOUND:                 0.831
REMARK SMILES CC1=CCC(=C(C)C)C(=O)CC(C)=CCC1
REMARK SMILES IDX 12 1 14 2 13 3 15 4 16 5 2 6 1 7 3 8 11 10 9 11 10 12 5 13
REMARK SMILES IDX 6 14 7 15 8 16 4 17
REMARK H PARENT
REMARK Flexibility Score: 60.00
ROOT
ATOM      1  C   UNL     1       1.218 -24.780 -11.174  1.00  0.00    -0.070 C 
ATOM      2  C   UNL     1       0.606 -25.024 -12.358  1.00  0.00    -0.027 C 
ATOM      3  C   UNL     1       0.421 -24.059 -10.116  1.00  0.00     0.039 C 
ENDROOT
BRANCH   2   4
ATOM      4  C   UNL     1       1.173 -25.818 -13.510  1.00  0.00     0.032 C 
BRANCH   4   5
ATOM      5  C   UNL     1       0.980 -27.338 -13.335  1.00  0.00     0.034 C 
BRANCH   5   6
ATOM      6  C   UNL     1       2.132 -28.132 -13.919  1.00  0.00    -0.077 C 
ATOM      7  C   UNL     1       2.276 -28.186 -15.418  1.00  0.00     0.039 C 
ATOM      8  C   UNL     1       3.026 -28.817 -13.171  1.00  0.00    -0.023 CG0
ATOM      9  G   UNL     1       3.028 -28.912 -11.664  1.00  0.00     0.000 G0
ENDBRANCH   5   6
ENDBRANCH   4   5
ENDBRANCH   2   4
BRANCH   1  10
ATOM     10  C   UNL     1       2.625 -25.248 -10.839  1.00  0.00     0.111 C 
BRANCH  10  11
ATOM     11  C   UNL     1       2.646 -26.705 -10.447  1.00  0.00     0.163 C 
ATOM     12  O   UNL     1       1.845 -27.089  -9.553  1.00  0.00    -0.294 OA
BRANCH  11  13
ATOM     13  C   UNL     1       3.615 -27.673 -11.048  1.00  0.00    -0.002 C 
ATOM     14  C   UNL     1       4.965 -27.470 -10.992  1.00  0.00    -0.069 C 
ATOM     15  C   UNL     1       5.936 -28.435 -11.637  1.00  0.00     0.039 C 
ATOM     16  C   UNL     1       5.558 -26.291 -10.254  1.00  0.00     0.039 C 
BRANCH  13  17
ATOM     17  C   UNL     1       3.036 -28.936 -11.663  1.00  0.00     0.066 CG0
ATOM     18  G   UNL     1       3.029 -28.816 -13.167  1.00  0.00     0.000 G0
ENDBRANCH  13  17
ENDBRANCH  11  13
ENDBRANCH  10  11
ENDBRANCH   1  10
TORSDOF 0
ENDMDL
MODEL 4
REMARK VINA RESULT:    -3.721      3.431      5.975
REMARK INTER + INTRA:          -4.413
REMARK INTER:                  -5.269
REMARK INTRA:                   0.857
REMARK UNBOUND:                 0.831
REMARK SMILES CC1=CCC(=C(C)C)C(=O)CC(C)=CCC1
REMARK SMILES IDX 12 1 14 2 13 3 15 4 16 5 2 6 1 7 3 8 11 10 9 11 10 12 5 13
REMARK SMILES IDX 6 14 7 15 8 16 4 17
REMARK H PARENT
REMARK Flexibility Score: 60.00
ROOT
ATOM      1  C   UNL     1       1.575 -27.215 -13.925  1.00  0.00    -0.070 C 
ATOM      2  C   UNL     1       1.949 -28.412 -13.413  1.00  0.00    -0.027 C 
ATOM      3  C   UNL     1       2.105 -26.847 -15.289  1.00  0.00     0.039 C 
ENDROOT
BRANCH   2   4
ATOM      4  C   UNL     1       1.459 -29.024 -12.123  1.00  0.00     0.032 C 
BRANCH   4   5
ATOM      5  C   UNL     1       2.586 -29.206 -11.087  1.00  0.00     0.034 C 
BRANCH   5   6
ATOM      6  C   UNL     1       3.439 -27.961 -10.946  1.00  0.00    -0.077 C 
ATOM      7  C   UNL     1       4.875 -28.022 -11.402  1.00  0.00     0.039 C 
ATOM      8  C   UNL     1       2.993 -26.802 -10.411  1.00  0.00    -0.023 CG0
ATOM      9  G   UNL     1       1.605 -26.557  -9.869  1.00  0.00     0.000 G0
ENDBRANCH   5   6
ENDBRANCH   4   5
ENDBRANCH   2   4
BRANCH   1  10
ATOM     10  C   UNL     1       0.609 -26.266 -13.235  1.00  0.00     0.111 C 
BRANCH  10  11
ATOM     11  C   UNL     1       1.303 -25.438 -12.182  1.00  0.00     0.163 C 
ATOM     12  O   UNL     1       2.268 -24.710 -12.541  1.00  0.00    -0.294 OA
BRANCH  11  13
ATOM     13  C   UNL     1       0.911 -25.500 -10.740  1.00  0.00    -0.002 C 
ATOM     14  C   UNL     1      -0.067 -24.696 -10.224  1.00  0.00    -0.069 C 
ATOM     15  C   UNL     1      -0.431 -24.738  -8.756  1.00  0.00     0.039 C 
ATOM     16  C   UNL     1      -0.858 -23.750 -11.100  1.00  0.00     0.039 C 
BRANCH  13  17
ATOM     17  C   UNL     1       1.595 -26.551  -9.883  1.00  0.00     0.066 CG0
ATOM     18  G   UNL     1       2.989 -26.807 -10.404  1.00  0.00     0.000 G0
ENDBRANCH  13  17
ENDBRANCH  11  13
ENDBRANCH  10  11
ENDBRANCH   1  10
TORSDOF 0
ENDMDL
MODEL 5
REMARK VINA RESULT:    -3.607      3.173      5.452
REMARK INTER + INTRA:          -4.253
REMARK INTER:                  -5.031
REMARK INTRA:                   0.779
REMARK UNBOUND:                 0.831
REMARK SMILES CC1=CCC(=C(C)C)C(=O)CC(C)=CCC1
REMARK SMILES IDX 12 1 14 2 13 3 15 4 16 5 2 6 1 7 3 8 11 10 9 11 10 12 5 13
REMARK SMILES IDX 6 14 7 15 8 16 4 17
REMARK H PARENT
REMARK Flexibility Score: 60.00
ROOT
ATOM      1  C   UNL     1       3.249 -27.407 -10.610  1.00  0.00    -0.070 C 
ATOM      2  C   UNL     1       2.914 -28.516 -11.312  1.00  0.00    -0.027 C 
ATOM      3  C   UNL     1       4.714 -27.057 -10.520  1.00  0.00     0.039 C 
ENDROOT
BRANCH   2   4
ATOM      4  C   UNL     1       1.514 -28.991 -11.618  1.00  0.00     0.032 C 
BRANCH   4   5
ATOM      5  C   UNL     1       1.211 -29.003 -13.130  1.00  0.00     0.034 C 
BRANCH   5   6
ATOM      6  C   UNL     1       1.621 -27.709 -13.805  1.00  0.00    -0.077 C 
ATOM      7  C   UNL     1       2.696 -27.762 -14.860  1.00  0.00     0.039 C 
ATOM      8  C   UNL     1       1.094 -26.502 -13.497  1.00  0.00    -0.023 CG0
ATOM      9  G   UNL     1       0.037 -26.241 -12.451  1.00  0.00     0.000 G0
ENDBRANCH   5   6
ENDBRANCH   4   5
ENDBRANCH   2   4
BRANCH   1  10
ATOM     10  C   UNL     1       2.234 -26.473  -9.972  1.00  0.00     0.111 C 
BRANCH  10  11
ATOM     11  C   UNL     1       1.862 -25.342 -10.900  1.00  0.00     0.163 C 
ATOM     12  O   UNL     1       2.745 -24.483 -11.170  1.00  0.00    -0.294 OA
BRANCH  11  13
ATOM     13  C   UNL     1       0.481 -25.193 -11.454  1.00  0.00    -0.002 C 
ATOM     14  C   UNL     1      -0.313 -24.127 -11.133  1.00  0.00    -0.069 C 
ATOM     15  C   UNL     1      -1.723 -24.004 -11.668  1.00  0.00     0.039 C 
ATOM     16  C   UNL     1       0.190 -23.001 -10.258  1.00  0.00     0.039 C 
BRANCH  13  17
ATOM     17  C   UNL     1       0.021 -26.242 -12.451  1.00  0.00     0.066 CG0
ATOM     18  G   UNL     1       1.102 -26.483 -13.477  1.00  0.00     0.000 G0
ENDBRANCH  13  17
ENDBRANCH  11  13
ENDBRANCH  10  11
ENDBRANCH   1  10
TORSDOF 0
ENDMDL
MODEL 6
REMARK VINA RESULT:    -3.458      1.558      2.804
REMARK INTER + INTRA:          -4.042
REMARK INTER:                  -4.994
REMARK INTRA:                   0.952
REMARK UNBOUND:                 0.831
REMARK SMILES CC1=CCC(=C(C)C)C(=O)CC(C)=CCC1
REMARK SMILES IDX 12 1 14 2 13 3 15 4 16 5 2 6 1 7 3 8 11 10 9 11 10 12 5 13
REMARK SMILES IDX 6 14 7 15 8 16 4 17
REMARK H PARENT
REMARK Flexibility Score: 60.00
ROOT
ATOM      1  C   UNL     1      -2.032 -23.621 -13.139  1.00  0.00    -0.070 C 
ATOM      2  C   UNL     1      -0.735 -24.010 -13.100  1.00  0.00    -0.027 C 
ATOM      3  C   UNL     1      -2.481 -22.821 -14.338  1.00  0.00     0.039 C 
ENDROOT
BRANCH   2   4
ATOM      4  C   UNL     1      -0.101 -24.900 -12.058  1.00  0.00     0.032 C 
BRANCH   4   5
ATOM      5  C   UNL     1       0.605 -24.098 -10.945  1.00  0.00     0.034 C 
BRANCH   5   6
ATOM      6  C   UNL     1      -0.254 -23.968  -9.703  1.00  0.00    -0.077 C 
ATOM      7  C   UNL     1      -0.310 -25.131  -8.746  1.00  0.00     0.039 C 
ATOM      8  C   UNL     1      -0.996 -22.874  -9.415  1.00  0.00    -0.023 CG0
ATOM      9  G   UNL     1      -1.098 -21.629 -10.262  1.00  0.00     0.000 G0
ENDBRANCH   5   6
ENDBRANCH   4   5
ENDBRANCH   2   4
BRANCH   1  10
ATOM     10  C   UNL     1      -3.060 -23.999 -12.085  1.00  0.00     0.111 C 
BRANCH  10  11
ATOM     11  C   UNL     1      -3.196 -22.925 -11.034  1.00  0.00     0.163 C 
ATOM     12  O   UNL     1      -4.050 -23.093 -10.121  1.00  0.00    -0.294 OA
BRANCH  11  13
ATOM     13  C   UNL     1      -2.392 -21.664 -11.081  1.00  0.00    -0.002 C 
ATOM     14  C   UNL     1      -2.819 -20.563 -11.768  1.00  0.00    -0.069 C 
ATOM     15  C   UNL     1      -1.981 -19.305 -11.842  1.00  0.00     0.039 C 
ATOM     16  C   UNL     1      -4.165 -20.532 -12.458  1.00  0.00     0.039 C 
BRANCH  13  17
ATOM     17  C   UNL     1      -1.110 -21.633 -10.268  1.00  0.00     0.066 CG0
ATOM     18  G   UNL     1      -1.010 -22.879  -9.421  1.00  0.00     0.000 G0
ENDBRANCH  13  17
ENDBRANCH  11  13
ENDBRANCH  10  11
ENDBRANCH   1  10
TORSDOF 0
ENDMDL
MODEL 7
REMARK VINA RESULT:    -3.431      1.817      4.564
REMARK INTER + INTRA:          -4.003
REMARK INTER:                  -4.912
REMARK INTRA:                   0.909
REMARK UNBOUND:                 0.831
REMARK SMILES CC1=CCC(=C(C)C)C(=O)CC(C)=CCC1
REMARK SMILES IDX 12 1 14 2 13 3 15 4 16 5 2 6 1 7 3 8 11 10 9 11 10 12 5 13
REMARK SMILES IDX 6 14 7 15 8 16 4 17
REMARK H PARENT
REMARK Flexibility Score: 60.00
ROOT
ATOM      1  C   UNL     1      -3.247 -23.491 -12.366  1.00  0.00    -0.070 C 
ATOM      2  C   UNL     1      -3.719 -22.831 -11.280  1.00  0.00    -0.027 C 
ATOM      3  C   UNL     1      -3.555 -22.906 -13.722  1.00  0.00     0.039 C 
ENDROOT
BRANCH   2   4
ATOM      4  C   UNL     1      -3.443 -23.174  -9.836  1.00  0.00     0.032 C 
BRANCH   4   5
ATOM      5  C   UNL     1      -2.561 -22.122  -9.136  1.00  0.00     0.034 C 
BRANCH   5   6
ATOM      6  C   UNL     1      -1.417 -21.658 -10.016  1.00  0.00    -0.077 C 
ATOM      7  C   UNL     1      -1.490 -20.277 -10.616  1.00  0.00     0.039 C 
ATOM      8  C   UNL     1      -0.343 -22.423 -10.315  1.00  0.00    -0.023 CG0
ATOM      9  G   UNL     1      -0.106 -23.837  -9.842  1.00  0.00     0.000 G0
ENDBRANCH   5   6
ENDBRANCH   4   5
ENDBRANCH   2   4
BRANCH   1  10
ATOM     10  C   UNL     1      -2.378 -24.735 -12.285  1.00  0.00     0.111 C 
BRANCH  10  11
ATOM     11  C   UNL     1      -0.911 -24.385 -12.236  1.00  0.00     0.163 C 
ATOM     12  O   UNL     1      -0.406 -23.806 -13.236  1.00  0.00    -0.294 OA
BRANCH  11  13
ATOM     13  C   UNL     1      -0.048 -24.749 -11.070  1.00  0.00    -0.002 C 
ATOM     14  C   UNL     1       0.796 -25.823 -11.107  1.00  0.00    -0.069 C 
ATOM     15  C   UNL     1       1.637 -26.208  -9.908  1.00  0.00     0.039 C 
ATOM     16  C   UNL     1       0.960 -26.659 -12.356  1.00  0.00     0.039 C 
BRANCH  13  17
ATOM     17  C   UNL     1      -0.095 -23.829  -9.863  1.00  0.00     0.066 CG0
ATOM     18  G   UNL     1      -0.354 -22.411 -10.311  1.00  0.00     0.000 G0
ENDBRANCH  13  17
ENDBRANCH  11  13
ENDBRANCH  10  11
ENDBRANCH   1  10
TORSDOF 0
ENDMDL
MODEL 8
REMARK VINA RESULT:    -3.359      1.561      2.096
REMARK INTER + INTRA:          -3.903
REMARK INTER:                  -4.856
REMARK INTRA:                   0.953
REMARK UNBOUND:                 0.831
REMARK SMILES CC1=CCC(=C(C)C)C(=O)CC(C)=CCC1
REMARK SMILES IDX 12 1 14 2 13 3 15 4 16 5 2 6 1 7 3 8 11 10 9 11 10 12 5 13
REMARK SMILES IDX 6 14 7 15 8 16 4 17
REMARK H PARENT
REMARK Flexibility Score: 60.00
ROOT
ATOM      1  C   UNL     1      -1.457 -21.601 -10.069  1.00  0.00    -0.070 C 
ATOM      2  C   UNL     1      -0.464 -22.487  -9.818  1.00  0.00    -0.027 C 
ATOM      3  C   UNL     1      -1.134 -20.429 -10.964  1.00  0.00     0.039 C 
ENDROOT
BRANCH   2   4
ATOM      4  C   UNL     1      -0.592 -23.777  -9.045  1.00  0.00     0.032 C 
BRANCH   4   5
ATOM      5  C   UNL     1      -0.435 -25.022  -9.940  1.00  0.00     0.034 C 
BRANCH   5   6
ATOM      6  C   UNL     1      -0.286 -24.659 -11.404  1.00  0.00    -0.077 C 
ATOM      7  C   UNL     1       1.100 -24.417 -11.944  1.00  0.00     0.039 C 
ATOM      8  C   UNL     1      -1.330 -24.513 -12.251  1.00  0.00    -0.023 CG0
ATOM      9  G   UNL     1      -2.787 -24.678 -11.893  1.00  0.00     0.000 G0
ENDBRANCH   5   6
ENDBRANCH   4   5
ENDBRANCH   2   4
BRANCH   1  10
ATOM     10  C   UNL     1      -2.880 -21.759  -9.557  1.00  0.00     0.111 C 
BRANCH  10  11
ATOM     11  C   UNL     1      -3.540 -22.990 -10.129  1.00  0.00     0.163 C 
ATOM     12  O   UNL     1      -4.166 -23.748  -9.339  1.00  0.00    -0.294 OA
BRANCH  11  13
ATOM     13  C   UNL     1      -3.427 -23.349 -11.577  1.00  0.00    -0.002 C 
ATOM     14  C   UNL     1      -3.815 -22.488 -12.565  1.00  0.00    -0.069 C 
ATOM     15  C   UNL     1      -3.734 -22.875 -14.026  1.00  0.00     0.039 C 
ATOM     16  C   UNL     1      -4.311 -21.094 -12.250  1.00  0.00     0.039 C 
BRANCH  13  17
ATOM     17  C   UNL     1      -2.792 -24.688 -11.908  1.00  0.00     0.066 CG0
ATOM     18  G   UNL     1      -1.335 -24.492 -12.253  1.00  0.00     0.000 G0
ENDBRANCH  13  17
ENDBRANCH  11  13
ENDBRANCH  10  11
ENDBRANCH   1  10
TORSDOF 0
ENDMDL
MODEL 9
REMARK VINA RESULT:    -3.329      9.557     12.081
REMARK INTER + INTRA:          -3.860
REMARK INTER:                  -4.494
REMARK INTRA:                   0.634
REMARK UNBOUND:                 0.831
REMARK SMILES CC1=CCC(=C(C)C)C(=O)CC(C)=CCC1
REMARK SMILES IDX 12 1 14 2 13 3 15 4 16 5 2 6 1 7 3 8 11 10 9 11 10 12 5 13
REMARK SMILES IDX 6 14 7 15 8 16 4 17
REMARK H PARENT
REMARK Flexibility Score: 60.00
ROOT
ATOM      1  C   UNL     1       5.926 -28.092 -11.400  1.00  0.00    -0.070 C 
ATOM      2  C   UNL     1       6.766 -27.244 -10.761  1.00  0.00    -0.027 C 
ATOM      3  C   UNL     1       4.665 -28.498 -10.677  1.00  0.00     0.039 C 
ENDROOT
BRANCH   2   4
ATOM      4  C   UNL     1       8.020 -26.628 -11.332  1.00  0.00     0.032 C 
BRANCH   4   5
ATOM      5  C   UNL     1       9.277 -26.970 -10.507  1.00  0.00     0.034 C 
BRANCH   5   6
ATOM      6  C   UNL     1       9.465 -28.466 -10.345  1.00  0.00    -0.077 C 
ATOM      7  C   UNL     1       9.556 -29.029  -8.949  1.00  0.00     0.039 C 
ATOM      8  C   UNL     1       9.580 -29.325 -11.383  1.00  0.00    -0.023 CG0
ATOM      9  G   UNL     1       9.550 -28.951 -12.845  1.00  0.00     0.000 G0
ENDBRANCH   5   6
ENDBRANCH   4   5
ENDBRANCH   2   4
BRANCH   1  10
ATOM     10  C   UNL     1       6.152 -28.598 -12.816  1.00  0.00     0.111 C 
BRANCH  10  11
ATOM     11  C   UNL     1       7.098 -29.773 -12.840  1.00  0.00     0.163 C 
ATOM     12  O   UNL     1       6.768 -30.813 -12.208  1.00  0.00    -0.294 OA
BRANCH  11  13
ATOM     13  C   UNL     1       8.418 -29.713 -13.542  1.00  0.00    -0.002 C 
ATOM     14  C   UNL     1       8.600 -30.263 -14.780  1.00  0.00    -0.069 C 
ATOM     15  C   UNL     1       9.949 -30.232 -15.466  1.00  0.00     0.039 C 
ATOM     16  C   UNL     1       7.458 -30.897 -15.541  1.00  0.00     0.039 C 
BRANCH  13  17
ATOM     17  C   UNL     1       9.533 -28.948 -12.851  1.00  0.00     0.066 CG0
ATOM     18  G   UNL     1       9.593 -29.337 -11.394  1.00  0.00     0.000 G0
ENDBRANCH  13  17
ENDBRANCH  11  13
ENDBRANCH  10  11
ENDBRANCH   1  10
TORSDOF 0
ENDMDL
