MODEL 1
REMARK VINA RESULT:    -4.174      0.000      0.000
REMARK INTER + INTRA:          -4.788
REMARK INTER:                  -4.540
REMARK INTRA:                  -0.248
REMARK UNBOUND:                -0.248
REMARK SMILES O=C([O-])c1ccccc1O
REMARK SMILES IDX 4 1 9 2 5 3 8 4 6 5 7 6 2 7 1 8 3 9 10 10
REMARK H PARENT 10 11
REMARK Flexibility Score: inf
ROOT
ATOM      1  C   UNL     1      12.583  48.816  61.704  1.00  0.00     0.039 A 
ATOM      2  C   UNL     1      12.761  49.414  62.979  1.00  0.00     0.124 A 
ATOM      3  C   UNL     1      11.442  48.023  61.477  1.00  0.00     0.014 A 
ATOM      4  C   UNL     1      11.837  49.155  64.000  1.00  0.00     0.047 A 
ATOM      5  C   UNL     1      10.520  47.793  62.500  1.00  0.00     0.001 A 
ATOM      6  C   UNL     1      10.721  48.351  63.762  1.00  0.00     0.004 A 
ENDROOT
BRANCH   1   7
ATOM      7  C   UNL     1      13.572  48.963  60.615  1.00  0.00     0.075 C 
ATOM      8  O   UNL     1      14.047  47.942  60.049  1.00  0.00    -0.545 OA
ATOM      9  O   UNL     1      14.043  50.217  60.246  1.00  0.00    -0.545 OA
ENDBRANCH   1   7
BRANCH   2  10
ATOM     10  O   UNL     1      13.811  50.291  63.258  1.00  0.00    -0.507 OA
ATOM     11  H   UNL     1      14.703  49.990  63.626  1.00  0.00     0.293 HD
ENDBRANCH   2  10
TORSDOF 2
ENDMDL
MODEL 2
REMARK VINA RESULT:    -4.036      2.698      3.658
REMARK INTER + INTRA:          -4.638
REMARK INTER:                  -4.417
REMARK INTRA:                  -0.221
REMARK UNBOUND:                -0.248
REMARK SMILES O=C([O-])c1ccccc1O
REMARK SMILES IDX 4 1 9 2 5 3 8 4 6 5 7 6 2 7 1 8 3 9 10 10
REMARK H PARENT 10 11
REMARK Flexibility Score: inf
ROOT
ATOM      1  C   UNL     1      11.153  48.169  62.793  1.00  0.00     0.039 A 
ATOM      2  C   UNL     1      11.848  49.000  63.709  1.00  0.00     0.124 A 
ATOM      3  C   UNL     1      11.546  48.170  61.440  1.00  0.00     0.014 A 
ATOM      4  C   UNL     1      12.862  49.848  63.244  1.00  0.00     0.047 A 
ATOM      5  C   UNL     1      12.573  49.006  60.997  1.00  0.00     0.001 A 
ATOM      6  C   UNL     1      13.224  49.850  61.896  1.00  0.00     0.004 A 
ENDROOT
BRANCH   1   7
ATOM      7  C   UNL     1      10.007  47.328  63.197  1.00  0.00     0.075 C 
ATOM      8  O   UNL     1       9.534  46.475  62.398  1.00  0.00    -0.545 OA
ATOM      9  O   UNL     1       9.390  47.510  64.429  1.00  0.00    -0.545 OA
ENDBRANCH   1   7
BRANCH   2  10
ATOM     10  O   UNL     1      11.588  48.988  65.081  1.00  0.00    -0.507 OA
ATOM     11  H   UNL     1      11.516  49.826  65.641  1.00  0.00     0.293 HD
ENDBRANCH   2  10
TORSDOF 2
ENDMDL
MODEL 3
REMARK VINA RESULT:    -4.000      1.390      2.216
REMARK INTER + INTRA:          -4.599
REMARK INTER:                  -4.363
REMARK INTRA:                  -0.235
REMARK UNBOUND:                -0.248
REMARK SMILES O=C([O-])c1ccccc1O
REMARK SMILES IDX 4 1 9 2 5 3 8 4 6 5 7 6 2 7 1 8 3 9 10 10
REMARK H PARENT 10 11
REMARK Flexibility Score: inf
ROOT
ATOM      1  C   UNL     1      11.696  48.583  62.623  1.00  0.00     0.039 A 
ATOM      2  C   UNL     1      11.204  48.327  63.929  1.00  0.00     0.124 A 
ATOM      3  C   UNL     1      11.014  48.037  61.519  1.00  0.00     0.014 A 
ATOM      4  C   UNL     1      10.093  47.490  64.099  1.00  0.00     0.047 A 
ATOM      5  C   UNL     1       9.895  47.223  61.705  1.00  0.00     0.001 A 
ATOM      6  C   UNL     1       9.441  46.942  62.993  1.00  0.00     0.004 A 
ENDROOT
BRANCH   1   7
ATOM      7  C   UNL     1      12.923  49.372  62.379  1.00  0.00     0.075 C 
ATOM      8  O   UNL     1      13.232  50.318  63.151  1.00  0.00    -0.545 OA
ATOM      9  O   UNL     1      13.713  49.129  61.262  1.00  0.00    -0.545 OA
ENDBRANCH   1   7
BRANCH   2  10
ATOM     10  O   UNL     1      11.761  48.908  65.070  1.00  0.00    -0.507 OA
ATOM     11  H   UNL     1      11.222  49.158  65.887  1.00  0.00     0.293 HD
ENDBRANCH   2  10
TORSDOF 2
ENDMDL
MODEL 4
REMARK VINA RESULT:    -3.873      1.914      2.705
REMARK INTER + INTRA:          -4.461
REMARK INTER:                  -4.209
REMARK INTRA:                  -0.252
REMARK UNBOUND:                -0.248
REMARK SMILES O=C([O-])c1ccccc1O
REMARK SMILES IDX 4 1 9 2 5 3 8 4 6 5 7 6 2 7 1 8 3 9 10 10
REMARK H PARENT 10 11
REMARK Flexibility Score: inf
ROOT
ATOM      1  C   UNL     1      11.866  48.366  61.633  1.00  0.00     0.039 A 
ATOM      2  C   UNL     1      10.815  47.883  62.455  1.00  0.00     0.124 A 
ATOM      3  C   UNL     1      12.780  49.291  62.171  1.00  0.00     0.014 A 
ATOM      4  C   UNL     1      10.670  48.380  63.757  1.00  0.00     0.047 A 
ATOM      5  C   UNL     1      12.634  49.760  63.478  1.00  0.00     0.001 A 
ATOM      6  C   UNL     1      11.575  49.312  64.267  1.00  0.00     0.004 A 
ENDROOT
BRANCH   1   7
ATOM      7  C   UNL     1      12.015  47.962  60.218  1.00  0.00     0.075 C 
ATOM      8  O   UNL     1      13.163  47.800  59.724  1.00  0.00    -0.545 OA
ATOM      9  O   UNL     1      10.903  47.824  59.396  1.00  0.00    -0.545 OA
ENDBRANCH   1   7
BRANCH   2  10
ATOM     10  O   UNL     1       9.924  46.894  62.033  1.00  0.00    -0.507 OA
ATOM     11  H   UNL     1       9.802  46.014  62.514  1.00  0.00     0.293 HD
ENDBRANCH   2  10
TORSDOF 2
ENDMDL
MODEL 5
REMARK VINA RESULT:    -3.789      1.109      2.361
REMARK INTER + INTRA:          -4.369
REMARK INTER:                  -4.142
REMARK INTRA:                  -0.227
REMARK UNBOUND:                -0.248
REMARK SMILES O=C([O-])c1ccccc1O
REMARK SMILES IDX 4 1 9 2 5 3 8 4 6 5 7 6 2 7 1 8 3 9 10 10
REMARK H PARENT 10 11
REMARK Flexibility Score: inf
ROOT
ATOM      1  C   UNL     1      12.673  48.720  61.181  1.00  0.00     0.039 A 
ATOM      2  C   UNL     1      11.513  48.205  60.547  1.00  0.00     0.124 A 
ATOM      3  C   UNL     1      12.687  48.836  62.584  1.00  0.00     0.014 A 
ATOM      4  C   UNL     1      10.388  47.882  61.318  1.00  0.00     0.047 A 
ATOM      5  C   UNL     1      11.565  48.491  63.339  1.00  0.00     0.001 A 
ATOM      6  C   UNL     1      10.413  48.023  62.706  1.00  0.00     0.004 A 
ENDROOT
BRANCH   1   7
ATOM      7  C   UNL     1      13.856  49.176  60.420  1.00  0.00     0.075 C 
ATOM      8  O   UNL     1      14.483  48.369  59.682  1.00  0.00    -0.545 OA
ATOM      9  O   UNL     1      14.335  50.473  60.559  1.00  0.00    -0.545 OA
ENDBRANCH   1   7
BRANCH   2  10
ATOM     10  O   UNL     1      11.450  47.966  59.173  1.00  0.00    -0.507 OA
ATOM     11  H   UNL     1      10.659  47.531  58.720  1.00  0.00     0.293 HD
ENDBRANCH   2  10
TORSDOF 2
ENDMDL
MODEL 6
REMARK VINA RESULT:    -3.750      3.453      4.141
REMARK INTER + INTRA:          -4.327
REMARK INTER:                  -4.080
REMARK INTRA:                  -0.247
REMARK UNBOUND:                -0.248
REMARK SMILES O=C([O-])c1ccccc1O
REMARK SMILES IDX 4 1 9 2 5 3 8 4 6 5 7 6 2 7 1 8 3 9 10 10
REMARK H PARENT 10 11
REMARK Flexibility Score: inf
ROOT
ATOM      1  C   UNL     1       9.644  48.486  61.996  1.00  0.00     0.039 A 
ATOM      2  C   UNL     1       9.655  47.318  62.801  1.00  0.00     0.124 A 
ATOM      3  C   UNL     1      10.515  49.544  62.319  1.00  0.00     0.014 A 
ATOM      4  C   UNL     1      10.480  47.264  63.933  1.00  0.00     0.047 A 
ATOM      5  C   UNL     1      11.346  49.465  63.438  1.00  0.00     0.001 A 
ATOM      6  C   UNL     1      11.322  48.331  64.249  1.00  0.00     0.004 A 
ENDROOT
BRANCH   1   7
ATOM      7  C   UNL     1       8.725  48.650  60.849  1.00  0.00     0.075 C 
ATOM      8  O   UNL     1       7.503  48.369  60.972  1.00  0.00    -0.545 OA
ATOM      9  O   UNL     1       9.202  49.047  59.606  1.00  0.00    -0.545 OA
ENDBRANCH   1   7
BRANCH   2  10
ATOM     10  O   UNL     1       8.896  46.187  62.495  1.00  0.00    -0.507 OA
ATOM     11  H   UNL     1       7.969  46.230  62.095  1.00  0.00     0.293 HD
ENDBRANCH   2  10
TORSDOF 2
ENDMDL
MODEL 7
REMARK VINA RESULT:    -3.731      3.735      4.792
REMARK INTER + INTRA:          -4.306
REMARK INTER:                  -4.088
REMARK INTRA:                  -0.218
REMARK UNBOUND:                -0.248
REMARK SMILES O=C([O-])c1ccccc1O
REMARK SMILES IDX 4 1 9 2 5 3 8 4 6 5 7 6 2 7 1 8 3 9 10 10
REMARK H PARENT 10 11
REMARK Flexibility Score: inf
ROOT
ATOM      1  C   UNL     1       9.654  49.486  63.653  1.00  0.00     0.039 A 
ATOM      2  C   UNL     1       9.681  48.087  63.882  1.00  0.00     0.124 A 
ATOM      3  C   UNL     1      10.363  50.010  62.555  1.00  0.00     0.014 A 
ATOM      4  C   UNL     1      10.457  47.264  63.054  1.00  0.00     0.047 A 
ATOM      5  C   UNL     1      11.114  49.174  61.727  1.00  0.00     0.001 A 
ATOM      6  C   UNL     1      11.169  47.804  61.982  1.00  0.00     0.004 A 
ENDROOT
BRANCH   1   7
ATOM      7  C   UNL     1       8.940  50.423  64.548  1.00  0.00     0.075 C 
ATOM      8  O   UNL     1       7.994  50.010  65.270  1.00  0.00    -0.545 OA
ATOM      9  O   UNL     1       9.252  51.777  64.555  1.00  0.00    -0.545 OA
ENDBRANCH   1   7
BRANCH   2  10
ATOM     10  O   UNL     1       8.930  47.475  64.888  1.00  0.00    -0.507 OA
ATOM     11  H   UNL     1       9.201  47.474  65.861  1.00  0.00     0.293 HD
ENDBRANCH   2  10
TORSDOF 2
ENDMDL
MODEL 8
REMARK VINA RESULT:    -3.730      3.110      3.840
REMARK INTER + INTRA:          -4.305
REMARK INTER:                  -4.094
REMARK INTRA:                  -0.211
REMARK UNBOUND:                -0.248
REMARK SMILES O=C([O-])c1ccccc1O
REMARK SMILES IDX 4 1 9 2 5 3 8 4 6 5 7 6 2 7 1 8 3 9 10 10
REMARK H PARENT 10 11
REMARK Flexibility Score: inf
ROOT
ATOM      1  C   UNL     1      10.504  49.403  63.533  1.00  0.00     0.039 A 
ATOM      2  C   UNL     1       9.325  49.122  64.269  1.00  0.00     0.124 A 
ATOM      3  C   UNL     1      10.875  50.746  63.329  1.00  0.00     0.014 A 
ATOM      4  C   UNL     1       8.521  50.178  64.721  1.00  0.00     0.047 A 
ATOM      5  C   UNL     1      10.074  51.787  63.804  1.00  0.00     0.001 A 
ATOM      6  C   UNL     1       8.894  51.503  64.491  1.00  0.00     0.004 A 
ENDROOT
BRANCH   1   7
ATOM      7  C   UNL     1      11.342  48.339  62.940  1.00  0.00     0.075 C 
ATOM      8  O   UNL     1      10.910  47.157  62.872  1.00  0.00    -0.545 OA
ATOM      9  O   UNL     1      12.637  48.608  62.513  1.00  0.00    -0.545 OA
ENDBRANCH   1   7
BRANCH   2  10
ATOM     10  O   UNL     1       8.937  47.822  64.600  1.00  0.00    -0.507 OA
ATOM     11  H   UNL     1       7.991  47.570  64.848  1.00  0.00     0.293 HD
ENDBRANCH   2  10
TORSDOF 2
ENDMDL
MODEL 9
REMARK VINA RESULT:    -3.602      2.783      3.913
REMARK INTER + INTRA:          -4.166
REMARK INTER:                  -3.932
REMARK INTRA:                  -0.234
REMARK UNBOUND:                -0.248
REMARK SMILES O=C([O-])c1ccccc1O
REMARK SMILES IDX 4 1 9 2 5 3 8 4 6 5 7 6 2 7 1 8 3 9 10 10
REMARK H PARENT 10 11
REMARK Flexibility Score: inf
ROOT
ATOM      1  C   UNL     1      10.848  48.516  61.948  1.00  0.00     0.039 A 
ATOM      2  C   UNL     1      11.513  48.887  60.751  1.00  0.00     0.124 A 
ATOM      3  C   UNL     1      11.411  48.891  63.183  1.00  0.00     0.014 A 
ATOM      4  C   UNL     1      12.740  49.561  60.820  1.00  0.00     0.047 A 
ATOM      5  C   UNL     1      12.624  49.581  63.234  1.00  0.00     0.001 A 
ATOM      6  C   UNL     1      13.292  49.907  62.054  1.00  0.00     0.004 A 
ENDROOT
BRANCH   1   7
ATOM      7  C   UNL     1       9.605  47.715  61.950  1.00  0.00     0.075 C 
ATOM      8  O   UNL     1       9.574  46.595  62.527  1.00  0.00    -0.545 OA
ATOM      9  O   UNL     1       8.479  48.149  61.260  1.00  0.00    -0.545 OA
ENDBRANCH   1   7
BRANCH   2  10
ATOM     10  O   UNL     1      10.976  48.641  59.486  1.00  0.00    -0.507 OA
ATOM     11  H   UNL     1      10.297  49.245  59.043  1.00  0.00     0.293 HD
ENDBRANCH   2  10
TORSDOF 2
ENDMDL
