MODEL 1
REMARK VINA RESULT:     0.000      0.000      0.000
REMARK INTER + INTRA:          -1.297
REMARK INTER:                   0.000
REMARK INTRA:                  -1.297
REMARK UNBOUND:                -1.297
REMARK SMILES O=C([O-])CCCCCCCCC(=O)[O-]
REMARK SMILES IDX 7 1 6 2 5 3 4 4 2 5 1 6 3 7 8 8 9 9 10 10 11 11 12 12 13 13
REMARK SMILES IDX 14 14
REMARK H PARENT
REMARK Flexibility Score: inf
ROOT
ATOM      1  C   UNL     1     176.469 192.291 193.416  1.00  0.00     0.000 C 
ENDROOT
BRANCH   1   2
ATOM      2  C   UNL     1     177.028 193.486 194.196  1.00  0.00     0.000 C 
BRANCH   2   3
ATOM      3  C   UNL     1     178.521 193.302 194.492  1.00  0.00     0.006 C 
BRANCH   3   4
ATOM      4  C   UNL     1     178.880 191.818 194.609  1.00  0.00     0.053 C 
BRANCH   4   5
ATOM      5  C   UNL     1     180.152 191.528 193.877  1.00  0.00     0.041 C 
ATOM      6  O   UNL     1     180.198 190.601 193.027  1.00  0.00    -0.550 OA
ATOM      7  O   UNL     1     181.276 192.314 194.100  1.00  0.00    -0.550 OA
ENDBRANCH   4   5
ENDBRANCH   3   4
ENDBRANCH   2   3
ENDBRANCH   1   2
BRANCH   1   8
ATOM      8  C   UNL     1     176.485 192.561 191.907  1.00  0.00     0.000 C 
BRANCH   8   9
ATOM      9  C   UNL     1     177.313 191.506 191.166  1.00  0.00     0.000 C 
BRANCH   9  10
ATOM     10  C   UNL     1     178.433 192.161 190.343  1.00  0.00     0.006 C 
BRANCH  10  11
ATOM     11  C   UNL     1     178.661 193.627 190.738  1.00  0.00     0.053 C 
BRANCH  11  12
ATOM     12  C   UNL     1     180.087 193.886 191.115  1.00  0.00     0.041 C 
ATOM     13  O   UNL     1     180.379 194.862 191.855  1.00  0.00    -0.550 OA
ATOM     14  O   UNL     1     181.089 193.031 190.676  1.00  0.00    -0.550 OA
ENDBRANCH  11  12
ENDBRANCH  10  11
ENDBRANCH   9  10
ENDBRANCH   8   9
ENDBRANCH   1   8
TORSDOF 9
ENDMDL
MODEL 2
REMARK VINA RESULT:     0.002      3.848      6.066
REMARK INTER + INTRA:          -1.293
REMARK INTER:                   0.000
REMARK INTRA:                  -1.293
REMARK UNBOUND:                -1.297
REMARK SMILES O=C([O-])CCCCCCCCC(=O)[O-]
REMARK SMILES IDX 7 1 6 2 5 3 4 4 2 5 1 6 3 7 8 8 9 9 10 10 11 11 12 12 13 13
REMARK SMILES IDX 14 14
REMARK H PARENT
REMARK Flexibility Score: inf
ROOT
ATOM      1  C   UNL     1     184.360 191.838 192.169  1.00  0.00     0.000 C 
ENDROOT
BRANCH   1   2
ATOM      2  C   UNL     1     183.029 192.447 191.714  1.00  0.00     0.000 C 
BRANCH   2   3
ATOM      3  C   UNL     1     182.239 191.460 190.846  1.00  0.00     0.006 C 
BRANCH   3   4
ATOM      4  C   UNL     1     182.904 190.081 190.837  1.00  0.00     0.053 C 
BRANCH   4   5
ATOM      5  C   UNL     1     181.908 189.017 191.179  1.00  0.00     0.041 C 
ATOM      6  O   UNL     1     182.291 187.926 191.677  1.00  0.00    -0.550 OA
ATOM      7  O   UNL     1     180.551 189.251 190.993  1.00  0.00    -0.550 OA
ENDBRANCH   4   5
ENDBRANCH   3   4
ENDBRANCH   2   3
ENDBRANCH   1   2
BRANCH   1   8
ATOM      8  C   UNL     1     184.492 191.880 193.695  1.00  0.00     0.000 C 
BRANCH   8   9
ATOM      9  C   UNL     1     184.758 190.482 194.265  1.00  0.00     0.000 C 
BRANCH   9  10
ATOM     10  C   UNL     1     183.441 189.739 194.536  1.00  0.00     0.006 C 
BRANCH  10  11
ATOM     11  C   UNL     1     182.346 190.673 195.068  1.00  0.00     0.053 C 
BRANCH  11  12
ATOM     12  C   UNL     1     181.017 190.388 194.438  1.00  0.00     0.041 C 
ATOM     13  O   UNL     1     180.384 191.306 193.853  1.00  0.00    -0.550 OA
ATOM     14  O   UNL     1     180.494 189.102 194.468  1.00  0.00    -0.550 OA
ENDBRANCH  11  12
ENDBRANCH  10  11
ENDBRANCH   9  10
ENDBRANCH   8   9
ENDBRANCH   1   8
TORSDOF 9
ENDMDL
MODEL 3
REMARK VINA RESULT:     0.003      4.233      5.477
REMARK INTER + INTRA:          -1.293
REMARK INTER:                   0.000
REMARK INTRA:                  -1.293
REMARK UNBOUND:                -1.297
REMARK SMILES O=C([O-])CCCCCCCCC(=O)[O-]
REMARK SMILES IDX 7 1 6 2 5 3 4 4 2 5 1 6 3 7 8 8 9 9 10 10 11 11 12 12 13 13
REMARK SMILES IDX 14 14
REMARK H PARENT
REMARK Flexibility Score: inf
ROOT
ATOM      1  C   UNL     1     175.418 191.749 196.147  1.00  0.00     0.000 C 
ENDROOT
BRANCH   1   2
ATOM      2  C   UNL     1     176.855 191.902 196.656  1.00  0.00     0.000 C 
BRANCH   2   3
ATOM      3  C   UNL     1     176.915 192.836 197.870  1.00  0.00     0.006 C 
BRANCH   3   4
ATOM      4  C   UNL     1     175.572 193.538 198.090  1.00  0.00     0.053 C 
BRANCH   4   5
ATOM      5  C   UNL     1     175.764 195.018 198.192  1.00  0.00     0.041 C 
ATOM      6  O   UNL     1     176.886 195.492 198.510  1.00  0.00    -0.550 OA
ATOM      7  O   UNL     1     174.715 195.877 197.886  1.00  0.00    -0.550 OA
ENDBRANCH   4   5
ENDBRANCH   3   4
ENDBRANCH   2   3
ENDBRANCH   1   2
BRANCH   1   8
ATOM      8  C   UNL     1     175.309 192.149 194.671  1.00  0.00     0.000 C 
BRANCH   8   9
ATOM      9  C   UNL     1     174.268 193.257 194.475  1.00  0.00     0.000 C 
BRANCH   9  10
ATOM     10  C   UNL     1     174.924 194.645 194.529  1.00  0.00     0.006 C 
BRANCH  10  11
ATOM     11  C   UNL     1     176.368 194.625 194.010  1.00  0.00     0.053 C 
BRANCH  11  12
ATOM     12  C   UNL     1     177.293 195.386 194.909  1.00  0.00     0.041 C 
ATOM     13  O   UNL     1     178.358 194.855 195.318  1.00  0.00    -0.550 OA
ATOM     14  O   UNL     1     176.994 196.694 195.269  1.00  0.00    -0.550 OA
ENDBRANCH  11  12
ENDBRANCH  10  11
ENDBRANCH   9  10
ENDBRANCH   8   9
ENDBRANCH   1   8
TORSDOF 9
ENDMDL
MODEL 4
REMARK VINA RESULT:     0.003      3.157      5.408
REMARK INTER + INTRA:          -1.292
REMARK INTER:                   0.000
REMARK INTRA:                  -1.292
REMARK UNBOUND:                -1.297
REMARK SMILES O=C([O-])CCCCCCCCC(=O)[O-]
REMARK SMILES IDX 7 1 6 2 5 3 4 4 2 5 1 6 3 7 8 8 9 9 10 10 11 11 12 12 13 13
REMARK SMILES IDX 14 14
REMARK H PARENT
REMARK Flexibility Score: inf
ROOT
ATOM      1  C   UNL     1     179.783 193.085 197.648  1.00  0.00     0.000 C 
ENDROOT
BRANCH   1   2
ATOM      2  C   UNL     1     179.525 191.846 196.783  1.00  0.00     0.000 C 
BRANCH   2   3
ATOM      3  C   UNL     1     179.828 192.131 195.307  1.00  0.00     0.006 C 
BRANCH   3   4
ATOM      4  C   UNL     1     180.103 193.619 195.079  1.00  0.00     0.053 C 
BRANCH   4   5
ATOM      5  C   UNL     1     179.250 194.146 193.968  1.00  0.00     0.041 C 
ATOM      6  O   UNL     1     178.786 193.364 193.099  1.00  0.00    -0.550 OA
ATOM      7  O   UNL     1     178.926 195.497 193.923  1.00  0.00    -0.550 OA
ENDBRANCH   4   5
ENDBRANCH   3   4
ENDBRANCH   2   3
ENDBRANCH   1   2
BRANCH   1   8
ATOM      8  C   UNL     1     178.518 193.500 198.407  1.00  0.00     0.000 C 
BRANCH   8   9
ATOM      9  C   UNL     1     178.135 194.950 198.089  1.00  0.00     0.000 C 
BRANCH   9  10
ATOM     10  C   UNL     1     177.102 195.009 196.953  1.00  0.00     0.006 C 
BRANCH  10  11
ATOM     11  C   UNL     1     176.216 193.757 196.908  1.00  0.00     0.053 C 
BRANCH  11  12
ATOM     12  C   UNL     1     176.077 193.224 195.516  1.00  0.00     0.041 C 
ATOM     13  O   UNL     1     176.266 192.001 195.284  1.00  0.00    -0.550 OA
ATOM     14  O   UNL     1     175.707 194.071 194.479  1.00  0.00    -0.550 OA
ENDBRANCH  11  12
ENDBRANCH  10  11
ENDBRANCH   9  10
ENDBRANCH   8   9
ENDBRANCH   1   8
TORSDOF 9
ENDMDL
MODEL 5
REMARK VINA RESULT:     0.003     10.423     12.017
REMARK INTER + INTRA:          -1.292
REMARK INTER:                   0.000
REMARK INTRA:                  -1.292
REMARK UNBOUND:                -1.297
REMARK SMILES O=C([O-])CCCCCCCCC(=O)[O-]
REMARK SMILES IDX 7 1 6 2 5 3 4 4 2 5 1 6 3 7 8 8 9 9 10 10 11 11 12 12 13 13
REMARK SMILES IDX 14 14
REMARK H PARENT
REMARK Flexibility Score: inf
ROOT
ATOM      1  C   UNL     1     170.974 190.199 197.694  1.00  0.00     0.000 C 
ENDROOT
BRANCH   1   2
ATOM      2  C   UNL     1     169.511 189.844 197.978  1.00  0.00     0.000 C 
BRANCH   2   3
ATOM      3  C   UNL     1     169.179 190.018 199.464  1.00  0.00     0.006 C 
BRANCH   3   4
ATOM      4  C   UNL     1     170.449 190.248 200.288  1.00  0.00     0.053 C 
BRANCH   4   5
ATOM      5  C   UNL     1     170.515 189.283 201.431  1.00  0.00     0.041 C 
ATOM      6  O   UNL     1     169.467 188.734 201.859  1.00  0.00    -0.550 OA
ATOM      7  O   UNL     1     171.743 188.954 201.991  1.00  0.00    -0.550 OA
ENDBRANCH   4   5
ENDBRANCH   3   4
ENDBRANCH   2   3
ENDBRANCH   1   2
BRANCH   1   8
ATOM      8  C   UNL     1     171.701 189.038 197.005  1.00  0.00     0.000 C 
BRANCH   8   9
ATOM      9  C   UNL     1     172.937 188.610 197.804  1.00  0.00     0.000 C 
BRANCH   9  10
ATOM     10  C   UNL     1     172.583 187.514 198.821  1.00  0.00     0.006 C 
BRANCH  10  11
ATOM     11  C   UNL     1     171.482 186.578 198.306  1.00  0.00     0.053 C 
BRANCH  11  12
ATOM     12  C   UNL     1     170.454 186.296 199.358  1.00  0.00     0.041 C 
ATOM     13  O   UNL     1     169.232 186.475 199.113  1.00  0.00    -0.550 OA
ATOM     14  O   UNL     1     170.843 185.805 200.598  1.00  0.00    -0.550 OA
ENDBRANCH  11  12
ENDBRANCH  10  11
ENDBRANCH   9  10
ENDBRANCH   8   9
ENDBRANCH   1   8
TORSDOF 9
ENDMDL
MODEL 6
REMARK VINA RESULT:     0.004      8.904     10.615
REMARK INTER + INTRA:          -1.291
REMARK INTER:                   0.000
REMARK INTRA:                  -1.291
REMARK UNBOUND:                -1.297
REMARK SMILES O=C([O-])CCCCCCCCC(=O)[O-]
REMARK SMILES IDX 7 1 6 2 5 3 4 4 2 5 1 6 3 7 8 8 9 9 10 10 11 11 12 12 13 13
REMARK SMILES IDX 14 14
REMARK H PARENT
REMARK Flexibility Score: inf
ROOT
ATOM      1  C   UNL     1     170.821 187.185 195.305  1.00  0.00     0.000 C 
ENDROOT
BRANCH   1   2
ATOM      2  C   UNL     1     170.271 185.758 195.403  1.00  0.00     0.000 C 
BRANCH   2   3
ATOM      3  C   UNL     1     170.323 185.245 196.846  1.00  0.00     0.006 C 
BRANCH   3   4
ATOM      4  C   UNL     1     171.135 186.189 197.737  1.00  0.00     0.053 C 
BRANCH   4   5
ATOM      5  C   UNL     1     172.190 185.431 198.480  1.00  0.00     0.041 C 
ATOM      6  O   UNL     1     172.072 184.191 198.662  1.00  0.00    -0.550 OA
ATOM      7  O   UNL     1     173.329 186.087 198.929  1.00  0.00    -0.550 OA
ENDBRANCH   4   5
ENDBRANCH   3   4
ENDBRANCH   2   3
ENDBRANCH   1   2
BRANCH   1   8
ATOM      8  C   UNL     1     171.950 187.272 194.271  1.00  0.00     0.000 C 
BRANCH   8   9
ATOM      9  C   UNL     1     173.232 187.830 194.899  1.00  0.00     0.000 C 
BRANCH   9  10
ATOM     10  C   UNL     1     174.099 186.702 195.476  1.00  0.00     0.006 C 
BRANCH  10  11
ATOM     11  C   UNL     1     174.012 185.417 194.640  1.00  0.00     0.053 C 
BRANCH  11  12
ATOM     12  C   UNL     1     173.873 184.201 195.503  1.00  0.00     0.041 C 
ATOM     13  O   UNL     1     172.937 183.384 195.299  1.00  0.00    -0.550 OA
ATOM     14  O   UNL     1     174.795 183.952 196.510  1.00  0.00    -0.550 OA
ENDBRANCH  11  12
ENDBRANCH  10  11
ENDBRANCH   9  10
ENDBRANCH   8   9
ENDBRANCH   1   8
TORSDOF 9
ENDMDL
MODEL 7
REMARK VINA RESULT:     0.004      3.957      6.013
REMARK INTER + INTRA:          -1.291
REMARK INTER:                   0.000
REMARK INTRA:                  -1.291
REMARK UNBOUND:                -1.297
REMARK SMILES O=C([O-])CCCCCCCCC(=O)[O-]
REMARK SMILES IDX 7 1 6 2 5 3 4 4 2 5 1 6 3 7 8 8 9 9 10 10 11 11 12 12 13 13
REMARK SMILES IDX 14 14
REMARK H PARENT
REMARK Flexibility Score: inf
ROOT
ATOM      1  C   UNL     1     176.274 195.633 197.180  1.00  0.00     0.000 C 
ENDROOT
BRANCH   1   2
ATOM      2  C   UNL     1     175.428 194.645 196.370  1.00  0.00     0.000 C 
BRANCH   2   3
ATOM      3  C   UNL     1     174.618 195.370 195.288  1.00  0.00     0.006 C 
BRANCH   3   4
ATOM      4  C   UNL     1     174.722 196.889 195.449  1.00  0.00     0.053 C 
BRANCH   4   5
ATOM      5  C   UNL     1     175.063 197.532 194.141  1.00  0.00     0.041 C 
ATOM      6  O   UNL     1     175.816 198.540 194.108  1.00  0.00    -0.550 OA
ATOM      7  O   UNL     1     174.588 196.988 192.955  1.00  0.00    -0.550 OA
ENDBRANCH   4   5
ENDBRANCH   3   4
ENDBRANCH   2   3
ENDBRANCH   1   2
BRANCH   1   8
ATOM      8  C   UNL     1     177.767 195.458 196.876  1.00  0.00     0.000 C 
BRANCH   8   9
ATOM      9  C   UNL     1     178.382 196.765 196.364  1.00  0.00     0.000 C 
BRANCH   9  10
ATOM     10  C   UNL     1     178.708 196.671 194.866  1.00  0.00     0.006 C 
BRANCH  10  11
ATOM     11  C   UNL     1     178.539 195.245 194.324  1.00  0.00     0.053 C 
BRANCH  11  12
ATOM     12  C   UNL     1     177.714 195.220 193.074  1.00  0.00     0.041 C 
ATOM     13  O   UNL     1     176.921 194.266 192.857  1.00  0.00    -0.550 OA
ATOM     14  O   UNL     1     177.798 196.265 192.163  1.00  0.00    -0.550 OA
ENDBRANCH  11  12
ENDBRANCH  10  11
ENDBRANCH   9  10
ENDBRANCH   8   9
ENDBRANCH   1   8
TORSDOF 9
ENDMDL
MODEL 8
REMARK VINA RESULT:     0.004      4.499      6.122
REMARK INTER + INTRA:          -1.291
REMARK INTER:                   0.000
REMARK INTRA:                  -1.291
REMARK UNBOUND:                -1.297
REMARK SMILES O=C([O-])CCCCCCCCC(=O)[O-]
REMARK SMILES IDX 7 1 6 2 5 3 4 4 2 5 1 6 3 7 8 8 9 9 10 10 11 11 12 12 13 13
REMARK SMILES IDX 14 14
REMARK H PARENT
REMARK Flexibility Score: inf
ROOT
ATOM      1  C   UNL     1     176.360 188.382 196.870  1.00  0.00     0.000 C 
ENDROOT
BRANCH   1   2
ATOM      2  C   UNL     1     176.944 186.990 197.135  1.00  0.00     0.000 C 
BRANCH   2   3
ATOM      3  C   UNL     1     178.275 187.084 197.889  1.00  0.00     0.006 C 
BRANCH   3   4
ATOM      4  C   UNL     1     178.290 188.292 198.829  1.00  0.00     0.053 C 
BRANCH   4   5
ATOM      5  C   UNL     1     179.592 189.023 198.723  1.00  0.00     0.041 C 
ATOM      6  O   UNL     1     179.607 190.266 198.528  1.00  0.00    -0.550 OA
ATOM      7  O   UNL     1     180.789 188.337 198.890  1.00  0.00    -0.550 OA
ENDBRANCH   4   5
ENDBRANCH   3   4
ENDBRANCH   2   3
ENDBRANCH   1   2
BRANCH   1   8
ATOM      8  C   UNL     1     176.799 188.913 195.501  1.00  0.00     0.000 C 
BRANCH   8   9
ATOM      9  C   UNL     1     177.507 190.266 195.636  1.00  0.00     0.000 C 
BRANCH   9  10
ATOM     10  C   UNL     1     178.920 190.210 195.036  1.00  0.00     0.006 C 
BRANCH  10  11
ATOM     11  C   UNL     1     179.349 188.777 194.693  1.00  0.00     0.053 C 
BRANCH  11  12
ATOM     12  C   UNL     1     180.671 188.430 195.305  1.00  0.00     0.041 C 
ATOM     13  O   UNL     1     181.480 189.341 195.622  1.00  0.00    -0.550 OA
ATOM     14  O   UNL     1     180.996 187.103 195.555  1.00  0.00    -0.550 OA
ENDBRANCH  11  12
ENDBRANCH  10  11
ENDBRANCH   9  10
ENDBRANCH   8   9
ENDBRANCH   1   8
TORSDOF 9
ENDMDL
MODEL 9
REMARK VINA RESULT:     0.004     10.427     11.982
REMARK INTER + INTRA:          -1.290
REMARK INTER:                   0.000
REMARK INTRA:                  -1.290
REMARK UNBOUND:                -1.297
REMARK SMILES O=C([O-])CCCCCCCCC(=O)[O-]
REMARK SMILES IDX 7 1 6 2 5 3 4 4 2 5 1 6 3 7 8 8 9 9 10 10 11 11 12 12 13 13
REMARK SMILES IDX 14 14
REMARK H PARENT
REMARK Flexibility Score: inf
ROOT
ATOM      1  C   UNL     1     171.740 184.541 200.605  1.00  0.00     0.000 C 
ENDROOT
BRANCH   1   2
ATOM      2  C   UNL     1     172.945 184.030 199.807  1.00  0.00     0.000 C 
BRANCH   2   3
ATOM      3  C   UNL     1     174.261 184.370 200.518  1.00  0.00     0.006 C 
BRANCH   3   4
ATOM      4  C   UNL     1     174.069 184.418 202.036  1.00  0.00     0.053 C 
BRANCH   4   5
ATOM      5  C   UNL     1     174.753 185.618 202.613  1.00  0.00     0.041 C 
ATOM      6  O   UNL     1     174.132 186.389 203.391  1.00  0.00    -0.550 OA
ATOM      7  O   UNL     1     176.092 185.858 202.329  1.00  0.00    -0.550 OA
ENDBRANCH   4   5
ENDBRANCH   3   4
ENDBRANCH   2   3
ENDBRANCH   1   2
BRANCH   1   8
ATOM      8  C   UNL     1     171.304 185.927 200.118  1.00  0.00     0.000 C 
BRANCH   8   9
ATOM      9  C   UNL     1     171.336 186.948 201.260  1.00  0.00     0.000 C 
BRANCH   9  10
ATOM     10  C   UNL     1     172.236 188.142 200.907  1.00  0.00     0.006 C 
BRANCH  10  11
ATOM     11  C   UNL     1     173.109 187.866 199.675  1.00  0.00     0.053 C 
BRANCH  11  12
ATOM     12  C   UNL     1     174.563 188.081 199.964  1.00  0.00     0.041 C 
ATOM     13  O   UNL     1     174.916 188.816 200.923  1.00  0.00    -0.550 OA
ATOM     14  O   UNL     1     175.527 187.444 199.194  1.00  0.00    -0.550 OA
ENDBRANCH  11  12
ENDBRANCH  10  11
ENDBRANCH   9  10
ENDBRANCH   8   9
ENDBRANCH   1   8
TORSDOF 9
ENDMDL
