MODEL 1
REMARK VINA RESULT:    -3.262      0.000      0.000
REMARK INTER + INTRA:         -14.298
REMARK INTER:                  -8.602
REMARK INTRA:                  -5.696
REMARK UNBOUND:                -5.696
REMARK SMILES CCCCCCCCCCCCCCCCCCCCCCCCCCCCCC(=O)[O-]
REMARK SMILES IDX 16 1 17 2 18 3 19 4 20 5 21 6 22 7 23 8 24 9 25 10 26 11
REMARK SMILES IDX 27 12 28 13 29 14 30 15 31 16 32 17 15 18 14 19 13 20 12 21
REMARK SMILES IDX 11 22 10 23 9 24 8 25 7 26 6 27 5 28 4 29 3 30 2 31 1 32
REMARK H PARENT
REMARK Flexibility Score: inf
ROOT
ATOM      1  C   UNL     1      60.550  19.613  50.645  1.00  0.00     0.000 C 
ENDROOT
BRANCH   1   2
ATOM      2  C   UNL     1      60.175  18.145  50.390  1.00  0.00     0.000 C 
BRANCH   2   3
ATOM      3  C   UNL     1      58.960  17.988  49.461  1.00  0.00     0.000 C 
BRANCH   3   4
ATOM      4  C   UNL     1      57.737  17.388  50.175  1.00  0.00     0.000 C 
BRANCH   4   5
ATOM      5  C   UNL     1      56.622  18.421  50.410  1.00  0.00     0.000 C 
BRANCH   5   6
ATOM      6  C   UNL     1      56.602  18.994  51.844  1.00  0.00     0.000 C 
BRANCH   6   7
ATOM      7  C   UNL     1      57.500  18.197  52.802  1.00  0.00     0.000 C 
BRANCH   7   8
ATOM      8  C   UNL     1      57.169  18.524  54.262  1.00  0.00     0.000 C 
BRANCH   8   9
ATOM      9  C   UNL     1      58.441  18.804  55.070  1.00  0.00     0.000 C 
BRANCH   9  10
ATOM     10  C   UNL     1      59.539  19.399  54.175  1.00  0.00     0.000 C 
BRANCH  10  11
ATOM     11  C   UNL     1      60.206  20.634  54.803  1.00  0.00     0.000 C 
BRANCH  11  12
ATOM     12  C   UNL     1      59.956  21.915  53.987  1.00  0.00     0.000 C 
BRANCH  12  13
ATOM     13  C   UNL     1      58.773  21.773  53.016  1.00  0.00     0.006 C 
BRANCH  13  14
ATOM     14  C   UNL     1      57.658  22.788  53.297  1.00  0.00     0.053 C 
BRANCH  14  15
ATOM     15  C   UNL     1      56.610  22.182  54.175  1.00  0.00     0.041 C 
ATOM     16  O   UNL     1      56.872  21.906  55.376  1.00  0.00    -0.550 OA
ATOM     17  O   UNL     1      55.328  21.971  53.686  1.00  0.00    -0.550 OA
ENDBRANCH  14  15
ENDBRANCH  13  14
ENDBRANCH  12  13
ENDBRANCH  11  12
ENDBRANCH  10  11
ENDBRANCH   9  10
ENDBRANCH   8   9
ENDBRANCH   7   8
ENDBRANCH   6   7
ENDBRANCH   5   6
ENDBRANCH   4   5
ENDBRANCH   3   4
ENDBRANCH   2   3
ENDBRANCH   1   2
BRANCH   1  18
ATOM     18  C   UNL     1      59.869  20.538  49.626  1.00  0.00     0.000 C 
BRANCH  18  19
ATOM     19  C   UNL     1      60.752  21.728  49.210  1.00  0.00     0.000 C 
BRANCH  19  20
ATOM     20  C   UNL     1      61.846  22.118  50.222  1.00  0.00     0.000 C 
BRANCH  20  21
ATOM     21  C   UNL     1      61.515  23.406  50.997  1.00  0.00     0.000 C 
BRANCH  21  22
ATOM     22  C   UNL     1      60.971  24.519  50.089  1.00  0.00     0.000 C 
BRANCH  22  23
ATOM     23  C   UNL     1      59.554  24.967  50.490  1.00  0.00     0.000 C 
BRANCH  23  24
ATOM     24  C   UNL     1      59.509  25.645  51.872  1.00  0.00    -0.000 C 
BRANCH  24  25
ATOM     25  C   UNL     1      58.198  26.384  52.201  1.00  0.00    -0.000 C 
BRANCH  25  26
ATOM     26  C   UNL     1      57.126  26.218  51.109  1.00  0.00    -0.000 C 
BRANCH  26  27
ATOM     27  C   UNL     1      56.765  27.548  50.428  1.00  0.00    -0.000 C 
BRANCH  27  28
ATOM     28  C   UNL     1      57.704  28.700  50.823  1.00  0.00    -0.000 C 
BRANCH  28  29
ATOM     29  C   UNL     1      58.453  29.283  49.605  1.00  0.00    -0.000 C 
BRANCH  29  30
ATOM     30  C   UNL     1      59.664  28.439  49.163  1.00  0.00    -0.000 C 
BRANCH  30  31
ATOM     31  C   UNL     1      60.893  28.557  50.081  1.00  0.00    -0.003 C 
ATOM     32  C   UNL     1      62.140  27.900  49.489  1.00  0.00     0.004 C 
ENDBRANCH  30  31
ENDBRANCH  29  30
ENDBRANCH  28  29
ENDBRANCH  27  28
ENDBRANCH  26  27
ENDBRANCH  25  26
ENDBRANCH  24  25
ENDBRANCH  23  24
ENDBRANCH  22  23
ENDBRANCH  21  22
ENDBRANCH  20  21
ENDBRANCH  19  20
ENDBRANCH  18  19
ENDBRANCH   1  18
TORSDOF 28
ENDMDL
MODEL 2
REMARK VINA RESULT:    -3.000      4.687      8.607
REMARK INTER + INTRA:         -13.607
REMARK INTER:                  -6.895
REMARK INTRA:                  -6.712
REMARK UNBOUND:                -5.696
REMARK SMILES CCCCCCCCCCCCCCCCCCCCCCCCCCCCCC(=O)[O-]
REMARK SMILES IDX 16 1 17 2 18 3 19 4 20 5 21 6 22 7 23 8 24 9 25 10 26 11
REMARK SMILES IDX 27 12 28 13 29 14 30 15 31 16 32 17 15 18 14 19 13 20 12 21
REMARK SMILES IDX 11 22 10 23 9 24 8 25 7 26 6 27 5 28 4 29 3 30 2 31 1 32
REMARK H PARENT
REMARK Flexibility Score: inf
ROOT
ATOM      1  C   UNL     1      55.658  28.931  50.789  1.00  0.00     0.000 C 
ENDROOT
BRANCH   1   2
ATOM      2  C   UNL     1      57.089  28.375  50.727  1.00  0.00     0.000 C 
BRANCH   2   3
ATOM      3  C   UNL     1      58.050  29.278  49.937  1.00  0.00     0.000 C 
BRANCH   3   4
ATOM      4  C   UNL     1      59.204  28.497  49.288  1.00  0.00     0.000 C 
BRANCH   4   5
ATOM      5  C   UNL     1      59.156  26.992  49.605  1.00  0.00     0.000 C 
BRANCH   5   6
ATOM      6  C   UNL     1      60.516  26.409  50.047  1.00  0.00     0.000 C 
BRANCH   6   7
ATOM      7  C   UNL     1      61.253  27.330  51.031  1.00  0.00     0.000 C 
BRANCH   7   8
ATOM      8  C   UNL     1      60.521  27.390  52.377  1.00  0.00     0.000 C 
BRANCH   8   9
ATOM      9  C   UNL     1      60.845  28.687  53.126  1.00  0.00     0.000 C 
BRANCH   9  10
ATOM     10  C   UNL     1      59.613  29.600  53.203  1.00  0.00     0.000 C 
BRANCH  10  11
ATOM     11  C   UNL     1      59.889  31.009  52.653  1.00  0.00     0.000 C 
BRANCH  11  12
ATOM     12  C   UNL     1      58.749  31.995  52.964  1.00  0.00     0.000 C 
BRANCH  12  13
ATOM     13  C   UNL     1      57.418  31.284  53.253  1.00  0.00     0.006 C 
BRANCH  13  14
ATOM     14  C   UNL     1      56.393  32.206  53.926  1.00  0.00     0.053 C 
BRANCH  14  15
ATOM     15  C   UNL     1      55.010  31.667  53.747  1.00  0.00     0.041 C 
ATOM     16  O   UNL     1      54.484  31.638  52.602  1.00  0.00    -0.550 OA
ATOM     17  O   UNL     1      54.319  31.148  54.834  1.00  0.00    -0.550 OA
ENDBRANCH  14  15
ENDBRANCH  13  14
ENDBRANCH  12  13
ENDBRANCH  11  12
ENDBRANCH  10  11
ENDBRANCH   9  10
ENDBRANCH   8   9
ENDBRANCH   7   8
ENDBRANCH   6   7
ENDBRANCH   5   6
ENDBRANCH   4   5
ENDBRANCH   3   4
ENDBRANCH   2   3
ENDBRANCH   1   2
BRANCH   1  18
ATOM     18  C   UNL     1      54.677  28.004  50.059  1.00  0.00     0.000 C 
BRANCH  18  19
ATOM     19  C   UNL     1      55.239  26.587  49.839  1.00  0.00     0.000 C 
BRANCH  19  20
ATOM     20  C   UNL     1      54.183  25.497  49.576  1.00  0.00     0.000 C 
BRANCH  20  21
ATOM     21  C   UNL     1      53.055  25.489  50.622  1.00  0.00     0.000 C 
BRANCH  21  22
ATOM     22  C   UNL     1      53.353  24.558  51.807  1.00  0.00     0.000 C 
BRANCH  22  23
ATOM     23  C   UNL     1      53.469  25.318  53.139  1.00  0.00     0.000 C 
BRANCH  23  24
ATOM     24  C   UNL     1      52.877  26.739  53.072  1.00  0.00    -0.000 C 
BRANCH  24  25
ATOM     25  C   UNL     1      53.763  27.851  53.666  1.00  0.00    -0.000 C 
BRANCH  25  26
ATOM     26  C   UNL     1      54.827  27.314  54.639  1.00  0.00    -0.000 C 
BRANCH  26  27
ATOM     27  C   UNL     1      56.138  28.114  54.581  1.00  0.00    -0.000 C 
BRANCH  27  28
ATOM     28  C   UNL     1      57.382  27.220  54.444  1.00  0.00    -0.000 C 
BRANCH  28  29
ATOM     29  C   UNL     1      57.014  25.758  54.114  1.00  0.00    -0.000 C 
BRANCH  29  30
ATOM     30  C   UNL     1      57.224  25.386  52.634  1.00  0.00    -0.000 C 
BRANCH  30  31
ATOM     31  C   UNL     1      58.344  24.361  52.386  1.00  0.00    -0.003 C 
ATOM     32  C   UNL     1      59.203  24.111  53.625  1.00  0.00     0.004 C 
ENDBRANCH  30  31
ENDBRANCH  29  30
ENDBRANCH  28  29
ENDBRANCH  27  28
ENDBRANCH  26  27
ENDBRANCH  25  26
ENDBRANCH  24  25
ENDBRANCH  23  24
ENDBRANCH  22  23
ENDBRANCH  21  22
ENDBRANCH  20  21
ENDBRANCH  19  20
ENDBRANCH  18  19
ENDBRANCH   1  18
TORSDOF 28
ENDMDL
MODEL 3
REMARK VINA RESULT:    -2.982     10.536     13.570
REMARK INTER + INTRA:         -13.559
REMARK INTER:                  -8.228
REMARK INTRA:                  -5.331
REMARK UNBOUND:                -5.696
REMARK SMILES CCCCCCCCCCCCCCCCCCCCCCCCCCCCCC(=O)[O-]
REMARK SMILES IDX 16 1 17 2 18 3 19 4 20 5 21 6 22 7 23 8 24 9 25 10 26 11
REMARK SMILES IDX 27 12 28 13 29 14 30 15 31 16 32 17 15 18 14 19 13 20 12 21
REMARK SMILES IDX 11 22 10 23 9 24 8 25 7 26 6 27 5 28 4 29 3 30 2 31 1 32
REMARK H PARENT
REMARK Flexibility Score: inf
ROOT
ATOM      1  C   UNL     1      62.856  31.960  60.119  1.00  0.00     0.000 C 
ENDROOT
BRANCH   1   2
ATOM      2  C   UNL     1      61.534  32.163  60.876  1.00  0.00     0.000 C 
BRANCH   2   3
ATOM      3  C   UNL     1      61.018  30.875  61.538  1.00  0.00     0.000 C 
BRANCH   3   4
ATOM      4  C   UNL     1      62.090  29.776  61.622  1.00  0.00     0.000 C 
BRANCH   4   5
ATOM      5  C   UNL     1      61.566  28.400  61.178  1.00  0.00     0.000 C 
BRANCH   5   6
ATOM      6  C   UNL     1      62.616  27.273  61.285  1.00  0.00     0.000 C 
BRANCH   6   7
ATOM      7  C   UNL     1      62.627  26.367  60.044  1.00  0.00     0.000 C 
BRANCH   7   8
ATOM      8  C   UNL     1      62.490  27.193  58.761  1.00  0.00     0.000 C 
BRANCH   8   9
ATOM      9  C   UNL     1      63.863  27.593  58.210  1.00  0.00     0.000 C 
BRANCH   9  10
ATOM     10  C   UNL     1      64.034  29.119  58.216  1.00  0.00     0.000 C 
BRANCH  10  11
ATOM     11  C   UNL     1      65.367  29.560  58.843  1.00  0.00     0.000 C 
BRANCH  11  12
ATOM     12  C   UNL     1      65.430  29.271  60.353  1.00  0.00     0.000 C 
BRANCH  12  13
ATOM     13  C   UNL     1      66.371  28.104  60.690  1.00  0.00     0.006 C 
BRANCH  13  14
ATOM     14  C   UNL     1      67.652  28.120  59.846  1.00  0.00     0.053 C 
BRANCH  14  15
ATOM     15  C   UNL     1      68.827  28.506  60.687  1.00  0.00     0.041 C 
ATOM     16  O   UNL     1      69.991  28.465  60.208  1.00  0.00    -0.550 OA
ATOM     17  O   UNL     1      68.633  28.963  61.985  1.00  0.00    -0.550 OA
ENDBRANCH  14  15
ENDBRANCH  13  14
ENDBRANCH  12  13
ENDBRANCH  11  12
ENDBRANCH  10  11
ENDBRANCH   9  10
ENDBRANCH   8   9
ENDBRANCH   7   8
ENDBRANCH   6   7
ENDBRANCH   5   6
ENDBRANCH   4   5
ENDBRANCH   3   4
ENDBRANCH   2   3
ENDBRANCH   1   2
BRANCH   1  18
ATOM     18  C   UNL     1      63.995  32.743  60.786  1.00  0.00     0.000 C 
BRANCH  18  19
ATOM     19  C   UNL     1      64.125  34.184  60.258  1.00  0.00     0.000 C 
BRANCH  19  20
ATOM     20  C   UNL     1      64.069  35.284  61.335  1.00  0.00     0.000 C 
BRANCH  20  21
ATOM     21  C   UNL     1      63.012  36.362  61.038  1.00  0.00     0.000 C 
BRANCH  21  22
ATOM     22  C   UNL     1      61.670  35.765  60.589  1.00  0.00     0.000 C 
BRANCH  22  23
ATOM     23  C   UNL     1      61.274  36.206  59.169  1.00  0.00     0.000 C 
BRANCH  23  24
ATOM     24  C   UNL     1      61.058  35.019  58.210  1.00  0.00    -0.000 C 
BRANCH  24  25
ATOM     25  C   UNL     1      59.595  34.567  58.041  1.00  0.00    -0.000 C 
BRANCH  25  26
ATOM     26  C   UNL     1      59.445  33.364  57.093  1.00  0.00    -0.000 C 
BRANCH  26  27
ATOM     27  C   UNL     1      60.175  32.112  57.606  1.00  0.00    -0.000 C 
BRANCH  27  28
ATOM     28  C   UNL     1      59.214  31.009  58.082  1.00  0.00    -0.000 C 
BRANCH  28  29
ATOM     29  C   UNL     1      59.915  29.638  58.198  1.00  0.00    -0.000 C 
BRANCH  29  30
ATOM     30  C   UNL     1      59.027  28.453  57.776  1.00  0.00    -0.000 C 
BRANCH  30  31
ATOM     31  C   UNL     1      58.759  27.426  58.890  1.00  0.00    -0.003 C 
ATOM     32  C   UNL     1      58.222  28.067  60.169  1.00  0.00     0.004 C 
ENDBRANCH  30  31
ENDBRANCH  29  30
ENDBRANCH  28  29
ENDBRANCH  27  28
ENDBRANCH  26  27
ENDBRANCH  25  26
ENDBRANCH  24  25
ENDBRANCH  23  24
ENDBRANCH  22  23
ENDBRANCH  21  22
ENDBRANCH  20  21
ENDBRANCH  19  20
ENDBRANCH  18  19
ENDBRANCH   1  18
TORSDOF 28
ENDMDL
MODEL 4
REMARK VINA RESULT:    -2.982     10.152     13.584
REMARK INTER + INTRA:         -13.559
REMARK INTER:                  -7.468
REMARK INTRA:                  -6.091
REMARK UNBOUND:                -5.696
REMARK SMILES CCCCCCCCCCCCCCCCCCCCCCCCCCCCCC(=O)[O-]
REMARK SMILES IDX 16 1 17 2 18 3 19 4 20 5 21 6 22 7 23 8 24 9 25 10 26 11
REMARK SMILES IDX 27 12 28 13 29 14 30 15 31 16 32 17 15 18 14 19 13 20 12 21
REMARK SMILES IDX 11 22 10 23 9 24 8 25 7 26 6 27 5 28 4 29 3 30 2 31 1 32
REMARK H PARENT
REMARK Flexibility Score: inf
ROOT
ATOM      1  C   UNL     1      65.665  29.641  60.203  1.00  0.00     0.000 C 
ENDROOT
BRANCH   1   2
ATOM      2  C   UNL     1      64.646  30.767  59.967  1.00  0.00     0.000 C 
BRANCH   2   3
ATOM      3  C   UNL     1      63.821  31.102  61.220  1.00  0.00     0.000 C 
BRANCH   3   4
ATOM      4  C   UNL     1      62.754  30.040  61.533  1.00  0.00     0.000 C 
BRANCH   4   5
ATOM      5  C   UNL     1      61.326  30.614  61.531  1.00  0.00     0.000 C 
BRANCH   5   6
ATOM      6  C   UNL     1      60.387  29.935  60.510  1.00  0.00     0.000 C 
BRANCH   6   7
ATOM      7  C   UNL     1      60.116  30.824  59.287  1.00  0.00     0.000 C 
BRANCH   7   8
ATOM      8  C   UNL     1      60.929  30.352  58.076  1.00  0.00     0.000 C 
BRANCH   8   9
ATOM      9  C   UNL     1      61.989  31.386  57.684  1.00  0.00     0.000 C 
BRANCH   9  10
ATOM     10  C   UNL     1      61.474  32.815  57.911  1.00  0.00     0.000 C 
BRANCH  10  11
ATOM     11  C   UNL     1      62.428  33.655  58.776  1.00  0.00     0.000 C 
BRANCH  11  12
ATOM     12  C   UNL     1      61.796  34.067  60.118  1.00  0.00     0.000 C 
BRANCH  12  13
ATOM     13  C   UNL     1      62.563  35.208  60.804  1.00  0.00     0.006 C 
BRANCH  13  14
ATOM     14  C   UNL     1      64.010  34.825  61.140  1.00  0.00     0.053 C 
BRANCH  14  15
ATOM     15  C   UNL     1      64.960  35.836  60.581  1.00  0.00     0.041 C 
ATOM     16  O   UNL     1      66.039  36.090  61.180  1.00  0.00    -0.550 OA
ATOM     17  O   UNL     1      64.681  36.461  59.372  1.00  0.00    -0.550 OA
ENDBRANCH  14  15
ENDBRANCH  13  14
ENDBRANCH  12  13
ENDBRANCH  11  12
ENDBRANCH  10  11
ENDBRANCH   9  10
ENDBRANCH   8   9
ENDBRANCH   7   8
ENDBRANCH   6   7
ENDBRANCH   5   6
ENDBRANCH   4   5
ENDBRANCH   3   4
ENDBRANCH   2   3
ENDBRANCH   1   2
BRANCH   1  18
ATOM     18  C   UNL     1      65.190  28.330  59.562  1.00  0.00     0.000 C 
BRANCH  18  19
ATOM     19  C   UNL     1      64.175  28.548  58.425  1.00  0.00     0.000 C 
BRANCH  19  20
ATOM     20  C   UNL     1      63.961  27.339  57.496  1.00  0.00     0.000 C 
BRANCH  20  21
ATOM     21  C   UNL     1      62.510  26.825  57.504  1.00  0.00     0.000 C 
BRANCH  21  22
ATOM     22  C   UNL     1      61.843  26.962  58.881  1.00  0.00     0.000 C 
BRANCH  22  23
ATOM     23  C   UNL     1      62.219  25.815  59.835  1.00  0.00     0.000 C 
BRANCH  23  24
ATOM     24  C   UNL     1      62.695  26.312  61.213  1.00  0.00    -0.000 C 
BRANCH  24  25
ATOM     25  C   UNL     1      61.577  26.591  62.235  1.00  0.00    -0.000 C 
BRANCH  25  26
ATOM     26  C   UNL     1      60.898  25.309  62.747  1.00  0.00    -0.000 C 
BRANCH  26  27
ATOM     27  C   UNL     1      59.399  25.260  62.412  1.00  0.00    -0.000 C 
BRANCH  27  28
ATOM     28  C   UNL     1      58.951  26.406  61.488  1.00  0.00    -0.000 C 
BRANCH  28  29
ATOM     29  C   UNL     1      58.446  25.890  60.124  1.00  0.00    -0.000 C 
BRANCH  29  30
ATOM     30  C   UNL     1      57.331  26.757  59.510  1.00  0.00    -0.000 C 
BRANCH  30  31
ATOM     31  C   UNL     1      57.833  27.983  58.727  1.00  0.00    -0.003 C 
ATOM     32  C   UNL     1      58.463  27.611  57.385  1.00  0.00     0.004 C 
ENDBRANCH  30  31
ENDBRANCH  29  30
ENDBRANCH  28  29
ENDBRANCH  27  28
ENDBRANCH  26  27
ENDBRANCH  25  26
ENDBRANCH  24  25
ENDBRANCH  23  24
ENDBRANCH  22  23
ENDBRANCH  21  22
ENDBRANCH  20  21
ENDBRANCH  19  20
ENDBRANCH  18  19
ENDBRANCH   1  18
TORSDOF 28
ENDMDL
MODEL 5
REMARK VINA RESULT:    -2.976      9.618     12.090
REMARK INTER + INTRA:         -13.543
REMARK INTER:                  -7.611
REMARK INTRA:                  -5.932
REMARK UNBOUND:                -5.696
REMARK SMILES CCCCCCCCCCCCCCCCCCCCCCCCCCCCCC(=O)[O-]
REMARK SMILES IDX 16 1 17 2 18 3 19 4 20 5 21 6 22 7 23 8 24 9 25 10 26 11
REMARK SMILES IDX 27 12 28 13 29 14 30 15 31 16 32 17 15 18 14 19 13 20 12 21
REMARK SMILES IDX 11 22 10 23 9 24 8 25 7 26 6 27 5 28 4 29 3 30 2 31 1 32
REMARK H PARENT
REMARK Flexibility Score: inf
ROOT
ATOM      1  C   UNL     1      61.579  31.158  57.272  1.00  0.00     0.000 C 
ENDROOT
BRANCH   1   2
ATOM      2  C   UNL     1      60.912  29.781  57.133  1.00  0.00     0.000 C 
BRANCH   2   3
ATOM      3  C   UNL     1      61.872  28.616  57.426  1.00  0.00     0.000 C 
BRANCH   3   4
ATOM      4  C   UNL     1      63.344  29.056  57.476  1.00  0.00     0.000 C 
BRANCH   4   5
ATOM      5  C   UNL     1      64.226  28.088  58.284  1.00  0.00     0.000 C 
BRANCH   5   6
ATOM      6  C   UNL     1      63.438  26.933  58.939  1.00  0.00     0.000 C 
BRANCH   6   7
ATOM      7  C   UNL     1      63.777  26.768  60.428  1.00  0.00     0.000 C 
BRANCH   7   8
ATOM      8  C   UNL     1      62.519  26.448  61.244  1.00  0.00     0.000 C 
BRANCH   8   9
ATOM      9  C   UNL     1      61.266  26.475  60.362  1.00  0.00     0.000 C 
BRANCH   9  10
ATOM     10  C   UNL     1      60.316  27.602  60.791  1.00  0.00     0.000 C 
BRANCH  10  11
ATOM     11  C   UNL     1      59.147  27.794  59.811  1.00  0.00     0.000 C 
BRANCH  11  12
ATOM     12  C   UNL     1      57.911  26.965  60.200  1.00  0.00     0.000 C 
BRANCH  12  13
ATOM     13  C   UNL     1      57.536  27.128  61.681  1.00  0.00     0.006 C 
BRANCH  13  14
ATOM     14  C   UNL     1      56.089  26.708  61.971  1.00  0.00     0.053 C 
BRANCH  14  15
ATOM     15  C   UNL     1      55.145  27.430  61.063  1.00  0.00     0.041 C 
ATOM     16  O   UNL     1      54.998  28.678  61.164  1.00  0.00    -0.550 OA
ATOM     17  O   UNL     1      54.465  26.736  60.071  1.00  0.00    -0.550 OA
ENDBRANCH  14  15
ENDBRANCH  13  14
ENDBRANCH  12  13
ENDBRANCH  11  12
ENDBRANCH  10  11
ENDBRANCH   9  10
ENDBRANCH   8   9
ENDBRANCH   7   8
ENDBRANCH   6   7
ENDBRANCH   5   6
ENDBRANCH   4   5
ENDBRANCH   3   4
ENDBRANCH   2   3
ENDBRANCH   1   2
BRANCH   1  18
ATOM     18  C   UNL     1      60.864  32.008  58.332  1.00  0.00     0.000 C 
BRANCH  18  19
ATOM     19  C   UNL     1      60.369  31.182  59.533  1.00  0.00     0.000 C 
BRANCH  19  20
ATOM     20  C   UNL     1      60.773  31.728  60.915  1.00  0.00     0.000 C 
BRANCH  20  21
ATOM     21  C   UNL     1      61.678  30.762  61.700  1.00  0.00     0.000 C 
BRANCH  21  22
ATOM     22  C   UNL     1      62.869  30.261  60.869  1.00  0.00     0.000 C 
BRANCH  22  23
ATOM     23  C   UNL     1      64.096  31.184  60.982  1.00  0.00     0.000 C 
BRANCH  23  24
ATOM     24  C   UNL     1      64.422  31.912  59.664  1.00  0.00    -0.000 C 
BRANCH  24  25
ATOM     25  C   UNL     1      63.940  33.373  59.583  1.00  0.00    -0.000 C 
BRANCH  25  26
ATOM     26  C   UNL     1      64.087  34.129  60.915  1.00  0.00    -0.000 C 
BRANCH  26  27
ATOM     27  C   UNL     1      63.189  35.375  60.990  1.00  0.00    -0.000 C 
BRANCH  27  28
ATOM     28  C   UNL     1      61.765  35.122  60.465  1.00  0.00    -0.000 C 
BRANCH  28  29
ATOM     29  C   UNL     1      61.324  36.193  59.444  1.00  0.00    -0.000 C 
BRANCH  29  30
ATOM     30  C   UNL     1      60.924  35.613  58.075  1.00  0.00    -0.000 C 
BRANCH  30  31
ATOM     31  C   UNL     1      62.100  35.382  57.110  1.00  0.00    -0.003 C 
ATOM     32  C   UNL     1      63.240  36.379  57.317  1.00  0.00     0.004 C 
ENDBRANCH  30  31
ENDBRANCH  29  30
ENDBRANCH  28  29
ENDBRANCH  27  28
ENDBRANCH  26  27
ENDBRANCH  25  26
ENDBRANCH  24  25
ENDBRANCH  23  24
ENDBRANCH  22  23
ENDBRANCH  21  22
ENDBRANCH  20  21
ENDBRANCH  19  20
ENDBRANCH  18  19
ENDBRANCH   1  18
TORSDOF 28
ENDMDL
MODEL 6
REMARK VINA RESULT:    -2.959      9.844     12.438
REMARK INTER + INTRA:         -13.499
REMARK INTER:                  -7.857
REMARK INTRA:                  -5.642
REMARK UNBOUND:                -5.696
REMARK SMILES CCCCCCCCCCCCCCCCCCCCCCCCCCCCCC(=O)[O-]
REMARK SMILES IDX 16 1 17 2 18 3 19 4 20 5 21 6 22 7 23 8 24 9 25 10 26 11
REMARK SMILES IDX 27 12 28 13 29 14 30 15 31 16 32 17 15 18 14 19 13 20 12 21
REMARK SMILES IDX 11 22 10 23 9 24 8 25 7 26 6 27 5 28 4 29 3 30 2 31 1 32
REMARK H PARENT
REMARK Flexibility Score: inf
ROOT
ATOM      1  C   UNL     1      61.322  32.255  60.615  1.00  0.00     0.000 C 
ENDROOT
BRANCH   1   2
ATOM      2  C   UNL     1      60.961  32.385  59.127  1.00  0.00     0.000 C 
BRANCH   2   3
ATOM      3  C   UNL     1      60.595  31.041  58.478  1.00  0.00     0.000 C 
BRANCH   3   4
ATOM      4  C   UNL     1      61.778  30.392  57.740  1.00  0.00     0.000 C 
BRANCH   4   5
ATOM      5  C   UNL     1      61.390  29.082  57.032  1.00  0.00     0.000 C 
BRANCH   5   6
ATOM      6  C   UNL     1      62.360  27.915  57.316  1.00  0.00     0.000 C 
BRANCH   6   7
ATOM      7  C   UNL     1      62.370  27.514  58.799  1.00  0.00     0.000 C 
BRANCH   7   8
ATOM      8  C   UNL     1      62.862  26.073  58.973  1.00  0.00     0.000 C 
BRANCH   8   9
ATOM      9  C   UNL     1      62.173  25.392  60.161  1.00  0.00     0.000 C 
BRANCH   9  10
ATOM     10  C   UNL     1      62.257  26.267  61.420  1.00  0.00     0.000 C 
BRANCH  10  11
ATOM     11  C   UNL     1      60.955  26.251  62.237  1.00  0.00     0.000 C 
BRANCH  11  12
ATOM     12  C   UNL     1      59.701  26.219  61.345  1.00  0.00     0.000 C 
BRANCH  12  13
ATOM     13  C   UNL     1      59.112  27.618  61.107  1.00  0.00     0.006 C 
BRANCH  13  14
ATOM     14  C   UNL     1      58.879  27.912  59.619  1.00  0.00     0.053 C 
BRANCH  14  15
ATOM     15  C   UNL     1      57.434  27.744  59.275  1.00  0.00     0.041 C 
ATOM     16  O   UNL     1      56.615  27.349  60.147  1.00  0.00    -0.550 OA
ATOM     17  O   UNL     1      56.978  28.074  58.004  1.00  0.00    -0.550 OA
ENDBRANCH  14  15
ENDBRANCH  13  14
ENDBRANCH  12  13
ENDBRANCH  11  12
ENDBRANCH  10  11
ENDBRANCH   9  10
ENDBRANCH   8   9
ENDBRANCH   7   8
ENDBRANCH   6   7
ENDBRANCH   5   6
ENDBRANCH   4   5
ENDBRANCH   3   4
ENDBRANCH   2   3
ENDBRANCH   1   2
BRANCH   1  18
ATOM     18  C   UNL     1      60.789  30.938  61.195  1.00  0.00     0.000 C 
BRANCH  18  19
ATOM     19  C   UNL     1      61.909  29.970  61.619  1.00  0.00     0.000 C 
BRANCH  19  20
ATOM     20  C   UNL     1      63.341  30.507  61.442  1.00  0.00     0.000 C 
BRANCH  20  21
ATOM     21  C   UNL     1      64.307  29.460  60.860  1.00  0.00     0.000 C 
BRANCH  21  22
ATOM     22  C   UNL     1      65.122  30.001  59.676  1.00  0.00     0.000 C 
BRANCH  22  23
ATOM     23  C   UNL     1      64.827  31.483  59.386  1.00  0.00     0.000 C 
BRANCH  23  24
ATOM     24  C   UNL     1      65.256  31.914  57.970  1.00  0.00    -0.000 C 
BRANCH  24  25
ATOM     25  C   UNL     1      64.964  33.383  57.613  1.00  0.00    -0.000 C 
BRANCH  25  26
ATOM     26  C   UNL     1      63.997  34.061  58.600  1.00  0.00    -0.000 C 
BRANCH  26  27
ATOM     27  C   UNL     1      64.712  35.023  59.562  1.00  0.00    -0.000 C 
BRANCH  27  28
ATOM     28  C   UNL     1      64.164  34.956  60.997  1.00  0.00    -0.000 C 
BRANCH  28  29
ATOM     29  C   UNL     1      63.590  36.311  61.465  1.00  0.00    -0.000 C 
BRANCH  29  30
ATOM     30  C   UNL     1      62.419  36.817  60.601  1.00  0.00    -0.000 C 
BRANCH  30  31
ATOM     31  C   UNL     1      61.233  35.843  60.500  1.00  0.00    -0.003 C 
ATOM     32  C   UNL     1      60.090  36.389  59.644  1.00  0.00     0.004 C 
ENDBRANCH  30  31
ENDBRANCH  29  30
ENDBRANCH  28  29
ENDBRANCH  27  28
ENDBRANCH  26  27
ENDBRANCH  25  26
ENDBRANCH  24  25
ENDBRANCH  23  24
ENDBRANCH  22  23
ENDBRANCH  21  22
ENDBRANCH  20  21
ENDBRANCH  19  20
ENDBRANCH  18  19
ENDBRANCH   1  18
TORSDOF 28
ENDMDL
MODEL 7
REMARK VINA RESULT:    -2.944     10.542     13.654
REMARK INTER + INTRA:         -13.460
REMARK INTER:                  -7.247
REMARK INTRA:                  -6.213
REMARK UNBOUND:                -5.696
REMARK SMILES CCCCCCCCCCCCCCCCCCCCCCCCCCCCCC(=O)[O-]
REMARK SMILES IDX 16 1 17 2 18 3 19 4 20 5 21 6 22 7 23 8 24 9 25 10 26 11
REMARK SMILES IDX 27 12 28 13 29 14 30 15 31 16 32 17 15 18 14 19 13 20 12 21
REMARK SMILES IDX 11 22 10 23 9 24 8 25 7 26 6 27 5 28 4 29 3 30 2 31 1 32
REMARK H PARENT
REMARK Flexibility Score: inf
ROOT
ATOM      1  C   UNL     1      61.407  31.047  57.256  1.00  0.00     0.000 C 
ENDROOT
BRANCH   1   2
ATOM      2  C   UNL     1      62.317  29.828  57.041  1.00  0.00     0.000 C 
BRANCH   2   3
ATOM      3  C   UNL     1      63.701  29.989  57.689  1.00  0.00     0.000 C 
BRANCH   3   4
ATOM      4  C   UNL     1      63.882  31.352  58.378  1.00  0.00     0.000 C 
BRANCH   4   5
ATOM      5  C   UNL     1      64.545  31.235  59.761  1.00  0.00     0.000 C 
BRANCH   5   6
ATOM      6  C   UNL     1      63.704  31.845  60.904  1.00  0.00     0.000 C 
BRANCH   6   7
ATOM      7  C   UNL     1      62.453  32.569  60.383  1.00  0.00     0.000 C 
BRANCH   7   8
ATOM      8  C   UNL     1      61.176  31.894  60.898  1.00  0.00     0.000 C 
BRANCH   8   9
ATOM      9  C   UNL     1      61.498  30.589  61.633  1.00  0.00     0.000 C 
BRANCH   9  10
ATOM     10  C   UNL     1      61.272  29.375  60.721  1.00  0.00     0.000 C 
BRANCH  10  11
ATOM     11  C   UNL     1      61.996  28.115  61.225  1.00  0.00     0.000 C 
BRANCH  11  12
ATOM     12  C   UNL     1      62.944  27.520  60.169  1.00  0.00     0.000 C 
BRANCH  12  13
ATOM     13  C   UNL     1      64.423  27.656  60.562  1.00  0.00     0.006 C 
BRANCH  13  14
ATOM     14  C   UNL     1      65.312  26.609  59.878  1.00  0.00     0.053 C 
BRANCH  14  15
ATOM     15  C   UNL     1      66.710  27.122  59.739  1.00  0.00     0.041 C 
ATOM     16  O   UNL     1      67.221  27.270  58.598  1.00  0.00    -0.550 OA
ATOM     17  O   UNL     1      67.433  27.486  60.869  1.00  0.00    -0.550 OA
ENDBRANCH  14  15
ENDBRANCH  13  14
ENDBRANCH  12  13
ENDBRANCH  11  12
ENDBRANCH  10  11
ENDBRANCH   9  10
ENDBRANCH   8   9
ENDBRANCH   7   8
ENDBRANCH   6   7
ENDBRANCH   5   6
ENDBRANCH   4   5
ENDBRANCH   3   4
ENDBRANCH   2   3
ENDBRANCH   1   2
BRANCH   1  18
ATOM     18  C   UNL     1      60.477  31.256  56.053  1.00  0.00     0.000 C 
BRANCH  18  19
ATOM     19  C   UNL     1      59.446  32.377  56.276  1.00  0.00     0.000 C 
BRANCH  19  20
ATOM     20  C   UNL     1      59.277  32.830  57.739  1.00  0.00     0.000 C 
BRANCH  20  21
ATOM     21  C   UNL     1      59.790  34.259  57.988  1.00  0.00     0.000 C 
BRANCH  21  22
ATOM     22  C   UNL     1      60.142  34.996  56.686  1.00  0.00     0.000 C 
BRANCH  22  23
ATOM     23  C   UNL     1      61.613  35.444  56.642  1.00  0.00     0.000 C 
BRANCH  23  24
ATOM     24  C   UNL     1      62.524  34.603  57.558  1.00  0.00    -0.000 C 
BRANCH  24  25
ATOM     25  C   UNL     1      64.018  34.975  57.521  1.00  0.00    -0.000 C 
BRANCH  25  26
ATOM     26  C   UNL     1      64.266  36.483  57.703  1.00  0.00    -0.000 C 
BRANCH  26  27
ATOM     27  C   UNL     1      64.788  36.831  59.106  1.00  0.00    -0.000 C 
BRANCH  27  28
ATOM     28  C   UNL     1      65.038  35.590  59.980  1.00  0.00    -0.000 C 
BRANCH  28  29
ATOM     29  C   UNL     1      64.185  35.603  61.266  1.00  0.00    -0.000 C 
BRANCH  29  30
ATOM     30  C   UNL     1      63.037  36.629  61.236  1.00  0.00    -0.000 C 
BRANCH  30  31
ATOM     31  C   UNL     1      61.690  36.067  60.751  1.00  0.00    -0.003 C 
ATOM     32  C   UNL     1      60.857  37.099  59.990  1.00  0.00     0.004 C 
ENDBRANCH  30  31
ENDBRANCH  29  30
ENDBRANCH  28  29
ENDBRANCH  27  28
ENDBRANCH  26  27
ENDBRANCH  25  26
ENDBRANCH  24  25
ENDBRANCH  23  24
ENDBRANCH  22  23
ENDBRANCH  21  22
ENDBRANCH  20  21
ENDBRANCH  19  20
ENDBRANCH  18  19
ENDBRANCH   1  18
TORSDOF 28
ENDMDL
MODEL 8
REMARK VINA RESULT:    -2.944      5.725      9.358
REMARK INTER + INTRA:         -13.459
REMARK INTER:                  -8.125
REMARK INTRA:                  -5.335
REMARK UNBOUND:                -5.696
REMARK SMILES CCCCCCCCCCCCCCCCCCCCCCCCCCCCCC(=O)[O-]
REMARK SMILES IDX 16 1 17 2 18 3 19 4 20 5 21 6 22 7 23 8 24 9 25 10 26 11
REMARK SMILES IDX 27 12 28 13 29 14 30 15 31 16 32 17 15 18 14 19 13 20 12 21
REMARK SMILES IDX 11 22 10 23 9 24 8 25 7 26 6 27 5 28 4 29 3 30 2 31 1 32
REMARK H PARENT
REMARK Flexibility Score: inf
ROOT
ATOM      1  C   UNL     1      54.570  25.877  49.329  1.00  0.00     0.000 C 
ENDROOT
BRANCH   1   2
ATOM      2  C   UNL     1      53.245  26.651  49.252  1.00  0.00     0.000 C 
BRANCH   2   3
ATOM      3  C   UNL     1      53.030  27.596  50.445  1.00  0.00     0.000 C 
BRANCH   3   4
ATOM      4  C   UNL     1      53.065  29.080  50.045  1.00  0.00     0.000 C 
BRANCH   4   5
ATOM      5  C   UNL     1      54.175  29.864  50.766  1.00  0.00     0.000 C 
BRANCH   5   6
ATOM      6  C   UNL     1      54.393  29.424  52.229  1.00  0.00     0.000 C 
BRANCH   6   7
ATOM      7  C   UNL     1      53.454  30.154  53.203  1.00  0.00     0.000 C 
BRANCH   7   8
ATOM      8  C   UNL     1      53.923  31.594  53.440  1.00  0.00     0.000 C 
BRANCH   8   9
ATOM      9  C   UNL     1      55.221  31.627  54.255  1.00  0.00     0.000 C 
BRANCH   9  10
ATOM     10  C   UNL     1      56.169  32.717  53.735  1.00  0.00     0.000 C 
BRANCH  10  11
ATOM     11  C   UNL     1      57.642  32.420  54.058  1.00  0.00     0.000 C 
BRANCH  11  12
ATOM     12  C   UNL     1      58.612  33.217  53.168  1.00  0.00     0.000 C 
BRANCH  12  13
ATOM     13  C   UNL     1      60.003  32.570  53.086  1.00  0.00     0.006 C 
BRANCH  13  14
ATOM     14  C   UNL     1      61.116  33.508  53.570  1.00  0.00     0.053 C 
BRANCH  14  15
ATOM     15  C   UNL     1      61.837  34.108  52.405  1.00  0.00     0.041 C 
ATOM     16  O   UNL     1      61.538  35.263  52.000  1.00  0.00    -0.550 OA
ATOM     17  O   UNL     1      62.874  33.413  51.795  1.00  0.00    -0.550 OA
ENDBRANCH  14  15
ENDBRANCH  13  14
ENDBRANCH  12  13
ENDBRANCH  11  12
ENDBRANCH  10  11
ENDBRANCH   9  10
ENDBRANCH   8   9
ENDBRANCH   7   8
ENDBRANCH   6   7
ENDBRANCH   5   6
ENDBRANCH   4   5
ENDBRANCH   3   4
ENDBRANCH   2   3
ENDBRANCH   1   2
BRANCH   1  18
ATOM     18  C   UNL     1      55.302  26.175  50.645  1.00  0.00     0.000 C 
BRANCH  18  19
ATOM     19  C   UNL     1      56.832  26.050  50.525  1.00  0.00     0.000 C 
BRANCH  19  20
ATOM     20  C   UNL     1      57.543  25.477  51.765  1.00  0.00     0.000 C 
BRANCH  20  21
ATOM     21  C   UNL     1      59.035  25.192  51.523  1.00  0.00     0.000 C 
BRANCH  21  22
ATOM     22  C   UNL     1      59.520  25.700  50.156  1.00  0.00     0.000 C 
BRANCH  22  23
ATOM     23  C   UNL     1      61.015  26.063  50.159  1.00  0.00     0.000 C 
BRANCH  23  24
ATOM     24  C   UNL     1      61.291  27.471  49.597  1.00  0.00    -0.000 C 
BRANCH  24  25
ATOM     25  C   UNL     1      61.223  28.615  50.626  1.00  0.00    -0.000 C 
BRANCH  25  26
ATOM     26  C   UNL     1      60.308  29.770  50.181  1.00  0.00    -0.000 C 
BRANCH  26  27
ATOM     27  C   UNL     1      59.106  29.286  49.353  1.00  0.00    -0.000 C 
BRANCH  27  28
ATOM     28  C   UNL     1      57.800  29.230  50.164  1.00  0.00    -0.000 C 
BRANCH  28  29
ATOM     29  C   UNL     1      57.948  29.894  51.551  1.00  0.00    -0.000 C 
BRANCH  29  30
ATOM     30  C   UNL     1      57.907  28.894  52.722  1.00  0.00    -0.000 C 
BRANCH  30  31
ATOM     31  C   UNL     1      59.069  29.031  53.720  1.00  0.00    -0.003 C 
ATOM     32  C   UNL     1      59.808  27.714  53.953  1.00  0.00     0.004 C 
ENDBRANCH  30  31
ENDBRANCH  29  30
ENDBRANCH  28  29
ENDBRANCH  27  28
ENDBRANCH  26  27
ENDBRANCH  25  26
ENDBRANCH  24  25
ENDBRANCH  23  24
ENDBRANCH  22  23
ENDBRANCH  21  22
ENDBRANCH  20  21
ENDBRANCH  19  20
ENDBRANCH  18  19
ENDBRANCH   1  18
TORSDOF 28
ENDMDL
MODEL 9
REMARK VINA RESULT:    -2.830      5.590      8.288
REMARK INTER + INTRA:         -13.158
REMARK INTER:                  -7.346
REMARK INTRA:                  -5.811
REMARK UNBOUND:                -5.696
REMARK SMILES CCCCCCCCCCCCCCCCCCCCCCCCCCCCCC(=O)[O-]
REMARK SMILES IDX 16 1 17 2 18 3 19 4 20 5 21 6 22 7 23 8 24 9 25 10 26 11
REMARK SMILES IDX 27 12 28 13 29 14 30 15 31 16 32 17 15 18 14 19 13 20 12 21
REMARK SMILES IDX 11 22 10 23 9 24 8 25 7 26 6 27 5 28 4 29 3 30 2 31 1 32
REMARK H PARENT
REMARK Flexibility Score: inf
ROOT
ATOM      1  C   UNL     1      54.476  25.937  49.650  1.00  0.00     0.000 C 
ENDROOT
BRANCH   1   2
ATOM      2  C   UNL     1      53.514  26.876  50.395  1.00  0.00     0.000 C 
BRANCH   2   3
ATOM      3  C   UNL     1      53.160  28.135  49.588  1.00  0.00     0.000 C 
BRANCH   3   4
ATOM      4  C   UNL     1      52.916  29.365  50.479  1.00  0.00     0.000 C 
BRANCH   4   5
ATOM      5  C   UNL     1      53.333  29.131  51.941  1.00  0.00     0.000 C 
BRANCH   5   6
ATOM      6  C   UNL     1      54.134  30.303  52.550  1.00  0.00     0.000 C 
BRANCH   6   7
ATOM      7  C   UNL     1      54.338  30.142  54.065  1.00  0.00     0.000 C 
BRANCH   7   8
ATOM      8  C   UNL     1      55.580  30.909  54.533  1.00  0.00     0.000 C 
BRANCH   8   9
ATOM      9  C   UNL     1      56.247  31.649  53.368  1.00  0.00     0.000 C 
BRANCH   9  10
ATOM     10  C   UNL     1      57.772  31.685  53.542  1.00  0.00     0.000 C 
BRANCH  10  11
ATOM     11  C   UNL     1      58.330  30.377  54.126  1.00  0.00     0.000 C 
BRANCH  11  12
ATOM     12  C   UNL     1      59.822  30.179  53.806  1.00  0.00     0.000 C 
BRANCH  12  13
ATOM     13  C   UNL     1      60.372  28.855  54.357  1.00  0.00     0.006 C 
BRANCH  13  14
ATOM     14  C   UNL     1      60.132  27.677  53.404  1.00  0.00     0.053 C 
BRANCH  14  15
ATOM     15  C   UNL     1      59.417  26.571  54.111  1.00  0.00     0.041 C 
ATOM     16  O   UNL     1      58.371  26.812  54.772  1.00  0.00    -0.550 OA
ATOM     17  O   UNL     1      59.872  25.263  53.999  1.00  0.00    -0.550 OA
ENDBRANCH  14  15
ENDBRANCH  13  14
ENDBRANCH  12  13
ENDBRANCH  11  12
ENDBRANCH  10  11
ENDBRANCH   9  10
ENDBRANCH   8   9
ENDBRANCH   7   8
ENDBRANCH   6   7
ENDBRANCH   5   6
ENDBRANCH   4   5
ENDBRANCH   3   4
ENDBRANCH   2   3
ENDBRANCH   1   2
BRANCH   1  18
ATOM     18  C   UNL     1      55.934  26.232  50.030  1.00  0.00     0.000 C 
BRANCH  18  19
ATOM     19  C   UNL     1      56.106  26.599  51.515  1.00  0.00     0.000 C 
BRANCH  19  20
ATOM     20  C   UNL     1      56.794  27.951  51.782  1.00  0.00     0.000 C 
BRANCH  20  21
ATOM     21  C   UNL     1      56.911  28.824  50.519  1.00  0.00     0.000 C 
BRANCH  21  22
ATOM     22  C   UNL     1      58.251  29.571  50.440  1.00  0.00     0.000 C 
BRANCH  22  23
ATOM     23  C   UNL     1      59.110  29.115  49.248  1.00  0.00     0.000 C 
BRANCH  23  24
ATOM     24  C   UNL     1      59.352  27.593  49.231  1.00  0.00    -0.000 C 
BRANCH  24  25
ATOM     25  C   UNL     1      60.630  27.121  49.950  1.00  0.00    -0.000 C 
BRANCH  25  26
ATOM     26  C   UNL     1      61.863  27.973  49.603  1.00  0.00    -0.000 C 
BRANCH  26  27
ATOM     27  C   UNL     1      62.859  28.074  50.770  1.00  0.00    -0.000 C 
BRANCH  27  28
ATOM     28  C   UNL     1      63.127  29.523  51.209  1.00  0.00    -0.000 C 
BRANCH  28  29
ATOM     29  C   UNL     1      61.930  30.452  50.913  1.00  0.00    -0.000 C 
BRANCH  29  30
ATOM     30  C   UNL     1      62.264  31.604  49.948  1.00  0.00    -0.000 C 
BRANCH  30  31
ATOM     31  C   UNL     1      63.618  31.463  49.230  1.00  0.00    -0.003 C 
ATOM     32  C   UNL     1      64.452  32.743  49.283  1.00  0.00     0.004 C 
ENDBRANCH  30  31
ENDBRANCH  29  30
ENDBRANCH  28  29
ENDBRANCH  27  28
ENDBRANCH  26  27
ENDBRANCH  25  26
ENDBRANCH  24  25
ENDBRANCH  23  24
ENDBRANCH  22  23
ENDBRANCH  21  22
ENDBRANCH  20  21
ENDBRANCH  19  20
ENDBRANCH  18  19
ENDBRANCH   1  18
TORSDOF 28
ENDMDL
