MODEL 1
REMARK VINA RESULT:    -2.424      0.000      0.000
REMARK INTER + INTRA:          -2.424
REMARK INTER:                  -2.424
REMARK INTRA:                   0.000
REMARK UNBOUND:                 0.000
REMARK SMILES CC(=O)[O-]
REMARK SMILES IDX 1 1 2 2 3 3 4 4
REMARK H PARENT
REMARK Flexibility Score: inf
ROOT
ATOM      1  C   UNL     1       5.455  21.666  -1.549  1.00  0.00     0.063 C 
ATOM      2  C   UNL     1       4.927  20.447  -0.871  1.00  0.00     0.038 C 
ATOM      3  O   UNL     1       4.407  19.523  -1.548  1.00  0.00    -0.550 OA
ATOM      4  O   UNL     1       5.058  20.305   0.505  1.00  0.00    -0.550 OA
ENDROOT
TORSDOF 0
ENDMDL
MODEL 2
REMARK VINA RESULT:    -2.341      1.838      2.164
REMARK INTER + INTRA:          -2.341
REMARK INTER:                  -2.341
REMARK INTRA:                   0.000
REMARK UNBOUND:                 0.000
REMARK SMILES CC(=O)[O-]
REMARK SMILES IDX 1 1 2 2 3 3 4 4
REMARK H PARENT
REMARK Flexibility Score: inf
ROOT
ATOM      1  C   UNL     1       5.703  20.132  -0.210  1.00  0.00     0.063 C 
ATOM      2  C   UNL     1       5.163  21.126  -1.183  1.00  0.00     0.038 C 
ATOM      3  O   UNL     1       3.953  21.467  -1.130  1.00  0.00    -0.550 OA
ATOM      4  O   UNL     1       6.007  21.719  -2.113  1.00  0.00    -0.550 OA
ENDROOT
TORSDOF 0
ENDMDL
MODEL 3
REMARK VINA RESULT:    -2.230      4.739      4.870
REMARK INTER + INTRA:          -2.230
REMARK INTER:                  -2.230
REMARK INTRA:                   0.000
REMARK UNBOUND:                 0.000
REMARK SMILES CC(=O)[O-]
REMARK SMILES IDX 1 1 2 2 3 3 4 4
REMARK H PARENT
REMARK Flexibility Score: inf
ROOT
ATOM      1  C   UNL     1       0.856  23.362   1.176  1.00  0.00     0.063 C 
ATOM      2  C   UNL     1       0.956  22.365   0.070  1.00  0.00     0.038 C 
ATOM      3  O   UNL     1       2.056  22.174  -0.509  1.00  0.00    -0.550 OA
ATOM      4  O   UNL     1      -0.152  21.605  -0.284  1.00  0.00    -0.550 OA
ENDROOT
TORSDOF 0
ENDMDL
MODEL 4
REMARK VINA RESULT:    -2.195      1.672      2.215
REMARK INTER + INTRA:          -2.195
REMARK INTER:                  -2.195
REMARK INTRA:                   0.000
REMARK UNBOUND:                 0.000
REMARK SMILES CC(=O)[O-]
REMARK SMILES IDX 1 1 2 2 3 3 4 4
REMARK H PARENT
REMARK Flexibility Score: inf
ROOT
ATOM      1  C   UNL     1       5.066  20.551  -0.780  1.00  0.00     0.063 C 
ATOM      2  C   UNL     1       5.515  19.889   0.479  1.00  0.00     0.038 C 
ATOM      3  O   UNL     1       5.182  20.365   1.596  1.00  0.00    -0.550 OA
ATOM      4  O   UNL     1       6.254  18.714   0.422  1.00  0.00    -0.550 OA
ENDROOT
TORSDOF 0
ENDMDL
MODEL 5
REMARK VINA RESULT:    -2.096      1.984      2.796
REMARK INTER + INTRA:          -2.096
REMARK INTER:                  -2.096
REMARK INTRA:                   0.000
REMARK UNBOUND:                 0.000
REMARK SMILES CC(=O)[O-]
REMARK SMILES IDX 1 1 2 2 3 3 4 4
REMARK H PARENT
REMARK Flexibility Score: inf
ROOT
ATOM      1  C   UNL     1       6.758  18.767   0.845  1.00  0.00     0.063 C 
ATOM      2  C   UNL     1       5.822  19.897   0.575  1.00  0.00     0.038 C 
ATOM      3  O   UNL     1       5.058  20.315   1.483  1.00  0.00    -0.550 OA
ATOM      4  O   UNL     1       5.830  20.526  -0.663  1.00  0.00    -0.550 OA
ENDROOT
TORSDOF 0
ENDMDL
MODEL 6
REMARK VINA RESULT:    -2.082     14.336     14.473
REMARK INTER + INTRA:          -2.082
REMARK INTER:                  -2.082
REMARK INTRA:                   0.000
REMARK UNBOUND:                 0.000
REMARK SMILES CC(=O)[O-]
REMARK SMILES IDX 1 1 2 2 3 3 4 4
REMARK H PARENT
REMARK Flexibility Score: inf
ROOT
ATOM      1  C   UNL     1      -8.765  22.954   2.948  1.00  0.00     0.063 C 
ATOM      2  C   UNL     1      -8.828  21.539   3.416  1.00  0.00     0.038 C 
ATOM      3  O   UNL     1      -9.918  20.911   3.380  1.00  0.00    -0.550 OA
ATOM      4  O   UNL     1      -7.673  20.894   3.840  1.00  0.00    -0.550 OA
ENDROOT
TORSDOF 0
ENDMDL
MODEL 7
REMARK VINA RESULT:    -2.077      4.770      4.926
REMARK INTER + INTRA:          -2.077
REMARK INTER:                  -2.077
REMARK INTRA:                   0.000
REMARK UNBOUND:                 0.000
REMARK SMILES CC(=O)[O-]
REMARK SMILES IDX 1 1 2 2 3 3 4 4
REMARK H PARENT
REMARK Flexibility Score: inf
ROOT
ATOM      1  C   UNL     1      -0.098  21.516  -0.048  1.00  0.00     0.063 C 
ATOM      2  C   UNL     1       1.001  22.510   0.121  1.00  0.00     0.038 C 
ATOM      3  O   UNL     1       2.011  22.468  -0.628  1.00  0.00    -0.550 OA
ATOM      4  O   UNL     1       0.887  23.519   1.069  1.00  0.00    -0.550 OA
ENDROOT
TORSDOF 0
ENDMDL
MODEL 8
REMARK VINA RESULT:    -2.033      4.613      4.680
REMARK INTER + INTRA:          -2.033
REMARK INTER:                  -2.033
REMARK INTRA:                   0.000
REMARK UNBOUND:                 0.000
REMARK SMILES CC(=O)[O-]
REMARK SMILES IDX 1 1 2 2 3 3 4 4
REMARK H PARENT
REMARK Flexibility Score: inf
ROOT
ATOM      1  C   UNL     1       2.275  21.810  -0.278  1.00  0.00     0.063 C 
ATOM      2  C   UNL     1       0.962  22.437   0.055  1.00  0.00     0.038 C 
ATOM      3  O   UNL     1      -0.105  21.944  -0.394  1.00  0.00    -0.550 OA
ATOM      4  O   UNL     1       0.911  23.531   0.909  1.00  0.00    -0.550 OA
ENDROOT
TORSDOF 0
ENDMDL
MODEL 9
REMARK VINA RESULT:    -1.842     15.955     16.278
REMARK INTER + INTRA:          -1.842
REMARK INTER:                  -1.842
REMARK INTRA:                   0.000
REMARK UNBOUND:                 0.000
REMARK SMILES CC(=O)[O-]
REMARK SMILES IDX 1 1 2 2 3 3 4 4
REMARK H PARENT
REMARK Flexibility Score: inf
ROOT
ATOM      1  C   UNL     1     -11.763  19.107   3.374  1.00  0.00     0.063 C 
ATOM      2  C   UNL     1     -10.529  18.356   3.000  1.00  0.00     0.038 C 
ATOM      3  O   UNL     1      -9.401  18.769   3.374  1.00  0.00    -0.550 OA
ATOM      4  O   UNL     1     -10.626  17.169   2.286  1.00  0.00    -0.550 OA
ENDROOT
TORSDOF 0
ENDMDL
