MODEL 1
REMARK VINA RESULT:    -1.902      0.000      0.000
REMARK INTER + INTRA:          -1.902
REMARK INTER:                  -1.902
REMARK INTRA:                   0.000
REMARK UNBOUND:                 0.000
REMARK SMILES CC(=O)[O-]
REMARK SMILES IDX 1 1 2 2 3 3 4 4
REMARK H PARENT
REMARK Flexibility Score: inf
ROOT
ATOM      1  C   UNL     1     -12.992  81.241 -12.655  1.00  0.00     0.063 C 
ATOM      2  C   UNL     1     -13.061  81.853 -11.297  1.00  0.00     0.038 C 
ATOM      3  O   UNL     1     -12.629  81.223 -10.297  1.00  0.00    -0.550 OA
ATOM      4  O   UNL     1     -13.651  83.098 -11.125  1.00  0.00    -0.550 OA
ENDROOT
TORSDOF 0
ENDMDL
MODEL 2
REMARK VINA RESULT:    -1.896      1.886      2.144
REMARK INTER + INTRA:          -1.896
REMARK INTER:                  -1.896
REMARK INTRA:                   0.000
REMARK UNBOUND:                 0.000
REMARK SMILES CC(=O)[O-]
REMARK SMILES IDX 1 1 2 2 3 3 4 4
REMARK H PARENT
REMARK Flexibility Score: inf
ROOT
ATOM      1  C   UNL     1     -12.825  81.350 -10.514  1.00  0.00     0.063 C 
ATOM      2  C   UNL     1     -12.417  81.141 -11.932  1.00  0.00     0.038 C 
ATOM      3  O   UNL     1     -11.221  80.862 -12.212  1.00  0.00    -0.550 OA
ATOM      4  O   UNL     1     -13.344  81.303 -12.954  1.00  0.00    -0.550 OA
ENDROOT
TORSDOF 0
ENDMDL
MODEL 3
REMARK VINA RESULT:    -1.826      0.150      1.621
REMARK INTER + INTRA:          -1.826
REMARK INTER:                  -1.826
REMARK INTRA:                   0.000
REMARK UNBOUND:                 0.000
REMARK SMILES CC(=O)[O-]
REMARK SMILES IDX 1 1 2 2 3 3 4 4
REMARK H PARENT
REMARK Flexibility Score: inf
ROOT
ATOM      1  C   UNL     1     -12.910  81.218 -12.551  1.00  0.00     0.063 C 
ATOM      2  C   UNL     1     -13.101  81.862 -11.220  1.00  0.00     0.038 C 
ATOM      3  O   UNL     1     -13.607  83.012 -11.141  1.00  0.00    -0.550 OA
ATOM      4  O   UNL     1     -12.673  81.217 -10.067  1.00  0.00    -0.550 OA
ENDROOT
TORSDOF 0
ENDMDL
MODEL 4
REMARK VINA RESULT:    -1.773      9.373      9.776
REMARK INTER + INTRA:          -1.773
REMARK INTER:                  -1.773
REMARK INTRA:                   0.000
REMARK UNBOUND:                 0.000
REMARK SMILES CC(=O)[O-]
REMARK SMILES IDX 1 1 2 2 3 3 4 4
REMARK H PARENT
REMARK Flexibility Score: inf
ROOT
ATOM      1  C   UNL     1      -5.015  82.815  -9.982  1.00  0.00     0.063 C 
ATOM      2  C   UNL     1      -3.748  82.938  -9.205  1.00  0.00     0.038 C 
ATOM      3  O   UNL     1      -3.368  84.064  -8.789  1.00  0.00    -0.550 OA
ATOM      4  O   UNL     1      -2.957  81.818  -8.982  1.00  0.00    -0.550 OA
ENDROOT
TORSDOF 0
ENDMDL
MODEL 5
REMARK VINA RESULT:    -1.770     15.809     16.215
REMARK INTER + INTRA:          -1.770
REMARK INTER:                  -1.770
REMARK INTRA:                   0.000
REMARK UNBOUND:                 0.000
REMARK SMILES CC(=O)[O-]
REMARK SMILES IDX 1 1 2 2 3 3 4 4
REMARK H PARENT
REMARK Flexibility Score: inf
ROOT
ATOM      1  C   UNL     1      -3.703  94.480  -9.427  1.00  0.00     0.063 C 
ATOM      2  C   UNL     1      -3.352  94.679 -10.863  1.00  0.00     0.038 C 
ATOM      3  O   UNL     1      -2.751  95.723 -11.228  1.00  0.00    -0.550 OA
ATOM      4  O   UNL     1      -3.733  93.736 -11.809  1.00  0.00    -0.550 OA
ENDROOT
TORSDOF 0
ENDMDL
MODEL 6
REMARK VINA RESULT:    -1.766      9.376      9.656
REMARK INTER + INTRA:          -1.766
REMARK INTER:                  -1.766
REMARK INTRA:                   0.000
REMARK UNBOUND:                 0.000
REMARK SMILES CC(=O)[O-]
REMARK SMILES IDX 1 1 2 2 3 3 4 4
REMARK H PARENT
REMARK Flexibility Score: inf
ROOT
ATOM      1  C   UNL     1      -5.007  82.775  -9.981  1.00  0.00     0.063 C 
ATOM      2  C   UNL     1      -3.739  82.959  -9.217  1.00  0.00     0.038 C 
ATOM      3  O   UNL     1      -3.009  81.967  -8.955  1.00  0.00    -0.550 OA
ATOM      4  O   UNL     1      -3.385  84.218  -8.748  1.00  0.00    -0.550 OA
ENDROOT
TORSDOF 0
ENDMDL
MODEL 7
REMARK VINA RESULT:    -1.746      9.593      9.896
REMARK INTER + INTRA:          -1.746
REMARK INTER:                  -1.746
REMARK INTRA:                   0.000
REMARK UNBOUND:                 0.000
REMARK SMILES CC(=O)[O-]
REMARK SMILES IDX 1 1 2 2 3 3 4 4
REMARK H PARENT
REMARK Flexibility Score: inf
ROOT
ATOM      1  C   UNL     1      -2.788  81.737  -8.573  1.00  0.00     0.063 C 
ATOM      2  C   UNL     1      -3.662  82.787  -9.171  1.00  0.00     0.038 C 
ATOM      3  O   UNL     1      -4.567  82.467  -9.986  1.00  0.00    -0.550 OA
ATOM      4  O   UNL     1      -3.446  84.126  -8.871  1.00  0.00    -0.550 OA
ENDROOT
TORSDOF 0
ENDMDL
MODEL 8
REMARK VINA RESULT:    -1.706     15.920     16.270
REMARK INTER + INTRA:          -1.706
REMARK INTER:                  -1.706
REMARK INTRA:                   0.000
REMARK UNBOUND:                 0.000
REMARK SMILES CC(=O)[O-]
REMARK SMILES IDX 1 1 2 2 3 3 4 4
REMARK H PARENT
REMARK Flexibility Score: inf
ROOT
ATOM      1  C   UNL     1      -4.010  93.829 -11.628  1.00  0.00     0.063 C 
ATOM      2  C   UNL     1      -3.288  94.801 -10.758  1.00  0.00     0.038 C 
ATOM      3  O   UNL     1      -2.637  95.748 -11.272  1.00  0.00    -0.550 OA
ATOM      4  O   UNL     1      -3.290  94.634  -9.379  1.00  0.00    -0.550 OA
ENDROOT
TORSDOF 0
ENDMDL
MODEL 9
REMARK VINA RESULT:    -1.656     14.802     15.129
REMARK INTER + INTRA:          -1.656
REMARK INTER:                  -1.656
REMARK INTRA:                   0.000
REMARK UNBOUND:                 0.000
REMARK SMILES CC(=O)[O-]
REMARK SMILES IDX 1 1 2 2 3 3 4 4
REMARK H PARENT
REMARK Flexibility Score: inf
ROOT
ATOM      1  C   UNL     1     -20.934  92.445 -19.858  1.00  0.00     0.063 C 
ATOM      2  C   UNL     1     -21.297  92.307 -18.418  1.00  0.00     0.038 C 
ATOM      3  O   UNL     1     -20.993  93.214 -17.600  1.00  0.00    -0.550 OA
ATOM      4  O   UNL     1     -21.924  91.153 -17.966  1.00  0.00    -0.550 OA
ENDROOT
TORSDOF 0
ENDMDL
