MODEL 1
REMARK VINA RESULT:    -5.344      0.000      0.000
REMARK INTER + INTRA:         -13.887
REMARK INTER:                 -11.592
REMARK INTRA:                  -2.295
REMARK UNBOUND:                -2.295
REMARK SMILES CCCCCCCCCCCCCCCCCCCCCC(=O)[O-]
REMARK SMILES IDX 12 1 11 2 10 3 9 4 8 5 7 6 6 7 5 8 4 9 3 10 2 11 1 12 13 13
REMARK SMILES IDX 14 14 15 15 16 16 17 17 18 18 19 19 20 20 21 21 22 22 23 23
REMARK SMILES IDX 24 24
REMARK H PARENT
REMARK Flexibility Score: inf
ROOT
ATOM      1  C   UNL     1      43.377  36.773  12.519  1.00  0.00     0.000 C 
ENDROOT
BRANCH   1   2
ATOM      2  C   UNL     1      42.460  36.147  11.456  1.00  0.00     0.000 C 
BRANCH   2   3
ATOM      3  C   UNL     1      42.154  37.152  10.335  1.00  0.00     0.000 C 
BRANCH   3   4
ATOM      4  C   UNL     1      42.807  38.523  10.572  1.00  0.00    -0.000 C 
BRANCH   4   5
ATOM      5  C   UNL     1      41.780  39.663  10.654  1.00  0.00    -0.000 C 
BRANCH   5   6
ATOM      6  C   UNL     1      41.335  39.897  12.105  1.00  0.00    -0.000 C 
BRANCH   6   7
ATOM      7  C   UNL     1      39.980  39.241  12.428  1.00  0.00    -0.000 C 
BRANCH   7   8
ATOM      8  C   UNL     1      40.043  38.089  13.451  1.00  0.00    -0.000 C 
BRANCH   8   9
ATOM      9  C   UNL     1      39.185  36.858  13.100  1.00  0.00    -0.000 C 
BRANCH   9  10
ATOM     10  C   UNL     1      38.516  36.904  11.712  1.00  0.00    -0.000 C 
BRANCH  10  11
ATOM     11  C   UNL     1      38.866  35.726  10.786  1.00  0.00    -0.003 C 
ATOM     12  C   UNL     1      38.772  34.371  11.483  1.00  0.00     0.004 C 
ENDBRANCH  10  11
ENDBRANCH   9  10
ENDBRANCH   8   9
ENDBRANCH   7   8
ENDBRANCH   6   7
ENDBRANCH   5   6
ENDBRANCH   4   5
ENDBRANCH   3   4
ENDBRANCH   2   3
ENDBRANCH   1   2
BRANCH   1  13
ATOM     13  C   UNL     1      44.392  35.771  13.092  1.00  0.00     0.000 C 
BRANCH  13  14
ATOM     14  C   UNL     1      45.801  35.953  12.501  1.00  0.00     0.000 C 
BRANCH  14  15
ATOM     15  C   UNL     1      46.580  34.632  12.420  1.00  0.00     0.000 C 
BRANCH  15  16
ATOM     16  C   UNL     1      48.046  34.776  12.868  1.00  0.00     0.000 C 
BRANCH  16  17
ATOM     17  C   UNL     1      48.468  33.682  13.860  1.00  0.00     0.000 C 
BRANCH  17  18
ATOM     18  C   UNL     1      47.656  33.725  15.167  1.00  0.00     0.000 C 
BRANCH  18  19
ATOM     19  C   UNL     1      48.524  34.054  16.392  1.00  0.00     0.000 C 
BRANCH  19  20
ATOM     20  C   UNL     1      48.196  33.167  17.603  1.00  0.00     0.006 C 
BRANCH  20  21
ATOM     21  C   UNL     1      49.251  32.072  17.781  1.00  0.00     0.053 C 
BRANCH  21  22
ATOM     22  C   UNL     1      48.738  30.762  17.271  1.00  0.00     0.041 C 
ATOM     23  O   UNL     1      47.654  30.292  17.708  1.00  0.00    -0.550 OA
ATOM     24  O   UNL     1      49.481  30.036  16.349  1.00  0.00    -0.550 OA
ENDBRANCH  21  22
ENDBRANCH  20  21
ENDBRANCH  19  20
ENDBRANCH  18  19
ENDBRANCH  17  18
ENDBRANCH  16  17
ENDBRANCH  15  16
ENDBRANCH  14  15
ENDBRANCH  13  14
ENDBRANCH   1  13
TORSDOF 20
ENDMDL
MODEL 2
REMARK VINA RESULT:    -5.247      3.517      7.981
REMARK INTER + INTRA:         -13.678
REMARK INTER:                 -12.071
REMARK INTRA:                  -1.607
REMARK UNBOUND:                -2.295
REMARK SMILES CCCCCCCCCCCCCCCCCCCCCC(=O)[O-]
REMARK SMILES IDX 12 1 11 2 10 3 9 4 8 5 7 6 6 7 5 8 4 9 3 10 2 11 1 12 13 13
REMARK SMILES IDX 14 14 15 15 16 16 17 17 18 18 19 19 20 20 21 21 22 22 23 23
REMARK SMILES IDX 24 24
REMARK H PARENT
REMARK Flexibility Score: inf
ROOT
ATOM      1  C   UNL     1      48.109  31.751  18.148  1.00  0.00     0.000 C 
ENDROOT
BRANCH   1   2
ATOM      2  C   UNL     1      49.293  32.614  17.684  1.00  0.00     0.000 C 
BRANCH   2   3
ATOM      3  C   UNL     1      48.808  33.976  17.162  1.00  0.00     0.000 C 
BRANCH   3   4
ATOM      4  C   UNL     1      47.559  33.860  16.274  1.00  0.00    -0.000 C 
BRANCH   4   5
ATOM      5  C   UNL     1      47.860  33.229  14.906  1.00  0.00    -0.000 C 
BRANCH   5   6
ATOM      6  C   UNL     1      48.369  34.286  13.914  1.00  0.00    -0.000 C 
BRANCH   6   7
ATOM      7  C   UNL     1      48.007  33.959  12.454  1.00  0.00    -0.000 C 
BRANCH   7   8
ATOM      8  C   UNL     1      46.689  34.585  11.955  1.00  0.00    -0.000 C 
BRANCH   8   9
ATOM      9  C   UNL     1      46.191  35.794  12.772  1.00  0.00    -0.000 C 
BRANCH   9  10
ATOM     10  C   UNL     1      44.719  35.713  13.223  1.00  0.00    -0.000 C 
BRANCH  10  11
ATOM     11  C   UNL     1      43.781  36.735  12.556  1.00  0.00    -0.003 C 
ATOM     12  C   UNL     1      42.717  36.082  11.677  1.00  0.00     0.004 C 
ENDBRANCH  10  11
ENDBRANCH   9  10
ENDBRANCH   8   9
ENDBRANCH   7   8
ENDBRANCH   6   7
ENDBRANCH   5   6
ENDBRANCH   4   5
ENDBRANCH   3   4
ENDBRANCH   2   3
ENDBRANCH   1   2
BRANCH   1  13
ATOM     13  C   UNL     1      48.000  30.428  17.373  1.00  0.00     0.000 C 
BRANCH  13  14
ATOM     14  C   UNL     1      49.142  30.241  16.359  1.00  0.00     0.000 C 
BRANCH  14  15
ATOM     15  C   UNL     1      49.750  28.830  16.412  1.00  0.00     0.000 C 
BRANCH  15  16
ATOM     16  C   UNL     1      48.799  27.751  15.866  1.00  0.00     0.000 C 
BRANCH  16  17
ATOM     17  C   UNL     1      48.425  26.704  16.926  1.00  0.00     0.000 C 
BRANCH  17  18
ATOM     18  C   UNL     1      49.448  25.556  17.008  1.00  0.00     0.000 C 
BRANCH  18  19
ATOM     19  C   UNL     1      49.655  25.051  18.445  1.00  0.00     0.000 C 
BRANCH  19  20
ATOM     20  C   UNL     1      49.311  26.113  19.499  1.00  0.00     0.006 C 
BRANCH  20  21
ATOM     21  C   UNL     1      48.943  25.460  20.835  1.00  0.00     0.053 C 
BRANCH  21  22
ATOM     22  C   UNL     1      49.427  26.295  21.978  1.00  0.00     0.041 C 
ATOM     23  O   UNL     1      50.661  26.469  22.157  1.00  0.00    -0.550 OA
ATOM     24  O   UNL     1      48.517  26.841  22.874  1.00  0.00    -0.550 OA
ENDBRANCH  21  22
ENDBRANCH  20  21
ENDBRANCH  19  20
ENDBRANCH  18  19
ENDBRANCH  17  18
ENDBRANCH  16  17
ENDBRANCH  15  16
ENDBRANCH  14  15
ENDBRANCH  13  14
ENDBRANCH   1  13
TORSDOF 20
ENDMDL
MODEL 3
REMARK VINA RESULT:    -5.181      7.104     13.688
REMARK INTER + INTRA:         -13.535
REMARK INTER:                 -10.742
REMARK INTRA:                  -2.793
REMARK UNBOUND:                -2.295
REMARK SMILES CCCCCCCCCCCCCCCCCCCCCC(=O)[O-]
REMARK SMILES IDX 12 1 11 2 10 3 9 4 8 5 7 6 6 7 5 8 4 9 3 10 2 11 1 12 13 13
REMARK SMILES IDX 14 14 15 15 16 16 17 17 18 18 19 19 20 20 21 21 22 22 23 23
REMARK SMILES IDX 24 24
REMARK H PARENT
REMARK Flexibility Score: inf
ROOT
ATOM      1  C   UNL     1      49.567  26.151  18.898  1.00  0.00     0.000 C 
ENDROOT
BRANCH   1   2
ATOM      2  C   UNL     1      48.498  25.349  19.657  1.00  0.00     0.000 C 
BRANCH   2   3
ATOM      3  C   UNL     1      48.882  25.186  21.136  1.00  0.00     0.000 C 
BRANCH   3   4
ATOM      4  C   UNL     1      48.921  26.524  21.890  1.00  0.00    -0.000 C 
BRANCH   4   5
ATOM      5  C   UNL     1      50.258  26.762  22.609  1.00  0.00    -0.000 C 
BRANCH   5   6
ATOM      6  C   UNL     1      51.126  25.495  22.587  1.00  0.00    -0.000 C 
BRANCH   6   7
ATOM      7  C   UNL     1      52.575  25.770  22.146  1.00  0.00    -0.000 C 
BRANCH   7   8
ATOM      8  C   UNL     1      53.014  25.038  20.861  1.00  0.00    -0.000 C 
BRANCH   8   9
ATOM      9  C   UNL     1      53.188  25.940  19.623  1.00  0.00    -0.000 C 
BRANCH   9  10
ATOM     10  C   UNL     1      53.079  27.453  19.899  1.00  0.00    -0.000 C 
BRANCH  10  11
ATOM     11  C   UNL     1      53.447  28.355  18.707  1.00  0.00    -0.003 C 
ATOM     12  C   UNL     1      52.481  28.214  17.533  1.00  0.00     0.004 C 
ENDBRANCH  10  11
ENDBRANCH   9  10
ENDBRANCH   8   9
ENDBRANCH   7   8
ENDBRANCH   6   7
ENDBRANCH   5   6
ENDBRANCH   4   5
ENDBRANCH   3   4
ENDBRANCH   2   3
ENDBRANCH   1   2
BRANCH   1  13
ATOM     13  C   UNL     1      50.035  25.448  17.613  1.00  0.00     0.000 C 
BRANCH  13  14
ATOM     14  C   UNL     1      49.088  25.695  16.426  1.00  0.00     0.000 C 
BRANCH  14  15
ATOM     15  C   UNL     1      48.457  27.095  16.458  1.00  0.00     0.000 C 
BRANCH  15  16
ATOM     16  C   UNL     1      49.212  28.109  15.580  1.00  0.00     0.000 C 
BRANCH  16  17
ATOM     17  C   UNL     1      48.591  29.513  15.635  1.00  0.00     0.000 C 
BRANCH  17  18
ATOM     18  C   UNL     1      47.561  29.658  16.770  1.00  0.00     0.000 C 
BRANCH  18  19
ATOM     19  C   UNL     1      48.024  30.629  17.868  1.00  0.00     0.000 C 
BRANCH  19  20
ATOM     20  C   UNL     1      49.035  31.664  17.353  1.00  0.00     0.006 C 
BRANCH  20  21
ATOM     21  C   UNL     1      48.488  33.086  17.503  1.00  0.00     0.053 C 
BRANCH  21  22
ATOM     22  C   UNL     1      47.697  33.474  16.294  1.00  0.00     0.041 C 
ATOM     23  O   UNL     1      48.046  33.072  15.152  1.00  0.00    -0.550 OA
ATOM     24  O   UNL     1      46.603  34.320  16.421  1.00  0.00    -0.550 OA
ENDBRANCH  21  22
ENDBRANCH  20  21
ENDBRANCH  19  20
ENDBRANCH  18  19
ENDBRANCH  17  18
ENDBRANCH  16  17
ENDBRANCH  15  16
ENDBRANCH  14  15
ENDBRANCH  13  14
ENDBRANCH   1  13
TORSDOF 20
ENDMDL
MODEL 4
REMARK VINA RESULT:    -5.172      4.413     11.542
REMARK INTER + INTRA:         -13.514
REMARK INTER:                 -12.042
REMARK INTRA:                  -1.472
REMARK UNBOUND:                -2.295
REMARK SMILES CCCCCCCCCCCCCCCCCCCCCC(=O)[O-]
REMARK SMILES IDX 12 1 11 2 10 3 9 4 8 5 7 6 6 7 5 8 4 9 3 10 2 11 1 12 13 13
REMARK SMILES IDX 14 14 15 15 16 16 17 17 18 18 19 19 20 20 21 21 22 22 23 23
REMARK SMILES IDX 24 24
REMARK H PARENT
REMARK Flexibility Score: inf
ROOT
ATOM      1  C   UNL     1      49.575  32.001  17.750  1.00  0.00     0.000 C 
ENDROOT
BRANCH   1   2
ATOM      2  C   UNL     1      49.321  30.659  17.046  1.00  0.00     0.000 C 
BRANCH   2   3
ATOM      3  C   UNL     1      47.834  30.275  17.119  1.00  0.00     0.000 C 
BRANCH   3   4
ATOM      4  C   UNL     1      47.503  29.025  16.289  1.00  0.00    -0.000 C 
BRANCH   4   5
ATOM      5  C   UNL     1      48.659  28.014  16.250  1.00  0.00    -0.000 C 
BRANCH   5   6
ATOM      6  C   UNL     1      48.128  26.573  16.241  1.00  0.00    -0.000 C 
BRANCH   6   7
ATOM      7  C   UNL     1      48.875  25.654  17.225  1.00  0.00    -0.000 C 
BRANCH   7   8
ATOM      8  C   UNL     1      49.090  26.246  18.632  1.00  0.00    -0.000 C 
BRANCH   8   9
ATOM      9  C   UNL     1      49.338  25.209  19.746  1.00  0.00    -0.000 C 
BRANCH   9  10
ATOM     10  C   UNL     1      48.532  25.437  21.040  1.00  0.00    -0.000 C 
BRANCH  10  11
ATOM     11  C   UNL     1      48.448  26.903  21.500  1.00  0.00    -0.003 C 
ATOM     12  C   UNL     1      49.043  27.127  22.889  1.00  0.00     0.004 C 
ENDBRANCH  10  11
ENDBRANCH   9  10
ENDBRANCH   8   9
ENDBRANCH   7   8
ENDBRANCH   6   7
ENDBRANCH   5   6
ENDBRANCH   4   5
ENDBRANCH   3   4
ENDBRANCH   2   3
ENDBRANCH   1   2
BRANCH   1  13
ATOM     13  C   UNL     1      48.363  32.944  17.685  1.00  0.00     0.000 C 
BRANCH  13  14
ATOM     14  C   UNL     1      48.453  33.943  16.519  1.00  0.00     0.000 C 
BRANCH  14  15
ATOM     15  C   UNL     1      47.511  33.580  15.360  1.00  0.00     0.000 C 
BRANCH  15  16
ATOM     16  C   UNL     1      48.267  33.232  14.065  1.00  0.00     0.000 C 
BRANCH  16  17
ATOM     17  C   UNL     1      48.405  34.437  13.122  1.00  0.00     0.000 C 
BRANCH  17  18
ATOM     18  C   UNL     1      47.200  34.587  12.176  1.00  0.00     0.000 C 
BRANCH  18  19
ATOM     19  C   UNL     1      46.290  35.765  12.560  1.00  0.00     0.000 C 
BRANCH  19  20
ATOM     20  C   UNL     1      44.799  35.401  12.508  1.00  0.00     0.006 C 
BRANCH  20  21
ATOM     21  C   UNL     1      43.937  36.540  13.060  1.00  0.00     0.053 C 
BRANCH  21  22
ATOM     22  C   UNL     1      42.837  36.875  12.103  1.00  0.00     0.041 C 
ATOM     23  O   UNL     1      41.885  36.070  11.925  1.00  0.00    -0.550 OA
ATOM     24  O   UNL     1      42.886  38.055  11.372  1.00  0.00    -0.550 OA
ENDBRANCH  21  22
ENDBRANCH  20  21
ENDBRANCH  19  20
ENDBRANCH  18  19
ENDBRANCH  17  18
ENDBRANCH  16  17
ENDBRANCH  15  16
ENDBRANCH  14  15
ENDBRANCH  13  14
ENDBRANCH   1  13
TORSDOF 20
ENDMDL
MODEL 5
REMARK VINA RESULT:    -5.158      0.904      2.611
REMARK INTER + INTRA:         -13.484
REMARK INTER:                 -11.235
REMARK INTRA:                  -2.249
REMARK UNBOUND:                -2.295
REMARK SMILES CCCCCCCCCCCCCCCCCCCCCC(=O)[O-]
REMARK SMILES IDX 12 1 11 2 10 3 9 4 8 5 7 6 6 7 5 8 4 9 3 10 2 11 1 12 13 13
REMARK SMILES IDX 14 14 15 15 16 16 17 17 18 18 19 19 20 20 21 21 22 22 23 23
REMARK SMILES IDX 24 24
REMARK H PARENT
REMARK Flexibility Score: inf
ROOT
ATOM      1  C   UNL     1      44.627  35.763  13.276  1.00  0.00     0.000 C 
ENDROOT
BRANCH   1   2
ATOM      2  C   UNL     1      43.553  36.712  12.722  1.00  0.00     0.000 C 
BRANCH   2   3
ATOM      3  C   UNL     1      42.619  35.975  11.750  1.00  0.00     0.000 C 
BRANCH   3   4
ATOM      4  C   UNL     1      42.154  36.862  10.585  1.00  0.00    -0.000 C 
BRANCH   4   5
ATOM      5  C   UNL     1      40.909  36.307   9.876  1.00  0.00    -0.000 C 
BRANCH   5   6
ATOM      6  C   UNL     1      40.549  34.913  10.411  1.00  0.00    -0.000 C 
BRANCH   6   7
ATOM      7  C   UNL     1      39.164  34.871  11.083  1.00  0.00    -0.000 C 
BRANCH   7   8
ATOM      8  C   UNL     1      38.705  36.204  11.710  1.00  0.00    -0.000 C 
BRANCH   8   9
ATOM      9  C   UNL     1      39.235  36.473  13.132  1.00  0.00    -0.000 C 
BRANCH   9  10
ATOM     10  C   UNL     1      39.195  37.949  13.574  1.00  0.00    -0.000 C 
BRANCH  10  11
ATOM     11  C   UNL     1      40.432  38.775  13.182  1.00  0.00    -0.003 C 
ATOM     12  C   UNL     1      40.236  39.568  11.892  1.00  0.00     0.004 C 
ENDBRANCH  10  11
ENDBRANCH   9  10
ENDBRANCH   8   9
ENDBRANCH   7   8
ENDBRANCH   6   7
ENDBRANCH   5   6
ENDBRANCH   4   5
ENDBRANCH   3   4
ENDBRANCH   2   3
ENDBRANCH   1   2
BRANCH   1  13
ATOM     13  C   UNL     1      45.949  35.841  12.494  1.00  0.00     0.000 C 
BRANCH  13  14
ATOM     14  C   UNL     1      46.741  34.523  12.541  1.00  0.00     0.000 C 
BRANCH  14  15
ATOM     15  C   UNL     1      48.085  34.671  13.272  1.00  0.00     0.000 C 
BRANCH  15  16
ATOM     16  C   UNL     1      48.178  33.792  14.532  1.00  0.00     0.000 C 
BRANCH  16  17
ATOM     17  C   UNL     1      46.990  34.001  15.484  1.00  0.00     0.000 C 
BRANCH  17  18
ATOM     18  C   UNL     1      47.419  34.047  16.962  1.00  0.00     0.000 C 
BRANCH  18  19
ATOM     19  C   UNL     1      48.945  33.983  17.137  1.00  0.00     0.000 C 
BRANCH  19  20
ATOM     20  C   UNL     1      49.404  32.700  17.844  1.00  0.00     0.006 C 
BRANCH  20  21
ATOM     21  C   UNL     1      48.272  31.671  17.902  1.00  0.00     0.053 C 
BRANCH  21  22
ATOM     22  C   UNL     1      48.449  30.636  16.837  1.00  0.00     0.041 C 
ATOM     23  O   UNL     1      47.511  30.386  16.034  1.00  0.00    -0.550 OA
ATOM     24  O   UNL     1      49.632  29.911  16.761  1.00  0.00    -0.550 OA
ENDBRANCH  21  22
ENDBRANCH  20  21
ENDBRANCH  19  20
ENDBRANCH  18  19
ENDBRANCH  17  18
ENDBRANCH  16  17
ENDBRANCH  15  16
ENDBRANCH  14  15
ENDBRANCH  13  14
ENDBRANCH   1  13
TORSDOF 20
ENDMDL
MODEL 6
REMARK VINA RESULT:    -5.136      6.745     12.243
REMARK INTER + INTRA:         -13.435
REMARK INTER:                 -11.230
REMARK INTRA:                  -2.206
REMARK UNBOUND:                -2.295
REMARK SMILES CCCCCCCCCCCCCCCCCCCCCC(=O)[O-]
REMARK SMILES IDX 12 1 11 2 10 3 9 4 8 5 7 6 6 7 5 8 4 9 3 10 2 11 1 12 13 13
REMARK SMILES IDX 14 14 15 15 16 16 17 17 18 18 19 19 20 20 21 21 22 22 23 23
REMARK SMILES IDX 24 24
REMARK H PARENT
REMARK Flexibility Score: inf
ROOT
ATOM      1  C   UNL     1      48.750  25.289  20.433  1.00  0.00     0.000 C 
ENDROOT
BRANCH   1   2
ATOM      2  C   UNL     1      49.219  26.105  19.219  1.00  0.00     0.000 C 
BRANCH   2   3
ATOM      3  C   UNL     1      49.994  25.221  18.230  1.00  0.00     0.000 C 
BRANCH   3   4
ATOM      4  C   UNL     1      49.604  25.484  16.767  1.00  0.00    -0.000 C 
BRANCH   4   5
ATOM      5  C   UNL     1      48.322  26.321  16.636  1.00  0.00    -0.000 C 
BRANCH   5   6
ATOM      6  C   UNL     1      48.600  27.639  15.898  1.00  0.00    -0.000 C 
BRANCH   6   7
ATOM      7  C   UNL     1      47.613  28.757  16.280  1.00  0.00    -0.000 C 
BRANCH   7   8
ATOM      8  C   UNL     1      48.198  29.858  17.188  1.00  0.00    -0.000 C 
BRANCH   8   9
ATOM      9  C   UNL     1      48.142  31.284  16.603  1.00  0.00    -0.000 C 
BRANCH   9  10
ATOM     10  C   UNL     1      48.683  32.390  17.530  1.00  0.00    -0.000 C 
BRANCH  10  11
ATOM     11  C   UNL     1      48.601  33.815  16.953  1.00  0.00    -0.003 C 
ATOM     12  C   UNL     1      47.183  34.215  16.553  1.00  0.00     0.004 C 
ENDBRANCH  10  11
ENDBRANCH   9  10
ENDBRANCH   8   9
ENDBRANCH   7   8
ENDBRANCH   6   7
ENDBRANCH   5   6
ENDBRANCH   4   5
ENDBRANCH   3   4
ENDBRANCH   2   3
ENDBRANCH   1   2
BRANCH   1  13
ATOM     13  C   UNL     1      48.109  26.162  21.524  1.00  0.00     0.000 C 
BRANCH  13  14
ATOM     14  C   UNL     1      49.153  26.899  22.380  1.00  0.00     0.000 C 
BRANCH  14  15
ATOM     15  C   UNL     1      50.413  26.055  22.626  1.00  0.00     0.000 C 
BRANCH  15  16
ATOM     16  C   UNL     1      51.709  26.795  22.249  1.00  0.00     0.000 C 
BRANCH  16  17
ATOM     17  C   UNL     1      52.971  26.015  22.649  1.00  0.00     0.000 C 
BRANCH  17  18
ATOM     18  C   UNL     1      53.557  25.202  21.481  1.00  0.00     0.000 C 
BRANCH  18  19
ATOM     19  C   UNL     1      53.020  25.657  20.115  1.00  0.00     0.000 C 
BRANCH  19  20
ATOM     20  C   UNL     1      54.044  26.486  19.324  1.00  0.00     0.006 C 
BRANCH  20  21
ATOM     21  C   UNL     1      53.443  27.824  18.884  1.00  0.00     0.053 C 
BRANCH  21  22
ATOM     22  C   UNL     1      52.653  27.655  17.625  1.00  0.00     0.041 C 
ATOM     23  O   UNL     1      52.963  26.758  16.798  1.00  0.00    -0.550 OA
ATOM     24  O   UNL     1      51.604  28.521  17.342  1.00  0.00    -0.550 OA
ENDBRANCH  21  22
ENDBRANCH  20  21
ENDBRANCH  19  20
ENDBRANCH  18  19
ENDBRANCH  17  18
ENDBRANCH  16  17
ENDBRANCH  15  16
ENDBRANCH  14  15
ENDBRANCH  13  14
ENDBRANCH   1  13
TORSDOF 20
ENDMDL
MODEL 7
REMARK VINA RESULT:    -5.112      6.586     11.366
REMARK INTER + INTRA:         -13.384
REMARK INTER:                 -10.965
REMARK INTRA:                  -2.419
REMARK UNBOUND:                -2.295
REMARK SMILES CCCCCCCCCCCCCCCCCCCCCC(=O)[O-]
REMARK SMILES IDX 12 1 11 2 10 3 9 4 8 5 7 6 6 7 5 8 4 9 3 10 2 11 1 12 13 13
REMARK SMILES IDX 14 14 15 15 16 16 17 17 18 18 19 19 20 20 21 21 22 22 23 23
REMARK SMILES IDX 24 24
REMARK H PARENT
REMARK Flexibility Score: inf
ROOT
ATOM      1  C   UNL     1      50.052  26.018  17.487  1.00  0.00     0.000 C 
ENDROOT
BRANCH   1   2
ATOM      2  C   UNL     1      48.845  25.915  16.543  1.00  0.00     0.000 C 
BRANCH   2   3
ATOM      3  C   UNL     1      49.068  26.753  15.274  1.00  0.00     0.000 C 
BRANCH   3   4
ATOM      4  C   UNL     1      49.010  28.264  15.543  1.00  0.00    -0.000 C 
BRANCH   4   5
ATOM      5  C   UNL     1      47.703  28.696  16.225  1.00  0.00    -0.000 C 
BRANCH   5   6
ATOM      6  C   UNL     1      47.963  29.796  17.265  1.00  0.00    -0.000 C 
BRANCH   6   7
ATOM      7  C   UNL     1      49.432  30.255  17.294  1.00  0.00    -0.000 C 
BRANCH   7   8
ATOM      8  C   UNL     1      49.635  31.776  17.446  1.00  0.00    -0.000 C 
BRANCH   8   9
ATOM      9  C   UNL     1      48.346  32.586  17.687  1.00  0.00    -0.000 C 
BRANCH   9  10
ATOM     10  C   UNL     1      48.187  33.838  16.801  1.00  0.00    -0.000 C 
BRANCH  10  11
ATOM     11  C   UNL     1      47.400  33.613  15.498  1.00  0.00    -0.003 C 
ATOM     12  C   UNL     1      48.191  33.999  14.250  1.00  0.00     0.004 C 
ENDBRANCH  10  11
ENDBRANCH   9  10
ENDBRANCH   8   9
ENDBRANCH   7   8
ENDBRANCH   6   7
ENDBRANCH   5   6
ENDBRANCH   4   5
ENDBRANCH   3   4
ENDBRANCH   2   3
ENDBRANCH   1   2
BRANCH   1  13
ATOM     13  C   UNL     1      49.838  25.264  18.810  1.00  0.00     0.000 C 
BRANCH  13  14
ATOM     14  C   UNL     1      48.485  25.594  19.465  1.00  0.00     0.000 C 
BRANCH  14  15
ATOM     15  C   UNL     1      48.487  25.334  20.979  1.00  0.00     0.000 C 
BRANCH  15  16
ATOM     16  C   UNL     1      48.463  26.631  21.807  1.00  0.00     0.000 C 
BRANCH  16  17
ATOM     17  C   UNL     1      49.723  26.805  22.666  1.00  0.00     0.000 C 
BRANCH  17  18
ATOM     18  C   UNL     1      50.679  25.602  22.563  1.00  0.00     0.000 C 
BRANCH  18  19
ATOM     19  C   UNL     1      52.136  26.025  22.319  1.00  0.00     0.000 C 
BRANCH  19  20
ATOM     20  C   UNL     1      52.286  26.957  21.107  1.00  0.00     0.006 C 
BRANCH  20  21
ATOM     21  C   UNL     1      53.326  26.415  20.123  1.00  0.00     0.053 C 
BRANCH  21  22
ATOM     22  C   UNL     1      53.501  27.356  18.974  1.00  0.00     0.041 C 
ATOM     23  O   UNL     1      53.512  26.918  17.793  1.00  0.00    -0.550 OA
ATOM     24  O   UNL     1      53.699  28.710  19.208  1.00  0.00    -0.550 OA
ENDBRANCH  21  22
ENDBRANCH  20  21
ENDBRANCH  19  20
ENDBRANCH  18  19
ENDBRANCH  17  18
ENDBRANCH  16  17
ENDBRANCH  15  16
ENDBRANCH  14  15
ENDBRANCH  13  14
ENDBRANCH   1  13
TORSDOF 20
ENDMDL
MODEL 8
REMARK VINA RESULT:    -5.110      6.309     12.460
REMARK INTER + INTRA:         -13.379
REMARK INTER:                 -12.056
REMARK INTRA:                  -1.323
REMARK UNBOUND:                -2.295
REMARK SMILES CCCCCCCCCCCCCCCCCCCCCC(=O)[O-]
REMARK SMILES IDX 12 1 11 2 10 3 9 4 8 5 7 6 6 7 5 8 4 9 3 10 2 11 1 12 13 13
REMARK SMILES IDX 14 14 15 15 16 16 17 17 18 18 19 19 20 20 21 21 22 22 23 23
REMARK SMILES IDX 24 24
REMARK H PARENT
REMARK Flexibility Score: inf
ROOT
ATOM      1  C   UNL     1      47.839  29.817  16.342  1.00  0.00     0.000 C 
ENDROOT
BRANCH   1   2
ATOM      2  C   UNL     1      47.630  28.296  16.291  1.00  0.00     0.000 C 
BRANCH   2   3
ATOM      3  C   UNL     1      48.857  27.595  15.687  1.00  0.00     0.000 C 
BRANCH   3   4
ATOM      4  C   UNL     1      48.783  26.064  15.802  1.00  0.00    -0.000 C 
BRANCH   4   5
ATOM      5  C   UNL     1      49.607  25.517  16.978  1.00  0.00    -0.000 C 
BRANCH   5   6
ATOM      6  C   UNL     1      48.816  25.607  18.291  1.00  0.00    -0.000 C 
BRANCH   6   7
ATOM      7  C   UNL     1      49.630  25.142  19.512  1.00  0.00    -0.000 C 
BRANCH   7   8
ATOM      8  C   UNL     1      48.940  25.358  20.875  1.00  0.00    -0.000 C 
BRANCH   8   9
ATOM      9  C   UNL     1      49.863  25.224  22.102  1.00  0.00    -0.000 C 
BRANCH   9  10
ATOM     10  C   UNL     1      50.476  26.546  22.603  1.00  0.00    -0.000 C 
BRANCH  10  11
ATOM     11  C   UNL     1      51.871  26.868  22.038  1.00  0.00    -0.003 C 
ATOM     12  C   UNL     1      52.967  25.973  22.612  1.00  0.00     0.004 C 
ENDBRANCH  10  11
ENDBRANCH   9  10
ENDBRANCH   8   9
ENDBRANCH   7   8
ENDBRANCH   6   7
ENDBRANCH   5   6
ENDBRANCH   4   5
ENDBRANCH   3   4
ENDBRANCH   2   3
ENDBRANCH   1   2
BRANCH   1  13
ATOM     13  C   UNL     1      49.302  30.208  16.607  1.00  0.00     0.000 C 
BRANCH  13  14
ATOM     14  C   UNL     1      49.430  31.410  17.558  1.00  0.00     0.000 C 
BRANCH  14  15
ATOM     15  C   UNL     1      48.169  32.288  17.569  1.00  0.00     0.000 C 
BRANCH  15  16
ATOM     16  C   UNL     1      48.490  33.793  17.607  1.00  0.00     0.000 C 
BRANCH  16  17
ATOM     17  C   UNL     1      48.557  34.416  16.204  1.00  0.00     0.000 C 
BRANCH  17  18
ATOM     18  C   UNL     1      47.944  33.506  15.124  1.00  0.00     0.000 C 
BRANCH  18  19
ATOM     19  C   UNL     1      47.549  34.278  13.855  1.00  0.00     0.000 C 
BRANCH  19  20
ATOM     20  C   UNL     1      48.738  34.509  12.910  1.00  0.00     0.006 C 
BRANCH  20  21
ATOM     21  C   UNL     1      49.061  33.240  12.117  1.00  0.00     0.053 C 
BRANCH  21  22
ATOM     22  C   UNL     1      49.087  33.530  10.650  1.00  0.00     0.041 C 
ATOM     23  O   UNL     1      50.161  33.875  10.091  1.00  0.00    -0.550 OA
ATOM     24  O   UNL     1      47.914  33.468   9.908  1.00  0.00    -0.550 OA
ENDBRANCH  21  22
ENDBRANCH  20  21
ENDBRANCH  19  20
ENDBRANCH  18  19
ENDBRANCH  17  18
ENDBRANCH  16  17
ENDBRANCH  15  16
ENDBRANCH  14  15
ENDBRANCH  13  14
ENDBRANCH   1  13
TORSDOF 20
ENDMDL
MODEL 9
REMARK VINA RESULT:    -5.042      4.297     11.045
REMARK INTER + INTRA:         -13.232
REMARK INTER:                 -11.559
REMARK INTRA:                  -1.673
REMARK UNBOUND:                -2.295
REMARK SMILES CCCCCCCCCCCCCCCCCCCCCC(=O)[O-]
REMARK SMILES IDX 12 1 11 2 10 3 9 4 8 5 7 6 6 7 5 8 4 9 3 10 2 11 1 12 13 13
REMARK SMILES IDX 14 14 15 15 16 16 17 17 18 18 19 19 20 20 21 21 22 22 23 23
REMARK SMILES IDX 24 24
REMARK H PARENT
REMARK Flexibility Score: inf
ROOT
ATOM      1  C   UNL     1      48.318  34.041  17.026  1.00  0.00     0.000 C 
ENDROOT
BRANCH   1   2
ATOM      2  C   UNL     1      48.342  32.804  17.938  1.00  0.00     0.000 C 
BRANCH   2   3
ATOM      3  C   UNL     1      49.605  31.965  17.689  1.00  0.00     0.000 C 
BRANCH   3   4
ATOM      4  C   UNL     1      49.307  30.648  16.955  1.00  0.00    -0.000 C 
BRANCH   4   5
ATOM      5  C   UNL     1      47.845  30.200  17.109  1.00  0.00    -0.000 C 
BRANCH   5   6
ATOM      6  C   UNL     1      47.588  28.894  16.343  1.00  0.00    -0.000 C 
BRANCH   6   7
ATOM      7  C   UNL     1      48.878  28.261  15.791  1.00  0.00    -0.000 C 
BRANCH   7   8
ATOM      8  C   UNL     1      49.391  27.038  16.578  1.00  0.00    -0.000 C 
BRANCH   8   9
ATOM      9  C   UNL     1      48.299  26.047  17.027  1.00  0.00    -0.000 C 
BRANCH   9  10
ATOM     10  C   UNL     1      48.385  25.607  18.502  1.00  0.00    -0.000 C 
BRANCH  10  11
ATOM     11  C   UNL     1      49.782  25.155  18.962  1.00  0.00    -0.003 C 
ATOM     12  C   UNL     1      50.242  25.849  20.242  1.00  0.00     0.004 C 
ENDBRANCH  10  11
ENDBRANCH   9  10
ENDBRANCH   8   9
ENDBRANCH   7   8
ENDBRANCH   6   7
ENDBRANCH   5   6
ENDBRANCH   4   5
ENDBRANCH   3   4
ENDBRANCH   2   3
ENDBRANCH   1   2
BRANCH   1  13
ATOM     13  C   UNL     1      47.363  33.880  15.832  1.00  0.00     0.000 C 
BRANCH  13  14
ATOM     14  C   UNL     1      48.051  33.261  14.604  1.00  0.00     0.000 C 
BRANCH  14  15
ATOM     15  C   UNL     1      48.532  34.322  13.602  1.00  0.00     0.000 C 
BRANCH  15  16
ATOM     16  C   UNL     1      47.967  34.104  12.187  1.00  0.00     0.000 C 
BRANCH  16  17
ATOM     17  C   UNL     1      46.486  34.496  12.078  1.00  0.00     0.000 C 
BRANCH  17  18
ATOM     18  C   UNL     1      46.156  35.780  12.861  1.00  0.00     0.000 C 
BRANCH  18  19
ATOM     19  C   UNL     1      44.697  35.820  13.343  1.00  0.00     0.000 C 
BRANCH  19  20
ATOM     20  C   UNL     1      43.727  36.294  12.251  1.00  0.00     0.006 C 
BRANCH  20  21
ATOM     21  C   UNL     1      42.480  36.935  12.866  1.00  0.00     0.053 C 
BRANCH  21  22
ATOM     22  C   UNL     1      41.828  37.858  11.886  1.00  0.00     0.041 C 
ATOM     23  O   UNL     1      40.865  37.457  11.180  1.00  0.00    -0.550 OA
ATOM     24  O   UNL     1      42.313  39.149  11.718  1.00  0.00    -0.550 OA
ENDBRANCH  21  22
ENDBRANCH  20  21
ENDBRANCH  19  20
ENDBRANCH  18  19
ENDBRANCH  17  18
ENDBRANCH  16  17
ENDBRANCH  15  16
ENDBRANCH  14  15
ENDBRANCH  13  14
ENDBRANCH   1  13
TORSDOF 20
ENDMDL
