MODEL 1
REMARK VINA RESULT:    -3.033      0.000      0.000
REMARK INTER + INTRA:          -3.965
REMARK INTER:                  -3.830
REMARK INTRA:                  -0.134
REMARK UNBOUND:                -0.134
REMARK SMILES CSCC[C@H]([NH3+])C(=O)[O-]
REMARK SMILES IDX 4 1 5 2 6 3 7 7 8 8 9 9 3 10 2 11 1 12
REMARK H PARENT 6 4 6 5 6 6
REMARK Flexibility Score: inf
ROOT
ATOM      1  C   UNL     1     -24.449   9.520   5.799  1.00  0.00     0.082 C 
ENDROOT
BRANCH   1   2
ATOM      2  C   UNL     1     -24.341  10.166   4.396  1.00  0.00     0.228 C 
BRANCH   2   3
ATOM      3  N   UNL     1     -23.692  11.484   4.449  1.00  0.00    -0.350 N 
ATOM      4  H   UNL     1     -22.728  11.410   4.850  1.00  0.00     0.345 HD
ATOM      5  H   UNL     1     -23.640  11.897   3.490  1.00  0.00     0.345 HD
ATOM      6  H   UNL     1     -24.258  12.137   5.039  1.00  0.00     0.345 HD
ENDBRANCH   2   3
BRANCH   2   7
ATOM      7  C   UNL     1     -25.716  10.287   3.793  1.00  0.00     0.099 C 
ATOM      8  O   UNL     1     -26.614   9.449   4.075  1.00  0.00    -0.544 OA
ATOM      9  O   UNL     1     -25.993  11.313   2.899  1.00  0.00    -0.544 OA
ENDBRANCH   2   7
ENDBRANCH   1   2
BRANCH   1  10
ATOM     10  C   UNL     1     -23.520   8.317   6.010  1.00  0.00     0.076 C 
BRANCH  10  11
ATOM     11  S   UNL     1     -23.692   7.097   4.661  1.00  0.00    -0.165 SA
ATOM     12  C   UNL     1     -23.580   5.648   5.756  1.00  0.00     0.085 C 
ENDBRANCH  10  11
ENDBRANCH   1  10
TORSDOF 5
ENDMDL
MODEL 2
REMARK VINA RESULT:    -2.984      5.727      6.949
REMARK INTER + INTRA:          -3.903
REMARK INTER:                  -3.786
REMARK INTRA:                  -0.117
REMARK UNBOUND:                -0.134
REMARK SMILES CSCC[C@H]([NH3+])C(=O)[O-]
REMARK SMILES IDX 4 1 5 2 6 3 7 7 8 8 9 9 3 10 2 11 1 12
REMARK H PARENT 6 4 6 5 6 6
REMARK Flexibility Score: inf
ROOT
ATOM      1  C   UNL     1     -23.315   5.721   7.672  1.00  0.00     0.082 C 
ENDROOT
BRANCH   1   2
ATOM      2  C   UNL     1     -23.466   4.658   8.787  1.00  0.00     0.228 C 
BRANCH   2   3
ATOM      3  N   UNL     1     -23.133   5.203  10.111  1.00  0.00    -0.350 N 
ATOM      4  H   UNL     1     -22.430   5.975  10.031  1.00  0.00     0.345 HD
ATOM      5  H   UNL     1     -23.995   5.564  10.578  1.00  0.00     0.345 HD
ATOM      6  H   UNL     1     -22.741   4.448  10.720  1.00  0.00     0.345 HD
ENDBRANCH   2   3
BRANCH   2   7
ATOM      7  C   UNL     1     -22.584   3.477   8.475  1.00  0.00     0.099 C 
ATOM      8  O   UNL     1     -21.332   3.609   8.428  1.00  0.00    -0.544 OA
ATOM      9  O   UNL     1     -23.152   2.238   8.212  1.00  0.00    -0.544 OA
ENDBRANCH   2   7
ENDBRANCH   1   2
BRANCH   1  10
ATOM     10  C   UNL     1     -23.602   5.196   6.259  1.00  0.00     0.076 C 
BRANCH  10  11
ATOM     11  S   UNL     1     -23.577   6.546   5.028  1.00  0.00    -0.165 SA
ATOM     12  C   UNL     1     -23.562   7.878   6.269  1.00  0.00     0.085 C 
ENDBRANCH  10  11
ENDBRANCH   1  10
TORSDOF 5
ENDMDL
MODEL 3
REMARK VINA RESULT:    -2.960      5.679      6.090
REMARK INTER + INTRA:          -3.873
REMARK INTER:                  -3.663
REMARK INTRA:                  -0.209
REMARK UNBOUND:                -0.134
REMARK SMILES CSCC[C@H]([NH3+])C(=O)[O-]
REMARK SMILES IDX 4 1 5 2 6 3 7 7 8 8 9 9 3 10 2 11 1 12
REMARK H PARENT 6 4 6 5 6 6
REMARK Flexibility Score: inf
ROOT
ATOM      1  C   UNL     1     -29.415   9.925   2.705  1.00  0.00     0.082 C 
ENDROOT
BRANCH   1   2
ATOM      2  C   UNL     1     -29.595  11.023   3.781  1.00  0.00     0.228 C 
BRANCH   2   3
ATOM      3  N   UNL     1     -28.353  11.776   4.008  1.00  0.00    -0.350 N 
ATOM      4  H   UNL     1     -28.491  12.509   4.743  1.00  0.00     0.345 HD
ATOM      5  H   UNL     1     -27.588  11.128   4.302  1.00  0.00     0.345 HD
ATOM      6  H   UNL     1     -28.048  12.238   3.121  1.00  0.00     0.345 HD
ENDBRANCH   2   3
BRANCH   2   7
ATOM      7  C   UNL     1     -30.063  10.393   5.067  1.00  0.00     0.099 C 
ATOM      8  O   UNL     1     -31.207  10.652   5.527  1.00  0.00    -0.544 OA
ATOM      9  O   UNL     1     -29.220   9.541   5.769  1.00  0.00    -0.544 OA
ENDBRANCH   2   7
ENDBRANCH   1   2
BRANCH   1  10
ATOM     10  C   UNL     1     -30.708   9.543   1.973  1.00  0.00     0.076 C 
BRANCH  10  11
ATOM     11  S   UNL     1     -31.376   7.956   2.586  1.00  0.00    -0.165 SA
ATOM     12  C   UNL     1     -29.747   7.262   3.007  1.00  0.00     0.085 C 
ENDBRANCH  10  11
ENDBRANCH   1  10
TORSDOF 5
ENDMDL
MODEL 4
REMARK VINA RESULT:    -2.956     17.480     18.274
REMARK INTER + INTRA:          -3.868
REMARK INTER:                  -3.815
REMARK INTRA:                  -0.054
REMARK UNBOUND:                -0.134
REMARK SMILES CSCC[C@H]([NH3+])C(=O)[O-]
REMARK SMILES IDX 4 1 5 2 6 3 7 7 8 8 9 9 3 10 2 11 1 12
REMARK H PARENT 6 4 6 5 6 6
REMARK Flexibility Score: inf
ROOT
ATOM      1  C   UNL     1     -23.629  -4.643  -5.080  1.00  0.00     0.082 C 
ENDROOT
BRANCH   1   2
ATOM      2  C   UNL     1     -23.508  -6.112  -4.607  1.00  0.00     0.228 C 
BRANCH   2   3
ATOM      3  N   UNL     1     -22.974  -6.985  -5.663  1.00  0.00    -0.350 N 
ATOM      4  H   UNL     1     -22.272  -6.475  -6.248  1.00  0.00     0.345 HD
ATOM      5  H   UNL     1     -22.527  -7.829  -5.239  1.00  0.00     0.345 HD
ATOM      6  H   UNL     1     -23.752  -7.319  -6.277  1.00  0.00     0.345 HD
ENDBRANCH   2   3
BRANCH   2   7
ATOM      7  C   UNL     1     -24.859  -6.606  -4.159  1.00  0.00     0.099 C 
ATOM      8  O   UNL     1     -25.349  -7.658  -4.650  1.00  0.00    -0.544 OA
ATOM      9  O   UNL     1     -25.584  -5.888  -3.218  1.00  0.00    -0.544 OA
ENDBRANCH   2   7
ENDBRANCH   1   2
BRANCH   1  10
ATOM     10  C   UNL     1     -23.476  -4.456  -6.595  1.00  0.00     0.076 C 
BRANCH  10  11
ATOM     11  S   UNL     1     -23.642  -2.699  -7.070  1.00  0.00    -0.165 SA
ATOM     12  C   UNL     1     -23.168  -2.968  -8.806  1.00  0.00     0.085 C 
ENDBRANCH  10  11
ENDBRANCH   1  10
TORSDOF 5
ENDMDL
MODEL 5
REMARK VINA RESULT:    -2.956      3.681      4.577
REMARK INTER + INTRA:          -3.867
REMARK INTER:                  -3.781
REMARK INTRA:                  -0.086
REMARK UNBOUND:                -0.134
REMARK SMILES CSCC[C@H]([NH3+])C(=O)[O-]
REMARK SMILES IDX 4 1 5 2 6 3 7 7 8 8 9 9 3 10 2 11 1 12
REMARK H PARENT 6 4 6 5 6 6
REMARK Flexibility Score: inf
ROOT
ATOM      1  C   UNL     1     -27.967   9.335   4.008  1.00  0.00     0.082 C 
ENDROOT
BRANCH   1   2
ATOM      2  C   UNL     1     -29.110  10.373   4.111  1.00  0.00     0.228 C 
BRANCH   2   3
ATOM      3  N   UNL     1     -28.599  11.752   4.121  1.00  0.00    -0.350 N 
ATOM      4  H   UNL     1     -29.295  12.411   3.701  1.00  0.00     0.345 HD
ATOM      5  H   UNL     1     -28.385  12.049   5.100  1.00  0.00     0.345 HD
ATOM      6  H   UNL     1     -27.707  11.806   3.577  1.00  0.00     0.345 HD
ENDBRANCH   2   3
BRANCH   2   7
ATOM      7  C   UNL     1     -29.916  10.110   5.356  1.00  0.00     0.099 C 
ATOM      8  O   UNL     1     -29.433   9.426   6.297  1.00  0.00    -0.544 OA
ATOM      9  O   UNL     1     -31.212  10.599   5.460  1.00  0.00    -0.544 OA
ENDBRANCH   2   7
ENDBRANCH   1   2
BRANCH   1  10
ATOM     10  C   UNL     1     -26.644   9.907   3.481  1.00  0.00     0.076 C 
BRANCH  10  11
ATOM     11  S   UNL     1     -25.259   9.531   4.612  1.00  0.00    -0.165 SA
ATOM     12  C   UNL     1     -24.260  10.966   4.107  1.00  0.00     0.085 C 
ENDBRANCH  10  11
ENDBRANCH   1  10
TORSDOF 5
ENDMDL
MODEL 6
REMARK VINA RESULT:    -2.874      4.618      5.505
REMARK INTER + INTRA:          -3.765
REMARK INTER:                  -3.532
REMARK INTRA:                  -0.233
REMARK UNBOUND:                -0.134
REMARK SMILES CSCC[C@H]([NH3+])C(=O)[O-]
REMARK SMILES IDX 4 1 5 2 6 3 7 7 8 8 9 9 3 10 2 11 1 12
REMARK H PARENT 6 4 6 5 6 6
REMARK Flexibility Score: inf
ROOT
ATOM      1  C   UNL     1     -29.414   8.685   4.098  1.00  0.00     0.082 C 
ENDROOT
BRANCH   1   2
ATOM      2  C   UNL     1     -29.417   9.812   5.159  1.00  0.00     0.228 C 
BRANCH   2   3
ATOM      3  N   UNL     1     -29.695   9.295   6.507  1.00  0.00    -0.350 N 
ATOM      4  H   UNL     1     -30.633   9.614   6.843  1.00  0.00     0.345 HD
ATOM      5  H   UNL     1     -29.663   8.250   6.504  1.00  0.00     0.345 HD
ATOM      6  H   UNL     1     -28.962   9.628   7.175  1.00  0.00     0.345 HD
ENDBRANCH   2   3
BRANCH   2   7
ATOM      7  C   UNL     1     -30.440  10.853   4.782  1.00  0.00     0.099 C 
ATOM      8  O   UNL     1     -30.232  11.631   3.813  1.00  0.00    -0.544 OA
ATOM      9  O   UNL     1     -31.609  10.976   5.521  1.00  0.00    -0.544 OA
ENDBRANCH   2   7
ENDBRANCH   1   2
BRANCH   1  10
ATOM     10  C   UNL     1     -28.144   8.635   3.238  1.00  0.00     0.076 C 
BRANCH  10  11
ATOM     11  S   UNL     1     -26.791   9.604   3.992  1.00  0.00    -0.165 SA
ATOM     12  C   UNL     1     -26.819  10.910   2.726  1.00  0.00     0.085 C 
ENDBRANCH  10  11
ENDBRANCH   1  10
TORSDOF 5
ENDMDL
MODEL 7
REMARK VINA RESULT:    -2.862      5.548      6.699
REMARK INTER + INTRA:          -3.749
REMARK INTER:                  -3.544
REMARK INTRA:                  -0.205
REMARK UNBOUND:                -0.134
REMARK SMILES CSCC[C@H]([NH3+])C(=O)[O-]
REMARK SMILES IDX 4 1 5 2 6 3 7 7 8 8 9 9 3 10 2 11 1 12
REMARK H PARENT 6 4 6 5 6 6
REMARK Flexibility Score: inf
ROOT
ATOM      1  C   UNL     1     -30.149  11.382   4.389  1.00  0.00     0.082 C 
ENDROOT
BRANCH   1   2
ATOM      2  C   UNL     1     -30.336   9.900   4.796  1.00  0.00     0.228 C 
BRANCH   2   3
ATOM      3  N   UNL     1     -30.476   9.746   6.252  1.00  0.00    -0.350 N 
ATOM      4  H   UNL     1     -29.589  10.011   6.741  1.00  0.00     0.345 HD
ATOM      5  H   UNL     1     -31.259  10.342   6.603  1.00  0.00     0.345 HD
ATOM      6  H   UNL     1     -30.710   8.754   6.485  1.00  0.00     0.345 HD
ENDBRANCH   2   3
BRANCH   2   7
ATOM      7  C   UNL     1     -29.167   9.092   4.299  1.00  0.00     0.099 C 
ATOM      8  O   UNL     1     -27.988   9.504   4.466  1.00  0.00    -0.544 OA
ATOM      9  O   UNL     1     -29.385   7.896   3.627  1.00  0.00    -0.544 OA
ENDBRANCH   2   7
ENDBRANCH   1   2
BRANCH   1  10
ATOM     10  C   UNL     1     -30.941  11.796   3.142  1.00  0.00     0.076 C 
BRANCH  10  11
ATOM     11  S   UNL     1     -29.878  11.817   1.655  1.00  0.00    -0.165 SA
ATOM     12  C   UNL     1     -30.561  10.280   0.961  1.00  0.00     0.085 C 
ENDBRANCH  10  11
ENDBRANCH   1  10
TORSDOF 5
ENDMDL
MODEL 8
REMARK VINA RESULT:    -2.849      6.104      7.059
REMARK INTER + INTRA:          -3.733
REMARK INTER:                  -3.518
REMARK INTRA:                  -0.215
REMARK UNBOUND:                -0.134
REMARK SMILES CSCC[C@H]([NH3+])C(=O)[O-]
REMARK SMILES IDX 4 1 5 2 6 3 7 7 8 8 9 9 3 10 2 11 1 12
REMARK H PARENT 6 4 6 5 6 6
REMARK Flexibility Score: inf
ROOT
ATOM      1  C   UNL     1     -21.488   3.603   8.017  1.00  0.00     0.082 C 
ENDROOT
BRANCH   1   2
ATOM      2  C   UNL     1     -22.373   4.711   8.637  1.00  0.00     0.228 C 
BRANCH   2   3
ATOM      3  N   UNL     1     -23.049   4.252   9.859  1.00  0.00    -0.350 N 
ATOM      4  H   UNL     1     -24.046   4.570   9.876  1.00  0.00     0.345 HD
ATOM      5  H   UNL     1     -23.015   3.209   9.919  1.00  0.00     0.345 HD
ATOM      6  H   UNL     1     -22.557   4.629  10.702  1.00  0.00     0.345 HD
ENDBRANCH   2   3
BRANCH   2   7
ATOM      7  C   UNL     1     -23.390   5.166   7.623  1.00  0.00     0.099 C 
ATOM      8  O   UNL     1     -23.488   6.385   7.320  1.00  0.00    -0.544 OA
ATOM      9  O   UNL     1     -24.245   4.244   7.035  1.00  0.00    -0.544 OA
ENDBRANCH   2   7
ENDBRANCH   1   2
BRANCH   1  10
ATOM     10  C   UNL     1     -21.397   2.325   8.861  1.00  0.00     0.076 C 
BRANCH  10  11
ATOM     11  S   UNL     1     -22.379   0.970   8.127  1.00  0.00    -0.165 SA
ATOM     12  C   UNL     1     -22.051   1.465   6.406  1.00  0.00     0.085 C 
ENDBRANCH  10  11
ENDBRANCH   1  10
TORSDOF 5
ENDMDL
MODEL 9
REMARK VINA RESULT:    -2.526     15.637     16.537
REMARK INTER + INTRA:          -3.325
REMARK INTER:                  -3.095
REMARK INTRA:                  -0.230
REMARK UNBOUND:                -0.134
REMARK SMILES CSCC[C@H]([NH3+])C(=O)[O-]
REMARK SMILES IDX 4 1 5 2 6 3 7 7 8 8 9 9 3 10 2 11 1 12
REMARK H PARENT 6 4 6 5 6 6
REMARK Flexibility Score: inf
ROOT
ATOM      1  C   UNL     1     -21.602  -1.380  -7.132  1.00  0.00     0.082 C 
ENDROOT
BRANCH   1   2
ATOM      2  C   UNL     1     -22.414  -2.449  -7.902  1.00  0.00     0.228 C 
BRANCH   2   3
ATOM      3  N   UNL     1     -23.019  -1.901  -9.125  1.00  0.00    -0.350 N 
ATOM      4  H   UNL     1     -22.544  -1.013  -9.410  1.00  0.00     0.345 HD
ATOM      5  H   UNL     1     -22.953  -2.596  -9.902  1.00  0.00     0.345 HD
ATOM      6  H   UNL     1     -24.035  -1.707  -8.965  1.00  0.00     0.345 HD
ENDBRANCH   2   3
BRANCH   2   7
ATOM      7  C   UNL     1     -23.484  -3.011  -7.002  1.00  0.00     0.099 C 
ATOM      8  O   UNL     1     -23.488  -4.235  -6.703  1.00  0.00    -0.544 OA
ATOM      9  O   UNL     1     -24.489  -2.185  -6.518  1.00  0.00    -0.544 OA
ENDBRANCH   2   7
ENDBRANCH   1   2
BRANCH   1  10
ATOM     10  C   UNL     1     -21.826   0.056  -7.625  1.00  0.00     0.076 C 
BRANCH  10  11
ATOM     11  S   UNL     1     -22.630   1.082  -6.345  1.00  0.00    -0.165 SA
ATOM     12  C   UNL     1     -24.197   1.252  -7.253  1.00  0.00     0.085 C 
ENDBRANCH  10  11
ENDBRANCH   1  10
TORSDOF 5
ENDMDL
