MODEL 1
REMARK VINA RESULT:    -4.461      0.000      0.000
REMARK INTER + INTRA:          -7.085
REMARK INTER:                  -6.808
REMARK INTRA:                  -0.277
REMARK UNBOUND:                -0.277
REMARK SMILES CC1=CCC[C@H](C)C(=O)C[C@H](C(C)C)C(=O)C1
REMARK SMILES IDX 8 1 9 2 6 3 7 4 5 5 4 6 3 7 2 8 1 9 10 11 11 12 15 13 16 14
REMARK SMILES IDX 17 15 12 17 13 18 14 19
REMARK H PARENT
REMARK Flexibility Score: 70.00
ROOT
ATOM      1  C   UNL     1     211.754 150.900 180.737  1.00  0.00     0.136 C 
ATOM      2  O   UNL     1     212.232 149.885 181.227  1.00  0.00    -0.299 OA
ENDROOT
BRANCH   1   3
ATOM      3  C   UNL     1     210.689 151.679 181.495  1.00  0.00     0.053 C 
ATOM      4  C   UNL     1     209.315 150.992 181.434  1.00  0.00     0.016 C 
BRANCH   3   5
ATOM      5  C   UNL     1     211.104 151.961 182.957  1.00  0.00     0.015 C 
BRANCH   5   6
ATOM      6  C   UNL     1     212.345 152.874 183.105  1.00  0.00     0.028 C 
BRANCH   6   7
ATOM      7  C   UNL     1     213.582 152.057 183.403  1.00  0.00    -0.028 C 
ATOM      8  C   UNL     1     214.755 152.128 182.727  1.00  0.00    -0.070 CG0
ATOM      9  C   UNL     1     215.925 151.340 183.260  1.00  0.00     0.039 C 
ATOM     10  G   UNL     1     214.948 152.956 181.466  1.00  0.00     0.000 G0
ENDBRANCH   6   7
ENDBRANCH   5   6
ENDBRANCH   3   5
ENDBRANCH   1   3
BRANCH   1  11
ATOM     11  C   UNL     1     212.268 151.368 179.395  1.00  0.00     0.087 C 
BRANCH  11  12
ATOM     12  C   UNL     1     213.163 152.633 179.506  1.00  0.00     0.066 C 
BRANCH  12  13
ATOM     13  C   UNL     1     214.500 152.321 180.171  1.00  0.00     0.140 C 
ATOM     14  O   UNL     1     215.236 151.496 179.650  1.00  0.00    -0.299 OA
BRANCH  13  15
ATOM     15  C   UNL     1     214.974 152.955 181.466  1.00  0.00     0.106 CG0
ATOM     16  G   UNL     1     214.740 152.138 182.728  1.00  0.00     0.000 G0
ENDBRANCH  13  15
ENDBRANCH  12  13
BRANCH  12  17
ATOM     17  C   UNL     1     213.367 153.387 178.155  1.00  0.00    -0.006 C 
ATOM     18  C   UNL     1     212.599 152.784 176.965  1.00  0.00     0.008 C 
ATOM     19  C   UNL     1     213.031 154.881 178.285  1.00  0.00     0.008 C 
ENDBRANCH  12  17
ENDBRANCH  11  12
ENDBRANCH   1  11
TORSDOF 1
ENDMDL
MODEL 2
REMARK VINA RESULT:    -4.360      2.423      3.170
REMARK INTER + INTRA:          -6.931
REMARK INTER:                  -6.665
REMARK INTRA:                  -0.267
REMARK UNBOUND:                -0.277
REMARK SMILES CC1=CCC[C@H](C)C(=O)C[C@H](C(C)C)C(=O)C1
REMARK SMILES IDX 8 1 9 2 6 3 7 4 5 5 4 6 3 7 2 8 1 9 10 11 11 12 15 13 16 14
REMARK SMILES IDX 17 15 12 17 13 18 14 19
REMARK H PARENT
REMARK Flexibility Score: 70.00
ROOT
ATOM      1  C   UNL     1     212.224 151.755 181.123  1.00  0.00     0.136 C 
ATOM      2  O   UNL     1     211.658 151.184 180.200  1.00  0.00    -0.299 OA
ENDROOT
BRANCH   1   3
ATOM      3  C   UNL     1     211.719 151.581 182.547  1.00  0.00     0.053 C 
ATOM      4  C   UNL     1     212.830 151.111 183.502  1.00  0.00     0.016 C 
BRANCH   3   5
ATOM      5  C   UNL     1     211.032 152.858 183.081  1.00  0.00     0.015 C 
BRANCH   5   6
ATOM      6  C   UNL     1     211.924 153.727 184.003  1.00  0.00     0.028 C 
BRANCH   6   7
ATOM      7  C   UNL     1     211.765 155.194 183.677  1.00  0.00    -0.028 C 
ATOM      8  C   UNL     1     212.506 155.887 182.778  1.00  0.00    -0.070 CG0
ATOM      9  C   UNL     1     212.108 157.311 182.481  1.00  0.00     0.039 C 
ATOM     10  G   UNL     1     213.713 155.303 182.059  1.00  0.00     0.000 G0
ENDBRANCH   6   7
ENDBRANCH   5   6
ENDBRANCH   3   5
ENDBRANCH   1   3
BRANCH   1  11
ATOM     11  C   UNL     1     213.443 152.596 180.815  1.00  0.00     0.087 C 
BRANCH  11  12
ATOM     12  C   UNL     1     213.119 153.798 179.886  1.00  0.00     0.066 C 
BRANCH  12  13
ATOM     13  C   UNL     1     213.488 155.128 180.537  1.00  0.00     0.140 C 
ATOM     14  O   UNL     1     213.647 156.107 179.822  1.00  0.00    -0.299 OA
BRANCH  13  15
ATOM     15  C   UNL     1     213.699 155.315 182.028  1.00  0.00     0.106 CG0
ATOM     16  G   UNL     1     212.523 155.901 182.795  1.00  0.00     0.000 G0
ENDBRANCH  13  15
ENDBRANCH  12  13
BRANCH  12  17
ATOM     17  C   UNL     1     213.735 153.680 178.457  1.00  0.00    -0.006 C 
ATOM     18  C   UNL     1     214.684 152.483 178.268  1.00  0.00     0.008 C 
ATOM     19  C   UNL     1     212.647 153.655 177.372  1.00  0.00     0.008 C 
ENDBRANCH  12  17
ENDBRANCH  11  12
ENDBRANCH   1  11
TORSDOF 1
ENDMDL
MODEL 3
REMARK VINA RESULT:    -4.219      2.206      3.508
REMARK INTER + INTRA:          -6.716
REMARK INTER:                  -6.770
REMARK INTRA:                   0.055
REMARK UNBOUND:                -0.277
REMARK SMILES CC1=CCC[C@H](C)C(=O)C[C@H](C(C)C)C(=O)C1
REMARK SMILES IDX 8 1 9 2 6 3 7 4 5 5 4 6 3 7 2 8 1 9 10 11 11 12 15 13 16 14
REMARK SMILES IDX 17 15 12 17 13 18 14 19
REMARK H PARENT
REMARK Flexibility Score: 70.00
ROOT
ATOM      1  C   UNL     1     213.120 153.943 182.988  1.00  0.00     0.136 C 
ATOM      2  O   UNL     1     214.288 153.818 183.333  1.00  0.00    -0.299 OA
ENDROOT
BRANCH   1   3
ATOM      3  C   UNL     1     212.004 153.440 183.891  1.00  0.00     0.053 C 
ATOM      4  C   UNL     1     211.131 154.586 184.427  1.00  0.00     0.016 C 
BRANCH   3   5
ATOM      5  C   UNL     1     211.140 152.360 183.202  1.00  0.00     0.015 C 
BRANCH   5   6
ATOM      6  C   UNL     1     211.950 151.209 182.556  1.00  0.00     0.028 C 
BRANCH   6   7
ATOM      7  C   UNL     1     211.635 151.090 181.082  1.00  0.00    -0.028 C 
ATOM      8  C   UNL     1     212.491 151.370 180.068  1.00  0.00    -0.070 CG0
ATOM      9  C   UNL     1     212.047 151.054 178.662  1.00  0.00     0.039 C 
ATOM     10  G   UNL     1     213.867 151.985 180.278  1.00  0.00     0.000 G0
ENDBRANCH   6   7
ENDBRANCH   5   6
ENDBRANCH   3   5
ENDBRANCH   1   3
BRANCH   1  11
ATOM     11  C   UNL     1     212.822 154.633 181.676  1.00  0.00     0.087 C 
BRANCH  11  12
ATOM     12  C   UNL     1     214.041 154.638 180.713  1.00  0.00     0.066 C 
BRANCH  12  13
ATOM     13  C   UNL     1     214.029 153.429 179.783  1.00  0.00     0.140 C 
ATOM     14  O   UNL     1     214.128 153.614 178.579  1.00  0.00    -0.299 OA
BRANCH  13  15
ATOM     15  C   UNL     1     213.873 151.994 180.255  1.00  0.00     0.106 CG0
ATOM     16  G   UNL     1     212.496 151.379 180.059  1.00  0.00     0.000 G0
ENDBRANCH  13  15
ENDBRANCH  12  13
BRANCH  12  17
ATOM     17  C   UNL     1     214.210 155.966 179.910  1.00  0.00    -0.006 C 
ATOM     18  C   UNL     1     212.903 156.528 179.324  1.00  0.00     0.008 C 
ATOM     19  C   UNL     1     214.911 157.047 180.748  1.00  0.00     0.008 C 
ENDBRANCH  12  17
ENDBRANCH  11  12
ENDBRANCH   1  11
TORSDOF 1
ENDMDL
MODEL 4
REMARK VINA RESULT:    -4.183      1.821      2.400
REMARK INTER + INTRA:          -6.660
REMARK INTER:                  -6.503
REMARK INTRA:                  -0.158
REMARK UNBOUND:                -0.277
REMARK SMILES CC1=CCC[C@H](C)C(=O)C[C@H](C(C)C)C(=O)C1
REMARK SMILES IDX 8 1 9 2 6 3 7 4 5 5 4 6 3 7 2 8 1 9 10 11 11 12 15 13 16 14
REMARK SMILES IDX 17 15 12 17 13 18 14 19
REMARK H PARENT
REMARK Flexibility Score: 70.00
ROOT
ATOM      1  C   UNL     1     213.138 153.415 182.063  1.00  0.00     0.136 C 
ATOM      2  O   UNL     1     214.086 154.177 181.925  1.00  0.00    -0.299 OA
ENDROOT
BRANCH   1   3
ATOM      3  C   UNL     1     212.382 153.375 183.383  1.00  0.00     0.053 C 
ATOM      4  C   UNL     1     210.987 152.746 183.233  1.00  0.00     0.016 C 
BRANCH   3   5
ATOM      5  C   UNL     1     213.191 152.671 184.496  1.00  0.00     0.015 C 
BRANCH   5   6
ATOM      6  C   UNL     1     213.253 151.130 184.365  1.00  0.00     0.028 C 
BRANCH   6   7
ATOM      7  C   UNL     1     214.659 150.672 184.053  1.00  0.00    -0.028 C 
ATOM      8  C   UNL     1     215.108 150.276 182.836  1.00  0.00    -0.070 CG0
ATOM      9  C   UNL     1     216.581 149.991 182.686  1.00  0.00     0.039 C 
ATOM     10  G   UNL     1     214.205 150.105 181.624  1.00  0.00     0.000 G0
ENDBRANCH   6   7
ENDBRANCH   5   6
ENDBRANCH   3   5
ENDBRANCH   1   3
BRANCH   1  11
ATOM     11  C   UNL     1     212.724 152.554 180.891  1.00  0.00     0.087 C 
BRANCH  11  12
ATOM     12  C   UNL     1     213.916 152.197 179.962  1.00  0.00     0.066 C 
BRANCH  12  13
ATOM     13  C   UNL     1     214.573 150.881 180.368  1.00  0.00     0.140 C 
ATOM     14  O   UNL     1     215.440 150.411 179.646  1.00  0.00    -0.299 OA
BRANCH  13  15
ATOM     15  C   UNL     1     214.200 150.092 181.610  1.00  0.00     0.106 CG0
ATOM     16  G   UNL     1     215.103 150.294 182.818  1.00  0.00     0.000 G0
ENDBRANCH  13  15
ENDBRANCH  12  13
BRANCH  12  17
ATOM     17  C   UNL     1     213.560 152.204 178.442  1.00  0.00    -0.006 C 
ATOM     18  C   UNL     1     212.524 151.145 178.024  1.00  0.00     0.008 C 
ATOM     19  C   UNL     1     213.098 153.594 177.976  1.00  0.00     0.008 C 
ENDBRANCH  12  17
ENDBRANCH  11  12
ENDBRANCH   1  11
TORSDOF 1
ENDMDL
MODEL 5
REMARK VINA RESULT:    -4.059      3.416      4.320
REMARK INTER + INTRA:          -6.471
REMARK INTER:                  -6.009
REMARK INTRA:                  -0.462
REMARK UNBOUND:                -0.277
REMARK SMILES CC1=CCC[C@H](C)C(=O)C[C@H](C(C)C)C(=O)C1
REMARK SMILES IDX 8 1 9 2 6 3 7 4 5 5 4 6 3 7 2 8 1 9 10 11 11 12 15 13 16 14
REMARK SMILES IDX 17 15 12 17 13 18 14 19
REMARK H PARENT
REMARK Flexibility Score: 70.00
ROOT
ATOM      1  C   UNL     1     213.340 153.259 182.937  1.00  0.00     0.136 C 
ATOM      2  O   UNL     1     213.816 152.614 183.862  1.00  0.00    -0.299 OA
ENDROOT
BRANCH   1   3
ATOM      3  C   UNL     1     211.840 153.230 182.684  1.00  0.00     0.053 C 
ATOM      4  C   UNL     1     211.306 151.797 182.528  1.00  0.00     0.016 C 
BRANCH   3   5
ATOM      5  C   UNL     1     211.053 154.001 183.768  1.00  0.00     0.015 C 
BRANCH   5   6
ATOM      6  C   UNL     1     211.806 155.216 184.364  1.00  0.00     0.028 C 
BRANCH   6   7
ATOM      7  C   UNL     1     211.282 156.510 183.786  1.00  0.00    -0.028 C 
ATOM      8  C   UNL     1     211.929 157.290 182.885  1.00  0.00    -0.070 CG0
ATOM      9  C   UNL     1     211.188 158.471 182.313  1.00  0.00     0.039 C 
ATOM     10  G   UNL     1     213.357 157.034 182.427  1.00  0.00     0.000 G0
ENDBRANCH   6   7
ENDBRANCH   5   6
ENDBRANCH   3   5
ENDBRANCH   1   3
BRANCH   1  11
ATOM     11  C   UNL     1     214.267 154.098 182.087  1.00  0.00     0.087 C 
BRANCH  11  12
ATOM     12  C   UNL     1     213.528 154.814 180.924  1.00  0.00     0.066 C 
BRANCH  12  13
ATOM     13  C   UNL     1     213.546 156.330 181.092  1.00  0.00     0.140 C 
ATOM     14  O   UNL     1     213.731 157.028 180.106  1.00  0.00    -0.299 OA
BRANCH  13  15
ATOM     15  C   UNL     1     213.374 157.040 182.423  1.00  0.00     0.106 CG0
ATOM     16  G   UNL     1     211.938 157.275 182.867  1.00  0.00     0.000 G0
ENDBRANCH  13  15
ENDBRANCH  12  13
BRANCH  12  17
ATOM     17  C   UNL     1     214.025 154.398 179.504  1.00  0.00    -0.006 C 
ATOM     18  C   UNL     1     215.022 153.225 179.496  1.00  0.00     0.008 C 
ATOM     19  C   UNL     1     212.852 154.088 178.562  1.00  0.00     0.008 C 
ENDBRANCH  12  17
ENDBRANCH  11  12
ENDBRANCH   1  11
TORSDOF 1
ENDMDL
MODEL 6
REMARK VINA RESULT:    -4.016      2.198      3.412
REMARK INTER + INTRA:          -6.406
REMARK INTER:                  -6.389
REMARK INTRA:                  -0.017
REMARK UNBOUND:                -0.277
REMARK SMILES CC1=CCC[C@H](C)C(=O)C[C@H](C(C)C)C(=O)C1
REMARK SMILES IDX 8 1 9 2 6 3 7 4 5 5 4 6 3 7 2 8 1 9 10 11 11 12 15 13 16 14
REMARK SMILES IDX 17 15 12 17 13 18 14 19
REMARK H PARENT
REMARK Flexibility Score: 70.00
ROOT
ATOM      1  C   UNL     1     212.285 153.110 183.313  1.00  0.00     0.136 C 
ATOM      2  O   UNL     1     211.402 153.465 184.081  1.00  0.00    -0.299 OA
ENDROOT
BRANCH   1   3
ATOM      3  C   UNL     1     213.602 152.581 183.862  1.00  0.00     0.053 C 
ATOM      4  C   UNL     1     214.289 153.593 184.794  1.00  0.00     0.016 C 
BRANCH   3   5
ATOM      5  C   UNL     1     213.433 151.211 184.559  1.00  0.00     0.015 C 
BRANCH   5   6
ATOM      6  C   UNL     1     213.352 150.007 183.589  1.00  0.00     0.028 C 
BRANCH   6   7
ATOM      7  C   UNL     1     214.606 149.904 182.752  1.00  0.00    -0.028 C 
ATOM      8  C   UNL     1     214.653 149.936 181.397  1.00  0.00    -0.070 CG0
ATOM      9  C   UNL     1     216.009 149.966 180.738  1.00  0.00     0.039 C 
ATOM     10  G   UNL     1     213.414 149.940 180.514  1.00  0.00     0.000 G0
ENDBRANCH   6   7
ENDBRANCH   5   6
ENDBRANCH   3   5
ENDBRANCH   1   3
BRANCH   1  11
ATOM     11  C   UNL     1     212.022 153.178 181.825  1.00  0.00     0.087 C 
BRANCH  11  12
ATOM     12  C   UNL     1     213.177 152.567 180.986  1.00  0.00     0.066 C 
BRANCH  12  13
ATOM     13  C   UNL     1     212.752 151.273 180.299  1.00  0.00     0.140 C 
ATOM     14  O   UNL     1     211.797 151.299 179.537  1.00  0.00    -0.299 OA
BRANCH  13  15
ATOM     15  C   UNL     1     213.428 149.931 180.521  1.00  0.00     0.106 CG0
ATOM     16  G   UNL     1     214.661 149.950 181.412  1.00  0.00     0.000 G0
ENDBRANCH  13  15
ENDBRANCH  12  13
BRANCH  12  17
ATOM     17  C   UNL     1     213.816 153.562 179.967  1.00  0.00    -0.006 C 
ATOM     18  C   UNL     1     214.439 154.817 180.605  1.00  0.00     0.008 C 
ATOM     19  C   UNL     1     214.854 152.867 179.072  1.00  0.00     0.008 C 
ENDBRANCH  12  17
ENDBRANCH  11  12
ENDBRANCH   1  11
TORSDOF 1
ENDMDL
MODEL 7
REMARK VINA RESULT:    -4.002      1.400      2.192
REMARK INTER + INTRA:          -6.384
REMARK INTER:                  -6.460
REMARK INTRA:                   0.075
REMARK UNBOUND:                -0.277
REMARK SMILES CC1=CCC[C@H](C)C(=O)C[C@H](C(C)C)C(=O)C1
REMARK SMILES IDX 8 1 9 2 6 3 7 4 5 5 4 6 3 7 2 8 1 9 10 11 11 12 15 13 16 14
REMARK SMILES IDX 17 15 12 17 13 18 14 19
REMARK H PARENT
REMARK Flexibility Score: 70.00
ROOT
ATOM      1  C   UNL     1     211.486 151.191 181.117  1.00  0.00     0.136 C 
ATOM      2  O   UNL     1     210.474 150.543 181.351  1.00  0.00    -0.299 OA
ENDROOT
BRANCH   1   3
ATOM      3  C   UNL     1     211.928 152.283 182.080  1.00  0.00     0.053 C 
ATOM      4  C   UNL     1     210.759 152.819 182.924  1.00  0.00     0.016 C 
BRANCH   3   5
ATOM      5  C   UNL     1     213.098 151.826 182.981  1.00  0.00     0.015 C 
BRANCH   5   6
ATOM      6  C   UNL     1     214.412 152.618 182.773  1.00  0.00     0.028 C 
BRANCH   6   7
ATOM      7  C   UNL     1     214.128 153.999 182.229  1.00  0.00    -0.028 C 
ATOM      8  C   UNL     1     214.349 154.406 180.955  1.00  0.00    -0.070 CG0
ATOM      9  C   UNL     1     213.868 155.778 180.558  1.00  0.00     0.039 C 
ATOM     10  G   UNL     1     215.055 153.551 179.912  1.00  0.00     0.000 G0
ENDBRANCH   6   7
ENDBRANCH   5   6
ENDBRANCH   3   5
ENDBRANCH   1   3
BRANCH   1  11
ATOM     11  C   UNL     1     212.291 150.856 179.882  1.00  0.00     0.087 C 
BRANCH  11  12
ATOM     12  C   UNL     1     212.904 152.114 179.209  1.00  0.00     0.066 C 
BRANCH  12  13
ATOM     13  C   UNL     1     214.389 152.258 179.528  1.00  0.00     0.140 C 
ATOM     14  O   UNL     1     215.093 151.260 179.509  1.00  0.00    -0.299 OA
BRANCH  13  15
ATOM     15  C   UNL     1     215.054 153.571 179.899  1.00  0.00     0.106 CG0
ATOM     16  G   UNL     1     214.341 154.399 180.958  1.00  0.00     0.000 G0
ENDBRANCH  13  15
ENDBRANCH  12  13
BRANCH  12  17
ATOM     17  C   UNL     1     212.648 152.199 177.671  1.00  0.00    -0.006 C 
ATOM     18  C   UNL     1     211.429 151.397 177.182  1.00  0.00     0.008 C 
ATOM     19  C   UNL     1     212.533 153.657 177.197  1.00  0.00     0.008 C 
ENDBRANCH  12  17
ENDBRANCH  11  12
ENDBRANCH   1  11
TORSDOF 1
ENDMDL
MODEL 8
REMARK VINA RESULT:    -4.002      2.411      5.102
REMARK INTER + INTRA:          -6.384
REMARK INTER:                  -6.273
REMARK INTRA:                  -0.111
REMARK UNBOUND:                -0.277
REMARK SMILES CC1=CCC[C@H](C)C(=O)C[C@H](C(C)C)C(=O)C1
REMARK SMILES IDX 8 1 9 2 6 3 7 4 5 5 4 6 3 7 2 8 1 9 10 11 11 12 15 13 16 14
REMARK SMILES IDX 17 15 12 17 13 18 14 19
REMARK H PARENT
REMARK Flexibility Score: 70.00
ROOT
ATOM      1  C   UNL     1     213.416 155.396 181.823  1.00  0.00     0.136 C 
ATOM      2  O   UNL     1     213.101 156.186 182.703  1.00  0.00    -0.299 OA
ENDROOT
BRANCH   1   3
ATOM      3  C   UNL     1     213.501 155.863 180.378  1.00  0.00     0.053 C 
ATOM      4  C   UNL     1     214.253 157.198 180.244  1.00  0.00     0.016 C 
BRANCH   3   5
ATOM      5  C   UNL     1     214.113 154.787 179.453  1.00  0.00     0.015 C 
BRANCH   5   6
ATOM      6  C   UNL     1     213.076 153.845 178.794  1.00  0.00     0.028 C 
BRANCH   6   7
ATOM      7  C   UNL     1     213.626 152.442 178.670  1.00  0.00    -0.028 C 
ATOM      8  C   UNL     1     213.162 151.353 179.331  1.00  0.00    -0.070 CG0
ATOM      9  C   UNL     1     213.742 150.009 178.971  1.00  0.00     0.039 C 
ATOM     10  G   UNL     1     212.093 151.420 180.412  1.00  0.00     0.000 G0
ENDBRANCH   6   7
ENDBRANCH   5   6
ENDBRANCH   3   5
ENDBRANCH   1   3
BRANCH   1  11
ATOM     11  C   UNL     1     213.747 153.972 182.212  1.00  0.00     0.087 C 
BRANCH  11  12
ATOM     12  C   UNL     1     212.479 153.113 182.467  1.00  0.00     0.066 C 
BRANCH  12  13
ATOM     13  C   UNL     1     212.588 151.738 181.814  1.00  0.00     0.140 C 
ATOM     14  O   UNL     1     213.128 150.835 182.435  1.00  0.00    -0.299 OA
BRANCH  13  15
ATOM     15  C   UNL     1     212.089 151.419 180.417  1.00  0.00     0.106 CG0
ATOM     16  G   UNL     1     213.152 151.364 179.330  1.00  0.00     0.000 G0
ENDBRANCH  13  15
ENDBRANCH  12  13
BRANCH  12  17
ATOM     17  C   UNL     1     212.087 152.992 183.973  1.00  0.00    -0.006 C 
ATOM     18  C   UNL     1     213.279 153.010 184.946  1.00  0.00     0.008 C 
ATOM     19  C   UNL     1     211.068 154.068 184.381  1.00  0.00     0.008 C 
ENDBRANCH  12  17
ENDBRANCH  11  12
ENDBRANCH   1  11
TORSDOF 1
ENDMDL
MODEL 9
REMARK VINA RESULT:    -3.929      4.015      4.880
REMARK INTER + INTRA:          -6.274
REMARK INTER:                  -6.005
REMARK INTRA:                  -0.268
REMARK UNBOUND:                -0.277
REMARK SMILES CC1=CCC[C@H](C)C(=O)C[C@H](C(C)C)C(=O)C1
REMARK SMILES IDX 8 1 9 2 6 3 7 4 5 5 4 6 3 7 2 8 1 9 10 11 11 12 15 13 16 14
REMARK SMILES IDX 17 15 12 17 13 18 14 19
REMARK H PARENT
REMARK Flexibility Score: 70.00
ROOT
ATOM      1  C   UNL     1     212.563 153.832 181.733  1.00  0.00     0.136 C 
ATOM      2  O   UNL     1     212.935 153.184 180.765  1.00  0.00    -0.299 OA
ENDROOT
BRANCH   1   3
ATOM      3  C   UNL     1     211.440 153.306 182.615  1.00  0.00     0.053 C 
ATOM      4  C   UNL     1     211.183 151.806 182.391  1.00  0.00     0.016 C 
BRANCH   3   5
ATOM      5  C   UNL     1     211.682 153.610 184.110  1.00  0.00     0.015 C 
BRANCH   5   6
ATOM      6  C   UNL     1     210.842 154.785 184.669  1.00  0.00     0.028 C 
BRANCH   6   7
ATOM      7  C   UNL     1     211.734 155.853 185.259  1.00  0.00    -0.028 C 
ATOM      8  C   UNL     1     211.944 157.084 184.732  1.00  0.00    -0.070 CG0
ATOM      9  C   UNL     1     212.754 158.068 185.538  1.00  0.00     0.039 C 
ATOM     10  G   UNL     1     211.407 157.519 183.377  1.00  0.00     0.000 G0
ENDBRANCH   6   7
ENDBRANCH   5   6
ENDBRANCH   3   5
ENDBRANCH   1   3
BRANCH   1  11
ATOM     11  C   UNL     1     213.265 155.136 182.045  1.00  0.00     0.087 C 
BRANCH  11  12
ATOM     12  C   UNL     1     212.644 156.343 181.292  1.00  0.00     0.066 C 
BRANCH  12  13
ATOM     13  C   UNL     1     212.400 157.525 182.226  1.00  0.00     0.140 C 
ATOM     14  O   UNL     1     213.061 158.541 182.071  1.00  0.00    -0.299 OA
BRANCH  13  15
ATOM     15  C   UNL     1     211.398 157.515 183.366  1.00  0.00     0.106 CG0
ATOM     16  G   UNL     1     211.942 157.090 184.722  1.00  0.00     0.000 G0
ENDBRANCH  13  15
ENDBRANCH  12  13
BRANCH  12  17
ATOM     17  C   UNL     1     213.443 156.781 180.025  1.00  0.00    -0.006 C 
ATOM     18  C   UNL     1     214.894 156.270 179.978  1.00  0.00     0.008 C 
ATOM     19  C   UNL     1     212.713 156.388 178.732  1.00  0.00     0.008 C 
ENDBRANCH  12  17
ENDBRANCH  11  12
ENDBRANCH   1  11
TORSDOF 1
ENDMDL
