MODEL 1
REMARK VINA RESULT:    -4.167      0.000      0.000
REMARK INTER + INTRA:         -10.882
REMARK INTER:                  -8.064
REMARK INTRA:                  -2.818
REMARK UNBOUND:                -2.818
REMARK SMILES CCCCCCCCCCCCCCCCCC(=O)[O-]
REMARK SMILES IDX 10 1 11 2 12 3 13 4 14 5 15 6 16 7 17 8 18 9 19 10 20 11
REMARK SMILES IDX 9 12 8 13 7 14 6 15 5 16 4 17 3 18 2 19 1 20
REMARK H PARENT
REMARK Flexibility Score: inf
ROOT
ATOM      1  C   UNL     1     105.222  98.052  88.200  1.00  0.00     0.000 C 
ENDROOT
BRANCH   1   2
ATOM      2  C   UNL     1     105.323  96.567  88.582  1.00  0.00     0.000 C 
BRANCH   2   3
ATOM      3  C   UNL     1     105.977  96.354  89.957  1.00  0.00     0.000 C 
BRANCH   3   4
ATOM      4  C   UNL     1     105.548  95.038  90.626  1.00  0.00     0.000 C 
BRANCH   4   5
ATOM      5  C   UNL     1     104.442  94.284  89.856  1.00  0.00     0.000 C 
BRANCH   5   6
ATOM      6  C   UNL     1     103.171  94.100  90.698  1.00  0.00     0.000 C 
BRANCH   6   7
ATOM      7  C   UNL     1     102.867  95.361  91.520  1.00  0.00     0.006 C 
BRANCH   7   8
ATOM      8  C   UNL     1     101.966  96.345  90.764  1.00  0.00     0.053 C 
BRANCH   8   9
ATOM      9  C   UNL     1     100.922  96.942  91.658  1.00  0.00     0.041 C 
ATOM     10  O   UNL     1      99.883  96.290  91.942  1.00  0.00    -0.550 OA
ATOM     11  O   UNL     1     101.116  98.205  92.208  1.00  0.00    -0.550 OA
ENDBRANCH   8   9
ENDBRANCH   7   8
ENDBRANCH   6   7
ENDBRANCH   5   6
ENDBRANCH   4   5
ENDBRANCH   3   4
ENDBRANCH   2   3
ENDBRANCH   1   2
BRANCH   1  12
ATOM     12  C   UNL     1     104.506  98.893  89.268  1.00  0.00     0.000 C 
BRANCH  12  13
ATOM     13  C   UNL     1     105.394 100.057  89.734  1.00  0.00    -0.000 C 
BRANCH  13  14
ATOM     14  C   UNL     1     106.713 100.155  88.946  1.00  0.00    -0.000 C 
BRANCH  14  15
ATOM     15  C   UNL     1     107.981 100.288  89.813  1.00  0.00    -0.000 C 
BRANCH  15  16
ATOM     16  C   UNL     1     108.311  99.056  90.680  1.00  0.00    -0.000 C 
BRANCH  16  17
ATOM     17  C   UNL     1     108.115  99.257  92.196  1.00  0.00    -0.000 C 
BRANCH  17  18
ATOM     18  C   UNL     1     107.185  98.233  92.875  1.00  0.00    -0.000 C 
BRANCH  18  19
ATOM     19  C   UNL     1     105.902  98.829  93.484  1.00  0.00    -0.003 C 
ATOM     20  C   UNL     1     104.627  98.249  92.873  1.00  0.00     0.004 C 
ENDBRANCH  18  19
ENDBRANCH  17  18
ENDBRANCH  16  17
ENDBRANCH  15  16
ENDBRANCH  14  15
ENDBRANCH  13  14
ENDBRANCH  12  13
ENDBRANCH   1  12
TORSDOF 16
ENDMDL
MODEL 2
REMARK VINA RESULT:    -4.011      0.878      1.676
REMARK INTER + INTRA:         -10.581
REMARK INTER:                  -7.813
REMARK INTRA:                  -2.768
REMARK UNBOUND:                -2.818
REMARK SMILES CCCCCCCCCCCCCCCCCC(=O)[O-]
REMARK SMILES IDX 10 1 11 2 12 3 13 4 14 5 15 6 16 7 17 8 18 9 19 10 20 11
REMARK SMILES IDX 9 12 8 13 7 14 6 15 5 16 4 17 3 18 2 19 1 20
REMARK H PARENT
REMARK Flexibility Score: inf
ROOT
ATOM      1  C   UNL     1     105.174  96.489  88.733  1.00  0.00     0.000 C 
ENDROOT
BRANCH   1   2
ATOM      2  C   UNL     1     105.764  96.196  90.122  1.00  0.00     0.000 C 
BRANCH   2   3
ATOM      3  C   UNL     1     105.054  95.031  90.831  1.00  0.00     0.000 C 
BRANCH   3   4
ATOM      4  C   UNL     1     104.271  94.129  89.862  1.00  0.00     0.000 C 
BRANCH   4   5
ATOM      5  C   UNL     1     102.755  94.080  90.151  1.00  0.00     0.000 C 
BRANCH   5   6
ATOM      6  C   UNL     1     101.943  94.886  89.127  1.00  0.00     0.000 C 
BRANCH   6   7
ATOM      7  C   UNL     1     101.495  96.232  89.714  1.00  0.00     0.006 C 
BRANCH   7   8
ATOM      8  C   UNL     1     101.464  96.215  91.248  1.00  0.00     0.053 C 
BRANCH   8   9
ATOM      9  C   UNL     1     100.238  96.888  91.786  1.00  0.00     0.041 C 
ATOM     10  O   UNL     1      99.323  96.206  92.319  1.00  0.00    -0.550 OA
ATOM     11  O   UNL     1     100.123  98.273  91.732  1.00  0.00    -0.550 OA
ENDBRANCH   8   9
ENDBRANCH   7   8
ENDBRANCH   6   7
ENDBRANCH   5   6
ENDBRANCH   4   5
ENDBRANCH   3   4
ENDBRANCH   2   3
ENDBRANCH   1   2
BRANCH   1  12
ATOM     12  C   UNL     1     104.617  97.916  88.613  1.00  0.00     0.000 C 
BRANCH  12  13
ATOM     13  C   UNL     1     104.569  98.602  89.986  1.00  0.00    -0.000 C 
BRANCH  13  14
ATOM     14  C   UNL     1     105.379  99.911  90.029  1.00  0.00    -0.000 C 
BRANCH  14  15
ATOM     15  C   UNL     1     106.554  99.983  89.033  1.00  0.00    -0.000 C 
BRANCH  15  16
ATOM     16  C   UNL     1     107.939 100.199  89.673  1.00  0.00    -0.000 C 
BRANCH  16  17
ATOM     17  C   UNL     1     108.044  99.782  91.154  1.00  0.00    -0.000 C 
BRANCH  17  18
ATOM     18  C   UNL     1     108.522  98.336  91.392  1.00  0.00    -0.000 C 
BRANCH  18  19
ATOM     19  C   UNL     1     107.945  97.663  92.651  1.00  0.00    -0.003 C 
ATOM     20  C   UNL     1     106.646  98.309  93.130  1.00  0.00     0.004 C 
ENDBRANCH  18  19
ENDBRANCH  17  18
ENDBRANCH  16  17
ENDBRANCH  15  16
ENDBRANCH  14  15
ENDBRANCH  13  14
ENDBRANCH  12  13
ENDBRANCH   1  12
TORSDOF 16
ENDMDL
MODEL 3
REMARK VINA RESULT:    -3.974      3.104      6.351
REMARK INTER + INTRA:         -10.510
REMARK INTER:                  -8.155
REMARK INTRA:                  -2.355
REMARK UNBOUND:                -2.818
REMARK SMILES CCCCCCCCCCCCCCCCCC(=O)[O-]
REMARK SMILES IDX 10 1 11 2 12 3 13 4 14 5 15 6 16 7 17 8 18 9 19 10 20 11
REMARK SMILES IDX 9 12 8 13 7 14 6 15 5 16 4 17 3 18 2 19 1 20
REMARK H PARENT
REMARK Flexibility Score: inf
ROOT
ATOM      1  C   UNL     1     101.801  92.684  89.386  1.00  0.00     0.000 C 
ENDROOT
BRANCH   1   2
ATOM      2  C   UNL     1     103.131  93.362  89.749  1.00  0.00     0.000 C 
BRANCH   2   3
ATOM      3  C   UNL     1     103.219  94.806  89.228  1.00  0.00     0.000 C 
BRANCH   3   4
ATOM      4  C   UNL     1     104.637  95.393  89.331  1.00  0.00     0.000 C 
BRANCH   4   5
ATOM      5  C   UNL     1     105.442  94.861  90.536  1.00  0.00     0.000 C 
BRANCH   5   6
ATOM      6  C   UNL     1     105.566  95.904  91.656  1.00  0.00     0.000 C 
BRANCH   6   7
ATOM      7  C   UNL     1     106.262  97.176  91.151  1.00  0.00     0.006 C 
BRANCH   7   8
ATOM      8  C   UNL     1     106.439  98.221  92.260  1.00  0.00     0.053 C 
BRANCH   8   9
ATOM      9  C   UNL     1     107.883  98.420  92.611  1.00  0.00     0.041 C 
ATOM     10  O   UNL     1     108.538  97.488  93.147  1.00  0.00    -0.550 OA
ATOM     11  O   UNL     1     108.513  99.622  92.309  1.00  0.00    -0.550 OA
ENDBRANCH   8   9
ENDBRANCH   7   8
ENDBRANCH   6   7
ENDBRANCH   5   6
ENDBRANCH   4   5
ENDBRANCH   3   4
ENDBRANCH   2   3
ENDBRANCH   1   2
BRANCH   1  12
ATOM     12  C   UNL     1     100.807  93.644  88.717  1.00  0.00     0.000 C 
BRANCH  12  13
ATOM     13  C   UNL     1      99.383  93.413  89.243  1.00  0.00    -0.000 C 
BRANCH  13  14
ATOM     14  C   UNL     1      98.879  94.566  90.130  1.00  0.00    -0.000 C 
BRANCH  14  15
ATOM     15  C   UNL     1      99.767  95.826  90.129  1.00  0.00    -0.000 C 
BRANCH  15  16
ATOM     16  C   UNL     1     100.456  96.140  91.471  1.00  0.00    -0.000 C 
BRANCH  16  17
ATOM     17  C   UNL     1     100.933  97.598  91.632  1.00  0.00    -0.000 C 
BRANCH  17  18
ATOM     18  C   UNL     1     102.356  97.880  91.110  1.00  0.00    -0.000 C 
BRANCH  18  19
ATOM     19  C   UNL     1     102.425  98.362  89.650  1.00  0.00    -0.003 C 
ATOM     20  C   UNL     1     103.752  99.038  89.308  1.00  0.00     0.004 C 
ENDBRANCH  18  19
ENDBRANCH  17  18
ENDBRANCH  16  17
ENDBRANCH  15  16
ENDBRANCH  14  15
ENDBRANCH  13  14
ENDBRANCH  12  13
ENDBRANCH   1  12
TORSDOF 16
ENDMDL
MODEL 4
REMARK VINA RESULT:    -3.971      2.670      6.332
REMARK INTER + INTRA:         -10.504
REMARK INTER:                  -7.719
REMARK INTRA:                  -2.785
REMARK UNBOUND:                -2.818
REMARK SMILES CCCCCCCCCCCCCCCCCC(=O)[O-]
REMARK SMILES IDX 10 1 11 2 12 3 13 4 14 5 15 6 16 7 17 8 18 9 19 10 20 11
REMARK SMILES IDX 9 12 8 13 7 14 6 15 5 16 4 17 3 18 2 19 1 20
REMARK H PARENT
REMARK Flexibility Score: inf
ROOT
ATOM      1  C   UNL     1     104.677  97.319  91.933  1.00  0.00     0.000 C 
ENDROOT
BRANCH   1   2
ATOM      2  C   UNL     1     105.062  98.310  90.824  1.00  0.00     0.000 C 
BRANCH   2   3
ATOM      3  C   UNL     1     105.793  97.632  89.653  1.00  0.00     0.000 C 
BRANCH   3   4
ATOM      4  C   UNL     1     106.743  98.585  88.909  1.00  0.00     0.000 C 
BRANCH   4   5
ATOM      5  C   UNL     1     106.844  99.986  89.551  1.00  0.00     0.000 C 
BRANCH   5   6
ATOM      6  C   UNL     1     108.292 100.493  89.610  1.00  0.00     0.000 C 
BRANCH   6   7
ATOM      7  C   UNL     1     109.125  99.672  90.605  1.00  0.00     0.006 C 
BRANCH   7   8
ATOM      8  C   UNL     1     108.536  99.704  92.021  1.00  0.00     0.053 C 
BRANCH   8   9
ATOM      9  C   UNL     1     108.270  98.324  92.543  1.00  0.00     0.041 C 
ATOM     10  O   UNL     1     107.640  98.165  93.622  1.00  0.00    -0.550 OA
ATOM     11  O   UNL     1     108.686  97.213  91.817  1.00  0.00    -0.550 OA
ENDBRANCH   8   9
ENDBRANCH   7   8
ENDBRANCH   6   7
ENDBRANCH   5   6
ENDBRANCH   4   5
ENDBRANCH   3   4
ENDBRANCH   2   3
ENDBRANCH   1   2
BRANCH   1  12
ATOM     12  C   UNL     1     105.319  95.936  91.744  1.00  0.00     0.000 C 
BRANCH  12  13
ATOM     13  C   UNL     1     104.245  94.853  91.571  1.00  0.00    -0.000 C 
BRANCH  13  14
ATOM     14  C   UNL     1     104.263  94.211  90.172  1.00  0.00    -0.000 C 
BRANCH  14  15
ATOM     15  C   UNL     1     102.962  94.377  89.362  1.00  0.00    -0.000 C 
BRANCH  15  16
ATOM     16  C   UNL     1     102.743  95.779  88.759  1.00  0.00    -0.000 C 
BRANCH  16  17
ATOM     17  C   UNL     1     101.681  96.637  89.476  1.00  0.00    -0.000 C 
BRANCH  17  18
ATOM     18  C   UNL     1     100.764  95.863  90.445  1.00  0.00    -0.000 C 
BRANCH  18  19
ATOM     19  C   UNL     1     100.261  96.680  91.650  1.00  0.00    -0.003 C 
ATOM     20  C   UNL     1     101.133  97.899  91.949  1.00  0.00     0.004 C 
ENDBRANCH  18  19
ENDBRANCH  17  18
ENDBRANCH  16  17
ENDBRANCH  15  16
ENDBRANCH  14  15
ENDBRANCH  13  14
ENDBRANCH  12  13
ENDBRANCH   1  12
TORSDOF 16
ENDMDL
MODEL 5
REMARK VINA RESULT:    -3.923      2.358      6.353
REMARK INTER + INTRA:         -10.410
REMARK INTER:                  -7.904
REMARK INTRA:                  -2.507
REMARK UNBOUND:                -2.818
REMARK SMILES CCCCCCCCCCCCCCCCCC(=O)[O-]
REMARK SMILES IDX 10 1 11 2 12 3 13 4 14 5 15 6 16 7 17 8 18 9 19 10 20 11
REMARK SMILES IDX 9 12 8 13 7 14 6 15 5 16 4 17 3 18 2 19 1 20
REMARK H PARENT
REMARK Flexibility Score: inf
ROOT
ATOM      1  C   UNL     1     104.621  94.538  90.502  1.00  0.00     0.000 C 
ENDROOT
BRANCH   1   2
ATOM      2  C   UNL     1     105.631  95.655  90.198  1.00  0.00     0.000 C 
BRANCH   2   3
ATOM      3  C   UNL     1     105.287  96.428  88.914  1.00  0.00     0.000 C 
BRANCH   3   4
ATOM      4  C   UNL     1     106.154  97.684  88.721  1.00  0.00     0.000 C 
BRANCH   4   5
ATOM      5  C   UNL     1     105.530  98.965  89.316  1.00  0.00     0.000 C 
BRANCH   5   6
ATOM      6  C   UNL     1     106.595  99.939  89.840  1.00  0.00     0.000 C 
BRANCH   6   7
ATOM      7  C   UNL     1     107.842  99.186  90.326  1.00  0.00     0.006 C 
BRANCH   7   8
ATOM      8  C   UNL     1     108.005  99.253  91.849  1.00  0.00     0.053 C 
BRANCH   8   9
ATOM      9  C   UNL     1     107.332  98.100  92.531  1.00  0.00     0.041 C 
ATOM     10  O   UNL     1     107.977  97.048  92.781  1.00  0.00    -0.550 OA
ATOM     11  O   UNL     1     106.003  98.204  92.925  1.00  0.00    -0.550 OA
ENDBRANCH   8   9
ENDBRANCH   7   8
ENDBRANCH   6   7
ENDBRANCH   5   6
ENDBRANCH   4   5
ENDBRANCH   3   4
ENDBRANCH   2   3
ENDBRANCH   1   2
BRANCH   1  12
ATOM     12  C   UNL     1     103.510  94.437  89.447  1.00  0.00     0.000 C 
BRANCH  12  13
ATOM     13  C   UNL     1     102.665  93.173  89.661  1.00  0.00    -0.000 C 
BRANCH  13  14
ATOM     14  C   UNL     1     101.266  93.274  89.026  1.00  0.00    -0.000 C 
BRANCH  14  15
ATOM     15  C   UNL     1     100.700  94.705  88.921  1.00  0.00    -0.000 C 
BRANCH  15  16
ATOM     16  C   UNL     1      99.660  95.075  89.997  1.00  0.00    -0.000 C 
BRANCH  16  17
ATOM     17  C   UNL     1      99.944  96.391  90.750  1.00  0.00    -0.000 C 
BRANCH  17  18
ATOM     18  C   UNL     1     101.159  96.350  91.698  1.00  0.00    -0.000 C 
BRANCH  18  19
ATOM     19  C   UNL     1     102.281  97.347  91.355  1.00  0.00    -0.003 C 
ATOM     20  C   UNL     1     102.069  98.043  90.011  1.00  0.00     0.004 C 
ENDBRANCH  18  19
ENDBRANCH  17  18
ENDBRANCH  16  17
ENDBRANCH  15  16
ENDBRANCH  14  15
ENDBRANCH  13  14
ENDBRANCH  12  13
ENDBRANCH   1  12
TORSDOF 16
ENDMDL
MODEL 6
REMARK VINA RESULT:    -3.896      3.099      6.461
REMARK INTER + INTRA:         -10.358
REMARK INTER:                  -7.946
REMARK INTRA:                  -2.412
REMARK UNBOUND:                -2.818
REMARK SMILES CCCCCCCCCCCCCCCCCC(=O)[O-]
REMARK SMILES IDX 10 1 11 2 12 3 13 4 14 5 15 6 16 7 17 8 18 9 19 10 20 11
REMARK SMILES IDX 9 12 8 13 7 14 6 15 5 16 4 17 3 18 2 19 1 20
REMARK H PARENT
REMARK Flexibility Score: inf
ROOT
ATOM      1  C   UNL     1     101.501  97.813  91.808  1.00  0.00     0.000 C 
ENDROOT
BRANCH   1   2
ATOM      2  C   UNL     1     103.006  97.975  91.543  1.00  0.00     0.000 C 
BRANCH   2   3
ATOM      3  C   UNL     1     103.320  98.231  90.060  1.00  0.00     0.000 C 
BRANCH   3   4
ATOM      4  C   UNL     1     104.372  99.333  89.852  1.00  0.00     0.000 C 
BRANCH   4   5
ATOM      5  C   UNL     1     105.372  99.029  88.715  1.00  0.00     0.000 C 
BRANCH   5   6
ATOM      6  C   UNL     1     106.717  98.515  89.248  1.00  0.00     0.000 C 
BRANCH   6   7
ATOM      7  C   UNL     1     107.084  99.200  90.573  1.00  0.00     0.006 C 
BRANCH   7   8
ATOM      8  C   UNL     1     107.538  98.195  91.640  1.00  0.00     0.053 C 
BRANCH   8   9
ATOM      9  C   UNL     1     108.563  98.788  92.559  1.00  0.00     0.041 C 
ATOM     10  O   UNL     1     109.050  98.098  93.493  1.00  0.00    -0.550 OA
ATOM     11  O   UNL     1     109.007 100.090  92.360  1.00  0.00    -0.550 OA
ENDBRANCH   8   9
ENDBRANCH   7   8
ENDBRANCH   6   7
ENDBRANCH   5   6
ENDBRANCH   4   5
ENDBRANCH   3   4
ENDBRANCH   2   3
ENDBRANCH   1   2
BRANCH   1  12
ATOM     12  C   UNL     1     101.021  96.364  91.640  1.00  0.00     0.000 C 
BRANCH  12  13
ATOM     13  C   UNL     1      99.850  96.287  90.649  1.00  0.00    -0.000 C 
BRANCH  13  14
ATOM     14  C   UNL     1      99.943  95.072  89.708  1.00  0.00    -0.000 C 
BRANCH  14  15
ATOM     15  C   UNL     1     101.327  94.849  89.066  1.00  0.00    -0.000 C 
BRANCH  15  16
ATOM     16  C   UNL     1     101.998  93.504  89.413  1.00  0.00    -0.000 C 
BRANCH  16  17
ATOM     17  C   UNL     1     103.457  93.612  89.900  1.00  0.00    -0.000 C 
BRANCH  17  18
ATOM     18  C   UNL     1     104.224  94.849  89.393  1.00  0.00    -0.000 C 
BRANCH  18  19
ATOM     19  C   UNL     1     105.499  95.190  90.188  1.00  0.00    -0.003 C 
ATOM     20  C   UNL     1     105.261  95.256  91.695  1.00  0.00     0.004 C 
ENDBRANCH  18  19
ENDBRANCH  17  18
ENDBRANCH  16  17
ENDBRANCH  15  16
ENDBRANCH  14  15
ENDBRANCH  13  14
ENDBRANCH  12  13
ENDBRANCH   1  12
TORSDOF 16
ENDMDL
MODEL 7
REMARK VINA RESULT:    -3.884      9.036     12.008
REMARK INTER + INTRA:         -10.335
REMARK INTER:                  -7.560
REMARK INTRA:                  -2.775
REMARK UNBOUND:                -2.818
REMARK SMILES CCCCCCCCCCCCCCCCCC(=O)[O-]
REMARK SMILES IDX 10 1 11 2 12 3 13 4 14 5 15 6 16 7 17 8 18 9 19 10 20 11
REMARK SMILES IDX 9 12 8 13 7 14 6 15 5 16 4 17 3 18 2 19 1 20
REMARK H PARENT
REMARK Flexibility Score: inf
ROOT
ATOM      1  C   UNL     1      93.642 101.424  91.678  1.00  0.00     0.000 C 
ENDROOT
BRANCH   1   2
ATOM      2  C   UNL     1      93.829  99.899  91.628  1.00  0.00     0.000 C 
BRANCH   2   3
ATOM      3  C   UNL     1      94.053  99.378  90.199  1.00  0.00     0.000 C 
BRANCH   3   4
ATOM      4  C   UNL     1      93.046  98.288  89.795  1.00  0.00     0.000 C 
BRANCH   4   5
ATOM      5  C   UNL     1      92.055  98.736  88.699  1.00  0.00     0.000 C 
BRANCH   5   6
ATOM      6  C   UNL     1      90.715  97.992  88.790  1.00  0.00     0.000 C 
BRANCH   6   7
ATOM      7  C   UNL     1      90.229  97.904  90.245  1.00  0.00     0.006 C 
BRANCH   7   8
ATOM      8  C   UNL     1      89.485  99.171  90.686  1.00  0.00     0.053 C 
BRANCH   8   9
ATOM      9  C   UNL     1      89.980  99.673  92.009  1.00  0.00     0.041 C 
ATOM     10  O   UNL     1      90.775  98.976  92.694  1.00  0.00    -0.550 OA
ATOM     11  O   UNL     1      89.593 100.927  92.466  1.00  0.00    -0.550 OA
ENDBRANCH   8   9
ENDBRANCH   7   8
ENDBRANCH   6   7
ENDBRANCH   5   6
ENDBRANCH   4   5
ENDBRANCH   3   4
ENDBRANCH   2   3
ENDBRANCH   1   2
BRANCH   1  12
ATOM     12  C   UNL     1      92.526 101.916  90.745  1.00  0.00     0.000 C 
BRANCH  12  13
ATOM     13  C   UNL     1      93.061 102.962  89.755  1.00  0.00    -0.000 C 
BRANCH  13  14
ATOM     14  C   UNL     1      94.131 103.878  90.375  1.00  0.00    -0.000 C 
BRANCH  14  15
ATOM     15  C   UNL     1      95.508 103.834  89.682  1.00  0.00    -0.000 C 
BRANCH  15  16
ATOM     16  C   UNL     1      95.777 102.566  88.847  1.00  0.00    -0.000 C 
BRANCH  16  17
ATOM     17  C   UNL     1      96.856 101.627  89.422  1.00  0.00    -0.000 C 
BRANCH  17  18
ATOM     18  C   UNL     1      97.630 102.186  90.632  1.00  0.00    -0.000 C 
BRANCH  18  19
ATOM     19  C   UNL     1      97.498 101.357  91.923  1.00  0.00    -0.003 C 
ATOM     20  C   UNL     1      97.519  99.850  91.668  1.00  0.00     0.004 C 
ENDBRANCH  18  19
ENDBRANCH  17  18
ENDBRANCH  16  17
ENDBRANCH  15  16
ENDBRANCH  14  15
ENDBRANCH  13  14
ENDBRANCH  12  13
ENDBRANCH   1  12
TORSDOF 16
ENDMDL
MODEL 8
REMARK VINA RESULT:    -3.876      8.531     11.097
REMARK INTER + INTRA:         -10.319
REMARK INTER:                  -8.357
REMARK INTRA:                  -1.962
REMARK UNBOUND:                -2.818
REMARK SMILES CCCCCCCCCCCCCCCCCC(=O)[O-]
REMARK SMILES IDX 10 1 11 2 12 3 13 4 14 5 15 6 16 7 17 8 18 9 19 10 20 11
REMARK SMILES IDX 9 12 8 13 7 14 6 15 5 16 4 17 3 18 2 19 1 20
REMARK H PARENT
REMARK Flexibility Score: inf
ROOT
ATOM      1  C   UNL     1      94.586 103.842  90.174  1.00  0.00     0.000 C 
ENDROOT
BRANCH   1   2
ATOM      2  C   UNL     1      93.113 103.404  90.172  1.00  0.00     0.000 C 
BRANCH   2   3
ATOM      3  C   UNL     1      92.943 101.903  89.884  1.00  0.00     0.000 C 
BRANCH   3   4
ATOM      4  C   UNL     1      94.270 101.128  89.948  1.00  0.00     0.000 C 
BRANCH   4   5
ATOM      5  C   UNL     1      94.229  99.907  90.892  1.00  0.00     0.000 C 
BRANCH   5   6
ATOM      6  C   UNL     1      93.620 100.250  92.259  1.00  0.00     0.000 C 
BRANCH   6   7
ATOM      7  C   UNL     1      92.589  99.195  92.685  1.00  0.00     0.006 C 
BRANCH   7   8
ATOM      8  C   UNL     1      91.150  99.635  92.388  1.00  0.00     0.053 C 
BRANCH   8   9
ATOM      9  C   UNL     1      90.370  98.556  91.700  1.00  0.00     0.041 C 
ATOM     10  O   UNL     1      89.370  98.039  92.265  1.00  0.00    -0.550 OA
ATOM     11  O   UNL     1      90.726  98.149  90.420  1.00  0.00    -0.550 OA
ENDBRANCH   8   9
ENDBRANCH   7   8
ENDBRANCH   6   7
ENDBRANCH   5   6
ENDBRANCH   4   5
ENDBRANCH   3   4
ENDBRANCH   2   3
ENDBRANCH   1   2
BRANCH   1  12
ATOM     12  C   UNL     1      94.776 105.291  89.701  1.00  0.00     0.000 C 
BRANCH  12  13
ATOM     13  C   UNL     1      96.206 105.517  89.189  1.00  0.00    -0.000 C 
BRANCH  13  14
ATOM     14  C   UNL     1      96.957 104.201  88.912  1.00  0.00    -0.000 C 
BRANCH  14  15
ATOM     15  C   UNL     1      98.453 104.214  89.284  1.00  0.00    -0.000 C 
BRANCH  15  16
ATOM     16  C   UNL     1      98.930 103.003  90.111  1.00  0.00    -0.000 C 
BRANCH  16  17
ATOM     17  C   UNL     1      97.864 101.912  90.340  1.00  0.00    -0.000 C 
BRANCH  17  18
ATOM     18  C   UNL     1      97.777 101.379  91.784  1.00  0.00    -0.000 C 
BRANCH  18  19
ATOM     19  C   UNL     1      97.754  99.845  91.907  1.00  0.00    -0.003 C 
ATOM     20  C   UNL     1      99.141  99.244  92.130  1.00  0.00     0.004 C 
ENDBRANCH  18  19
ENDBRANCH  17  18
ENDBRANCH  16  17
ENDBRANCH  15  16
ENDBRANCH  14  15
ENDBRANCH  13  14
ENDBRANCH  12  13
ENDBRANCH   1  12
TORSDOF 16
ENDMDL
MODEL 9
REMARK VINA RESULT:    -3.827      2.931      6.648
REMARK INTER + INTRA:         -10.225
REMARK INTER:                  -8.122
REMARK INTRA:                  -2.103
REMARK UNBOUND:                -2.818
REMARK SMILES CCCCCCCCCCCCCCCCCC(=O)[O-]
REMARK SMILES IDX 10 1 11 2 12 3 13 4 14 5 15 6 16 7 17 8 18 9 19 10 20 11
REMARK SMILES IDX 9 12 8 13 7 14 6 15 5 16 4 17 3 18 2 19 1 20
REMARK H PARENT
REMARK Flexibility Score: inf
ROOT
ATOM      1  C   UNL     1     103.192  94.255  89.982  1.00  0.00     0.000 C 
ENDROOT
BRANCH   1   2
ATOM      2  C   UNL     1     104.649  94.718  89.822  1.00  0.00     0.000 C 
BRANCH   2   3
ATOM      3  C   UNL     1     104.765  96.051  89.064  1.00  0.00     0.000 C 
BRANCH   3   4
ATOM      4  C   UNL     1     103.635  97.035  89.408  1.00  0.00     0.000 C 
BRANCH   4   5
ATOM      5  C   UNL     1     104.076  98.182  90.343  1.00  0.00     0.000 C 
BRANCH   5   6
ATOM      6  C   UNL     1     103.819  97.857  91.821  1.00  0.00     0.000 C 
BRANCH   6   7
ATOM      7  C   UNL     1     105.070  98.125  92.670  1.00  0.00     0.006 C 
BRANCH   7   8
ATOM      8  C   UNL     1     106.260  97.256  92.243  1.00  0.00     0.053 C 
BRANCH   8   9
ATOM      9  C   UNL     1     107.522  98.057  92.134  1.00  0.00     0.041 C 
ATOM     10  O   UNL     1     107.493  99.308  92.282  1.00  0.00    -0.550 OA
ATOM     11  O   UNL     1     108.735  97.417  91.907  1.00  0.00    -0.550 OA
ENDBRANCH   8   9
ENDBRANCH   7   8
ENDBRANCH   6   7
ENDBRANCH   5   6
ENDBRANCH   4   5
ENDBRANCH   3   4
ENDBRANCH   2   3
ENDBRANCH   1   2
BRANCH   1  12
ATOM     12  C   UNL     1     103.011  92.756  89.703  1.00  0.00     0.000 C 
BRANCH  12  13
ATOM     13  C   UNL     1     101.620  92.473  89.116  1.00  0.00    -0.000 C 
BRANCH  13  14
ATOM     14  C   UNL     1     100.857  93.757  88.741  1.00  0.00    -0.000 C 
BRANCH  14  15
ATOM     15  C   UNL     1      99.387  93.800  89.205  1.00  0.00    -0.000 C 
BRANCH  15  16
ATOM     16  C   UNL     1      99.041  94.950  90.171  1.00  0.00    -0.000 C 
BRANCH  16  17
ATOM     17  C   UNL     1     100.155  96.000  90.358  1.00  0.00    -0.000 C 
BRANCH  17  18
ATOM     18  C   UNL     1     100.213  96.648  91.756  1.00  0.00    -0.000 C 
BRANCH  18  19
ATOM     19  C   UNL     1     100.142  98.186  91.759  1.00  0.00    -0.003 C 
ATOM     20  C   UNL     1      98.788  98.719  92.223  1.00  0.00     0.004 C 
ENDBRANCH  18  19
ENDBRANCH  17  18
ENDBRANCH  16  17
ENDBRANCH  15  16
ENDBRANCH  14  15
ENDBRANCH  13  14
ENDBRANCH  12  13
ENDBRANCH   1  12
TORSDOF 16
ENDMDL
