MODEL 1
REMARK VINA RESULT:    -7.094      0.000      0.000
REMARK INTER + INTRA:          -8.304
REMARK INTER:                  -8.545
REMARK INTRA:                   0.241
REMARK UNBOUND:                 0.241
REMARK SMILES O=c1c(O)c(-c2ccc(O)c(O)c2)oc2cc(O)cc(O)c12
REMARK SMILES IDX 5 1 3 2 2 3 1 4 22 5 20 6 19 7 17 8 16 9 15 10 14 11 6 12
REMARK SMILES IDX 7 13 8 14 9 15 13 16 11 17 10 18 12 20 4 22 21 24 18 26
REMARK H PARENT 10 19 12 21 4 23 21 25 18 27
REMARK Flexibility Score: inf
ROOT
ATOM      1  C   UNL     1     110.385 103.112 136.758  1.00  0.00     0.180 A 
ATOM      2  C   UNL     1     109.015 103.392 136.594  1.00  0.00     0.208 A 
ATOM      3  C   UNL     1     108.071 102.491 137.110  1.00  0.00     0.238 A 
ATOM      4  O   UNL     1     106.842 102.737 136.978  1.00  0.00    -0.285 OA
ATOM      5  C   UNL     1     108.510 101.320 137.762  1.00  0.00     0.111 A 
ATOM      6  C   UNL     1     107.624 100.359 138.307  1.00  0.00     0.134 A 
ATOM      7  C   UNL     1     108.138  99.214 138.934  1.00  0.00     0.093 A 
ATOM      8  C   UNL     1     109.520  99.012 139.024  1.00  0.00     0.123 A 
ATOM      9  C   UNL     1     110.397  99.957 138.489  1.00  0.00     0.094 A 
ATOM     10  C   UNL     1     109.904 101.105 137.862  1.00  0.00     0.146 A 
ATOM     11  O   UNL     1     110.762 101.990 137.366  1.00  0.00    -0.452 OA
ENDROOT
BRANCH   1  12
ATOM     12  C   UNL     1     111.440 104.022 136.259  1.00  0.00     0.025 A 
ATOM     13  C   UNL     1     112.697 103.500 135.917  1.00  0.00     0.016 A 
ATOM     14  C   UNL     1     113.715 104.343 135.463  1.00  0.00     0.051 A 
ATOM     15  C   UNL     1     113.495 105.723 135.359  1.00  0.00     0.157 A 
ATOM     16  C   UNL     1     111.230 105.411 136.173  1.00  0.00     0.062 A 
ATOM     17  C   UNL     1     112.248 106.258 135.721  1.00  0.00     0.158 A 
BRANCH  15  18
ATOM     18  O   UNL     1     114.511 106.562 134.904  1.00  0.00    -0.504 OA
ATOM     19  H   UNL     1     114.919 107.272 135.500  1.00  0.00     0.293 HD
ENDBRANCH  15  18
BRANCH  17  20
ATOM     20  O   UNL     1     112.002 107.628 135.642  1.00  0.00    -0.504 OA
ATOM     21  H   UNL     1     112.271 108.179 134.834  1.00  0.00     0.293 HD
ENDBRANCH  17  20
ENDBRANCH   1  12
BRANCH   2  22
ATOM     22  O   UNL     1     108.606 104.534 135.900  1.00  0.00    -0.502 OA
ATOM     23  H   UNL     1     109.124 104.906 135.113  1.00  0.00     0.293 HD
ENDBRANCH   2  22
BRANCH   6  24
ATOM     24  O   UNL     1     106.241 100.533 138.231  1.00  0.00    -0.507 OA
ATOM     25  H   UNL     1     105.745 100.488 137.349  1.00  0.00     0.293 HD
ENDBRANCH   6  24
BRANCH   8  26
ATOM     26  O   UNL     1     110.032  97.875 139.644  1.00  0.00    -0.508 OA
ATOM     27  H   UNL     1     110.909  97.461 139.352  1.00  0.00     0.293 HD
ENDBRANCH   8  26
TORSDOF 6
ENDMDL
MODEL 2
REMARK VINA RESULT:    -7.038      1.913      6.487
REMARK INTER + INTRA:          -8.237
REMARK INTER:                  -7.967
REMARK INTRA:                  -0.269
REMARK UNBOUND:                 0.241
REMARK SMILES O=c1c(O)c(-c2ccc(O)c(O)c2)oc2cc(O)cc(O)c12
REMARK SMILES IDX 5 1 3 2 2 3 1 4 22 5 20 6 19 7 17 8 16 9 15 10 14 11 6 12
REMARK SMILES IDX 7 13 8 14 9 15 13 16 11 17 10 18 12 20 4 22 21 24 18 26
REMARK H PARENT 10 19 12 21 4 23 21 25 18 27
REMARK Flexibility Score: inf
ROOT
ATOM      1  C   UNL     1     109.573 102.532 137.855  1.00  0.00     0.180 A 
ATOM      2  C   UNL     1     108.368 102.556 137.126  1.00  0.00     0.208 A 
ATOM      3  C   UNL     1     108.087 103.668 136.318  1.00  0.00     0.238 A 
ATOM      4  O   UNL     1     107.016 103.695 135.652  1.00  0.00    -0.285 OA
ATOM      5  C   UNL     1     108.999 104.741 136.266  1.00  0.00     0.111 A 
ATOM      6  C   UNL     1     108.788 105.900 135.479  1.00  0.00     0.134 A 
ATOM      7  C   UNL     1     109.740 106.930 135.488  1.00  0.00     0.093 A 
ATOM      8  C   UNL     1     110.897 106.824 136.270  1.00  0.00     0.123 A 
ATOM      9  C   UNL     1     111.109 105.683 137.046  1.00  0.00     0.094 A 
ATOM     10  C   UNL     1     110.173 104.646 137.049  1.00  0.00     0.146 A 
ATOM     11  O   UNL     1     110.403 103.570 137.794  1.00  0.00    -0.452 OA
ENDROOT
BRANCH   1  12
ATOM     12  C   UNL     1     109.951 101.388 138.715  1.00  0.00     0.025 A 
ATOM     13  C   UNL     1     109.935 101.538 140.110  1.00  0.00     0.016 A 
ATOM     14  C   UNL     1     110.308 100.478 140.941  1.00  0.00     0.051 A 
ATOM     15  C   UNL     1     110.715  99.256 140.388  1.00  0.00     0.157 A 
ATOM     16  C   UNL     1     110.381 100.167 138.163  1.00  0.00     0.062 A 
ATOM     17  C   UNL     1     110.756  99.104 138.992  1.00  0.00     0.158 A 
BRANCH  15  18
ATOM     18  O   UNL     1     111.084  98.199 141.218  1.00  0.00    -0.504 OA
ATOM     19  H   UNL     1     111.090  98.295 142.227  1.00  0.00     0.293 HD
ENDBRANCH  15  18
BRANCH  17  20
ATOM     20  O   UNL     1     111.171  97.906 138.410  1.00  0.00    -0.504 OA
ATOM     21  H   UNL     1     112.005  97.419 138.717  1.00  0.00     0.293 HD
ENDBRANCH  17  20
ENDBRANCH   1  12
BRANCH   2  22
ATOM     22  O   UNL     1     107.458 101.502 137.233  1.00  0.00    -0.502 OA
ATOM     23  H   UNL     1     107.007 101.260 138.107  1.00  0.00     0.293 HD
ENDBRANCH   2  22
BRANCH   6  24
ATOM     24  O   UNL     1     107.644 106.034 134.691  1.00  0.00    -0.507 OA
ATOM     25  H   UNL     1     107.262 105.255 134.169  1.00  0.00     0.293 HD
ENDBRANCH   6  24
BRANCH   8  26
ATOM     26  O   UNL     1     111.842 107.847 136.280  1.00  0.00    -0.508 OA
ATOM     27  H   UNL     1     112.771 107.707 136.659  1.00  0.00     0.293 HD
ENDBRANCH   8  26
TORSDOF 6
ENDMDL
MODEL 3
REMARK VINA RESULT:    -6.986     11.591     13.173
REMARK INTER + INTRA:          -8.175
REMARK INTER:                  -7.851
REMARK INTRA:                  -0.323
REMARK UNBOUND:                 0.241
REMARK SMILES O=c1c(O)c(-c2ccc(O)c(O)c2)oc2cc(O)cc(O)c12
REMARK SMILES IDX 5 1 3 2 2 3 1 4 22 5 20 6 19 7 17 8 16 9 15 10 14 11 6 12
REMARK SMILES IDX 7 13 8 14 9 15 13 16 11 17 10 18 12 20 4 22 21 24 18 26
REMARK H PARENT 10 19 12 21 4 23 21 25 18 27
REMARK Flexibility Score: inf
ROOT
ATOM      1  C   UNL     1     104.720 114.130 137.518  1.00  0.00     0.180 A 
ATOM      2  C   UNL     1     105.654 114.992 138.125  1.00  0.00     0.208 A 
ATOM      3  C   UNL     1     106.096 114.707 139.426  1.00  0.00     0.238 A 
ATOM      4  O   UNL     1     106.940 115.466 139.975  1.00  0.00    -0.285 OA
ATOM      5  C   UNL     1     105.585 113.581 140.104  1.00  0.00     0.111 A 
ATOM      6  C   UNL     1     105.975 113.227 141.418  1.00  0.00     0.134 A 
ATOM      7  C   UNL     1     105.414 112.096 142.030  1.00  0.00     0.093 A 
ATOM      8  C   UNL     1     104.469 111.315 141.353  1.00  0.00     0.123 A 
ATOM      9  C   UNL     1     104.082 111.661 140.057  1.00  0.00     0.094 A 
ATOM     10  C   UNL     1     104.632 112.783 139.430  1.00  0.00     0.146 A 
ATOM     11  O   UNL     1     104.249 113.086 138.195  1.00  0.00    -0.452 OA
ENDROOT
BRANCH   1  12
ATOM     12  C   UNL     1     104.221 114.352 136.143  1.00  0.00     0.025 A 
ATOM     13  C   UNL     1     104.898 113.770 135.060  1.00  0.00     0.016 A 
ATOM     14  C   UNL     1     104.458 113.983 133.751  1.00  0.00     0.051 A 
ATOM     15  C   UNL     1     103.341 114.793 133.505  1.00  0.00     0.157 A 
ATOM     16  C   UNL     1     103.114 115.182 135.890  1.00  0.00     0.062 A 
ATOM     17  C   UNL     1     102.671 115.400 134.580  1.00  0.00     0.158 A 
BRANCH  15  18
ATOM     18  O   UNL     1     102.902 115.003 132.199  1.00  0.00    -0.504 OA
ATOM     19  H   UNL     1     103.064 114.320 131.468  1.00  0.00     0.293 HD
ENDBRANCH  15  18
BRANCH  17  20
ATOM     20  O   UNL     1     101.566 116.224 134.368  1.00  0.00    -0.504 OA
ATOM     21  H   UNL     1     100.875 116.395 135.089  1.00  0.00     0.293 HD
ENDBRANCH  17  20
ENDBRANCH   1  12
BRANCH   2  22
ATOM     22  O   UNL     1     106.108 116.128 137.449  1.00  0.00    -0.502 OA
ATOM     23  H   UNL     1     107.073 116.239 137.160  1.00  0.00     0.293 HD
ENDBRANCH   2  22
BRANCH   6  24
ATOM     24  O   UNL     1     106.913 113.986 142.119  1.00  0.00    -0.507 OA
ATOM     25  H   UNL     1     106.751 114.287 143.073  1.00  0.00     0.293 HD
ENDBRANCH   6  24
BRANCH   8  26
ATOM     26  O   UNL     1     103.910 110.193 141.960  1.00  0.00    -0.508 OA
ATOM     27  H   UNL     1     103.002 110.230 142.408  1.00  0.00     0.293 HD
ENDBRANCH   8  26
TORSDOF 6
ENDMDL
MODEL 4
REMARK VINA RESULT:    -6.773      1.562      6.806
REMARK INTER + INTRA:          -7.918
REMARK INTER:                  -7.601
REMARK INTRA:                  -0.317
REMARK UNBOUND:                 0.241
REMARK SMILES O=c1c(O)c(-c2ccc(O)c(O)c2)oc2cc(O)cc(O)c12
REMARK SMILES IDX 5 1 3 2 2 3 1 4 22 5 20 6 19 7 17 8 16 9 15 10 14 11 6 12
REMARK SMILES IDX 7 13 8 14 9 15 13 16 11 17 10 18 12 20 4 22 21 24 18 26
REMARK H PARENT 10 19 12 21 4 23 21 25 18 27
REMARK Flexibility Score: inf
ROOT
ATOM      1  C   UNL     1     109.011 102.469 137.672  1.00  0.00     0.180 A 
ATOM      2  C   UNL     1     108.387 103.732 137.655  1.00  0.00     0.208 A 
ATOM      3  C   UNL     1     109.046 104.806 137.039  1.00  0.00     0.238 A 
ATOM      4  O   UNL     1     108.492 105.938 137.008  1.00  0.00    -0.285 OA
ATOM      5  C   UNL     1     110.321 104.608 136.470  1.00  0.00     0.111 A 
ATOM      6  C   UNL     1     111.053 105.640 135.834  1.00  0.00     0.134 A 
ATOM      7  C   UNL     1     112.321 105.366 135.300  1.00  0.00     0.093 A 
ATOM      8  C   UNL     1     112.870 104.081 135.391  1.00  0.00     0.123 A 
ATOM      9  C   UNL     1     112.150 103.061 136.016  1.00  0.00     0.094 A 
ATOM     10  C   UNL     1     110.885 103.314 136.553  1.00  0.00     0.146 A 
ATOM     11  O   UNL     1     110.221 102.324 137.138  1.00  0.00    -0.452 OA
ENDROOT
BRANCH   1  12
ATOM     12  C   UNL     1     108.372 101.283 138.285  1.00  0.00     0.025 A 
ATOM     13  C   UNL     1     108.779 100.862 139.561  1.00  0.00     0.016 A 
ATOM     14  C   UNL     1     108.204  99.733 140.151  1.00  0.00     0.051 A 
ATOM     15  C   UNL     1     107.225  99.000 139.467  1.00  0.00     0.157 A 
ATOM     16  C   UNL     1     107.404 100.532 137.593  1.00  0.00     0.062 A 
ATOM     17  C   UNL     1     106.829  99.400 138.180  1.00  0.00     0.158 A 
BRANCH  15  18
ATOM     18  O   UNL     1     106.652  97.875 140.058  1.00  0.00    -0.504 OA
ATOM     19  H   UNL     1     106.773  97.674 141.044  1.00  0.00     0.293 HD
ENDBRANCH  15  18
BRANCH  17  20
ATOM     20  O   UNL     1     105.868  98.683 137.468  1.00  0.00    -0.504 OA
ATOM     21  H   UNL     1     104.999  99.105 137.160  1.00  0.00     0.293 HD
ENDBRANCH  17  20
ENDBRANCH   1  12
BRANCH   2  22
ATOM     22  O   UNL     1     107.145 103.913 138.269  1.00  0.00    -0.502 OA
ATOM     23  H   UNL     1     106.459 103.170 138.337  1.00  0.00     0.293 HD
ENDBRANCH   2  22
BRANCH   6  24
ATOM     24  O   UNL     1     110.533 106.931 135.729  1.00  0.00    -0.507 OA
ATOM     25  H   UNL     1     109.814 107.269 136.358  1.00  0.00     0.293 HD
ENDBRANCH   6  24
BRANCH   8  26
ATOM     26  O   UNL     1     114.129 103.808 134.862  1.00  0.00    -0.508 OA
ATOM     27  H   UNL     1     114.683 104.528 134.413  1.00  0.00     0.293 HD
ENDBRANCH   8  26
TORSDOF 6
ENDMDL
MODEL 5
REMARK VINA RESULT:    -6.773      9.932     11.789
REMARK INTER + INTRA:          -7.918
REMARK INTER:                  -7.626
REMARK INTRA:                  -0.292
REMARK UNBOUND:                 0.241
REMARK SMILES O=c1c(O)c(-c2ccc(O)c(O)c2)oc2cc(O)cc(O)c12
REMARK SMILES IDX 5 1 3 2 2 3 1 4 22 5 20 6 19 7 17 8 16 9 15 10 14 11 6 12
REMARK SMILES IDX 7 13 8 14 9 15 13 16 11 17 10 18 12 20 4 22 21 24 18 26
REMARK H PARENT 10 19 12 21 4 23 21 25 18 27
REMARK Flexibility Score: inf
ROOT
ATOM      1  C   UNL     1     106.744 112.574 138.763  1.00  0.00     0.180 A 
ATOM      2  C   UNL     1     105.879 113.672 138.938  1.00  0.00     0.208 A 
ATOM      3  C   UNL     1     105.105 114.106 137.851  1.00  0.00     0.238 A 
ATOM      4  O   UNL     1     104.320 115.081 137.998  1.00  0.00    -0.285 OA
ATOM      5  C   UNL     1     105.222 113.451 136.607  1.00  0.00     0.111 A 
ATOM      6  C   UNL     1     104.481 113.828 135.461  1.00  0.00     0.134 A 
ATOM      7  C   UNL     1     104.659 113.132 134.256  1.00  0.00     0.093 A 
ATOM      8  C   UNL     1     105.566 112.068 134.176  1.00  0.00     0.123 A 
ATOM      9  C   UNL     1     106.298 111.693 135.304  1.00  0.00     0.094 A 
ATOM     10  C   UNL     1     106.133 112.373 136.513  1.00  0.00     0.146 A 
ATOM     11  O   UNL     1     106.839 111.991 137.572  1.00  0.00    -0.452 OA
ENDROOT
BRANCH   1  12
ATOM     12  C   UNL     1     107.578 112.046 139.866  1.00  0.00     0.025 A 
ATOM     13  C   UNL     1     107.145 110.918 140.580  1.00  0.00     0.016 A 
ATOM     14  C   UNL     1     107.905 110.414 141.639  1.00  0.00     0.051 A 
ATOM     15  C   UNL     1     109.104 111.040 142.008  1.00  0.00     0.157 A 
ATOM     16  C   UNL     1     108.771 112.684 140.254  1.00  0.00     0.062 A 
ATOM     17  C   UNL     1     109.534 112.183 141.315  1.00  0.00     0.158 A 
BRANCH  15  18
ATOM     18  O   UNL     1     109.862 110.535 143.063  1.00  0.00    -0.504 OA
ATOM     19  H   UNL     1     109.615 110.716 144.029  1.00  0.00     0.293 HD
ENDBRANCH  15  18
BRANCH  17  20
ATOM     20  O   UNL     1     110.714 112.838 141.667  1.00  0.00    -0.504 OA
ATOM     21  H   UNL     1     111.539 112.334 141.972  1.00  0.00     0.293 HD
ENDBRANCH  17  20
ENDBRANCH   1  12
BRANCH   2  22
ATOM     22  O   UNL     1     105.819 114.334 140.167  1.00  0.00    -0.502 OA
ATOM     23  H   UNL     1     106.027 113.872 141.044  1.00  0.00     0.293 HD
ENDBRANCH   2  22
BRANCH   6  24
ATOM     24  O   UNL     1     103.571 114.885 135.510  1.00  0.00    -0.507 OA
ATOM     25  H   UNL     1     102.570 114.729 135.490  1.00  0.00     0.293 HD
ENDBRANCH   6  24
BRANCH   8  26
ATOM     26  O   UNL     1     105.745 111.378 132.980  1.00  0.00    -0.508 OA
ATOM     27  H   UNL     1     105.722 111.853 132.085  1.00  0.00     0.293 HD
ENDBRANCH   8  26
TORSDOF 6
ENDMDL
MODEL 6
REMARK VINA RESULT:    -6.632      1.955      7.343
REMARK INTER + INTRA:          -7.748
REMARK INTER:                  -7.480
REMARK INTRA:                  -0.268
REMARK UNBOUND:                 0.241
REMARK SMILES O=c1c(O)c(-c2ccc(O)c(O)c2)oc2cc(O)cc(O)c12
REMARK SMILES IDX 5 1 3 2 2 3 1 4 22 5 20 6 19 7 17 8 16 9 15 10 14 11 6 12
REMARK SMILES IDX 7 13 8 14 9 15 13 16 11 17 10 18 12 20 4 22 21 24 18 26
REMARK H PARENT 10 19 12 21 4 23 21 25 18 27
REMARK Flexibility Score: inf
ROOT
ATOM      1  C   UNL     1     108.947 102.411 137.810  1.00  0.00     0.180 A 
ATOM      2  C   UNL     1     110.310 102.342 137.462  1.00  0.00     0.208 A 
ATOM      3  C   UNL     1     110.923 103.467 136.890  1.00  0.00     0.238 A 
ATOM      4  O   UNL     1     112.145 103.420 136.585  1.00  0.00    -0.285 OA
ATOM      5  C   UNL     1     110.162 104.631 136.657  1.00  0.00     0.111 A 
ATOM      6  C   UNL     1     110.702 105.806 136.080  1.00  0.00     0.134 A 
ATOM      7  C   UNL     1     109.878 106.922 135.872  1.00  0.00     0.093 A 
ATOM      8  C   UNL     1     108.524 106.883 136.227  1.00  0.00     0.123 A 
ATOM      9  C   UNL     1     107.988 105.727 136.796  1.00  0.00     0.094 A 
ATOM     10  C   UNL     1     108.794 104.606 137.013  1.00  0.00     0.146 A 
ATOM     11  O   UNL     1     108.258 103.521 137.561  1.00  0.00    -0.452 OA
ENDROOT
BRANCH   1  12
ATOM     12  C   UNL     1     108.235 101.273 138.434  1.00  0.00     0.025 A 
ATOM     13  C   UNL     1     108.462 100.976 139.787  1.00  0.00     0.016 A 
ATOM     14  C   UNL     1     107.817  99.895 140.393  1.00  0.00     0.051 A 
ATOM     15  C   UNL     1     106.947  99.085 139.650  1.00  0.00     0.157 A 
ATOM     16  C   UNL     1     107.377 100.446 137.687  1.00  0.00     0.062 A 
ATOM     17  C   UNL     1     106.731  99.360 138.290  1.00  0.00     0.158 A 
BRANCH  15  18
ATOM     18  O   UNL     1     106.303  98.008 140.257  1.00  0.00    -0.504 OA
ATOM     19  H   UNL     1     105.292  97.943 140.288  1.00  0.00     0.293 HD
ENDBRANCH  15  18
BRANCH  17  20
ATOM     20  O   UNL     1     105.883  98.565 137.520  1.00  0.00    -0.504 OA
ATOM     21  H   UNL     1     105.440  98.911 136.676  1.00  0.00     0.293 HD
ENDBRANCH  17  20
ENDBRANCH   1  12
BRANCH   2  22
ATOM     22  O   UNL     1     111.029 101.160 137.659  1.00  0.00    -0.502 OA
ATOM     23  H   UNL     1     110.783 100.291 137.199  1.00  0.00     0.293 HD
ENDBRANCH   2  22
BRANCH   6  24
ATOM     24  O   UNL     1     112.048 105.874 135.715  1.00  0.00    -0.507 OA
ATOM     25  H   UNL     1     112.791 105.727 136.387  1.00  0.00     0.293 HD
ENDBRANCH   6  24
BRANCH   8  26
ATOM     26  O   UNL     1     107.704 107.990 136.018  1.00  0.00    -0.508 OA
ATOM     27  H   UNL     1     107.981 108.746 135.403  1.00  0.00     0.293 HD
ENDBRANCH   8  26
TORSDOF 6
ENDMDL
MODEL 7
REMARK VINA RESULT:    -6.524      2.433      6.330
REMARK INTER + INTRA:          -7.618
REMARK INTER:                  -7.335
REMARK INTRA:                  -0.282
REMARK UNBOUND:                 0.241
REMARK SMILES O=c1c(O)c(-c2ccc(O)c(O)c2)oc2cc(O)cc(O)c12
REMARK SMILES IDX 5 1 3 2 2 3 1 4 22 5 20 6 19 7 17 8 16 9 15 10 14 11 6 12
REMARK SMILES IDX 7 13 8 14 9 15 13 16 11 17 10 18 12 20 4 22 21 24 18 26
REMARK H PARENT 10 19 12 21 4 23 21 25 18 27
REMARK Flexibility Score: inf
ROOT
ATOM      1  C   UNL     1     109.455 102.086 137.876  1.00  0.00     0.180 A 
ATOM      2  C   UNL     1     110.317 102.762 136.990  1.00  0.00     0.208 A 
ATOM      3  C   UNL     1     109.793 103.779 136.177  1.00  0.00     0.238 A 
ATOM      4  O   UNL     1     110.557 104.398 135.388  1.00  0.00    -0.285 OA
ATOM      5  C   UNL     1     108.419 104.088 136.246  1.00  0.00     0.111 A 
ATOM      6  C   UNL     1     107.812 105.095 135.457  1.00  0.00     0.134 A 
ATOM      7  C   UNL     1     106.435 105.338 135.577  1.00  0.00     0.093 A 
ATOM      8  C   UNL     1     105.656 104.591 136.469  1.00  0.00     0.123 A 
ATOM      9  C   UNL     1     106.251 103.598 137.249  1.00  0.00     0.094 A 
ATOM     10  C   UNL     1     107.621 103.343 137.145  1.00  0.00     0.146 A 
ATOM     11  O   UNL     1     108.161 102.395 137.903  1.00  0.00    -0.452 OA
ENDROOT
BRANCH   1  12
ATOM     12  C   UNL     1     109.935 101.017 138.779  1.00  0.00     0.025 A 
ATOM     13  C   UNL     1     110.146  99.726 138.270  1.00  0.00     0.016 A 
ATOM     14  C   UNL     1     110.579  98.696 139.109  1.00  0.00     0.051 A 
ATOM     15  C   UNL     1     110.794  98.937 140.472  1.00  0.00     0.157 A 
ATOM     16  C   UNL     1     110.132 101.251 140.153  1.00  0.00     0.062 A 
ATOM     17  C   UNL     1     110.563 100.221 140.996  1.00  0.00     0.158 A 
BRANCH  15  18
ATOM     18  O   UNL     1     111.228  97.909 141.306  1.00  0.00    -0.504 OA
ATOM     19  H   UNL     1     112.029  97.335 141.069  1.00  0.00     0.293 HD
ENDBRANCH  15  18
BRANCH  17  20
ATOM     20  O   UNL     1     110.754 100.490 142.351  1.00  0.00    -0.504 OA
ATOM     21  H   UNL     1     111.418 101.184 142.674  1.00  0.00     0.293 HD
ENDBRANCH  17  20
ENDBRANCH   1  12
BRANCH   2  22
ATOM     22  O   UNL     1     111.664 102.403 136.906  1.00  0.00    -0.502 OA
ATOM     23  H   UNL     1     111.980 101.595 136.382  1.00  0.00     0.293 HD
ENDBRANCH   2  22
BRANCH   6  24
ATOM     24  O   UNL     1     108.563 105.854 134.559  1.00  0.00    -0.507 OA
ATOM     25  H   UNL     1     109.041 106.700 134.845  1.00  0.00     0.293 HD
ENDBRANCH   6  24
BRANCH   8  26
ATOM     26  O   UNL     1     104.289 104.831 136.588  1.00  0.00    -0.508 OA
ATOM     27  H   UNL     1     103.703 104.270 137.196  1.00  0.00     0.293 HD
ENDBRANCH   8  26
TORSDOF 6
ENDMDL
MODEL 8
REMARK VINA RESULT:    -6.515     11.871     14.547
REMARK INTER + INTRA:          -7.607
REMARK INTER:                  -7.366
REMARK INTRA:                  -0.241
REMARK UNBOUND:                 0.241
REMARK SMILES O=c1c(O)c(-c2ccc(O)c(O)c2)oc2cc(O)cc(O)c12
REMARK SMILES IDX 5 1 3 2 2 3 1 4 22 5 20 6 19 7 17 8 16 9 15 10 14 11 6 12
REMARK SMILES IDX 7 13 8 14 9 15 13 16 11 17 10 18 12 20 4 22 21 24 18 26
REMARK H PARENT 10 19 12 21 4 23 21 25 18 27
REMARK Flexibility Score: inf
ROOT
ATOM      1  C   UNL     1     104.523 114.467 137.180  1.00  0.00     0.180 A 
ATOM      2  C   UNL     1     105.131 113.910 136.038  1.00  0.00     0.208 A 
ATOM      3  C   UNL     1     104.562 114.155 134.779  1.00  0.00     0.238 A 
ATOM      4  O   UNL     1     105.104 113.671 133.749  1.00  0.00    -0.285 OA
ATOM      5  C   UNL     1     103.390 114.933 134.683  1.00  0.00     0.111 A 
ATOM      6  C   UNL     1     102.751 115.223 133.453  1.00  0.00     0.134 A 
ATOM      7  C   UNL     1     101.581 115.997 133.441  1.00  0.00     0.093 A 
ATOM      8  C   UNL     1     101.038 116.483 134.636  1.00  0.00     0.123 A 
ATOM      9  C   UNL     1     101.664 116.201 135.851  1.00  0.00     0.094 A 
ATOM     10  C   UNL     1     102.831 115.433 135.883  1.00  0.00     0.146 A 
ATOM     11  O   UNL     1     103.409 115.183 137.053  1.00  0.00    -0.452 OA
ENDROOT
BRANCH   1  12
ATOM     12  C   UNL     1     105.073 114.271 138.540  1.00  0.00     0.025 A 
ATOM     13  C   UNL     1     105.752 115.325 139.169  1.00  0.00     0.016 A 
ATOM     14  C   UNL     1     106.298 115.156 140.445  1.00  0.00     0.051 A 
ATOM     15  C   UNL     1     106.186 113.924 141.103  1.00  0.00     0.157 A 
ATOM     16  C   UNL     1     104.981 113.029 139.196  1.00  0.00     0.062 A 
ATOM     17  C   UNL     1     105.528 112.855 140.472  1.00  0.00     0.158 A 
BRANCH  15  18
ATOM     18  O   UNL     1     106.729 113.758 142.376  1.00  0.00    -0.504 OA
ATOM     19  H   UNL     1     107.046 114.549 142.925  1.00  0.00     0.293 HD
ENDBRANCH  15  18
BRANCH  17  20
ATOM     20  O   UNL     1     105.412 111.613 141.094  1.00  0.00    -0.504 OA
ATOM     21  H   UNL     1     104.570 111.332 141.584  1.00  0.00     0.293 HD
ENDBRANCH  17  20
ENDBRANCH   1  12
BRANCH   2  22
ATOM     22  O   UNL     1     106.265 113.103 136.165  1.00  0.00    -0.502 OA
ATOM     23  H   UNL     1     107.203 113.460 136.030  1.00  0.00     0.293 HD
ENDBRANCH   2  22
BRANCH   6  24
ATOM     24  O   UNL     1     103.269 114.750 132.246  1.00  0.00    -0.507 OA
ATOM     25  H   UNL     1     102.901 115.053 131.353  1.00  0.00     0.293 HD
ENDBRANCH   6  24
BRANCH   8  26
ATOM     26  O   UNL     1      99.875 117.250 134.625  1.00  0.00    -0.508 OA
ATOM     27  H   UNL     1      99.287 117.309 133.803  1.00  0.00     0.293 HD
ENDBRANCH   8  26
TORSDOF 6
ENDMDL
MODEL 9
REMARK VINA RESULT:    -6.473     10.111     12.545
REMARK INTER + INTRA:          -7.556
REMARK INTER:                  -7.251
REMARK INTRA:                  -0.305
REMARK UNBOUND:                 0.241
REMARK SMILES O=c1c(O)c(-c2ccc(O)c(O)c2)oc2cc(O)cc(O)c12
REMARK SMILES IDX 5 1 3 2 2 3 1 4 22 5 20 6 19 7 17 8 16 9 15 10 14 11 6 12
REMARK SMILES IDX 7 13 8 14 9 15 13 16 11 17 10 18 12 20 4 22 21 24 18 26
REMARK H PARENT 10 19 12 21 4 23 21 25 18 27
REMARK Flexibility Score: inf
ROOT
ATOM      1  C   UNL     1     105.654 113.817 137.655  1.00  0.00     0.180 A 
ATOM      2  C   UNL     1     106.776 114.641 137.867  1.00  0.00     0.208 A 
ATOM      3  C   UNL     1     107.760 114.228 138.777  1.00  0.00     0.238 A 
ATOM      4  O   UNL     1     108.774 114.953 138.966  1.00  0.00    -0.285 OA
ATOM      5  C   UNL     1     107.599 113.012 139.473  1.00  0.00     0.111 A 
ATOM      6  C   UNL     1     108.543 112.526 140.409  1.00  0.00     0.134 A 
ATOM      7  C   UNL     1     108.306 111.310 141.069  1.00  0.00     0.093 A 
ATOM      8  C   UNL     1     107.144 110.574 140.810  1.00  0.00     0.123 A 
ATOM      9  C   UNL     1     106.211 111.050 139.886  1.00  0.00     0.094 A 
ATOM     10  C   UNL     1     106.430 112.258 139.218  1.00  0.00     0.146 A 
ATOM     11  O   UNL     1     105.528 112.684 138.341  1.00  0.00    -0.452 OA
ENDROOT
BRANCH   1  12
ATOM     12  C   UNL     1     104.583 114.174 136.698  1.00  0.00     0.025 A 
ATOM     13  C   UNL     1     103.360 114.664 137.182  1.00  0.00     0.016 A 
ATOM     14  C   UNL     1     102.327 114.988 136.299  1.00  0.00     0.051 A 
ATOM     15  C   UNL     1     102.497 114.815 134.918  1.00  0.00     0.157 A 
ATOM     16  C   UNL     1     104.742 113.982 135.313  1.00  0.00     0.062 A 
ATOM     17  C   UNL     1     103.710 114.304 134.426  1.00  0.00     0.158 A 
BRANCH  15  18
ATOM     18  O   UNL     1     101.467 115.141 134.039  1.00  0.00    -0.504 OA
ATOM     19  H   UNL     1     100.860 115.936 134.203  1.00  0.00     0.293 HD
ENDBRANCH  15  18
BRANCH  17  20
ATOM     20  O   UNL     1     103.905 114.105 133.060  1.00  0.00    -0.504 OA
ATOM     21  H   UNL     1     103.203 114.357 132.373  1.00  0.00     0.293 HD
ENDBRANCH  17  20
ENDBRANCH   1  12
BRANCH   2  22
ATOM     22  O   UNL     1     106.888 115.865 137.200  1.00  0.00    -0.502 OA
ATOM     23  H   UNL     1     107.781 116.253 136.924  1.00  0.00     0.293 HD
ENDBRANCH   2  22
BRANCH   6  24
ATOM     24  O   UNL     1     109.710 113.238 140.689  1.00  0.00    -0.507 OA
ATOM     25  H   UNL     1     109.704 114.061 141.280  1.00  0.00     0.293 HD
ENDBRANCH   6  24
BRANCH   8  26
ATOM     26  O   UNL     1     106.908 109.368 141.465  1.00  0.00    -0.508 OA
ATOM     27  H   UNL     1     106.936 108.483 140.973  1.00  0.00     0.293 HD
ENDBRANCH   8  26
TORSDOF 6
ENDMDL
