MODEL 1
REMARK VINA RESULT:    -7.858      0.000      0.000
REMARK INTER + INTRA:          -9.255
REMARK INTER:                  -9.006
REMARK INTRA:                  -0.248
REMARK UNBOUND:                -0.248
REMARK SMILES CC1(C)CC[C@]23CO[C@@]4(C=C[C@@H]5[C@@]6(C)CC[C@@H](O)[C@@](C)(CO)[C@H]6CC[C@]5(C)[C@]4(C)C[C@H]2O)[C@H]3C1
REMARK SMILES IDX 1 1 2 2 4 3 5 4 6 5 7 6 8 7 9 8 33 9 34 10 10 11 11 12 12 13
REMARK SMILES IDX 13 14 15 15 16 16 17 17 19 18 23 19 24 20 25 21 26 22 28 23
REMARK SMILES IDX 30 24 31 25 29 26 27 27 20 28 14 29 3 30 32 31 21 33 22 34
REMARK SMILES IDX 18 36
REMARK H PARENT 32 32 22 35 18 37
REMARK Flexibility Score: inf
ROOT
ATOM      1  C   UNL     1     -20.245  18.872  -5.294  1.00  0.00     0.011 C 
ATOM      2  C   UNL     1     -19.967  18.652  -3.790  1.00  0.00    -0.035 C 
ATOM      3  C   UNL     1     -20.510  17.259  -3.353  1.00  0.00     0.007 C 
ATOM      4  C   UNL     1     -19.533  16.129  -3.682  1.00  0.00     0.013 C 
ATOM      5  C   UNL     1     -18.152  16.328  -2.979  1.00  0.00     0.026 C 
ATOM      6  C   UNL     1     -16.981  16.141  -3.954  1.00  0.00     0.171 C 
ATOM      7  O   UNL     1     -15.916  16.964  -3.524  1.00  0.00    -0.369 OA
ATOM      8  C   UNL     1     -16.339  17.662  -2.368  1.00  0.00     0.096 C 
ATOM      9  C   UNL     1     -17.888  17.751  -2.503  1.00  0.00     0.037 C 
ATOM     10  C   UNL     1     -18.427  18.790  -3.525  1.00  0.00     0.014 C 
ATOM     11  C   UNL     1     -15.664  19.014  -2.344  1.00  0.00     0.005 C 
ATOM     12  C   UNL     1     -14.533  19.280  -1.667  1.00  0.00    -0.024 C 
ATOM     13  C   UNL     1     -13.717  18.282  -0.826  1.00  0.00     0.024 C 
ATOM     14  C   UNL     1     -12.148  18.457  -1.139  1.00  0.00    -0.022 C 
ATOM     15  C   UNL     1     -11.223  17.679  -0.118  1.00  0.00     0.010 C 
ATOM     16  C   UNL     1     -10.432  16.436  -0.612  1.00  0.00     0.033 C 
ATOM     17  C   UNL     1      -9.935  16.405  -2.085  1.00  0.00     0.123 C 
ATOM     18  C   UNL     1     -10.331  17.654  -2.917  1.00  0.00     0.020 C 
ATOM     19  C   UNL     1     -11.842  18.040  -2.632  1.00  0.00     0.006 C 
ATOM     20  C   UNL     1     -12.893  17.017  -3.186  1.00  0.00     0.005 C 
ATOM     21  C   UNL     1     -13.567  16.091  -2.148  1.00  0.00     0.008 C 
ATOM     22  C   UNL     1     -14.295  16.806  -0.942  1.00  0.00    -0.017 C 
ATOM     23  C   UNL     1     -15.920  16.849  -1.070  1.00  0.00     0.009 C 
ATOM     24  C   UNL     1     -16.574  15.409  -1.131  1.00  0.00     0.043 C 
ATOM     25  C   UNL     1     -17.990  15.350  -1.775  1.00  0.00     0.124 C 
ATOM     26  C   UNL     1     -16.513  17.542   0.214  1.00  0.00     0.015 C 
ATOM     27  C   UNL     1     -13.948  16.000   0.361  1.00  0.00     0.013 C 
ATOM     28  C   UNL     1      -9.360  18.817  -2.554  1.00  0.00     0.017 C 
ATOM     29  C   UNL     1     -11.814  19.987  -0.933  1.00  0.00     0.012 C 
ATOM     30  C   UNL     1     -20.733  19.735  -2.996  1.00  0.00     0.011 C 
ENDROOT
BRANCH  25  31
ATOM     31  O   UNL     1     -18.964  15.622  -0.794  1.00  0.00    -0.392 OA
ATOM     32  H   UNL     1     -18.893  14.920  -0.093  1.00  0.00     0.210 HD
ENDBRANCH  25  31
BRANCH  18  33
ATOM     33  C   UNL     1     -10.077  17.386  -4.442  1.00  0.00     0.165 C 
BRANCH  33  34
ATOM     34  O   UNL     1      -8.991  16.515  -4.621  1.00  0.00    -0.396 OA
ATOM     35  H   UNL     1      -9.290  15.625  -4.301  1.00  0.00     0.210 HD
ENDBRANCH  33  34
ENDBRANCH  18  33
BRANCH  17  36
ATOM     36  O   UNL     1     -10.405  15.232  -2.708  1.00  0.00    -0.392 OA
ATOM     37  H   UNL     1     -11.138  14.874  -2.140  1.00  0.00     0.210 HD
ENDBRANCH  17  36
TORSDOF 4
ENDMDL
MODEL 2
REMARK VINA RESULT:    -7.734      6.993      9.195
REMARK INTER + INTRA:          -9.112
REMARK INTER:                  -8.841
REMARK INTRA:                  -0.271
REMARK UNBOUND:                -0.248
REMARK SMILES CC1(C)CC[C@]23CO[C@@]4(C=C[C@@H]5[C@@]6(C)CC[C@@H](O)[C@@](C)(CO)[C@H]6CC[C@]5(C)[C@]4(C)C[C@H]2O)[C@H]3C1
REMARK SMILES IDX 1 1 2 2 4 3 5 4 6 5 7 6 8 7 9 8 33 9 34 10 10 11 11 12 12 13
REMARK SMILES IDX 13 14 15 15 16 16 17 17 19 18 23 19 24 20 25 21 26 22 28 23
REMARK SMILES IDX 30 24 31 25 29 26 27 27 20 28 14 29 3 30 32 31 21 33 22 34
REMARK SMILES IDX 18 36
REMARK H PARENT 32 32 22 35 18 37
REMARK Flexibility Score: inf
ROOT
ATOM      1  C   UNL     1     -25.009  18.937  -6.869  1.00  0.00     0.011 C 
ATOM      2  C   UNL     1     -24.559  17.504  -7.236  1.00  0.00    -0.035 C 
ATOM      3  C   UNL     1     -25.297  17.036  -8.525  1.00  0.00     0.007 C 
ATOM      4  C   UNL     1     -24.624  17.556  -9.797  1.00  0.00     0.013 C 
ATOM      5  C   UNL     1     -23.142  17.075  -9.912  1.00  0.00     0.026 C 
ATOM      6  C   UNL     1     -22.190  18.231 -10.254  1.00  0.00     0.171 C 
ATOM      7  O   UNL     1     -20.931  17.947  -9.680  1.00  0.00    -0.369 OA
ATOM      8  C   UNL     1     -21.029  16.714  -8.990  1.00  0.00     0.096 C 
ATOM      9  C   UNL     1     -22.532  16.598  -8.599  1.00  0.00     0.037 C 
ATOM     10  C   UNL     1     -23.000  17.484  -7.412  1.00  0.00     0.014 C 
ATOM     11  C   UNL     1     -20.103  16.751  -7.797  1.00  0.00     0.005 C 
ATOM     12  C   UNL     1     -18.854  16.254  -7.796  1.00  0.00    -0.024 C 
ATOM     13  C   UNL     1     -18.136  15.589  -8.985  1.00  0.00     0.024 C 
ATOM     14  C   UNL     1     -16.628  16.142  -9.092  1.00  0.00    -0.022 C 
ATOM     15  C   UNL     1     -15.735  15.310 -10.098  1.00  0.00     0.010 C 
ATOM     16  C   UNL     1     -15.288  15.966 -11.434  1.00  0.00     0.033 C 
ATOM     17  C   UNL     1     -15.034  17.499 -11.462  1.00  0.00     0.123 C 
ATOM     18  C   UNL     1     -15.293  18.214 -10.109  1.00  0.00     0.020 C 
ATOM     19  C   UNL     1     -16.637  17.678  -9.461  1.00  0.00     0.006 C 
ATOM     20  C   UNL     1     -17.942  18.093 -10.227  1.00  0.00     0.005 C 
ATOM     21  C   UNL     1     -18.623  16.994 -11.073  1.00  0.00     0.008 C 
ATOM     22  C   UNL     1     -19.006  15.664 -10.312  1.00  0.00    -0.017 C 
ATOM     23  C   UNL     1     -20.591  15.529  -9.953  1.00  0.00     0.009 C 
ATOM     24  C   UNL     1     -21.519  15.536 -11.234  1.00  0.00     0.043 C 
ATOM     25  C   UNL     1     -22.999  15.948 -10.979  1.00  0.00     0.124 C 
ATOM     26  C   UNL     1     -20.836  14.144  -9.244  1.00  0.00     0.015 C 
ATOM     27  C   UNL     1     -18.636  14.461 -11.253  1.00  0.00     0.013 C 
ATOM     28  C   UNL     1     -14.068  17.970  -9.179  1.00  0.00     0.017 C 
ATOM     29  C   UNL     1     -15.970  15.938  -7.671  1.00  0.00     0.012 C 
ATOM     30  C   UNL     1     -24.967  16.562  -6.081  1.00  0.00     0.011 C 
ENDROOT
BRANCH  25  31
ATOM     31  O   UNL     1     -23.742  14.815 -10.592  1.00  0.00    -0.392 OA
ATOM     32  H   UNL     1     -23.178  14.279  -9.973  1.00  0.00     0.210 HD
ENDBRANCH  25  31
BRANCH  18  33
ATOM     33  C   UNL     1     -15.328  19.768 -10.320  1.00  0.00     0.165 C 
BRANCH  33  34
ATOM     34  O   UNL     1     -14.188  20.202 -11.014  1.00  0.00    -0.396 OA
ATOM     35  H   UNL     1     -13.841  20.988 -10.517  1.00  0.00     0.210 HD
ENDBRANCH  33  34
ENDBRANCH  18  33
BRANCH  17  36
ATOM     36  O   UNL     1     -15.814  18.080 -12.481  1.00  0.00    -0.392 OA
ATOM     37  H   UNL     1     -15.635  17.567 -13.314  1.00  0.00     0.210 HD
ENDBRANCH  17  36
TORSDOF 4
ENDMDL
MODEL 3
REMARK VINA RESULT:    -7.630      7.191     11.890
REMARK INTER + INTRA:          -8.993
REMARK INTER:                  -8.709
REMARK INTRA:                  -0.284
REMARK UNBOUND:                -0.248
REMARK SMILES CC1(C)CC[C@]23CO[C@@]4(C=C[C@@H]5[C@@]6(C)CC[C@@H](O)[C@@](C)(CO)[C@H]6CC[C@]5(C)[C@]4(C)C[C@H]2O)[C@H]3C1
REMARK SMILES IDX 1 1 2 2 4 3 5 4 6 5 7 6 8 7 9 8 33 9 34 10 10 11 11 12 12 13
REMARK SMILES IDX 13 14 15 15 16 16 17 17 19 18 23 19 24 20 25 21 26 22 28 23
REMARK SMILES IDX 30 24 31 25 29 26 27 27 20 28 14 29 3 30 32 31 21 33 22 34
REMARK SMILES IDX 18 36
REMARK H PARENT 32 32 22 35 18 37
REMARK Flexibility Score: inf
ROOT
ATOM      1  C   UNL     1     -14.321  17.770  -8.746  1.00  0.00     0.011 C 
ATOM      2  C   UNL     1     -15.109  17.152  -9.924  1.00  0.00    -0.035 C 
ATOM      3  C   UNL     1     -14.955  15.602  -9.902  1.00  0.00     0.007 C 
ATOM      4  C   UNL     1     -15.927  14.939  -8.925  1.00  0.00     0.013 C 
ATOM      5  C   UNL     1     -17.416  15.251  -9.280  1.00  0.00     0.026 C 
ATOM      6  C   UNL     1     -18.215  15.707  -8.050  1.00  0.00     0.171 C 
ATOM      7  O   UNL     1     -19.226  16.592  -8.487  1.00  0.00    -0.369 OA
ATOM      8  C   UNL     1     -19.107  16.738  -9.890  1.00  0.00     0.096 C 
ATOM      9  C   UNL     1     -17.605  16.457 -10.192  1.00  0.00     0.037 C 
ATOM     10  C   UNL     1     -16.611  17.594  -9.828  1.00  0.00     0.014 C 
ATOM     11  C   UNL     1     -19.542  18.134 -10.271  1.00  0.00     0.005 C 
ATOM     12  C   UNL     1     -20.778  18.450 -10.692  1.00  0.00    -0.024 C 
ATOM     13  C   UNL     1     -21.966  17.483 -10.843  1.00  0.00     0.024 C 
ATOM     14  C   UNL     1     -23.300  18.154 -10.242  1.00  0.00    -0.022 C 
ATOM     15  C   UNL     1     -24.615  17.356 -10.611  1.00  0.00     0.010 C 
ATOM     16  C   UNL     1     -25.377  16.596  -9.490  1.00  0.00     0.033 C 
ATOM     17  C   UNL     1     -25.359  17.179  -8.049  1.00  0.00     0.123 C 
ATOM     18  C   UNL     1     -24.529  18.482  -7.899  1.00  0.00     0.020 C 
ATOM     19  C   UNL     1     -23.156  18.344  -8.680  1.00  0.00     0.006 C 
ATOM     20  C   UNL     1     -22.148  17.320  -8.052  1.00  0.00     0.005 C 
ATOM     21  C   UNL     1     -22.000  15.964  -8.778  1.00  0.00     0.008 C 
ATOM     22  C   UNL     1     -21.611  16.029 -10.308  1.00  0.00    -0.017 C 
ATOM     23  C   UNL     1     -20.048  15.684 -10.617  1.00  0.00     0.009 C 
ATOM     24  C   UNL     1     -19.634  14.226 -10.163  1.00  0.00     0.043 C 
ATOM     25  C   UNL     1     -18.111  14.012  -9.924  1.00  0.00     0.124 C 
ATOM     26  C   UNL     1     -19.813  15.739 -12.174  1.00  0.00     0.015 C 
ATOM     27  C   UNL     1     -22.484  14.962 -11.061  1.00  0.00     0.013 C 
ATOM     28  C   UNL     1     -25.379  19.673  -8.433  1.00  0.00     0.017 C 
ATOM     29  C   UNL     1     -23.449  19.564 -10.939  1.00  0.00     0.012 C 
ATOM     30  C   UNL     1     -14.493  17.676 -11.241  1.00  0.00     0.011 C 
ENDROOT
BRANCH  25  31
ATOM     31  O   UNL     1     -17.485  13.683 -11.143  1.00  0.00    -0.392 OA
ATOM     32  H   UNL     1     -17.419  12.693 -11.193  1.00  0.00     0.210 HD
ENDBRANCH  25  31
BRANCH  18  33
ATOM     33  C   UNL     1     -24.304  18.803  -6.380  1.00  0.00     0.165 C 
BRANCH  33  34
ATOM     34  O   UNL     1     -25.484  18.599  -5.647  1.00  0.00    -0.396 OA
ATOM     35  H   UNL     1     -25.501  17.636  -5.408  1.00  0.00     0.210 HD
ENDBRANCH  33  34
ENDBRANCH  18  33
BRANCH  17  36
ATOM     36  O   UNL     1     -24.893  16.194  -7.156  1.00  0.00    -0.392 OA
ATOM     37  H   UNL     1     -23.914  16.336  -7.052  1.00  0.00     0.210 HD
ENDBRANCH  17  36
TORSDOF 4
ENDMDL
MODEL 4
REMARK VINA RESULT:    -7.609      5.387     10.307
REMARK INTER + INTRA:          -8.970
REMARK INTER:                  -8.707
REMARK INTRA:                  -0.262
REMARK UNBOUND:                -0.248
REMARK SMILES CC1(C)CC[C@]23CO[C@@]4(C=C[C@@H]5[C@@]6(C)CC[C@@H](O)[C@@](C)(CO)[C@H]6CC[C@]5(C)[C@]4(C)C[C@H]2O)[C@H]3C1
REMARK SMILES IDX 1 1 2 2 4 3 5 4 6 5 7 6 8 7 9 8 33 9 34 10 10 11 11 12 12 13
REMARK SMILES IDX 13 14 15 15 16 16 17 17 19 18 23 19 24 20 25 21 26 22 28 23
REMARK SMILES IDX 30 24 31 25 29 26 27 27 20 28 14 29 3 30 32 31 21 33 22 34
REMARK SMILES IDX 18 36
REMARK H PARENT 32 32 22 35 18 37
REMARK Flexibility Score: inf
ROOT
ATOM      1  C   UNL     1     -11.490  18.557  -6.086  1.00  0.00     0.011 C 
ATOM      2  C   UNL     1     -11.754  18.133  -7.549  1.00  0.00    -0.035 C 
ATOM      3  C   UNL     1     -11.126  16.733  -7.811  1.00  0.00     0.007 C 
ATOM      4  C   UNL     1     -12.031  15.595  -7.336  1.00  0.00     0.013 C 
ATOM      5  C   UNL     1     -13.422  15.619  -8.047  1.00  0.00     0.026 C 
ATOM      6  C   UNL     1     -14.579  15.485  -7.047  1.00  0.00     0.171 C 
ATOM      7  O   UNL     1     -15.692  16.181  -7.569  1.00  0.00    -0.369 OA
ATOM      8  C   UNL     1     -15.314  16.753  -8.807  1.00  0.00     0.096 C 
ATOM      9  C   UNL     1     -13.773  16.952  -8.696  1.00  0.00     0.037 C 
ATOM     10  C   UNL     1     -13.299  18.143  -7.817  1.00  0.00     0.014 C 
ATOM     11  C   UNL     1     -16.071  18.047  -8.995  1.00  0.00     0.005 C 
ATOM     12  C   UNL     1     -17.216  18.156  -9.691  1.00  0.00    -0.024 C 
ATOM     13  C   UNL     1     -17.969  17.012 -10.394  1.00  0.00     0.024 C 
ATOM     14  C   UNL     1     -19.546  17.129 -10.093  1.00  0.00    -0.022 C 
ATOM     15  C   UNL     1     -20.421  16.174 -11.000  1.00  0.00     0.010 C 
ATOM     16  C   UNL     1     -21.134  14.957 -10.349  1.00  0.00     0.033 C 
ATOM     17  C   UNL     1     -21.628  15.081  -8.880  1.00  0.00     0.123 C 
ATOM     18  C   UNL     1     -21.310  16.446  -8.214  1.00  0.00     0.020 C 
ATOM     19  C   UNL     1     -19.826  16.885  -8.557  1.00  0.00     0.006 C 
ATOM     20  C   UNL     1     -18.713  16.005  -7.888  1.00  0.00     0.005 C 
ATOM     21  C   UNL     1     -17.984  15.000  -8.807  1.00  0.00     0.008 C 
ATOM     22  C   UNL     1     -17.301  15.601 -10.098  1.00  0.00    -0.017 C 
ATOM     23  C   UNL     1     -15.682  15.758  -9.989  1.00  0.00     0.009 C 
ATOM     24  C   UNL     1     -14.941  14.381  -9.753  1.00  0.00     0.043 C 
ATOM     25  C   UNL     1     -13.524  14.490  -9.118  1.00  0.00     0.124 C 
ATOM     26  C   UNL     1     -15.133  16.320 -11.355  1.00  0.00     0.015 C 
ATOM     27  C   UNL     1     -17.598  14.618 -11.287  1.00  0.00     0.013 C 
ATOM     28  C   UNL     1     -22.350  17.493  -8.712  1.00  0.00     0.017 C 
ATOM     29  C   UNL     1     -19.974  18.598 -10.487  1.00  0.00     0.012 C 
ATOM     30  C   UNL     1     -11.056  19.153  -8.478  1.00  0.00     0.011 C 
ENDROOT
BRANCH  25  31
ATOM     31  O   UNL     1     -12.569  14.695 -10.133  1.00  0.00    -0.392 OA
ATOM     32  H   UNL     1     -12.612  13.919 -10.753  1.00  0.00     0.210 HD
ENDBRANCH  25  31
BRANCH  18  33
ATOM     33  C   UNL     1     -21.547  16.357  -6.666  1.00  0.00     0.165 C 
BRANCH  33  34
ATOM     34  O   UNL     1     -22.616  15.495  -6.374  1.00  0.00    -0.396 OA
ATOM     35  H   UNL     1     -23.117  15.374  -7.222  1.00  0.00     0.210 HD
ENDBRANCH  33  34
ENDBRANCH  18  33
BRANCH  17  36
ATOM     36  O   UNL     1     -21.087  14.026  -8.118  1.00  0.00    -0.392 OA
ATOM     37  H   UNL     1     -20.118  14.217  -8.004  1.00  0.00     0.210 HD
ENDBRANCH  17  36
TORSDOF 4
ENDMDL
MODEL 5
REMARK VINA RESULT:    -7.585     13.828     16.558
REMARK INTER + INTRA:          -8.942
REMARK INTER:                  -8.658
REMARK INTRA:                  -0.284
REMARK UNBOUND:                -0.248
REMARK SMILES CC1(C)CC[C@]23CO[C@@]4(C=C[C@@H]5[C@@]6(C)CC[C@@H](O)[C@@](C)(CO)[C@H]6CC[C@]5(C)[C@]4(C)C[C@H]2O)[C@H]3C1
REMARK SMILES IDX 1 1 2 2 4 3 5 4 6 5 7 6 8 7 9 8 33 9 34 10 10 11 11 12 12 13
REMARK SMILES IDX 13 14 15 15 16 16 17 17 19 18 23 19 24 20 25 21 26 22 28 23
REMARK SMILES IDX 30 24 31 25 29 26 27 27 20 28 14 29 3 30 32 31 21 33 22 34
REMARK SMILES IDX 18 36
REMARK H PARENT 32 32 22 35 18 37
REMARK Flexibility Score: inf
ROOT
ATOM      1  C   UNL     1     -27.707  28.409  -5.238  1.00  0.00     0.011 C 
ATOM      2  C   UNL     1     -27.506  28.649  -6.752  1.00  0.00    -0.035 C 
ATOM      3  C   UNL     1     -28.115  30.025  -7.151  1.00  0.00     0.007 C 
ATOM      4  C   UNL     1     -27.162  31.185  -6.858  1.00  0.00     0.013 C 
ATOM      5  C   UNL     1     -25.810  31.038  -7.625  1.00  0.00     0.026 C 
ATOM      6  C   UNL     1     -24.601  31.257  -6.704  1.00  0.00     0.171 C 
ATOM      7  O   UNL     1     -23.531  30.474  -7.190  1.00  0.00    -0.369 OA
ATOM      8  C   UNL     1     -23.983  29.769  -8.331  1.00  0.00     0.096 C 
ATOM      9  C   UNL     1     -25.521  29.627  -8.126  1.00  0.00     0.037 C 
ATOM     10  C   UNL     1     -25.976  28.564  -7.089  1.00  0.00     0.014 C 
ATOM     11  C   UNL     1     -23.265  28.441  -8.398  1.00  0.00     0.005 C 
ATOM     12  C   UNL     1     -22.159  28.218  -9.128  1.00  0.00    -0.024 C 
ATOM     13  C   UNL     1     -21.416  29.249  -9.998  1.00  0.00     0.024 C 
ATOM     14  C   UNL     1     -19.829  29.125  -9.759  1.00  0.00    -0.022 C 
ATOM     15  C   UNL     1     -18.979  29.940 -10.814  1.00  0.00     0.010 C 
ATOM     16  C   UNL     1     -18.208  31.206 -10.347  1.00  0.00     0.033 C 
ATOM     17  C   UNL     1     -17.645  31.244  -8.899  1.00  0.00     0.123 C 
ATOM     18  C   UNL     1     -17.960  29.977  -8.059  1.00  0.00     0.020 C 
ATOM     19  C   UNL     1     -19.468  29.541  -8.278  1.00  0.00     0.006 C 
ATOM     20  C   UNL     1     -20.526  30.525  -7.668  1.00  0.00     0.005 C 
ATOM     21  C   UNL     1     -21.278  31.434  -8.666  1.00  0.00     0.008 C 
ATOM     22  C   UNL     1     -22.037  30.703  -9.842  1.00  0.00    -0.017 C 
ATOM     23  C   UNL     1     -23.652  30.605  -9.640  1.00  0.00     0.009 C 
ATOM     24  C   UNL     1     -24.350  32.022  -9.536  1.00  0.00     0.043 C 
ATOM     25  C   UNL     1     -25.736  32.029  -8.827  1.00  0.00     0.124 C 
ATOM     26  C   UNL     1     -24.281  29.901 -10.901  1.00  0.00     0.015 C 
ATOM     27  C   UNL     1     -21.778  31.529 -11.153  1.00  0.00     0.013 C 
ATOM     28  C   UNL     1     -16.969  28.849  -8.477  1.00  0.00     0.017 C 
ATOM     29  C   UNL     1     -19.455  27.609  -9.993  1.00  0.00     0.012 C 
ATOM     30  C   UNL     1     -28.271  27.546  -7.518  1.00  0.00     0.011 C 
ENDROOT
BRANCH  25  31
ATOM     31  O   UNL     1     -26.744  31.731  -9.765  1.00  0.00    -0.392 OA
ATOM     32  H   UNL     1     -27.548  31.431  -9.263  1.00  0.00     0.210 HD
ENDBRANCH  25  31
BRANCH  18  33
ATOM     33  C   UNL     1     -17.644  30.242  -6.546  1.00  0.00     0.165 C 
BRANCH  33  34
ATOM     34  O   UNL     1     -16.403  30.880  -6.400  1.00  0.00    -0.396 OA
ATOM     35  H   UNL     1     -16.225  30.927  -5.425  1.00  0.00     0.210 HD
ENDBRANCH  33  34
ENDBRANCH  18  33
BRANCH  17  36
ATOM     36  O   UNL     1     -18.124  32.396  -8.245  1.00  0.00    -0.392 OA
ATOM     37  H   UNL     1     -19.116  32.326  -8.221  1.00  0.00     0.210 HD
ENDBRANCH  17  36
TORSDOF 4
ENDMDL
MODEL 6
REMARK VINA RESULT:    -7.583     12.940     16.097
REMARK INTER + INTRA:          -8.939
REMARK INTER:                  -8.656
REMARK INTRA:                  -0.283
REMARK UNBOUND:                -0.248
REMARK SMILES CC1(C)CC[C@]23CO[C@@]4(C=C[C@@H]5[C@@]6(C)CC[C@@H](O)[C@@](C)(CO)[C@H]6CC[C@]5(C)[C@]4(C)C[C@H]2O)[C@H]3C1
REMARK SMILES IDX 1 1 2 2 4 3 5 4 6 5 7 6 8 7 9 8 33 9 34 10 10 11 11 12 12 13
REMARK SMILES IDX 13 14 15 15 16 16 17 17 19 18 23 19 24 20 25 21 26 22 28 23
REMARK SMILES IDX 30 24 31 25 29 26 27 27 20 28 14 29 3 30 32 31 21 33 22 34
REMARK SMILES IDX 18 36
REMARK H PARENT 32 32 22 35 18 37
REMARK Flexibility Score: inf
ROOT
ATOM      1  C   UNL     1     -26.656  26.858  -8.459  1.00  0.00     0.011 C 
ATOM      2  C   UNL     1     -26.359  28.148  -9.256  1.00  0.00    -0.035 C 
ATOM      3  C   UNL     1     -26.686  29.393  -8.381  1.00  0.00     0.007 C 
ATOM      4  C   UNL     1     -25.545  29.742  -7.423  1.00  0.00     0.013 C 
ATOM      5  C   UNL     1     -24.216  30.048  -8.184  1.00  0.00     0.026 C 
ATOM      6  C   UNL     1     -23.023  29.293  -7.580  1.00  0.00     0.171 C 
ATOM      7  O   UNL     1     -22.100  29.031  -8.616  1.00  0.00    -0.369 OA
ATOM      8  C   UNL     1     -22.632  29.547  -9.822  1.00  0.00     0.096 C 
ATOM      9  C   UNL     1     -24.176  29.525  -9.615  1.00  0.00     0.037 C 
ATOM     10  C   UNL     1     -24.860  28.133  -9.719  1.00  0.00     0.014 C 
ATOM     11  C   UNL     1     -22.172  28.676 -10.968  1.00  0.00     0.005 C 
ATOM     12  C   UNL     1     -21.100  28.942 -11.733  1.00  0.00    -0.024 C 
ATOM     13  C   UNL     1     -20.146  30.142 -11.583  1.00  0.00     0.024 C 
ATOM     14  C   UNL     1     -18.620  29.649 -11.719  1.00  0.00    -0.022 C 
ATOM     15  C   UNL     1     -17.595  30.844 -11.864  1.00  0.00     0.010 C 
ATOM     16  C   UNL     1     -16.619  31.149 -10.694  1.00  0.00     0.033 C 
ATOM     17  C   UNL     1     -16.114  29.969  -9.817  1.00  0.00     0.123 C 
ATOM     18  C   UNL     1     -16.690  28.584 -10.219  1.00  0.00     0.020 C 
ATOM     19  C   UNL     1     -18.244  28.706 -10.508  1.00  0.00     0.006 C 
ATOM     20  C   UNL     1     -19.122  28.994  -9.242  1.00  0.00     0.005 C 
ATOM     21  C   UNL     1     -19.654  30.436  -9.085  1.00  0.00     0.008 C 
ATOM     22  C   UNL     1     -20.492  31.008 -10.296  1.00  0.00    -0.017 C 
ATOM     23  C   UNL     1     -22.102  31.027 -10.048  1.00  0.00     0.009 C 
ATOM     24  C   UNL     1     -22.529  31.920  -8.814  1.00  0.00     0.043 C 
ATOM     25  C   UNL     1     -23.915  31.578  -8.193  1.00  0.00     0.124 C 
ATOM     26  C   UNL     1     -22.804  31.661 -11.308  1.00  0.00     0.015 C 
ATOM     27  C   UNL     1     -20.035  32.494 -10.523  1.00  0.00     0.013 C 
ATOM     28  C   UNL     1     -15.910  28.069 -11.466  1.00  0.00     0.017 C 
ATOM     29  C   UNL     1     -18.525  28.842 -13.073  1.00  0.00     0.012 C 
ATOM     30  C   UNL     1     -27.286  28.174 -10.492  1.00  0.00     0.011 C 
ENDROOT
BRANCH  25  31
ATOM     31  O   UNL     1     -24.925  32.268  -8.892  1.00  0.00    -0.392 OA
ATOM     32  H   UNL     1     -24.484  32.898  -9.520  1.00  0.00     0.210 HD
ENDBRANCH  25  31
BRANCH  18  33
ATOM     33  C   UNL     1     -16.387  27.530  -9.098  1.00  0.00     0.165 C 
BRANCH  33  34
ATOM     34  O   UNL     1     -15.052  27.622  -8.675  1.00  0.00    -0.396 OA
ATOM     35  H   UNL     1     -14.554  26.919  -9.165  1.00  0.00     0.210 HD
ENDBRANCH  33  34
ENDBRANCH  18  33
BRANCH  17  36
ATOM     36  O   UNL     1     -16.394  30.242  -8.464  1.00  0.00    -0.392 OA
ATOM     37  H   UNL     1     -15.813  31.002  -8.194  1.00  0.00     0.210 HD
ENDBRANCH  17  36
TORSDOF 4
ENDMDL
MODEL 7
REMARK VINA RESULT:    -7.525     10.976     13.152
REMARK INTER + INTRA:          -8.873
REMARK INTER:                  -8.791
REMARK INTRA:                  -0.082
REMARK UNBOUND:                -0.248
REMARK SMILES CC1(C)CC[C@]23CO[C@@]4(C=C[C@@H]5[C@@]6(C)CC[C@@H](O)[C@@](C)(CO)[C@H]6CC[C@]5(C)[C@]4(C)C[C@H]2O)[C@H]3C1
REMARK SMILES IDX 1 1 2 2 4 3 5 4 6 5 7 6 8 7 9 8 33 9 34 10 10 11 11 12 12 13
REMARK SMILES IDX 13 14 15 15 16 16 17 17 19 18 23 19 24 20 25 21 26 22 28 23
REMARK SMILES IDX 30 24 31 25 29 26 27 27 20 28 14 29 3 30 32 31 21 33 22 34
REMARK SMILES IDX 18 36
REMARK H PARENT 32 32 22 35 18 37
REMARK Flexibility Score: inf
ROOT
ATOM      1  C   UNL     1     -24.581  30.404   0.559  1.00  0.00     0.011 C 
ATOM      2  C   UNL     1     -24.162  29.249  -0.378  1.00  0.00    -0.035 C 
ATOM      3  C   UNL     1     -24.808  29.449  -1.780  1.00  0.00     0.007 C 
ATOM      4  C   UNL     1     -24.010  30.422  -2.650  1.00  0.00     0.013 C 
ATOM      5  C   UNL     1     -22.545  29.931  -2.882  1.00  0.00     0.026 C 
ATOM      6  C   UNL     1     -21.521  31.046  -2.623  1.00  0.00     0.171 C 
ATOM      7  O   UNL     1     -20.328  30.446  -2.163  1.00  0.00    -0.369 OA
ATOM      8  C   UNL     1     -20.534  29.048  -2.097  1.00  0.00     0.096 C 
ATOM      9  C   UNL     1     -22.068  28.883  -1.884  1.00  0.00     0.037 C 
ATOM     10  C   UNL     1     -22.596  29.191  -0.456  1.00  0.00     0.014 C 
ATOM     11  C   UNL     1     -19.710  28.489  -0.961  1.00  0.00     0.005 C 
ATOM     12  C   UNL     1     -18.487  27.951  -1.109  1.00  0.00    -0.024 C 
ATOM     13  C   UNL     1     -17.701  27.823  -2.426  1.00  0.00     0.024 C 
ATOM     14  C   UNL     1     -16.167  28.253  -2.193  1.00  0.00    -0.022 C 
ATOM     15  C   UNL     1     -15.228  27.882  -3.410  1.00  0.00     0.010 C 
ATOM     16  C   UNL     1     -14.645  29.022  -4.290  1.00  0.00     0.033 C 
ATOM     17  C   UNL     1     -14.326  30.389  -3.623  1.00  0.00     0.123 C 
ATOM     18  C   UNL     1     -14.667  30.456  -2.110  1.00  0.00     0.020 C 
ATOM     19  C   UNL     1     -16.082  29.792  -1.843  1.00  0.00     0.006 C 
ATOM     20  C   UNL     1     -17.299  30.595  -2.419  1.00  0.00     0.005 C 
ATOM     21  C   UNL     1     -17.953  30.032  -3.701  1.00  0.00     0.008 C 
ATOM     22  C   UNL     1     -18.453  28.536  -3.631  1.00  0.00    -0.017 C 
ATOM     23  C   UNL     1     -20.066  28.375  -3.458  1.00  0.00     0.009 C 
ATOM     24  C   UNL     1     -20.883  29.011  -4.654  1.00  0.00     0.043 C 
ATOM     25  C   UNL     1     -22.361  29.379  -4.328  1.00  0.00     0.124 C 
ATOM     26  C   UNL     1     -20.427  26.842  -3.451  1.00  0.00     0.015 C 
ATOM     27  C   UNL     1     -18.056  27.843  -4.984  1.00  0.00     0.013 C 
ATOM     28  C   UNL     1     -13.535  29.738  -1.316  1.00  0.00     0.017 C 
ATOM     29  C   UNL     1     -15.639  27.399  -0.974  1.00  0.00     0.012 C 
ATOM     30  C   UNL     1     -24.704  27.929   0.216  1.00  0.00     0.011 C 
ENDROOT
BRANCH  25  31
ATOM     31  O   UNL     1     -23.180  28.249  -4.525  1.00  0.00    -0.392 OA
ATOM     32  H   UNL     1     -23.439  27.902  -3.630  1.00  0.00     0.210 HD
ENDBRANCH  25  31
BRANCH  18  33
ATOM     33  C   UNL     1     -14.620  31.943  -1.614  1.00  0.00     0.165 C 
BRANCH  33  34
ATOM     34  O   UNL     1     -14.269  32.004  -0.256  1.00  0.00    -0.396 OA
ATOM     35  H   UNL     1     -13.387  32.456  -0.215  1.00  0.00     0.210 HD
ENDBRANCH  33  34
ENDBRANCH  18  33
BRANCH  17  36
ATOM     36  O   UNL     1     -14.994  31.414  -4.322  1.00  0.00    -0.392 OA
ATOM     37  H   UNL     1     -14.344  32.158  -4.438  1.00  0.00     0.210 HD
ENDBRANCH  17  36
TORSDOF 4
ENDMDL
MODEL 8
REMARK VINA RESULT:    -7.422     12.557     16.779
REMARK INTER + INTRA:          -8.755
REMARK INTER:                  -8.660
REMARK INTRA:                  -0.096
REMARK UNBOUND:                -0.248
REMARK SMILES CC1(C)CC[C@]23CO[C@@]4(C=C[C@@H]5[C@@]6(C)CC[C@@H](O)[C@@](C)(CO)[C@H]6CC[C@]5(C)[C@]4(C)C[C@H]2O)[C@H]3C1
REMARK SMILES IDX 1 1 2 2 4 3 5 4 6 5 7 6 8 7 9 8 33 9 34 10 10 11 11 12 12 13
REMARK SMILES IDX 13 14 15 15 16 16 17 17 19 18 23 19 24 20 25 21 26 22 28 23
REMARK SMILES IDX 30 24 31 25 29 26 27 27 20 28 14 29 3 30 32 31 21 33 22 34
REMARK SMILES IDX 18 36
REMARK H PARENT 32 32 22 35 18 37
REMARK Flexibility Score: inf
ROOT
ATOM      1  C   UNL     1     -14.118  27.239  -7.003  1.00  0.00     0.011 C 
ATOM      2  C   UNL     1     -14.531  28.717  -7.183  1.00  0.00    -0.035 C 
ATOM      3  C   UNL     1     -13.799  29.320  -8.418  1.00  0.00     0.007 C 
ATOM      4  C   UNL     1     -14.505  28.979  -9.732  1.00  0.00     0.013 C 
ATOM      5  C   UNL     1     -15.974  29.511  -9.760  1.00  0.00     0.026 C 
ATOM      6  C   UNL     1     -16.965  28.433 -10.224  1.00  0.00     0.171 C 
ATOM      7  O   UNL     1     -18.205  28.679  -9.596  1.00  0.00    -0.369 OA
ATOM      8  C   UNL     1     -18.061  29.814  -8.763  1.00  0.00     0.096 C 
ATOM      9  C   UNL     1     -16.550  29.840  -8.388  1.00  0.00     0.037 C 
ATOM     10  C   UNL     1     -16.091  28.803  -7.326  1.00  0.00     0.014 C 
ATOM     11  C   UNL     1     -18.970  29.657  -7.566  1.00  0.00     0.005 C 
ATOM     12  C   UNL     1     -20.204  30.184  -7.482  1.00  0.00    -0.024 C 
ATOM     13  C   UNL     1     -20.919  31.010  -8.567  1.00  0.00     0.024 C 
ATOM     14  C   UNL     1     -22.445  30.516  -8.714  1.00  0.00    -0.022 C 
ATOM     15  C   UNL     1     -23.327  31.490  -9.594  1.00  0.00     0.010 C 
ATOM     16  C   UNL     1     -23.812  31.015 -10.992  1.00  0.00     0.033 C 
ATOM     17  C   UNL     1     -24.112  29.505 -11.203  1.00  0.00     0.123 C 
ATOM     18  C   UNL     1     -23.855  28.622  -9.952  1.00  0.00     0.020 C 
ATOM     19  C   UNL     1     -22.486  29.037  -9.268  1.00  0.00     0.006 C 
ATOM     20  C   UNL     1     -21.206  28.684 -10.102  1.00  0.00     0.005 C 
ATOM     21  C   UNL     1     -20.505  29.859 -10.820  1.00  0.00     0.008 C 
ATOM     22  C   UNL     1     -20.071  31.075  -9.910  1.00  0.00    -0.017 C 
ATOM     23  C   UNL     1     -18.478  31.120  -9.565  1.00  0.00     0.009 C 
ATOM     24  C   UNL     1     -17.569  31.245 -10.854  1.00  0.00     0.043 C 
ATOM     25  C   UNL     1     -16.099  30.764 -10.679  1.00  0.00     0.124 C 
ATOM     26  C   UNL     1     -18.182  32.401  -8.697  1.00  0.00     0.015 C 
ATOM     27  C   UNL     1     -20.419  32.394 -10.689  1.00  0.00     0.013 C 
ATOM     28  C   UNL     1     -25.059  28.784  -8.977  1.00  0.00     0.017 C 
ATOM     29  C   UNL     1     -23.075  30.562  -7.267  1.00  0.00     0.012 C 
ATOM     30  C   UNL     1     -14.078  29.499  -5.929  1.00  0.00     0.011 C 
ENDROOT
BRANCH  25  31
ATOM     31  O   UNL     1     -15.317  31.820 -10.169  1.00  0.00    -0.392 OA
ATOM     32  H   UNL     1     -15.873  32.322  -9.516  1.00  0.00     0.210 HD
ENDBRANCH  25  31
BRANCH  18  33
ATOM     33  C   UNL     1     -23.869  27.106 -10.352  1.00  0.00     0.165 C 
BRANCH  33  34
ATOM     34  O   UNL     1     -23.915  26.290  -9.211  1.00  0.00    -0.396 OA
ATOM     35  H   UNL     1     -24.403  25.467  -9.475  1.00  0.00     0.210 HD
ENDBRANCH  33  34
ENDBRANCH  18  33
BRANCH  17  36
ATOM     36  O   UNL     1     -23.365  29.032 -12.299  1.00  0.00    -0.392 OA
ATOM     37  H   UNL     1     -23.974  28.465 -12.844  1.00  0.00     0.210 HD
ENDBRANCH  17  36
TORSDOF 4
ENDMDL
