MODEL 1
REMARK VINA RESULT:    -3.133      0.000      0.000
REMARK INTER + INTRA:          -4.206
REMARK INTER:                  -4.049
REMARK INTRA:                  -0.157
REMARK UNBOUND:                -0.157
REMARK SMILES CCCCCCC(=O)[O-]
REMARK SMILES IDX 5 1 6 2 7 3 8 4 9 5 4 6 3 7 2 8 1 9
REMARK H PARENT
REMARK Flexibility Score: inf
ROOT
ATOM      1  C   UNL     1      86.455  81.876  18.688  1.00  0.00     0.006 C 
ENDROOT
BRANCH   1   2
ATOM      2  C   UNL     1      85.325  82.044  19.709  1.00  0.00     0.053 C 
BRANCH   2   3
ATOM      3  C   UNL     1      83.995  82.022  19.026  1.00  0.00     0.041 C 
ATOM      4  O   UNL     1      83.575  80.961  18.492  1.00  0.00    -0.550 OA
ATOM      5  O   UNL     1      83.240  83.184  18.935  1.00  0.00    -0.550 OA
ENDBRANCH   2   3
ENDBRANCH   1   2
BRANCH   1   6
ATOM      6  C   UNL     1      87.588  81.012  19.259  1.00  0.00     0.000 C 
BRANCH   6   7
ATOM      7  C   UNL     1      88.729  81.845  19.872  1.00  0.00    -0.000 C 
BRANCH   7   8
ATOM      8  C   UNL     1      89.988  81.963  18.994  1.00  0.00    -0.003 C 
ATOM      9  C   UNL     1      90.075  80.875  17.926  1.00  0.00     0.004 C 
ENDBRANCH   7   8
ENDBRANCH   6   7
ENDBRANCH   1   6
TORSDOF 5
ENDMDL
MODEL 2
REMARK VINA RESULT:    -2.869      3.218      5.367
REMARK INTER + INTRA:          -3.865
REMARK INTER:                  -3.720
REMARK INTRA:                  -0.145
REMARK UNBOUND:                -0.157
REMARK SMILES CCCCCCC(=O)[O-]
REMARK SMILES IDX 5 1 6 2 7 3 8 4 9 5 4 6 3 7 2 8 1 9
REMARK H PARENT
REMARK Flexibility Score: inf
ROOT
ATOM      1  C   UNL     1      86.922  82.036  18.926  1.00  0.00     0.006 C 
ENDROOT
BRANCH   1   2
ATOM      2  C   UNL     1      88.011  80.960  18.967  1.00  0.00     0.053 C 
BRANCH   2   3
ATOM      3  C   UNL     1      89.367  81.581  18.851  1.00  0.00     0.041 C 
ATOM      4  O   UNL     1      89.638  82.630  19.493  1.00  0.00    -0.550 OA
ATOM      5  O   UNL     1      90.314  81.030  17.999  1.00  0.00    -0.550 OA
ENDBRANCH   2   3
ENDBRANCH   1   2
BRANCH   1   6
ATOM      6  C   UNL     1      85.941  81.870  20.095  1.00  0.00     0.000 C 
BRANCH   6   7
ATOM      7  C   UNL     1      84.544  81.405  19.645  1.00  0.00    -0.000 C 
BRANCH   7   8
ATOM      8  C   UNL     1      83.386  82.321  20.080  1.00  0.00    -0.003 C 
ATOM      9  C   UNL     1      82.924  83.267  18.974  1.00  0.00     0.004 C 
ENDBRANCH   7   8
ENDBRANCH   6   7
ENDBRANCH   1   6
TORSDOF 5
ENDMDL
MODEL 3
REMARK VINA RESULT:    -2.170      3.357      5.172
REMARK INTER + INTRA:          -2.961
REMARK INTER:                  -2.811
REMARK INTRA:                  -0.151
REMARK UNBOUND:                -0.157
REMARK SMILES CCCCCCC(=O)[O-]
REMARK SMILES IDX 5 1 6 2 7 3 8 4 9 5 4 6 3 7 2 8 1 9
REMARK H PARENT
REMARK Flexibility Score: inf
ROOT
ATOM      1  C   UNL     1      87.235  82.194  19.257  1.00  0.00     0.006 C 
ENDROOT
BRANCH   1   2
ATOM      2  C   UNL     1      88.509  81.951  20.073  1.00  0.00     0.053 C 
BRANCH   2   3
ATOM      3  C   UNL     1      89.675  82.643  19.441  1.00  0.00     0.041 C 
ATOM      4  O   UNL     1      90.651  81.973  19.010  1.00  0.00    -0.550 OA
ATOM      5  O   UNL     1      89.707  84.029  19.373  1.00  0.00    -0.550 OA
ENDBRANCH   2   3
ENDBRANCH   1   2
BRANCH   1   6
ATOM      6  C   UNL     1      86.697  80.879  18.674  1.00  0.00     0.000 C 
BRANCH   6   7
ATOM      7  C   UNL     1      85.195  80.941  18.339  1.00  0.00    -0.000 C 
BRANCH   7   8
ATOM      8  C   UNL     1      84.362  81.841  19.269  1.00  0.00    -0.003 C 
ATOM      9  C   UNL     1      82.875  81.493  19.264  1.00  0.00     0.004 C 
ENDBRANCH   7   8
ENDBRANCH   6   7
ENDBRANCH   1   6
TORSDOF 5
ENDMDL
MODEL 4
REMARK VINA RESULT:    -1.927     21.015     22.459
REMARK INTER + INTRA:          -2.647
REMARK INTER:                  -2.511
REMARK INTRA:                  -0.137
REMARK UNBOUND:                -0.157
REMARK SMILES CCCCCCC(=O)[O-]
REMARK SMILES IDX 5 1 6 2 7 3 8 4 9 5 4 6 3 7 2 8 1 9
REMARK H PARENT
REMARK Flexibility Score: inf
ROOT
ATOM      1  C   UNL     1     101.064  96.132  10.404  1.00  0.00     0.006 C 
ENDROOT
BRANCH   1   2
ATOM      2  C   UNL     1      99.594  96.376  10.759  1.00  0.00     0.053 C 
BRANCH   2   3
ATOM      3  C   UNL     1      99.028  95.197  11.484  1.00  0.00     0.041 C 
ATOM      4  O   UNL     1      98.332  95.365  12.521  1.00  0.00    -0.550 OA
ATOM      5  O   UNL     1      99.307  93.910  11.044  1.00  0.00    -0.550 OA
ENDBRANCH   2   3
ENDBRANCH   1   2
BRANCH   1   6
ATOM      6  C   UNL     1     101.854  97.448  10.398  1.00  0.00     0.000 C 
BRANCH   6   7
ATOM      7  C   UNL     1     100.948  98.693  10.387  1.00  0.00    -0.000 C 
BRANCH   7   8
ATOM      8  C   UNL     1     101.677 100.026  10.631  1.00  0.00    -0.003 C 
ATOM      9  C   UNL     1     101.294 101.110   9.625  1.00  0.00     0.004 C 
ENDBRANCH   7   8
ENDBRANCH   6   7
ENDBRANCH   1   6
TORSDOF 5
ENDMDL
MODEL 5
REMARK VINA RESULT:    -1.842      1.521      2.212
REMARK INTER + INTRA:          -2.537
REMARK INTER:                  -2.213
REMARK INTRA:                  -0.325
REMARK UNBOUND:                -0.157
REMARK SMILES CCCCCCC(=O)[O-]
REMARK SMILES IDX 5 1 6 2 7 3 8 4 9 5 4 6 3 7 2 8 1 9
REMARK H PARENT
REMARK Flexibility Score: inf
ROOT
ATOM      1  C   UNL     1      87.945  83.090  19.453  1.00  0.00     0.006 C 
ENDROOT
BRANCH   1   2
ATOM      2  C   UNL     1      87.191  81.898  20.051  1.00  0.00     0.053 C 
BRANCH   2   3
ATOM      3  C   UNL     1      86.132  81.422  19.109  1.00  0.00     0.041 C 
ATOM      4  O   UNL     1      84.933  81.347  19.490  1.00  0.00    -0.550 OA
ATOM      5  O   UNL     1      86.473  81.014  17.827  1.00  0.00    -0.550 OA
ENDBRANCH   2   3
ENDBRANCH   1   2
BRANCH   1   6
ATOM      6  C   UNL     1      89.457  82.959  19.689  1.00  0.00     0.000 C 
BRANCH   6   7
ATOM      7  C   UNL     1      89.971  81.520  19.502  1.00  0.00    -0.000 C 
BRANCH   7   8
ATOM      8  C   UNL     1      90.737  81.271  18.190  1.00  0.00    -0.003 C 
ATOM      9  C   UNL     1      89.824  80.875  17.031  1.00  0.00     0.004 C 
ENDBRANCH   7   8
ENDBRANCH   6   7
ENDBRANCH   1   6
TORSDOF 5
ENDMDL
MODEL 6
REMARK VINA RESULT:    -1.829     21.799     23.331
REMARK INTER + INTRA:          -2.521
REMARK INTER:                  -2.354
REMARK INTRA:                  -0.167
REMARK UNBOUND:                -0.157
REMARK SMILES CCCCCCC(=O)[O-]
REMARK SMILES IDX 5 1 6 2 7 3 8 4 9 5 4 6 3 7 2 8 1 9
REMARK H PARENT
REMARK Flexibility Score: inf
ROOT
ATOM      1  C   UNL     1     100.963  97.583  10.429  1.00  0.00     0.006 C 
ENDROOT
BRANCH   1   2
ATOM      2  C   UNL     1     102.020  98.628  10.058  1.00  0.00     0.053 C 
BRANCH   2   3
ATOM      3  C   UNL     1     101.509 100.008  10.329  1.00  0.00     0.041 C 
ATOM      4  O   UNL     1     100.313 100.182  10.681  1.00  0.00    -0.550 OA
ATOM      5  O   UNL     1     102.340 101.105  10.145  1.00  0.00    -0.550 OA
ENDBRANCH   2   3
ENDBRANCH   1   2
BRANCH   1   6
ATOM      6  C   UNL     1     101.578  96.177  10.492  1.00  0.00     0.000 C 
BRANCH   6   7
ATOM      7  C   UNL     1     100.520  95.062  10.568  1.00  0.00    -0.000 C 
BRANCH   7   8
ATOM      8  C   UNL     1      99.082  95.550  10.819  1.00  0.00    -0.003 C 
ATOM      9  C   UNL     1      98.569  95.205  12.216  1.00  0.00     0.004 C 
ENDBRANCH   7   8
ENDBRANCH   6   7
ENDBRANCH   1   6
TORSDOF 5
ENDMDL
MODEL 7
REMARK VINA RESULT:    -1.657     21.812     23.351
REMARK INTER + INTRA:          -2.298
REMARK INTER:                  -2.136
REMARK INTRA:                  -0.163
REMARK UNBOUND:                -0.157
REMARK SMILES CCCCCCC(=O)[O-]
REMARK SMILES IDX 5 1 6 2 7 3 8 4 9 5 4 6 3 7 2 8 1 9
REMARK H PARENT
REMARK Flexibility Score: inf
ROOT
ATOM      1  C   UNL     1     100.997  97.628  10.404  1.00  0.00     0.006 C 
ENDROOT
BRANCH   1   2
ATOM      2  C   UNL     1     102.072  98.675  10.099  1.00  0.00     0.053 C 
BRANCH   2   3
ATOM      3  C   UNL     1     101.529 100.055  10.292  1.00  0.00     0.041 C 
ATOM      4  O   UNL     1     102.272 101.057  10.120  1.00  0.00    -0.550 OA
ATOM      5  O   UNL     1     100.216 100.234  10.709  1.00  0.00    -0.550 OA
ENDBRANCH   2   3
ENDBRANCH   1   2
BRANCH   1   6
ATOM      6  C   UNL     1     101.609  96.223  10.501  1.00  0.00     0.000 C 
BRANCH   6   7
ATOM      7  C   UNL     1     100.549  95.108  10.559  1.00  0.00    -0.000 C 
BRANCH   7   8
ATOM      8  C   UNL     1      99.115  95.593  10.840  1.00  0.00    -0.003 C 
ATOM      9  C   UNL     1      98.577  95.119  12.188  1.00  0.00     0.004 C 
ENDBRANCH   7   8
ENDBRANCH   6   7
ENDBRANCH   1   6
TORSDOF 5
ENDMDL
MODEL 8
REMARK VINA RESULT:    -0.582      1.520      2.149
REMARK INTER + INTRA:          -0.909
REMARK INTER:                  -0.744
REMARK INTRA:                  -0.166
REMARK UNBOUND:                -0.157
REMARK SMILES CCCCCCC(=O)[O-]
REMARK SMILES IDX 5 1 6 2 7 3 8 4 9 5 4 6 3 7 2 8 1 9
REMARK H PARENT
REMARK Flexibility Score: inf
ROOT
ATOM      1  C   UNL     1      87.440  80.875  19.968  1.00  0.00     0.006 C 
ENDROOT
BRANCH   1   2
ATOM      2  C   UNL     1      85.947  81.212  20.024  1.00  0.00     0.053 C 
BRANCH   2   3
ATOM      3  C   UNL     1      85.328  81.075  18.670  1.00  0.00     0.041 C 
ATOM      4  O   UNL     1      86.057  80.972  17.648  1.00  0.00    -0.550 OA
ATOM      5  O   UNL     1      83.947  81.109  18.529  1.00  0.00    -0.550 OA
ENDBRANCH   2   3
ENDBRANCH   1   2
BRANCH   1   6
ATOM      6  C   UNL     1      88.296  82.141  20.125  1.00  0.00     0.000 C 
BRANCH   6   7
ATOM      7  C   UNL     1      89.652  82.042  19.403  1.00  0.00    -0.000 C 
BRANCH   7   8
ATOM      8  C   UNL     1      90.271  83.393  19.002  1.00  0.00    -0.003 C 
ATOM      9  C   UNL     1      89.398  84.587  19.381  1.00  0.00     0.004 C 
ENDBRANCH   7   8
ENDBRANCH   6   7
ENDBRANCH   1   6
TORSDOF 5
ENDMDL
