MODEL 1
REMARK VINA RESULT:    -4.295      0.000      0.000
REMARK INTER + INTRA:         -12.830
REMARK INTER:                  -9.316
REMARK INTRA:                  -3.514
REMARK UNBOUND:                -3.514
REMARK SMILES CCCCCCCCCCCCCCCCCCCCCC(=O)[O-]
REMARK SMILES IDX 12 1 11 2 10 3 9 4 8 5 7 6 6 7 5 8 4 9 3 10 2 11 1 12 13 13
REMARK SMILES IDX 14 14 15 15 16 16 17 17 18 18 19 19 20 20 21 21 22 22 23 23
REMARK SMILES IDX 24 24
REMARK H PARENT
REMARK Flexibility Score: inf
ROOT
ATOM      1  C   UNL     1      -9.908   1.758  19.329  1.00  0.00     0.000 C 
ENDROOT
BRANCH   1   2
ATOM      2  C   UNL     1     -11.126   1.546  20.243  1.00  0.00     0.000 C 
BRANCH   2   3
ATOM      3  C   UNL     1     -11.635   2.853  20.872  1.00  0.00     0.000 C 
BRANCH   3   4
ATOM      4  C   UNL     1     -13.109   2.787  21.329  1.00  0.00    -0.000 C 
BRANCH   4   5
ATOM      5  C   UNL     1     -13.237   2.511  22.838  1.00  0.00    -0.000 C 
BRANCH   5   6
ATOM      6  C   UNL     1     -13.741   1.091  23.140  1.00  0.00    -0.000 C 
BRANCH   6   7
ATOM      7  C   UNL     1     -12.606   0.126  23.512  1.00  0.00    -0.000 C 
BRANCH   7   8
ATOM      8  C   UNL     1     -11.626   0.784  24.492  1.00  0.00    -0.000 C 
BRANCH   8   9
ATOM      9  C   UNL     1     -10.299   0.011  24.545  1.00  0.00    -0.000 C 
BRANCH   9  10
ATOM     10  C   UNL     1      -9.299   0.460  23.465  1.00  0.00    -0.000 C 
BRANCH  10  11
ATOM     11  C   UNL     1      -8.489  -0.677  22.818  1.00  0.00    -0.003 C 
ATOM     12  C   UNL     1      -9.110  -1.189  21.519  1.00  0.00     0.004 C 
ENDBRANCH  10  11
ENDBRANCH   9  10
ENDBRANCH   8   9
ENDBRANCH   7   8
ENDBRANCH   6   7
ENDBRANCH   5   6
ENDBRANCH   4   5
ENDBRANCH   3   4
ENDBRANCH   2   3
ENDBRANCH   1   2
BRANCH   1  13
ATOM     13  C   UNL     1      -9.233   3.125  19.541  1.00  0.00     0.000 C 
BRANCH  13  14
ATOM     14  C   UNL     1      -8.480   3.680  18.314  1.00  0.00     0.000 C 
BRANCH  14  15
ATOM     15  C   UNL     1      -9.213   4.797  17.544  1.00  0.00     0.000 C 
BRANCH  15  16
ATOM     16  C   UNL     1     -10.635   5.111  18.044  1.00  0.00     0.000 C 
BRANCH  16  17
ATOM     17  C   UNL     1     -11.712   4.848  16.978  1.00  0.00     0.000 C 
BRANCH  17  18
ATOM     18  C   UNL     1     -12.612   3.645  17.316  1.00  0.00     0.000 C 
BRANCH  18  19
ATOM     19  C   UNL     1     -12.227   2.323  16.627  1.00  0.00     0.000 C 
BRANCH  19  20
ATOM     20  C   UNL     1     -11.122   2.495  15.570  1.00  0.00     0.006 C 
BRANCH  20  21
ATOM     21  C   UNL     1     -10.110   1.341  15.596  1.00  0.00     0.053 C 
BRANCH  21  22
ATOM     22  C   UNL     1     -10.188   0.507  14.354  1.00  0.00     0.041 C 
ATOM     23  O   UNL     1      -9.148   0.260  13.690  1.00  0.00    -0.550 OA
ATOM     24  O   UNL     1     -11.402  -0.039  13.957  1.00  0.00    -0.550 OA
ENDBRANCH  21  22
ENDBRANCH  20  21
ENDBRANCH  19  20
ENDBRANCH  18  19
ENDBRANCH  17  18
ENDBRANCH  16  17
ENDBRANCH  15  16
ENDBRANCH  14  15
ENDBRANCH  13  14
ENDBRANCH   1  13
TORSDOF 20
ENDMDL
MODEL 2
REMARK VINA RESULT:    -4.244      1.413      3.096
REMARK INTER + INTRA:         -12.720
REMARK INTER:                  -8.904
REMARK INTRA:                  -3.816
REMARK UNBOUND:                -3.514
REMARK SMILES CCCCCCCCCCCCCCCCCCCCCC(=O)[O-]
REMARK SMILES IDX 12 1 11 2 10 3 9 4 8 5 7 6 6 7 5 8 4 9 3 10 2 11 1 12 13 13
REMARK SMILES IDX 14 14 15 15 16 16 17 17 18 18 19 19 20 20 21 21 22 22 23 23
REMARK SMILES IDX 24 24
REMARK H PARENT
REMARK Flexibility Score: inf
ROOT
ATOM      1  C   UNL     1     -12.918   3.924  22.012  1.00  0.00     0.000 C 
ENDROOT
BRANCH   1   2
ATOM      2  C   UNL     1     -11.613   4.483  22.602  1.00  0.00     0.000 C 
BRANCH   2   3
ATOM      3  C   UNL     1     -10.547   4.768  21.532  1.00  0.00     0.000 C 
BRANCH   3   4
ATOM      4  C   UNL     1      -9.595   3.581  21.276  1.00  0.00    -0.000 C 
BRANCH   4   5
ATOM      5  C   UNL     1      -9.677   3.074  19.824  1.00  0.00    -0.000 C 
BRANCH   5   6
ATOM      6  C   UNL     1      -9.962   1.567  19.738  1.00  0.00    -0.000 C 
BRANCH   6   7
ATOM      7  C   UNL     1     -11.341   1.191  20.298  1.00  0.00    -0.000 C 
BRANCH   7   8
ATOM      8  C   UNL     1     -11.240  -0.009  21.247  1.00  0.00    -0.000 C 
BRANCH   8   9
ATOM      9  C   UNL     1     -11.471   0.421  22.704  1.00  0.00    -0.000 C 
BRANCH   9  10
ATOM     10  C   UNL     1     -10.186   0.910  23.396  1.00  0.00    -0.000 C 
BRANCH  10  11
ATOM     11  C   UNL     1      -9.335  -0.198  24.042  1.00  0.00    -0.003 C 
ATOM     12  C   UNL     1      -8.291  -0.780  23.090  1.00  0.00     0.004 C 
ENDBRANCH  10  11
ENDBRANCH   9  10
ENDBRANCH   8   9
ENDBRANCH   7   8
ENDBRANCH   6   7
ENDBRANCH   5   6
ENDBRANCH   4   5
ENDBRANCH   3   4
ENDBRANCH   2   3
ENDBRANCH   1   2
BRANCH   1  13
ATOM     13  C   UNL     1     -13.378   4.681  20.753  1.00  0.00     0.000 C 
BRANCH  13  14
ATOM     14  C   UNL     1     -13.814   3.787  19.574  1.00  0.00     0.000 C 
BRANCH  14  15
ATOM     15  C   UNL     1     -13.034   4.004  18.261  1.00  0.00     0.000 C 
BRANCH  15  16
ATOM     16  C   UNL     1     -12.148   5.263  18.228  1.00  0.00     0.000 C 
BRANCH  16  17
ATOM     17  C   UNL     1     -11.047   5.187  17.157  1.00  0.00     0.000 C 
BRANCH  17  18
ATOM     18  C   UNL     1     -11.281   4.062  16.131  1.00  0.00     0.000 C 
BRANCH  18  19
ATOM     19  C   UNL     1     -10.081   3.126  15.899  1.00  0.00     0.000 C 
BRANCH  19  20
ATOM     20  C   UNL     1     -10.433   1.639  16.088  1.00  0.00     0.006 C 
BRANCH  20  21
ATOM     21  C   UNL     1     -11.864   1.320  15.632  1.00  0.00     0.053 C 
BRANCH  21  22
ATOM     22  C   UNL     1     -11.878   0.364  14.479  1.00  0.00     0.041 C 
ATOM     23  O   UNL     1     -10.911   0.329  13.673  1.00  0.00    -0.550 OA
ATOM     24  O   UNL     1     -12.935  -0.523  14.323  1.00  0.00    -0.550 OA
ENDBRANCH  21  22
ENDBRANCH  20  21
ENDBRANCH  19  20
ENDBRANCH  18  19
ENDBRANCH  17  18
ENDBRANCH  16  17
ENDBRANCH  15  16
ENDBRANCH  14  15
ENDBRANCH  13  14
ENDBRANCH   1  13
TORSDOF 20
ENDMDL
MODEL 3
REMARK VINA RESULT:    -4.174      1.025      4.269
REMARK INTER + INTRA:         -12.568
REMARK INTER:                  -9.881
REMARK INTRA:                  -2.687
REMARK UNBOUND:                -3.514
REMARK SMILES CCCCCCCCCCCCCCCCCCCCCC(=O)[O-]
REMARK SMILES IDX 12 1 11 2 10 3 9 4 8 5 7 6 6 7 5 8 4 9 3 10 2 11 1 12 13 13
REMARK SMILES IDX 14 14 15 15 16 16 17 17 18 18 19 19 20 20 21 21 22 22 23 23
REMARK SMILES IDX 24 24
REMARK H PARENT
REMARK Flexibility Score: inf
ROOT
ATOM      1  C   UNL     1     -12.268   0.774  23.250  1.00  0.00     0.000 C 
ENDROOT
BRANCH   1   2
ATOM      2  C   UNL     1     -11.476   0.695  24.566  1.00  0.00     0.000 C 
BRANCH   2   3
ATOM      3  C   UNL     1     -10.118  -0.007  24.403  1.00  0.00     0.000 C 
BRANCH   3   4
ATOM      4  C   UNL     1      -9.368   0.388  23.113  1.00  0.00    -0.000 C 
BRANCH   4   5
ATOM      5  C   UNL     1      -8.765  -0.834  22.397  1.00  0.00    -0.000 C 
BRANCH   5   6
ATOM      6  C   UNL     1      -9.070  -0.849  20.891  1.00  0.00    -0.000 C 
BRANCH   6   7
ATOM      7  C   UNL     1     -10.082   0.230  20.481  1.00  0.00    -0.000 C 
BRANCH   7   8
ATOM      8  C   UNL     1      -9.474   1.188  19.449  1.00  0.00    -0.000 C 
BRANCH   8   9
ATOM      9  C   UNL     1      -9.410   2.622  19.999  1.00  0.00    -0.000 C 
BRANCH   9  10
ATOM     10  C   UNL     1      -8.714   3.603  19.039  1.00  0.00    -0.000 C 
BRANCH  10  11
ATOM     11  C   UNL     1      -7.594   4.446  19.674  1.00  0.00    -0.003 C 
ATOM     12  C   UNL     1      -6.271   4.349  18.916  1.00  0.00     0.004 C 
ENDBRANCH  10  11
ENDBRANCH   9  10
ENDBRANCH   8   9
ENDBRANCH   7   8
ENDBRANCH   6   7
ENDBRANCH   5   6
ENDBRANCH   4   5
ENDBRANCH   3   4
ENDBRANCH   2   3
ENDBRANCH   1   2
BRANCH   1  13
ATOM     13  C   UNL     1     -12.724   2.205  22.912  1.00  0.00     0.000 C 
BRANCH  13  14
ATOM     14  C   UNL     1     -12.896   2.499  21.407  1.00  0.00     0.000 C 
BRANCH  14  15
ATOM     15  C   UNL     1     -13.391   3.919  21.068  1.00  0.00     0.000 C 
BRANCH  15  16
ATOM     16  C   UNL     1     -13.098   4.387  19.630  1.00  0.00     0.000 C 
BRANCH  16  17
ATOM     17  C   UNL     1     -12.660   3.237  18.709  1.00  0.00     0.000 C 
BRANCH  17  18
ATOM     18  C   UNL     1     -12.825   3.566  17.214  1.00  0.00     0.000 C 
BRANCH  18  19
ATOM     19  C   UNL     1     -12.383   2.455  16.244  1.00  0.00     0.000 C 
BRANCH  19  20
ATOM     20  C   UNL     1     -10.926   2.613  15.774  1.00  0.00     0.006 C 
BRANCH  20  21
ATOM     21  C   UNL     1     -10.162   1.280  15.796  1.00  0.00     0.053 C 
BRANCH  21  22
ATOM     22  C   UNL     1     -10.196   0.600  14.461  1.00  0.00     0.041 C 
ATOM     23  O   UNL     1      -9.176   0.600  13.724  1.00  0.00    -0.550 OA
ATOM     24  O   UNL     1     -11.339  -0.076  14.054  1.00  0.00    -0.550 OA
ENDBRANCH  21  22
ENDBRANCH  20  21
ENDBRANCH  19  20
ENDBRANCH  18  19
ENDBRANCH  17  18
ENDBRANCH  16  17
ENDBRANCH  15  16
ENDBRANCH  14  15
ENDBRANCH  13  14
ENDBRANCH   1  13
TORSDOF 20
ENDMDL
MODEL 4
REMARK VINA RESULT:    -4.109      3.383      6.853
REMARK INTER + INTRA:         -12.428
REMARK INTER:                  -8.960
REMARK INTRA:                  -3.467
REMARK UNBOUND:                -3.514
REMARK SMILES CCCCCCCCCCCCCCCCCCCCCC(=O)[O-]
REMARK SMILES IDX 12 1 11 2 10 3 9 4 8 5 7 6 6 7 5 8 4 9 3 10 2 11 1 12 13 13
REMARK SMILES IDX 14 14 15 15 16 16 17 17 18 18 19 19 20 20 21 21 22 22 23 23
REMARK SMILES IDX 24 24
REMARK H PARENT
REMARK Flexibility Score: inf
ROOT
ATOM      1  C   UNL     1     -12.273   2.495  21.955  1.00  0.00     0.000 C 
ENDROOT
BRANCH   1   2
ATOM      2  C   UNL     1     -13.456   3.156  21.228  1.00  0.00     0.000 C 
BRANCH   2   3
ATOM      3  C   UNL     1     -13.320   4.684  21.132  1.00  0.00     0.000 C 
BRANCH   3   4
ATOM      4  C   UNL     1     -13.124   5.198  19.689  1.00  0.00    -0.000 C 
BRANCH   4   5
ATOM      5  C   UNL     1     -13.142   4.054  18.659  1.00  0.00    -0.000 C 
BRANCH   5   6
ATOM      6  C   UNL     1     -12.311   4.372  17.405  1.00  0.00    -0.000 C 
BRANCH   6   7
ATOM      7  C   UNL     1     -11.920   3.113  16.619  1.00  0.00    -0.000 C 
BRANCH   7   8
ATOM      8  C   UNL     1     -10.521   3.260  16.009  1.00  0.00    -0.000 C 
BRANCH   8   9
ATOM      9  C   UNL     1     -10.111   1.984  15.257  1.00  0.00    -0.000 C 
BRANCH   9  10
ATOM     10  C   UNL     1     -11.229   0.926  15.218  1.00  0.00    -0.000 C 
BRANCH  10  11
ATOM     11  C   UNL     1     -11.353   0.164  13.886  1.00  0.00    -0.003 C 
ATOM     12  C   UNL     1     -12.680  -0.579  13.745  1.00  0.00     0.004 C 
ENDBRANCH  10  11
ENDBRANCH   9  10
ENDBRANCH   8   9
ENDBRANCH   7   8
ENDBRANCH   6   7
ENDBRANCH   5   6
ENDBRANCH   4   5
ENDBRANCH   3   4
ENDBRANCH   2   3
ENDBRANCH   1   2
BRANCH   1  13
ATOM     13  C   UNL     1     -11.198   3.507  22.390  1.00  0.00     0.000 C 
BRANCH  13  14
ATOM     14  C   UNL     1      -9.826   3.340  21.707  1.00  0.00     0.000 C 
BRANCH  14  15
ATOM     15  C   UNL     1      -9.778   3.746  20.220  1.00  0.00     0.000 C 
BRANCH  15  16
ATOM     16  C   UNL     1      -9.168   2.695  19.275  1.00  0.00     0.000 C 
BRANCH  16  17
ATOM     17  C   UNL     1      -9.875   1.333  19.366  1.00  0.00     0.000 C 
BRANCH  17  18
ATOM     18  C   UNL     1      -8.902   0.142  19.288  1.00  0.00     0.000 C 
BRANCH  18  19
ATOM     19  C   UNL     1      -9.077  -0.921  20.387  1.00  0.00     0.000 C 
BRANCH  19  20
ATOM     20  C   UNL     1      -9.851  -0.399  21.611  1.00  0.00     0.006 C 
BRANCH  20  21
ATOM     21  C   UNL     1      -8.971  -0.328  22.867  1.00  0.00     0.053 C 
BRANCH  21  22
ATOM     22  C   UNL     1      -9.642   0.430  23.972  1.00  0.00     0.041 C 
ATOM     23  O   UNL     1     -10.843   0.192  24.264  1.00  0.00    -0.550 OA
ATOM     24  O   UNL     1      -8.926   1.362  24.711  1.00  0.00    -0.550 OA
ENDBRANCH  21  22
ENDBRANCH  20  21
ENDBRANCH  19  20
ENDBRANCH  18  19
ENDBRANCH  17  18
ENDBRANCH  16  17
ENDBRANCH  15  16
ENDBRANCH  14  15
ENDBRANCH  13  14
ENDBRANCH   1  13
TORSDOF 20
ENDMDL
MODEL 5
REMARK VINA RESULT:    -4.101      1.944      5.061
REMARK INTER + INTRA:         -12.410
REMARK INTER:                  -9.105
REMARK INTRA:                  -3.305
REMARK UNBOUND:                -3.514
REMARK SMILES CCCCCCCCCCCCCCCCCCCCCC(=O)[O-]
REMARK SMILES IDX 12 1 11 2 10 3 9 4 8 5 7 6 6 7 5 8 4 9 3 10 2 11 1 12 13 13
REMARK SMILES IDX 14 14 15 15 16 16 17 17 18 18 19 19 20 20 21 21 22 22 23 23
REMARK SMILES IDX 24 24
REMARK H PARENT
REMARK Flexibility Score: inf
ROOT
ATOM      1  C   UNL     1     -10.210   2.200  21.773  1.00  0.00     0.000 C 
ENDROOT
BRANCH   1   2
ATOM      2  C   UNL     1     -10.693   1.183  20.726  1.00  0.00     0.000 C 
BRANCH   2   3
ATOM      3  C   UNL     1     -10.478   1.664  19.282  1.00  0.00     0.000 C 
BRANCH   3   4
ATOM      4  C   UNL     1      -9.029   1.488  18.780  1.00  0.00    -0.000 C 
BRANCH   4   5
ATOM      5  C   UNL     1      -8.292   2.834  18.652  1.00  0.00    -0.000 C 
BRANCH   5   6
ATOM      6  C   UNL     1      -9.152   3.919  17.986  1.00  0.00    -0.000 C 
BRANCH   6   7
ATOM      7  C   UNL     1      -8.693   5.340  18.344  1.00  0.00    -0.000 C 
BRANCH   7   8
ATOM      8  C   UNL     1      -8.019   5.369  19.721  1.00  0.00    -0.000 C 
BRANCH   8   9
ATOM      9  C   UNL     1      -6.705   6.165  19.674  1.00  0.00    -0.000 C 
BRANCH   9  10
ATOM     10  C   UNL     1      -5.499   5.363  20.195  1.00  0.00    -0.000 C 
BRANCH  10  11
ATOM     11  C   UNL     1      -4.395   5.105  19.154  1.00  0.00    -0.003 C 
ATOM     12  C   UNL     1      -4.652   3.860  18.307  1.00  0.00     0.004 C 
ENDBRANCH  10  11
ENDBRANCH   9  10
ENDBRANCH   8   9
ENDBRANCH   7   8
ENDBRANCH   6   7
ENDBRANCH   5   6
ENDBRANCH   4   5
ENDBRANCH   3   4
ENDBRANCH   2   3
ENDBRANCH   1   2
BRANCH   1  13
ATOM     13  C   UNL     1     -11.298   3.216  22.166  1.00  0.00     0.000 C 
BRANCH  13  14
ATOM     14  C   UNL     1     -12.749   2.724  21.986  1.00  0.00     0.000 C 
BRANCH  14  15
ATOM     15  C   UNL     1     -13.537   3.405  20.849  1.00  0.00     0.000 C 
BRANCH  15  16
ATOM     16  C   UNL     1     -13.029   4.801  20.447  1.00  0.00     0.000 C 
BRANCH  16  17
ATOM     17  C   UNL     1     -12.557   4.864  18.985  1.00  0.00     0.000 C 
BRANCH  17  18
ATOM     18  C   UNL     1     -13.163   3.752  18.108  1.00  0.00     0.000 C 
BRANCH  18  19
ATOM     19  C   UNL     1     -12.550   3.618  16.702  1.00  0.00     0.000 C 
BRANCH  19  20
ATOM     20  C   UNL     1     -12.430   2.157  16.235  1.00  0.00     0.006 C 
BRANCH  20  21
ATOM     21  C   UNL     1     -11.064   1.862  15.599  1.00  0.00     0.053 C 
BRANCH  21  22
ATOM     22  C   UNL     1     -11.142   0.733  14.617  1.00  0.00     0.041 C 
ATOM     23  O   UNL     1     -12.257   0.244  14.301  1.00  0.00    -0.550 OA
ATOM     24  O   UNL     1      -9.986   0.255  14.013  1.00  0.00    -0.550 OA
ENDBRANCH  21  22
ENDBRANCH  20  21
ENDBRANCH  19  20
ENDBRANCH  18  19
ENDBRANCH  17  18
ENDBRANCH  16  17
ENDBRANCH  15  16
ENDBRANCH  14  15
ENDBRANCH  13  14
ENDBRANCH   1  13
TORSDOF 20
ENDMDL
MODEL 6
REMARK VINA RESULT:    -4.092      1.076      3.377
REMARK INTER + INTRA:         -12.391
REMARK INTER:                  -9.557
REMARK INTRA:                  -2.834
REMARK UNBOUND:                -3.514
REMARK SMILES CCCCCCCCCCCCCCCCCCCCCC(=O)[O-]
REMARK SMILES IDX 12 1 11 2 10 3 9 4 8 5 7 6 6 7 5 8 4 9 3 10 2 11 1 12 13 13
REMARK SMILES IDX 14 14 15 15 16 16 17 17 18 18 19 19 20 20 21 21 22 22 23 23
REMARK SMILES IDX 24 24
REMARK H PARENT
REMARK Flexibility Score: inf
ROOT
ATOM      1  C   UNL     1      -9.030  -0.217  19.873  1.00  0.00     0.000 C 
ENDROOT
BRANCH   1   2
ATOM      2  C   UNL     1      -9.514  -0.930  21.146  1.00  0.00     0.000 C 
BRANCH   2   3
ATOM      3  C   UNL     1      -8.388  -1.162  22.166  1.00  0.00     0.000 C 
BRANCH   3   4
ATOM      4  C   UNL     1      -8.572  -0.374  23.481  1.00  0.00    -0.000 C 
BRANCH   4   5
ATOM      5  C   UNL     1      -9.879   0.440  23.491  1.00  0.00    -0.000 C 
BRANCH   5   6
ATOM      6  C   UNL     1      -9.634   1.954  23.398  1.00  0.00    -0.000 C 
BRANCH   6   7
ATOM      7  C   UNL     1     -10.679   2.772  24.171  1.00  0.00    -0.000 C 
BRANCH   7   8
ATOM      8  C   UNL     1     -12.077   2.160  24.017  1.00  0.00    -0.000 C 
BRANCH   8   9
ATOM      9  C   UNL     1     -12.901   2.927  22.971  1.00  0.00    -0.000 C 
BRANCH   9  10
ATOM     10  C   UNL     1     -12.847   2.281  21.575  1.00  0.00    -0.000 C 
BRANCH  10  11
ATOM     11  C   UNL     1     -12.554   3.257  20.421  1.00  0.00    -0.003 C 
ATOM     12  C   UNL     1     -13.776   4.072  20.002  1.00  0.00     0.004 C 
ENDBRANCH  10  11
ENDBRANCH   9  10
ENDBRANCH   8   9
ENDBRANCH   7   8
ENDBRANCH   6   7
ENDBRANCH   5   6
ENDBRANCH   4   5
ENDBRANCH   3   4
ENDBRANCH   2   3
ENDBRANCH   1   2
BRANCH   1  13
ATOM     13  C   UNL     1      -9.636   1.188  19.707  1.00  0.00     0.000 C 
BRANCH  13  14
ATOM     14  C   UNL     1      -9.265   1.910  18.395  1.00  0.00     0.000 C 
BRANCH  14  15
ATOM     15  C   UNL     1      -8.728   3.346  18.564  1.00  0.00     0.000 C 
BRANCH  15  16
ATOM     16  C   UNL     1      -9.215   4.354  17.507  1.00  0.00     0.000 C 
BRANCH  16  17
ATOM     17  C   UNL     1     -10.732   4.598  17.573  1.00  0.00     0.000 C 
BRANCH  17  18
ATOM     18  C   UNL     1     -11.485   4.045  16.349  1.00  0.00     0.000 C 
BRANCH  18  19
ATOM     19  C   UNL     1     -12.513   2.941  16.656  1.00  0.00     0.000 C 
BRANCH  19  20
ATOM     20  C   UNL     1     -12.197   1.611  15.949  1.00  0.00     0.006 C 
BRANCH  20  21
ATOM     21  C   UNL     1     -10.844   1.648  15.224  1.00  0.00     0.053 C 
BRANCH  21  22
ATOM     22  C   UNL     1     -10.690   0.493  14.281  1.00  0.00     0.041 C 
ATOM     23  O   UNL     1      -9.545   0.048  14.007  1.00  0.00    -0.550 OA
ATOM     24  O   UNL     1     -11.813  -0.122  13.744  1.00  0.00    -0.550 OA
ENDBRANCH  21  22
ENDBRANCH  20  21
ENDBRANCH  19  20
ENDBRANCH  18  19
ENDBRANCH  17  18
ENDBRANCH  16  17
ENDBRANCH  15  16
ENDBRANCH  14  15
ENDBRANCH  13  14
ENDBRANCH   1  13
TORSDOF 20
ENDMDL
MODEL 7
REMARK VINA RESULT:    -4.052      2.602      6.108
REMARK INTER + INTRA:         -12.303
REMARK INTER:                  -8.561
REMARK INTRA:                  -3.742
REMARK UNBOUND:                -3.514
REMARK SMILES CCCCCCCCCCCCCCCCCCCCCC(=O)[O-]
REMARK SMILES IDX 12 1 11 2 10 3 9 4 8 5 7 6 6 7 5 8 4 9 3 10 2 11 1 12 13 13
REMARK SMILES IDX 14 14 15 15 16 16 17 17 18 18 19 19 20 20 21 21 22 22 23 23
REMARK SMILES IDX 24 24
REMARK H PARENT
REMARK Flexibility Score: inf
ROOT
ATOM      1  C   UNL     1     -10.142   2.783  23.365  1.00  0.00     0.000 C 
ENDROOT
BRANCH   1   2
ATOM      2  C   UNL     1     -11.611   2.389  23.588  1.00  0.00     0.000 C 
BRANCH   2   3
ATOM      3  C   UNL     1     -12.598   3.460  23.096  1.00  0.00     0.000 C 
BRANCH   3   4
ATOM      4  C   UNL     1     -12.355   3.901  21.637  1.00  0.00    -0.000 C 
BRANCH   4   5
ATOM      5  C   UNL     1     -13.432   3.357  20.680  1.00  0.00    -0.000 C 
BRANCH   5   6
ATOM      6  C   UNL     1     -13.549   4.180  19.388  1.00  0.00    -0.000 C 
BRANCH   6   7
ATOM      7  C   UNL     1     -12.201   4.755  18.929  1.00  0.00    -0.000 C 
BRANCH   7   8
ATOM      8  C   UNL     1     -11.968   4.483  17.438  1.00  0.00    -0.000 C 
BRANCH   8   9
ATOM      9  C   UNL     1     -12.823   3.302  16.954  1.00  0.00    -0.000 C 
BRANCH   9  10
ATOM     10  C   UNL     1     -11.992   2.195  16.280  1.00  0.00    -0.000 C 
BRANCH  10  11
ATOM     11  C   UNL     1     -10.660   2.666  15.670  1.00  0.00    -0.003 C 
ATOM     12  C   UNL     1      -9.724   1.511  15.315  1.00  0.00     0.004 C 
ENDBRANCH  10  11
ENDBRANCH   9  10
ENDBRANCH   8   9
ENDBRANCH   7   8
ENDBRANCH   6   7
ENDBRANCH   5   6
ENDBRANCH   4   5
ENDBRANCH   3   4
ENDBRANCH   2   3
ENDBRANCH   1   2
BRANCH   1  13
ATOM     13  C   UNL     1      -9.153   1.706  23.848  1.00  0.00     0.000 C 
BRANCH  13  14
ATOM     14  C   UNL     1      -9.646   0.252  23.703  1.00  0.00     0.000 C 
BRANCH  14  15
ATOM     15  C   UNL     1      -8.764  -0.656  22.822  1.00  0.00     0.000 C 
BRANCH  15  16
ATOM     16  C   UNL     1      -9.153  -0.698  21.333  1.00  0.00     0.000 C 
BRANCH  16  17
ATOM     17  C   UNL     1     -10.553  -0.119  21.067  1.00  0.00     0.000 C 
BRANCH  17  18
ATOM     18  C   UNL     1     -10.531   1.099  20.124  1.00  0.00     0.000 C 
BRANCH  18  19
ATOM     19  C   UNL     1      -9.477   1.041  19.003  1.00  0.00     0.000 C 
BRANCH  19  20
ATOM     20  C   UNL     1      -8.675   2.348  18.864  1.00  0.00     0.006 C 
BRANCH  20  21
ATOM     21  C   UNL     1      -9.132   3.417  19.867  1.00  0.00     0.053 C 
BRANCH  21  22
ATOM     22  C   UNL     1      -8.368   4.695  19.700  1.00  0.00     0.041 C 
ATOM     23  O   UNL     1      -8.604   5.452  18.722  1.00  0.00    -0.550 OA
ATOM     24  O   UNL     1      -7.430   5.075  20.652  1.00  0.00    -0.550 OA
ENDBRANCH  21  22
ENDBRANCH  20  21
ENDBRANCH  19  20
ENDBRANCH  18  19
ENDBRANCH  17  18
ENDBRANCH  16  17
ENDBRANCH  15  16
ENDBRANCH  14  15
ENDBRANCH  13  14
ENDBRANCH   1  13
TORSDOF 20
ENDMDL
MODEL 8
REMARK VINA RESULT:    -4.011      2.998      6.464
REMARK INTER + INTRA:         -12.215
REMARK INTER:                  -9.250
REMARK INTRA:                  -2.966
REMARK UNBOUND:                -3.514
REMARK SMILES CCCCCCCCCCCCCCCCCCCCCC(=O)[O-]
REMARK SMILES IDX 12 1 11 2 10 3 9 4 8 5 7 6 6 7 5 8 4 9 3 10 2 11 1 12 13 13
REMARK SMILES IDX 14 14 15 15 16 16 17 17 18 18 19 19 20 20 21 21 22 22 23 23
REMARK SMILES IDX 24 24
REMARK H PARENT
REMARK Flexibility Score: inf
ROOT
ATOM      1  C   UNL     1     -13.523   1.807  22.986  1.00  0.00     0.000 C 
ENDROOT
BRANCH   1   2
ATOM      2  C   UNL     1     -13.599   2.472  21.602  1.00  0.00     0.000 C 
BRANCH   2   3
ATOM      3  C   UNL     1     -12.947   3.863  21.571  1.00  0.00     0.000 C 
BRANCH   3   4
ATOM      4  C   UNL     1     -13.305   4.687  20.315  1.00  0.00    -0.000 C 
BRANCH   4   5
ATOM      5  C   UNL     1     -12.052   5.192  19.577  1.00  0.00    -0.000 C 
BRANCH   5   6
ATOM      6  C   UNL     1     -12.024   4.771  18.099  1.00  0.00    -0.000 C 
BRANCH   6   7
ATOM      7  C   UNL     1     -12.816   3.482  17.836  1.00  0.00    -0.000 C 
BRANCH   7   8
ATOM      8  C   UNL     1     -12.300   2.767  16.582  1.00  0.00    -0.000 C 
BRANCH   8   9
ATOM      9  C   UNL     1     -11.143   3.548  15.940  1.00  0.00    -0.000 C 
BRANCH   9  10
ATOM     10  C   UNL     1      -9.872   2.699  15.761  1.00  0.00    -0.000 C 
BRANCH  10  11
ATOM     11  C   UNL     1     -10.121   1.194  15.558  1.00  0.00    -0.003 C 
ATOM     12  C   UNL     1     -10.155   0.787  14.086  1.00  0.00     0.004 C 
ENDBRANCH  10  11
ENDBRANCH   9  10
ENDBRANCH   8   9
ENDBRANCH   7   8
ENDBRANCH   6   7
ENDBRANCH   5   6
ENDBRANCH   4   5
ENDBRANCH   3   4
ENDBRANCH   2   3
ENDBRANCH   1   2
BRANCH   1  13
ATOM     13  C   UNL     1     -12.282   0.912  23.153  1.00  0.00     0.000 C 
BRANCH  13  14
ATOM     14  C   UNL     1     -11.802   0.212  21.865  1.00  0.00     0.000 C 
BRANCH  14  15
ATOM     15  C   UNL     1     -10.506   0.780  21.252  1.00  0.00     0.000 C 
BRANCH  15  16
ATOM     16  C   UNL     1     -10.637   1.297  19.808  1.00  0.00     0.000 C 
BRANCH  16  17
ATOM     17  C   UNL     1      -9.287   1.710  19.199  1.00  0.00     0.000 C 
BRANCH  17  18
ATOM     18  C   UNL     1      -8.937   3.188  19.456  1.00  0.00     0.000 C 
BRANCH  18  19
ATOM     19  C   UNL     1      -7.820   3.762  18.565  1.00  0.00     0.000 C 
BRANCH  19  20
ATOM     20  C   UNL     1      -6.824   4.641  19.342  1.00  0.00     0.006 C 
BRANCH  20  21
ATOM     21  C   UNL     1      -5.370   4.374  18.926  1.00  0.00     0.053 C 
BRANCH  21  22
ATOM     22  C   UNL     1      -4.710   5.610  18.394  1.00  0.00     0.041 C 
ATOM     23  O   UNL     1      -4.952   6.002  17.222  1.00  0.00    -0.550 OA
ATOM     24  O   UNL     1      -3.868   6.355  19.209  1.00  0.00    -0.550 OA
ENDBRANCH  21  22
ENDBRANCH  20  21
ENDBRANCH  19  20
ENDBRANCH  18  19
ENDBRANCH  17  18
ENDBRANCH  16  17
ENDBRANCH  15  16
ENDBRANCH  14  15
ENDBRANCH  13  14
ENDBRANCH   1  13
TORSDOF 20
ENDMDL
MODEL 9
REMARK VINA RESULT:    -3.980      2.651      4.510
REMARK INTER + INTRA:         -12.148
REMARK INTER:                  -8.325
REMARK INTRA:                  -3.822
REMARK UNBOUND:                -3.514
REMARK SMILES CCCCCCCCCCCCCCCCCCCCCC(=O)[O-]
REMARK SMILES IDX 12 1 11 2 10 3 9 4 8 5 7 6 6 7 5 8 4 9 3 10 2 11 1 12 13 13
REMARK SMILES IDX 14 14 15 15 16 16 17 17 18 18 19 19 20 20 21 21 22 22 23 23
REMARK SMILES IDX 24 24
REMARK H PARENT
REMARK Flexibility Score: inf
ROOT
ATOM      1  C   UNL     1     -10.740   0.106  21.088  1.00  0.00     0.000 C 
ENDROOT
BRANCH   1   2
ATOM      2  C   UNL     1      -9.368  -0.528  20.804  1.00  0.00     0.000 C 
BRANCH   2   3
ATOM      3  C   UNL     1      -8.755  -1.202  22.042  1.00  0.00     0.000 C 
BRANCH   3   4
ATOM      4  C   UNL     1      -8.387  -0.211  23.168  1.00  0.00    -0.000 C 
BRANCH   4   5
ATOM      5  C   UNL     1      -9.317  -0.348  24.387  1.00  0.00    -0.000 C 
BRANCH   5   6
ATOM      6  C   UNL     1      -9.685   1.009  25.007  1.00  0.00    -0.000 C 
BRANCH   6   7
ATOM      7  C   UNL     1      -9.335   2.193  24.093  1.00  0.00    -0.000 C 
BRANCH   7   8
ATOM      8  C   UNL     1     -10.451   3.244  24.106  1.00  0.00    -0.000 C 
BRANCH   8   9
ATOM      9  C   UNL     1     -11.811   2.600  24.416  1.00  0.00    -0.000 C 
BRANCH   9  10
ATOM     10  C   UNL     1     -12.793   2.673  23.232  1.00  0.00    -0.000 C 
BRANCH  10  11
ATOM     11  C   UNL     1     -13.627   1.400  23.003  1.00  0.00    -0.003 C 
ATOM     12  C   UNL     1     -13.170   0.223  23.863  1.00  0.00     0.004 C 
ENDBRANCH  10  11
ENDBRANCH   9  10
ENDBRANCH   8   9
ENDBRANCH   7   8
ENDBRANCH   6   7
ENDBRANCH   5   6
ENDBRANCH   4   5
ENDBRANCH   3   4
ENDBRANCH   2   3
ENDBRANCH   1   2
BRANCH   1  13
ATOM     13  C   UNL     1     -10.987   1.388  20.273  1.00  0.00     0.000 C 
BRANCH  13  14
ATOM     14  C   UNL     1      -9.945   2.507  20.481  1.00  0.00     0.000 C 
BRANCH  14  15
ATOM     15  C   UNL     1      -9.259   3.013  19.196  1.00  0.00     0.000 C 
BRANCH  15  16
ATOM     16  C   UNL     1      -9.292   2.033  18.009  1.00  0.00     0.000 C 
BRANCH  16  17
ATOM     17  C   UNL     1      -9.899   2.656  16.741  1.00  0.00     0.000 C 
BRANCH  17  18
ATOM     18  C   UNL     1     -11.048   1.819  16.149  1.00  0.00     0.000 C 
BRANCH  18  19
ATOM     19  C   UNL     1     -12.457   2.405  16.352  1.00  0.00     0.000 C 
BRANCH  19  20
ATOM     20  C   UNL     1     -12.443   3.785  17.035  1.00  0.00     0.006 C 
BRANCH  20  21
ATOM     21  C   UNL     1     -13.181   3.772  18.382  1.00  0.00     0.053 C 
BRANCH  21  22
ATOM     22  C   UNL     1     -12.805   4.949  19.230  1.00  0.00     0.041 C 
ATOM     23  O   UNL     1     -11.725   5.560  19.023  1.00  0.00    -0.550 OA
ATOM     24  O   UNL     1     -13.672   5.401  20.216  1.00  0.00    -0.550 OA
ENDBRANCH  21  22
ENDBRANCH  20  21
ENDBRANCH  19  20
ENDBRANCH  18  19
ENDBRANCH  17  18
ENDBRANCH  16  17
ENDBRANCH  15  16
ENDBRANCH  14  15
ENDBRANCH  13  14
ENDBRANCH   1  13
TORSDOF 20
ENDMDL
