MODEL 1
REMARK VINA RESULT:    -3.032      0.000      0.000
REMARK INTER + INTRA:          -3.654
REMARK INTER:                  -3.563
REMARK INTRA:                  -0.091
REMARK UNBOUND:                -0.091
REMARK SMILES CCCCC(=O)[O-]
REMARK SMILES IDX 4 1 5 2 6 3 7 4 3 5 2 6 1 7
REMARK H PARENT
REMARK Flexibility Score: inf
ROOT
ATOM      1  C   UNL     1      13.912  16.802  17.545  1.00  0.00     0.053 C 
ENDROOT
BRANCH   1   2
ATOM      2  C   UNL     1      14.553  16.866  16.193  1.00  0.00     0.041 C 
ATOM      3  O   UNL     1      14.219  17.763  15.374  1.00  0.00    -0.550 OA
ATOM      4  O   UNL     1      15.498  15.916  15.827  1.00  0.00    -0.550 OA
ENDBRANCH   1   2
BRANCH   1   5
ATOM      5  C   UNL     1      12.985  15.585  17.684  1.00  0.00     0.006 C 
BRANCH   5   6
ATOM      6  C   UNL     1      11.890  15.501  16.605  1.00  0.00    -0.003 C 
ATOM      7  C   UNL     1      10.602  16.219  17.008  1.00  0.00     0.004 C 
ENDBRANCH   5   6
ENDBRANCH   1   5
TORSDOF 3
ENDMDL
MODEL 2
REMARK VINA RESULT:    -2.989      1.367      1.903
REMARK INTER + INTRA:          -3.604
REMARK INTER:                  -3.477
REMARK INTRA:                  -0.128
REMARK UNBOUND:                -0.091
REMARK SMILES CCCCC(=O)[O-]
REMARK SMILES IDX 4 1 5 2 6 3 7 4 3 5 2 6 1 7
REMARK H PARENT
REMARK Flexibility Score: inf
ROOT
ATOM      1  C   UNL     1      13.016  15.580  17.745  1.00  0.00     0.053 C 
ENDROOT
BRANCH   1   2
ATOM      2  C   UNL     1      14.033  16.531  17.194  1.00  0.00     0.041 C 
ATOM      3  O   UNL     1      14.698  16.226  16.170  1.00  0.00    -0.550 OA
ATOM      4  O   UNL     1      14.269  17.743  17.832  1.00  0.00    -0.550 OA
ENDBRANCH   1   2
BRANCH   1   5
ATOM      5  C   UNL     1      11.801  15.437  16.817  1.00  0.00     0.006 C 
BRANCH   5   6
ATOM      6  C   UNL     1      11.096  16.766  16.492  1.00  0.00    -0.003 C 
ATOM      7  C   UNL     1      11.143  17.116  15.005  1.00  0.00     0.004 C 
ENDBRANCH   5   6
ENDBRANCH   1   5
TORSDOF 3
ENDMDL
MODEL 3
REMARK VINA RESULT:    -2.924      2.896      3.665
REMARK INTER + INTRA:          -3.528
REMARK INTER:                  -3.511
REMARK INTRA:                  -0.017
REMARK UNBOUND:                -0.091
REMARK SMILES CCCCC(=O)[O-]
REMARK SMILES IDX 4 1 5 2 6 3 7 4 3 5 2 6 1 7
REMARK H PARENT
REMARK Flexibility Score: inf
ROOT
ATOM      1  C   UNL     1      11.845  17.095  14.980  1.00  0.00     0.053 C 
ENDROOT
BRANCH   1   2
ATOM      2  C   UNL     1      10.976  17.812  13.994  1.00  0.00     0.041 C 
ATOM      3  O   UNL     1      10.599  18.991  14.220  1.00  0.00    -0.550 OA
ATOM      4  O   UNL     1      10.557  17.164  12.838  1.00  0.00    -0.550 OA
ENDBRANCH   1   2
BRANCH   1   5
ATOM      5  C   UNL     1      11.031  16.507  16.142  1.00  0.00     0.006 C 
BRANCH   5   6
ATOM      6  C   UNL     1      11.755  15.390  16.916  1.00  0.00    -0.003 C 
ATOM      7  C   UNL     1      13.074  15.855  17.535  1.00  0.00     0.004 C 
ENDBRANCH   5   6
ENDBRANCH   1   5
TORSDOF 3
ENDMDL
MODEL 4
REMARK VINA RESULT:    -2.924      1.382      1.635
REMARK INTER + INTRA:          -3.528
REMARK INTER:                  -3.446
REMARK INTRA:                  -0.082
REMARK UNBOUND:                -0.091
REMARK SMILES CCCCC(=O)[O-]
REMARK SMILES IDX 4 1 5 2 6 3 7 4 3 5 2 6 1 7
REMARK H PARENT
REMARK Flexibility Score: inf
ROOT
ATOM      1  C   UNL     1      13.269  16.545  15.781  1.00  0.00     0.053 C 
ENDROOT
BRANCH   1   2
ATOM      2  C   UNL     1      14.605  16.526  16.459  1.00  0.00     0.041 C 
ATOM      3  O   UNL     1      14.742  17.028  17.606  1.00  0.00    -0.550 OA
ATOM      4  O   UNL     1      15.706  15.981  15.810  1.00  0.00    -0.550 OA
ENDBRANCH   1   2
BRANCH   1   5
ATOM      5  C   UNL     1      12.266  17.449  16.513  1.00  0.00     0.006 C 
BRANCH   5   6
ATOM      6  C   UNL     1      10.991  16.725  16.980  1.00  0.00    -0.003 C 
ATOM      7  C   UNL     1      11.065  15.210  16.792  1.00  0.00     0.004 C 
ENDBRANCH   5   6
ENDBRANCH   1   5
TORSDOF 3
ENDMDL
MODEL 5
REMARK VINA RESULT:    -2.908      2.379      3.796
REMARK INTER + INTRA:          -3.508
REMARK INTER:                  -3.460
REMARK INTRA:                  -0.049
REMARK UNBOUND:                -0.091
REMARK SMILES CCCCC(=O)[O-]
REMARK SMILES IDX 4 1 5 2 6 3 7 4 3 5 2 6 1 7
REMARK H PARENT
REMARK Flexibility Score: inf
ROOT
ATOM      1  C   UNL     1      12.889  16.269  15.816  1.00  0.00     0.053 C 
ENDROOT
BRANCH   1   2
ATOM      2  C   UNL     1      12.147  15.588  16.925  1.00  0.00     0.041 C 
ATOM      3  O   UNL     1      10.894  15.482  16.878  1.00  0.00    -0.550 OA
ATOM      4  O   UNL     1      12.839  15.099  18.026  1.00  0.00    -0.550 OA
ENDBRANCH   1   2
BRANCH   1   5
ATOM      5  C   UNL     1      14.156  16.974  16.321  1.00  0.00     0.006 C 
BRANCH   5   6
ATOM      6  C   UNL     1      15.469  16.323  15.849  1.00  0.00    -0.003 C 
ATOM      7  C   UNL     1      16.398  17.306  15.138  1.00  0.00     0.004 C 
ENDBRANCH   5   6
ENDBRANCH   1   5
TORSDOF 3
ENDMDL
MODEL 6
REMARK VINA RESULT:    -2.906      2.363      3.660
REMARK INTER + INTRA:          -3.507
REMARK INTER:                  -3.398
REMARK INTRA:                  -0.109
REMARK UNBOUND:                -0.091
REMARK SMILES CCCCC(=O)[O-]
REMARK SMILES IDX 4 1 5 2 6 3 7 4 3 5 2 6 1 7
REMARK H PARENT
REMARK Flexibility Score: inf
ROOT
ATOM      1  C   UNL     1      12.170  15.408  16.956  1.00  0.00     0.053 C 
ENDROOT
BRANCH   1   2
ATOM      2  C   UNL     1      10.942  16.179  16.580  1.00  0.00     0.041 C 
ATOM      3  O   UNL     1       9.910  16.117  17.297  1.00  0.00    -0.550 OA
ATOM      4  O   UNL     1      10.929  16.941  15.418  1.00  0.00    -0.550 OA
ENDBRANCH   1   2
BRANCH   1   5
ATOM      5  C   UNL     1      13.341  16.334  17.318  1.00  0.00     0.006 C 
BRANCH   5   6
ATOM      6  C   UNL     1      14.435  16.418  16.238  1.00  0.00    -0.003 C 
ATOM      7  C   UNL     1      14.451  17.763  15.512  1.00  0.00     0.004 C 
ENDBRANCH   5   6
ENDBRANCH   1   5
TORSDOF 3
ENDMDL
MODEL 7
REMARK VINA RESULT:    -2.881      3.188      3.594
REMARK INTER + INTRA:          -3.477
REMARK INTER:                  -3.457
REMARK INTRA:                  -0.020
REMARK UNBOUND:                -0.091
REMARK SMILES CCCCC(=O)[O-]
REMARK SMILES IDX 4 1 5 2 6 3 7 4 3 5 2 6 1 7
REMARK H PARENT
REMARK Flexibility Score: inf
ROOT
ATOM      1  C   UNL     1      12.378  16.686  15.548  1.00  0.00     0.053 C 
ENDROOT
BRANCH   1   2
ATOM      2  C   UNL     1      12.239  15.803  16.749  1.00  0.00     0.041 C 
ATOM      3  O   UNL     1      11.216  15.083  16.893  1.00  0.00    -0.550 OA
ATOM      4  O   UNL     1      13.226  15.800  17.728  1.00  0.00    -0.550 OA
ENDBRANCH   1   2
BRANCH   1   5
ATOM      5  C   UNL     1      11.014  17.063  14.950  1.00  0.00     0.006 C 
BRANCH   5   6
ATOM      6  C   UNL     1      11.101  17.848  13.629  1.00  0.00    -0.003 C 
ATOM      7  C   UNL     1      10.347  17.171  12.485  1.00  0.00     0.004 C 
ENDBRANCH   5   6
ENDBRANCH   1   5
TORSDOF 3
ENDMDL
MODEL 8
REMARK VINA RESULT:    -2.823      2.715      3.353
REMARK INTER + INTRA:          -3.410
REMARK INTER:                  -3.294
REMARK INTRA:                  -0.115
REMARK UNBOUND:                -0.091
REMARK SMILES CCCCC(=O)[O-]
REMARK SMILES IDX 4 1 5 2 6 3 7 4 3 5 2 6 1 7
REMARK H PARENT
REMARK Flexibility Score: inf
ROOT
ATOM      1  C   UNL     1      12.645  16.383  15.773  1.00  0.00     0.053 C 
ENDROOT
BRANCH   1   2
ATOM      2  C   UNL     1      12.097  15.505  16.856  1.00  0.00     0.041 C 
ATOM      3  O   UNL     1      10.903  15.109  16.808  1.00  0.00    -0.550 OA
ATOM      4  O   UNL     1      12.898  15.150  17.934  1.00  0.00    -0.550 OA
ENDBRANCH   1   2
BRANCH   1   5
ATOM      5  C   UNL     1      11.847  17.689  15.633  1.00  0.00     0.006 C 
BRANCH   5   6
ATOM      6  C   UNL     1      11.803  18.540  16.915  1.00  0.00    -0.003 C 
ATOM      7  C   UNL     1      13.192  18.948  17.405  1.00  0.00     0.004 C 
ENDBRANCH   5   6
ENDBRANCH   1   5
TORSDOF 3
ENDMDL
MODEL 9
REMARK VINA RESULT:    -2.821      2.011      3.030
REMARK INTER + INTRA:          -3.406
REMARK INTER:                  -3.300
REMARK INTRA:                  -0.107
REMARK UNBOUND:                -0.091
REMARK SMILES CCCCC(=O)[O-]
REMARK SMILES IDX 4 1 5 2 6 3 7 4 3 5 2 6 1 7
REMARK H PARENT
REMARK Flexibility Score: inf
ROOT
ATOM      1  C   UNL     1      10.989  16.829  15.187  1.00  0.00     0.053 C 
ENDROOT
BRANCH   1   2
ATOM      2  C   UNL     1      11.668  18.138  14.929  1.00  0.00     0.041 C 
ATOM      3  O   UNL     1      10.996  19.141  14.570  1.00  0.00    -0.550 OA
ATOM      4  O   UNL     1      13.048  18.242  15.054  1.00  0.00    -0.550 OA
ENDBRANCH   1   2
BRANCH   1   5
ATOM      5  C   UNL     1      10.901  16.513  16.688  1.00  0.00     0.006 C 
BRANCH   5   6
ATOM      6  C   UNL     1      11.806  15.352  17.140  1.00  0.00    -0.003 C 
ATOM      7  C   UNL     1      13.165  15.824  17.655  1.00  0.00     0.004 C 
ENDBRANCH   5   6
ENDBRANCH   1   5
TORSDOF 3
ENDMDL
