MODEL 1
REMARK VINA RESULT:    -6.292      0.000      0.000
REMARK INTER + INTRA:         -10.433
REMARK INTER:                  -9.235
REMARK INTRA:                  -1.198
REMARK UNBOUND:                -1.198
REMARK SMILES O=c1c(O[C@H]2O[C@@H](CO)[C@@H](O)[C@@H](O)[C@H]2O)c(-c2ccc(O)c(O)c2)oc2cc(O)cc(O)c12
REMARK SMILES IDX 4 1 3 2 16 3 25 4 2 5 26 6 1 7 33 8 27 9 31 10 28 11 30 12
REMARK SMILES IDX 17 13 18 14 19 15 20 16 24 17 22 18 21 19 23 21 32 23 29 25
REMARK SMILES IDX 5 27 14 28 6 29 12 30 7 31 10 32 15 33 13 35 8 37 9 38 11 40
REMARK H PARENT 21 20 23 22 32 24 29 26 15 34 13 36 9 39 11 41
REMARK Flexibility Score: inf
ROOT
ATOM      1  O   UNL     1       6.321  34.118  70.943  1.00  0.00    -0.454 OA
ENDROOT
BRANCH   1   2
ATOM      2  C   UNL     1       5.249  34.350  70.068  1.00  0.00     0.214 A 
ATOM      3  C   UNL     1       5.306  33.972  68.713  1.00  0.00     0.180 A 
ATOM      4  O   UNL     1       4.284  34.253  67.911  1.00  0.00    -0.452 OA
ATOM      5  C   UNL     1       4.086  34.956  70.555  1.00  0.00     0.239 A 
ATOM      6  C   UNL     1       3.183  34.872  68.318  1.00  0.00     0.146 A 
ATOM      7  O   UNL     1       3.996  35.170  71.793  1.00  0.00    -0.285 OA
ATOM      8  C   UNL     1       3.035  35.284  69.667  1.00  0.00     0.111 A 
ATOM      9  C   UNL     1       2.161  35.092  67.390  1.00  0.00     0.094 A 
ATOM     10  C   UNL     1       1.843  35.975  70.041  1.00  0.00     0.134 A 
ATOM     11  C   UNL     1       0.978  35.715  67.779  1.00  0.00     0.123 A 
ATOM     12  C   UNL     1       0.823  36.149  69.099  1.00  0.00     0.093 A 
BRANCH   3  13
ATOM     13  C   UNL     1       6.464  33.254  68.134  1.00  0.00     0.025 A 
ATOM     14  C   UNL     1       7.725  33.869  68.135  1.00  0.00     0.016 A 
ATOM     15  C   UNL     1       8.836  33.205  67.610  1.00  0.00     0.051 A 
ATOM     16  C   UNL     1       8.698  31.923  67.059  1.00  0.00     0.157 A 
ATOM     17  C   UNL     1       6.322  31.980  67.556  1.00  0.00     0.062 A 
ATOM     18  C   UNL     1       7.433  31.309  67.030  1.00  0.00     0.158 A 
BRANCH  16  19
ATOM     19  O   UNL     1       9.809  31.260  66.541  1.00  0.00    -0.504 OA
ATOM     20  H   UNL     1      10.288  31.594  65.714  1.00  0.00     0.293 HD
ENDBRANCH  16  19
BRANCH  18  21
ATOM     21  O   UNL     1       7.263  30.038  66.487  1.00  0.00    -0.504 OA
ATOM     22  H   UNL     1       7.627  29.206  66.938  1.00  0.00     0.293 HD
ENDBRANCH  18  21
ENDBRANCH   3  13
BRANCH  10  23
ATOM     23  O   UNL     1       1.628  36.533  71.304  1.00  0.00    -0.507 OA
ATOM     24  H   UNL     1       2.027  36.186  72.163  1.00  0.00     0.293 HD
ENDBRANCH  10  23
BRANCH  11  25
ATOM     25  O   UNL     1      -0.039  35.902  66.846  1.00  0.00    -0.508 OA
ATOM     26  H   UNL     1      -0.514  36.792  66.750  1.00  0.00     0.293 HD
ENDBRANCH  11  25
ENDBRANCH   1   2
BRANCH   1  27
ATOM     27  C   UNL     1       6.300  33.140  71.988  1.00  0.00     0.339 C 
ATOM     28  C   UNL     1       7.618  32.340  72.011  1.00  0.00     0.214 C 
ATOM     29  O   UNL     1       5.177  32.286  71.839  1.00  0.00    -0.332 OA
ATOM     30  C   UNL     1       7.651  31.393  73.241  1.00  0.00     0.180 C 
ATOM     31  C   UNL     1       5.130  31.188  72.751  1.00  0.00     0.179 C 
ATOM     32  C   UNL     1       6.244  31.178  73.844  1.00  0.00     0.177 C 
BRANCH  28  33
ATOM     33  O   UNL     1       7.734  31.610  70.815  1.00  0.00    -0.384 OA
ATOM     34  H   UNL     1       7.024  30.915  70.829  1.00  0.00     0.211 HD
ENDBRANCH  28  33
BRANCH  30  35
ATOM     35  O   UNL     1       8.229  30.154  72.907  1.00  0.00    -0.387 OA
ATOM     36  H   UNL     1       8.562  30.236  71.975  1.00  0.00     0.211 HD
ENDBRANCH  30  35
BRANCH  31  37
ATOM     37  C   UNL     1       5.090  29.875  71.949  1.00  0.00     0.191 C 
BRANCH  37  38
ATOM     38  O   UNL     1       5.233  30.137  70.578  1.00  0.00    -0.394 OA
ATOM     39  H   UNL     1       6.070  29.691  70.287  1.00  0.00     0.210 HD
ENDBRANCH  37  38
ENDBRANCH  31  37
BRANCH  32  40
ATOM     40  O   UNL     1       6.213  29.993  74.601  1.00  0.00    -0.387 OA
ATOM     41  H   UNL     1       7.067  29.520  74.427  1.00  0.00     0.211 HD
ENDBRANCH  32  40
ENDBRANCH   1  27
TORSDOF 12
ENDMDL
MODEL 2
REMARK VINA RESULT:    -6.047     15.564     18.661
REMARK INTER + INTRA:         -10.074
REMARK INTER:                  -8.790
REMARK INTRA:                  -1.284
REMARK UNBOUND:                -1.198
REMARK SMILES O=c1c(O[C@H]2O[C@@H](CO)[C@@H](O)[C@@H](O)[C@H]2O)c(-c2ccc(O)c(O)c2)oc2cc(O)cc(O)c12
REMARK SMILES IDX 4 1 3 2 16 3 25 4 2 5 26 6 1 7 33 8 27 9 31 10 28 11 30 12
REMARK SMILES IDX 17 13 18 14 19 15 20 16 24 17 22 18 21 19 23 21 32 23 29 25
REMARK SMILES IDX 5 27 14 28 6 29 12 30 7 31 10 32 15 33 13 35 8 37 9 38 11 40
REMARK H PARENT 21 20 23 22 32 24 29 26 15 34 13 36 9 39 11 41
REMARK Flexibility Score: inf
ROOT
ATOM      1  O   UNL     1      18.774  42.161  75.701  1.00  0.00    -0.454 OA
ENDROOT
BRANCH   1   2
ATOM      2  C   UNL     1      18.967  41.011  76.481  1.00  0.00     0.214 A 
ATOM      3  C   UNL     1      19.172  41.086  77.872  1.00  0.00     0.180 A 
ATOM      4  O   UNL     1      19.396  39.974  78.563  1.00  0.00    -0.452 OA
ATOM      5  C   UNL     1      18.939  39.753  75.867  1.00  0.00     0.239 A 
ATOM      6  C   UNL     1      19.429  38.765  78.015  1.00  0.00     0.146 A 
ATOM      7  O   UNL     1      18.626  39.689  74.649  1.00  0.00    -0.285 OA
ATOM      8  C   UNL     1      19.227  38.592  76.622  1.00  0.00     0.111 A 
ATOM      9  C   UNL     1      19.648  37.662  78.845  1.00  0.00     0.094 A 
ATOM     10  C   UNL     1      19.307  37.273  76.081  1.00  0.00     0.134 A 
ATOM     11  C   UNL     1      19.665  36.375  78.316  1.00  0.00     0.123 A 
ATOM     12  C   UNL     1      19.491  36.186  76.942  1.00  0.00     0.093 A 
BRANCH   3  13
ATOM     13  C   UNL     1      19.136  42.367  78.613  1.00  0.00     0.025 A 
ATOM     14  C   UNL     1      20.124  43.333  78.367  1.00  0.00     0.016 A 
ATOM     15  C   UNL     1      20.102  44.555  79.043  1.00  0.00     0.051 A 
ATOM     16  C   UNL     1      19.101  44.823  79.987  1.00  0.00     0.157 A 
ATOM     17  C   UNL     1      18.150  42.627  79.582  1.00  0.00     0.062 A 
ATOM     18  C   UNL     1      18.122  43.852  80.260  1.00  0.00     0.158 A 
BRANCH  16  19
ATOM     19  O   UNL     1      19.078  46.046  80.655  1.00  0.00    -0.504 OA
ATOM     20  H   UNL     1      19.496  46.158  81.570  1.00  0.00     0.293 HD
ENDBRANCH  16  19
BRANCH  18  21
ATOM     21  O   UNL     1      17.116  44.086  81.194  1.00  0.00    -0.504 OA
ATOM     22  H   UNL     1      16.133  44.056  80.948  1.00  0.00     0.293 HD
ENDBRANCH  18  21
ENDBRANCH   3  13
BRANCH  10  23
ATOM     23  O   UNL     1      19.244  36.984  74.715  1.00  0.00    -0.507 OA
ATOM     24  H   UNL     1      20.028  36.696  74.149  1.00  0.00     0.293 HD
ENDBRANCH  10  23
BRANCH  11  25
ATOM     25  O   UNL     1      19.859  35.286  79.164  1.00  0.00    -0.508 OA
ATOM     26  H   UNL     1      19.098  34.894  79.706  1.00  0.00     0.293 HD
ENDBRANCH  11  25
ENDBRANCH   1   2
BRANCH   1  27
ATOM     27  C   UNL     1      17.512  42.820  75.552  1.00  0.00     0.339 C 
ATOM     28  C   UNL     1      17.002  42.698  74.103  1.00  0.00     0.214 C 
ATOM     29  O   UNL     1      17.616  44.176  75.953  1.00  0.00    -0.332 OA
ATOM     30  C   UNL     1      15.566  43.276  73.986  1.00  0.00     0.180 C 
ATOM     31  C   UNL     1      16.449  44.966  75.720  1.00  0.00     0.179 C 
ATOM     32  C   UNL     1      15.209  44.183  75.186  1.00  0.00     0.177 C 
BRANCH  28  33
ATOM     33  O   UNL     1      17.886  43.378  73.245  1.00  0.00    -0.384 OA
ATOM     34  H   UNL     1      18.782  42.969  73.369  1.00  0.00     0.211 HD
ENDBRANCH  28  33
BRANCH  30  35
ATOM     35  O   UNL     1      15.404  43.983  72.780  1.00  0.00    -0.387 OA
ATOM     36  H   UNL     1      15.752  43.398  72.057  1.00  0.00     0.211 HD
ENDBRANCH  30  35
BRANCH  31  37
ATOM     37  C   UNL     1      16.822  46.152  74.814  1.00  0.00     0.191 C 
BRANCH  37  38
ATOM     38  O   UNL     1      16.016  47.263  75.108  1.00  0.00    -0.394 OA
ATOM     39  H   UNL     1      16.223  47.528  76.041  1.00  0.00     0.210 HD
ENDBRANCH  37  38
ENDBRANCH  31  37
BRANCH  32  40
ATOM     40  O   UNL     1      14.158  45.053  74.845  1.00  0.00    -0.387 OA
ATOM     41  H   UNL     1      13.531  44.536  74.275  1.00  0.00     0.211 HD
ENDBRANCH  32  40
ENDBRANCH   1  27
TORSDOF 12
ENDMDL
MODEL 3
REMARK VINA RESULT:    -5.916      1.597      2.428
REMARK INTER + INTRA:          -9.881
REMARK INTER:                  -8.655
REMARK INTRA:                  -1.225
REMARK UNBOUND:                -1.198
REMARK SMILES O=c1c(O[C@H]2O[C@@H](CO)[C@@H](O)[C@@H](O)[C@H]2O)c(-c2ccc(O)c(O)c2)oc2cc(O)cc(O)c12
REMARK SMILES IDX 4 1 3 2 16 3 25 4 2 5 26 6 1 7 33 8 27 9 31 10 28 11 30 12
REMARK SMILES IDX 17 13 18 14 19 15 20 16 24 17 22 18 21 19 23 21 32 23 29 25
REMARK SMILES IDX 5 27 14 28 6 29 12 30 7 31 10 32 15 33 13 35 8 37 9 38 11 40
REMARK H PARENT 21 20 23 22 32 24 29 26 15 34 13 36 9 39 11 41
REMARK Flexibility Score: inf
ROOT
ATOM      1  O   UNL     1       4.928  30.474  69.824  1.00  0.00    -0.454 OA
ENDROOT
BRANCH   1   2
ATOM      2  C   UNL     1       4.267  31.622  69.366  1.00  0.00     0.214 A 
ATOM      3  C   UNL     1       4.857  32.491  68.427  1.00  0.00     0.180 A 
ATOM      4  O   UNL     1       4.212  33.591  68.055  1.00  0.00    -0.452 OA
ATOM      5  C   UNL     1       2.981  31.908  69.837  1.00  0.00     0.239 A 
ATOM      6  C   UNL     1       3.013  33.928  68.516  1.00  0.00     0.146 A 
ATOM      7  O   UNL     1       2.412  31.059  70.574  1.00  0.00    -0.285 OA
ATOM      8  C   UNL     1       2.339  33.111  69.459  1.00  0.00     0.111 A 
ATOM      9  C   UNL     1       2.419  35.097  68.034  1.00  0.00     0.094 A 
ATOM     10  C   UNL     1       1.068  33.539  69.945  1.00  0.00     0.134 A 
ATOM     11  C   UNL     1       1.152  35.475  68.470  1.00  0.00     0.123 A 
ATOM     12  C   UNL     1       0.482  34.695  69.417  1.00  0.00     0.093 A 
BRANCH   3  13
ATOM     13  C   UNL     1       6.178  32.223  67.816  1.00  0.00     0.025 A 
ATOM     14  C   UNL     1       7.273  33.029  68.162  1.00  0.00     0.016 A 
ATOM     15  C   UNL     1       8.534  32.785  67.611  1.00  0.00     0.051 A 
ATOM     16  C   UNL     1       8.713  31.743  66.691  1.00  0.00     0.157 A 
ATOM     17  C   UNL     1       6.355  31.195  66.871  1.00  0.00     0.062 A 
ATOM     18  C   UNL     1       7.617  30.946  66.318  1.00  0.00     0.158 A 
BRANCH  16  19
ATOM     19  O   UNL     1       9.973  31.498  66.147  1.00  0.00    -0.504 OA
ATOM     20  H   UNL     1      10.821  31.725  66.651  1.00  0.00     0.293 HD
ENDBRANCH  16  19
BRANCH  18  21
ATOM     21  O   UNL     1       7.762  29.904  65.405  1.00  0.00    -0.504 OA
ATOM     22  H   UNL     1       8.558  29.841  64.780  1.00  0.00     0.293 HD
ENDBRANCH  18  21
ENDBRANCH   3  13
BRANCH  10  23
ATOM     23  O   UNL     1       0.359  32.887  70.958  1.00  0.00    -0.507 OA
ATOM     24  H   UNL     1      -0.542  33.175  71.309  1.00  0.00     0.293 HD
ENDBRANCH  10  23
BRANCH  11  25
ATOM     25  O   UNL     1       0.565  36.631  67.959  1.00  0.00    -0.508 OA
ATOM     26  H   UNL     1       0.104  36.636  67.057  1.00  0.00     0.293 HD
ENDBRANCH  11  25
ENDBRANCH   1   2
BRANCH   1  27
ATOM     27  C   UNL     1       5.926  30.483  70.851  1.00  0.00     0.339 C 
ATOM     28  C   UNL     1       5.330  30.012  72.192  1.00  0.00     0.214 C 
ATOM     29  O   UNL     1       6.501  31.774  70.964  1.00  0.00    -0.332 OA
ATOM     30  C   UNL     1       6.448  29.875  73.260  1.00  0.00     0.180 C 
ATOM     31  C   UNL     1       7.415  31.934  72.050  1.00  0.00     0.179 C 
ATOM     32  C   UNL     1       7.732  30.635  72.853  1.00  0.00     0.177 C 
BRANCH  28  33
ATOM     33  O   UNL     1       4.351  30.931  72.609  1.00  0.00    -0.384 OA
ATOM     34  H   UNL     1       4.742  31.452  73.359  1.00  0.00     0.211 HD
ENDBRANCH  28  33
BRANCH  30  35
ATOM     35  O   UNL     1       6.001  30.320  74.518  1.00  0.00    -0.387 OA
ATOM     36  H   UNL     1       6.728  30.879  74.899  1.00  0.00     0.211 HD
ENDBRANCH  30  35
BRANCH  31  37
ATOM     37  C   UNL     1       6.916  33.072  72.958  1.00  0.00     0.191 C 
BRANCH  37  38
ATOM     38  O   UNL     1       5.687  33.564  72.493  1.00  0.00    -0.394 OA
ATOM     39  H   UNL     1       5.893  34.286  71.845  1.00  0.00     0.210 HD
ENDBRANCH  37  38
ENDBRANCH  31  37
BRANCH  32  40
ATOM     40  O   UNL     1       8.517  30.908  73.987  1.00  0.00    -0.387 OA
ATOM     41  H   UNL     1       7.955  30.710  74.780  1.00  0.00     0.211 HD
ENDBRANCH  32  40
ENDBRANCH   1  27
TORSDOF 12
ENDMDL
MODEL 4
REMARK VINA RESULT:    -5.686     16.403     19.336
REMARK INTER + INTRA:          -9.543
REMARK INTER:                  -8.196
REMARK INTRA:                  -1.348
REMARK UNBOUND:                -1.198
REMARK SMILES O=c1c(O[C@H]2O[C@@H](CO)[C@@H](O)[C@@H](O)[C@H]2O)c(-c2ccc(O)c(O)c2)oc2cc(O)cc(O)c12
REMARK SMILES IDX 4 1 3 2 16 3 25 4 2 5 26 6 1 7 33 8 27 9 31 10 28 11 30 12
REMARK SMILES IDX 17 13 18 14 19 15 20 16 24 17 22 18 21 19 23 21 32 23 29 25
REMARK SMILES IDX 5 27 14 28 6 29 12 30 7 31 10 32 15 33 13 35 8 37 9 38 11 40
REMARK H PARENT 21 20 23 22 32 24 29 26 15 34 13 36 9 39 11 41
REMARK Flexibility Score: inf
ROOT
ATOM      1  O   UNL     1      17.398  43.419  76.381  1.00  0.00    -0.454 OA
ENDROOT
BRANCH   1   2
ATOM      2  C   UNL     1      17.929  42.187  76.790  1.00  0.00     0.214 A 
ATOM      3  C   UNL     1      18.558  42.031  78.040  1.00  0.00     0.180 A 
ATOM      4  O   UNL     1      19.086  40.856  78.366  1.00  0.00    -0.452 OA
ATOM      5  C   UNL     1      17.818  41.078  75.944  1.00  0.00     0.239 A 
ATOM      6  C   UNL     1      19.049  39.791  77.574  1.00  0.00     0.146 A 
ATOM      7  O   UNL     1      17.141  41.196  74.888  1.00  0.00    -0.285 OA
ATOM      8  C   UNL     1      18.431  39.853  76.299  1.00  0.00     0.111 A 
ATOM      9  C   UNL     1      19.616  38.599  78.033  1.00  0.00     0.094 A 
ATOM     10  C   UNL     1      18.451  38.688  75.476  1.00  0.00     0.134 A 
ATOM     11  C   UNL     1      19.577  37.451  77.246  1.00  0.00     0.123 A 
ATOM     12  C   UNL     1      18.993  37.499  75.977  1.00  0.00     0.093 A 
BRANCH   3  13
ATOM     13  C   UNL     1      18.647  43.128  79.029  1.00  0.00     0.025 A 
ATOM     14  C   UNL     1      19.759  43.985  79.007  1.00  0.00     0.016 A 
ATOM     15  C   UNL     1      19.858  45.039  79.920  1.00  0.00     0.051 A 
ATOM     16  C   UNL     1      18.855  45.239  80.879  1.00  0.00     0.157 A 
ATOM     17  C   UNL     1      17.657  43.315  80.010  1.00  0.00     0.062 A 
ATOM     18  C   UNL     1      17.751  44.371  80.925  1.00  0.00     0.158 A 
BRANCH  16  19
ATOM     19  O   UNL     1      18.954  46.295  81.784  1.00  0.00    -0.504 OA
ATOM     20  H   UNL     1      18.441  47.157  81.651  1.00  0.00     0.293 HD
ENDBRANCH  16  19
BRANCH  18  21
ATOM     21  O   UNL     1      16.739  44.543  81.867  1.00  0.00    -0.504 OA
ATOM     22  H   UNL     1      16.068  43.813  82.077  1.00  0.00     0.293 HD
ENDBRANCH  18  21
ENDBRANCH   3  13
BRANCH  10  23
ATOM     23  O   UNL     1      17.982  38.654  74.159  1.00  0.00    -0.507 OA
ATOM     24  H   UNL     1      18.568  38.654  73.338  1.00  0.00     0.293 HD
ENDBRANCH  10  23
BRANCH  11  25
ATOM     25  O   UNL     1      20.125  36.266  77.732  1.00  0.00    -0.508 OA
ATOM     26  H   UNL     1      19.539  35.490  78.018  1.00  0.00     0.293 HD
ENDBRANCH  11  25
ENDBRANCH   1   2
BRANCH   1  27
ATOM     27  C   UNL     1      17.844  44.136  75.225  1.00  0.00     0.339 C 
ATOM     28  C   UNL     1      19.080  44.994  75.560  1.00  0.00     0.214 C 
ATOM     29  O   UNL     1      16.790  44.927  74.702  1.00  0.00    -0.332 OA
ATOM     30  C   UNL     1      19.651  45.643  74.270  1.00  0.00     0.180 C 
ATOM     31  C   UNL     1      17.161  45.789  73.625  1.00  0.00     0.179 C 
ATOM     32  C   UNL     1      18.626  45.627  73.113  1.00  0.00     0.177 C 
BRANCH  28  33
ATOM     33  O   UNL     1      18.718  45.978  76.497  1.00  0.00    -0.384 OA
ATOM     34  H   UNL     1      17.758  46.183  76.346  1.00  0.00     0.211 HD
ENDBRANCH  28  33
BRANCH  30  35
ATOM     35  O   UNL     1      20.082  46.960  74.517  1.00  0.00    -0.387 OA
ATOM     36  H   UNL     1      19.537  47.553  73.936  1.00  0.00     0.211 HD
ENDBRANCH  30  35
BRANCH  31  37
ATOM     37  C   UNL     1      16.839  47.243  74.016  1.00  0.00     0.191 C 
BRANCH  37  38
ATOM     38  O   UNL     1      16.286  47.290  75.305  1.00  0.00    -0.394 OA
ATOM     39  H   UNL     1      15.439  47.802  75.235  1.00  0.00     0.210 HD
ENDBRANCH  37  38
ENDBRANCH  31  37
BRANCH  32  40
ATOM     40  O   UNL     1      18.951  46.609  72.160  1.00  0.00    -0.387 OA
ATOM     41  H   UNL     1      19.467  47.310  72.635  1.00  0.00     0.211 HD
ENDBRANCH  32  40
ENDBRANCH   1  27
TORSDOF 12
ENDMDL
MODEL 5
REMARK VINA RESULT:    -5.400     16.350     18.675
REMARK INTER + INTRA:          -9.123
REMARK INTER:                  -8.264
REMARK INTRA:                  -0.859
REMARK UNBOUND:                -1.198
REMARK SMILES O=c1c(O[C@H]2O[C@@H](CO)[C@@H](O)[C@@H](O)[C@H]2O)c(-c2ccc(O)c(O)c2)oc2cc(O)cc(O)c12
REMARK SMILES IDX 4 1 3 2 16 3 25 4 2 5 26 6 1 7 33 8 27 9 31 10 28 11 30 12
REMARK SMILES IDX 17 13 18 14 19 15 20 16 24 17 22 18 21 19 23 21 32 23 29 25
REMARK SMILES IDX 5 27 14 28 6 29 12 30 7 31 10 32 15 33 13 35 8 37 9 38 11 40
REMARK H PARENT 21 20 23 22 32 24 29 26 15 34 13 36 9 39 11 41
REMARK Flexibility Score: inf
ROOT
ATOM      1  O   UNL     1      17.000  46.230  74.267  1.00  0.00    -0.454 OA
ENDROOT
BRANCH   1   2
ATOM      2  C   UNL     1      16.729  44.855  74.216  1.00  0.00     0.214 A 
ATOM      3  C   UNL     1      15.422  44.353  74.367  1.00  0.00     0.180 A 
ATOM      4  O   UNL     1      15.218  43.040  74.356  1.00  0.00    -0.452 OA
ATOM      5  C   UNL     1      17.778  43.957  73.991  1.00  0.00     0.239 A 
ATOM      6  C   UNL     1      16.190  42.150  74.198  1.00  0.00     0.146 A 
ATOM      7  O   UNL     1      18.918  44.422  73.727  1.00  0.00    -0.285 OA
ATOM      8  C   UNL     1      17.537  42.563  74.032  1.00  0.00     0.111 A 
ATOM      9  C   UNL     1      15.855  40.793  74.177  1.00  0.00     0.094 A 
ATOM     10  C   UNL     1      18.545  41.562  73.899  1.00  0.00     0.134 A 
ATOM     11  C   UNL     1      16.839  39.826  73.988  1.00  0.00     0.123 A 
ATOM     12  C   UNL     1      18.175  40.213  73.846  1.00  0.00     0.093 A 
BRANCH   3  13
ATOM     13  C   UNL     1      14.244  45.235  74.527  1.00  0.00     0.025 A 
ATOM     14  C   UNL     1      14.223  46.479  73.878  1.00  0.00     0.016 A 
ATOM     15  C   UNL     1      13.115  47.322  74.001  1.00  0.00     0.051 A 
ATOM     16  C   UNL     1      12.021  46.940  74.789  1.00  0.00     0.157 A 
ATOM     17  C   UNL     1      13.157  44.867  75.340  1.00  0.00     0.062 A 
ATOM     18  C   UNL     1      12.044  45.707  75.464  1.00  0.00     0.158 A 
BRANCH  16  19
ATOM     19  O   UNL     1      10.915  47.781  74.905  1.00  0.00    -0.504 OA
ATOM     20  H   UNL     1      10.439  47.912  75.788  1.00  0.00     0.293 HD
ENDBRANCH  16  19
BRANCH  18  21
ATOM     21  O   UNL     1      10.973  45.300  76.256  1.00  0.00    -0.504 OA
ATOM     22  H   UNL     1      10.402  44.497  76.020  1.00  0.00     0.293 HD
ENDBRANCH  18  21
ENDBRANCH   3  13
BRANCH  10  23
ATOM     23  O   UNL     1      19.915  41.835  73.847  1.00  0.00    -0.507 OA
ATOM     24  H   UNL     1      20.575  41.363  73.248  1.00  0.00     0.293 HD
ENDBRANCH  10  23
BRANCH  11  25
ATOM     25  O   UNL     1      16.481  38.481  73.945  1.00  0.00    -0.508 OA
ATOM     26  H   UNL     1      15.670  38.164  73.426  1.00  0.00     0.293 HD
ENDBRANCH  11  25
ENDBRANCH   1   2
BRANCH   1  27
ATOM     27  C   UNL     1      17.621  46.880  75.382  1.00  0.00     0.339 C 
ATOM     28  C   UNL     1      16.766  48.069  75.863  1.00  0.00     0.214 C 
ATOM     29  O   UNL     1      18.935  47.290  75.041  1.00  0.00    -0.332 OA
ATOM     30  C   UNL     1      17.363  48.669  77.165  1.00  0.00     0.180 C 
ATOM     31  C   UNL     1      19.601  48.069  76.036  1.00  0.00     0.179 C 
ATOM     32  C   UNL     1      18.830  48.232  77.383  1.00  0.00     0.177 C 
BRANCH  28  33
ATOM     33  O   UNL     1      16.710  49.038  74.846  1.00  0.00    -0.384 OA
ATOM     34  H   UNL     1      15.918  48.826  74.286  1.00  0.00     0.211 HD
ENDBRANCH  28  33
BRANCH  30  35
ATOM     35  O   UNL     1      17.273  50.074  77.159  1.00  0.00    -0.387 OA
ATOM     36  H   UNL     1      18.102  50.415  77.586  1.00  0.00     0.211 HD
ENDBRANCH  30  35
BRANCH  31  37
ATOM     37  C   UNL     1      19.997  49.425  75.426  1.00  0.00     0.191 C 
BRANCH  37  38
ATOM     38  O   UNL     1      19.512  49.529  74.113  1.00  0.00    -0.394 OA
ATOM     39  H   UNL     1      20.005  48.859  73.572  1.00  0.00     0.210 HD
ENDBRANCH  37  38
ENDBRANCH  31  37
BRANCH  32  40
ATOM     40  O   UNL     1      19.484  49.129  78.246  1.00  0.00    -0.387 OA
ATOM     41  H   UNL     1      18.849  49.334  78.981  1.00  0.00     0.211 HD
ENDBRANCH  32  40
ENDBRANCH   1  27
TORSDOF 12
ENDMDL
MODEL 6
REMARK VINA RESULT:    -5.350     16.016     18.584
REMARK INTER + INTRA:          -9.051
REMARK INTER:                  -8.584
REMARK INTRA:                  -0.466
REMARK UNBOUND:                -1.198
REMARK SMILES O=c1c(O[C@H]2O[C@@H](CO)[C@@H](O)[C@@H](O)[C@H]2O)c(-c2ccc(O)c(O)c2)oc2cc(O)cc(O)c12
REMARK SMILES IDX 4 1 3 2 16 3 25 4 2 5 26 6 1 7 33 8 27 9 31 10 28 11 30 12
REMARK SMILES IDX 17 13 18 14 19 15 20 16 24 17 22 18 21 19 23 21 32 23 29 25
REMARK SMILES IDX 5 27 14 28 6 29 12 30 7 31 10 32 15 33 13 35 8 37 9 38 11 40
REMARK H PARENT 21 20 23 22 32 24 29 26 15 34 13 36 9 39 11 41
REMARK Flexibility Score: inf
ROOT
ATOM      1  O   UNL     1      16.872  46.240  74.498  1.00  0.00    -0.454 OA
ENDROOT
BRANCH   1   2
ATOM      2  C   UNL     1      16.651  44.859  74.390  1.00  0.00     0.214 A 
ATOM      3  C   UNL     1      15.358  44.308  74.479  1.00  0.00     0.180 A 
ATOM      4  O   UNL     1      15.201  42.990  74.415  1.00  0.00    -0.452 OA
ATOM      5  C   UNL     1      17.738  44.005  74.169  1.00  0.00     0.239 A 
ATOM      6  C   UNL     1      16.208  42.140  74.259  1.00  0.00     0.146 A 
ATOM      7  O   UNL     1      18.869  44.518  73.960  1.00  0.00    -0.285 OA
ATOM      8  C   UNL     1      17.544  42.604  74.153  1.00  0.00     0.111 A 
ATOM      9  C   UNL     1      15.921  40.774  74.179  1.00  0.00     0.094 A 
ATOM     10  C   UNL     1      18.590  41.643  74.020  1.00  0.00     0.134 A 
ATOM     11  C   UNL     1      16.944  39.849  73.990  1.00  0.00     0.123 A 
ATOM     12  C   UNL     1      18.269  40.285  73.907  1.00  0.00     0.093 A 
BRANCH   3  13
ATOM     13  C   UNL     1      14.146  45.144  74.630  1.00  0.00     0.025 A 
ATOM     14  C   UNL     1      13.003  44.596  75.233  1.00  0.00     0.016 A 
ATOM     15  C   UNL     1      11.852  45.370  75.401  1.00  0.00     0.051 A 
ATOM     16  C   UNL     1      11.821  46.697  74.952  1.00  0.00     0.157 A 
ATOM     17  C   UNL     1      14.103  46.467  74.155  1.00  0.00     0.062 A 
ATOM     18  C   UNL     1      12.952  47.247  74.324  1.00  0.00     0.158 A 
BRANCH  16  19
ATOM     19  O   UNL     1      10.674  47.469  75.127  1.00  0.00    -0.504 OA
ATOM     20  H   UNL     1      10.557  48.071  75.932  1.00  0.00     0.293 HD
ENDBRANCH  16  19
BRANCH  18  21
ATOM     21  O   UNL     1      12.952  48.562  73.865  1.00  0.00    -0.504 OA
ATOM     22  H   UNL     1      13.592  49.260  74.228  1.00  0.00     0.293 HD
ENDBRANCH  18  21
ENDBRANCH   3  13
BRANCH  10  23
ATOM     23  O   UNL     1      19.951  41.964  74.024  1.00  0.00    -0.507 OA
ATOM     24  H   UNL     1      20.652  41.495  74.578  1.00  0.00     0.293 HD
ENDBRANCH  10  23
BRANCH  11  25
ATOM     25  O   UNL     1      16.634  38.494  73.888  1.00  0.00    -0.508 OA
ATOM     26  H   UNL     1      17.340  37.805  73.658  1.00  0.00     0.293 HD
ENDBRANCH  11  25
ENDBRANCH   1   2
BRANCH   1  27
ATOM     27  C   UNL     1      17.399  47.049  73.440  1.00  0.00     0.339 C 
ATOM     28  C   UNL     1      18.468  48.020  73.979  1.00  0.00     0.214 C 
ATOM     29  O   UNL     1      16.350  47.743  72.785  1.00  0.00    -0.332 OA
ATOM     30  C   UNL     1      19.144  48.781  72.807  1.00  0.00     0.180 C 
ATOM     31  C   UNL     1      16.774  48.685  71.799  1.00  0.00     0.179 C 
ATOM     32  C   UNL     1      18.308  48.703  71.509  1.00  0.00     0.177 C 
BRANCH  28  33
ATOM     33  O   UNL     1      17.864  48.919  74.876  1.00  0.00    -0.384 OA
ATOM     34  H   UNL     1      17.232  48.393  75.433  1.00  0.00     0.211 HD
ENDBRANCH  28  33
BRANCH  30  35
ATOM     35  O   UNL     1      19.382  50.125  73.150  1.00  0.00    -0.387 OA
ATOM     36  H   UNL     1      19.060  50.243  74.082  1.00  0.00     0.211 HD
ENDBRANCH  30  35
BRANCH  31  37
ATOM     37  C   UNL     1      16.237  50.077  72.174  1.00  0.00     0.191 C 
BRANCH  37  38
ATOM     38  O   UNL     1      15.513  50.013  73.374  1.00  0.00    -0.394 OA
ATOM     39  H   UNL     1      15.361  50.948  73.668  1.00  0.00     0.210 HD
ENDBRANCH  37  38
ENDBRANCH  31  37
BRANCH  32  40
ATOM     40  O   UNL     1      18.656  49.753  70.640  1.00  0.00    -0.387 OA
ATOM     41  H   UNL     1      18.591  50.593  71.166  1.00  0.00     0.211 HD
ENDBRANCH  32  40
ENDBRANCH   1  27
TORSDOF 12
ENDMDL
MODEL 7
REMARK VINA RESULT:    -4.948     18.057     20.179
REMARK INTER + INTRA:          -8.460
REMARK INTER:                  -7.053
REMARK INTRA:                  -1.407
REMARK UNBOUND:                -1.198
REMARK SMILES O=c1c(O[C@H]2O[C@@H](CO)[C@@H](O)[C@@H](O)[C@H]2O)c(-c2ccc(O)c(O)c2)oc2cc(O)cc(O)c12
REMARK SMILES IDX 4 1 3 2 16 3 25 4 2 5 26 6 1 7 33 8 27 9 31 10 28 11 30 12
REMARK SMILES IDX 17 13 18 14 19 15 20 16 24 17 22 18 21 19 23 21 32 23 29 25
REMARK SMILES IDX 5 27 14 28 6 29 12 30 7 31 10 32 15 33 13 35 8 37 9 38 11 40
REMARK H PARENT 21 20 23 22 32 24 29 26 15 34 13 36 9 39 11 41
REMARK Flexibility Score: inf
ROOT
ATOM      1  O   UNL     1      19.712  45.038  78.084  1.00  0.00    -0.454 OA
ENDROOT
BRANCH   1   2
ATOM      2  C   UNL     1      19.175  44.038  77.260  1.00  0.00     0.214 A 
ATOM      3  C   UNL     1      18.596  44.339  76.013  1.00  0.00     0.180 A 
ATOM      4  O   UNL     1      18.059  43.365  75.286  1.00  0.00    -0.452 OA
ATOM      5  C   UNL     1      19.230  42.703  77.677  1.00  0.00     0.239 A 
ATOM      6  C   UNL     1      18.043  42.093  75.665  1.00  0.00     0.146 A 
ATOM      7  O   UNL     1      19.865  42.431  78.730  1.00  0.00    -0.285 OA
ATOM      8  C   UNL     1      18.609  41.695  76.903  1.00  0.00     0.111 A 
ATOM      9  C   UNL     1      17.473  41.149  74.807  1.00  0.00     0.094 A 
ATOM     10  C   UNL     1      18.532  40.319  77.275  1.00  0.00     0.134 A 
ATOM     11  C   UNL     1      17.456  39.800  75.153  1.00  0.00     0.123 A 
ATOM     12  C   UNL     1      17.988  39.392  76.379  1.00  0.00     0.093 A 
BRANCH   3  13
ATOM     13  C   UNL     1      18.568  45.712  75.459  1.00  0.00     0.025 A 
ATOM     14  C   UNL     1      19.742  46.259  74.917  1.00  0.00     0.016 A 
ATOM     15  C   UNL     1      19.737  47.546  74.374  1.00  0.00     0.051 A 
ATOM     16  C   UNL     1      18.563  48.311  74.380  1.00  0.00     0.157 A 
ATOM     17  C   UNL     1      17.399  46.492  75.489  1.00  0.00     0.062 A 
ATOM     18  C   UNL     1      17.389  47.782  74.944  1.00  0.00     0.158 A 
BRANCH  16  19
ATOM     19  O   UNL     1      18.559  49.593  73.832  1.00  0.00    -0.504 OA
ATOM     20  H   UNL     1      18.987  50.375  74.310  1.00  0.00     0.293 HD
ENDBRANCH  16  19
BRANCH  18  21
ATOM     21  O   UNL     1      16.206  48.518  74.967  1.00  0.00    -0.504 OA
ATOM     22  H   UNL     1      15.749  48.777  75.834  1.00  0.00     0.293 HD
ENDBRANCH  18  21
ENDBRANCH   3  13
BRANCH  10  23
ATOM     23  O   UNL     1      18.945  39.821  78.515  1.00  0.00    -0.507 OA
ATOM     24  H   UNL     1      18.326  39.491  79.239  1.00  0.00     0.293 HD
ENDBRANCH  10  23
BRANCH  11  25
ATOM     25  O   UNL     1      16.907  38.872  74.272  1.00  0.00    -0.508 OA
ATOM     26  H   UNL     1      16.043  38.386  74.485  1.00  0.00     0.293 HD
ENDBRANCH  11  25
ENDBRANCH   1   2
BRANCH   1  27
ATOM     27  C   UNL     1      18.979  45.695  79.123  1.00  0.00     0.339 C 
ATOM     28  C   UNL     1      18.847  47.202  78.827  1.00  0.00     0.214 C 
ATOM     29  O   UNL     1      19.596  45.465  80.379  1.00  0.00    -0.332 OA
ATOM     30  C   UNL     1      17.920  47.877  79.874  1.00  0.00     0.180 C 
ATOM     31  C   UNL     1      19.024  46.184  81.473  1.00  0.00     0.179 C 
ATOM     32  C   UNL     1      17.738  47.002  81.135  1.00  0.00     0.177 C 
BRANCH  28  33
ATOM     33  O   UNL     1      20.125  47.787  78.841  1.00  0.00    -0.384 OA
ATOM     34  H   UNL     1      19.998  48.759  79.007  1.00  0.00     0.211 HD
ENDBRANCH  28  33
BRANCH  30  35
ATOM     35  O   UNL     1      18.407  49.148  80.233  1.00  0.00    -0.387 OA
ATOM     36  H   UNL     1      19.047  49.419  79.524  1.00  0.00     0.211 HD
ENDBRANCH  30  35
BRANCH  31  37
ATOM     37  C   UNL     1      20.114  47.057  82.120  1.00  0.00     0.191 C 
BRANCH  37  38
ATOM     38  O   UNL     1      19.908  47.146  83.505  1.00  0.00    -0.394 OA
ATOM     39  H   UNL     1      20.698  46.731  83.940  1.00  0.00     0.210 HD
ENDBRANCH  37  38
ENDBRANCH  31  37
BRANCH  32  40
ATOM     40  O   UNL     1      17.329  47.793  82.224  1.00  0.00    -0.387 OA
ATOM     41  H   UNL     1      18.155  48.121  82.665  1.00  0.00     0.211 HD
ENDBRANCH  32  40
ENDBRANCH   1  27
TORSDOF 12
ENDMDL
MODEL 8
REMARK VINA RESULT:    -4.936      2.046      6.369
REMARK INTER + INTRA:          -8.443
REMARK INTER:                  -7.832
REMARK INTRA:                  -0.611
REMARK UNBOUND:                -1.198
REMARK SMILES O=c1c(O[C@H]2O[C@@H](CO)[C@@H](O)[C@@H](O)[C@H]2O)c(-c2ccc(O)c(O)c2)oc2cc(O)cc(O)c12
REMARK SMILES IDX 4 1 3 2 16 3 25 4 2 5 26 6 1 7 33 8 27 9 31 10 28 11 30 12
REMARK SMILES IDX 17 13 18 14 19 15 20 16 24 17 22 18 21 19 23 21 32 23 29 25
REMARK SMILES IDX 5 27 14 28 6 29 12 30 7 31 10 32 15 33 13 35 8 37 9 38 11 40
REMARK H PARENT 21 20 23 22 32 24 29 26 15 34 13 36 9 39 11 41
REMARK Flexibility Score: inf
ROOT
ATOM      1  O   UNL     1       3.925  31.418  69.308  1.00  0.00    -0.454 OA
ENDROOT
BRANCH   1   2
ATOM      2  C   UNL     1       4.443  31.189  70.591  1.00  0.00     0.214 A 
ATOM      3  C   UNL     1       5.822  31.282  70.859  1.00  0.00     0.180 A 
ATOM      4  O   UNL     1       6.273  31.012  72.079  1.00  0.00    -0.452 OA
ATOM      5  C   UNL     1       3.569  30.877  71.638  1.00  0.00     0.239 A 
ATOM      6  C   UNL     1       5.486  30.662  73.089  1.00  0.00     0.146 A 
ATOM      7  O   UNL     1       2.330  30.925  71.417  1.00  0.00    -0.285 OA
ATOM      8  C   UNL     1       4.083  30.549  72.914  1.00  0.00     0.111 A 
ATOM      9  C   UNL     1       6.069  30.426  74.338  1.00  0.00     0.094 A 
ATOM     10  C   UNL     1       3.289  30.136  74.027  1.00  0.00     0.134 A 
ATOM     11  C   UNL     1       5.279  30.081  75.431  1.00  0.00     0.123 A 
ATOM     12  C   UNL     1       3.897  29.943  75.273  1.00  0.00     0.093 A 
BRANCH   3  13
ATOM     13  C   UNL     1       6.807  31.685  69.830  1.00  0.00     0.025 A 
ATOM     14  C   UNL     1       7.591  30.703  69.205  1.00  0.00     0.016 A 
ATOM     15  C   UNL     1       8.515  31.058  68.219  1.00  0.00     0.051 A 
ATOM     16  C   UNL     1       8.683  32.402  67.859  1.00  0.00     0.157 A 
ATOM     17  C   UNL     1       6.997  33.036  69.486  1.00  0.00     0.062 A 
ATOM     18  C   UNL     1       7.922  33.395  68.498  1.00  0.00     0.158 A 
BRANCH  16  19
ATOM     19  O   UNL     1       9.602  32.752  66.871  1.00  0.00    -0.504 OA
ATOM     20  H   UNL     1       9.402  33.476  66.193  1.00  0.00     0.293 HD
ENDBRANCH  16  19
BRANCH  18  21
ATOM     21  O   UNL     1       8.066  34.740  68.163  1.00  0.00    -0.504 OA
ATOM     22  H   UNL     1       7.452  35.200  67.500  1.00  0.00     0.293 HD
ENDBRANCH  18  21
ENDBRANCH   3  13
BRANCH  10  23
ATOM     23  O   UNL     1       1.918  29.875  73.953  1.00  0.00    -0.507 OA
ATOM     24  H   UNL     1       1.265  30.383  73.376  1.00  0.00     0.293 HD
ENDBRANCH  10  23
BRANCH  11  25
ATOM     25  O   UNL     1       5.876  29.876  76.673  1.00  0.00    -0.508 OA
ATOM     26  H   UNL     1       6.009  30.636  77.329  1.00  0.00     0.293 HD
ENDBRANCH  11  25
ENDBRANCH   1   2
BRANCH   1  27
ATOM     27  C   UNL     1       2.942  32.416  69.011  1.00  0.00     0.339 C 
ATOM     28  C   UNL     1       3.249  33.099  67.664  1.00  0.00     0.214 C 
ATOM     29  O   UNL     1       2.868  33.361  70.066  1.00  0.00    -0.332 OA
ATOM     30  C   UNL     1       2.098  34.065  67.275  1.00  0.00     0.180 C 
ATOM     31  C   UNL     1       2.014  34.478  69.817  1.00  0.00     0.179 C 
ATOM     32  C   UNL     1       1.202  34.414  68.485  1.00  0.00     0.177 C 
BRANCH  28  33
ATOM     33  O   UNL     1       4.469  33.790  67.766  1.00  0.00    -0.384 OA
ATOM     34  H   UNL     1       4.646  33.926  68.733  1.00  0.00     0.211 HD
ENDBRANCH  28  33
BRANCH  30  35
ATOM     35  O   UNL     1       2.604  35.242  66.691  1.00  0.00    -0.387 OA
ATOM     36  H   UNL     1       3.381  34.973  66.134  1.00  0.00     0.211 HD
ENDBRANCH  30  35
BRANCH  31  37
ATOM     37  C   UNL     1       2.838  35.772  69.934  1.00  0.00     0.191 C 
BRANCH  37  38
ATOM     38  O   UNL     1       4.198  35.470  70.106  1.00  0.00    -0.394 OA
ATOM     39  H   UNL     1       4.661  35.747  69.273  1.00  0.00     0.210 HD
ENDBRANCH  37  38
ENDBRANCH  31  37
BRANCH  32  40
ATOM     40  O   UNL     1       0.506  35.613  68.248  1.00  0.00    -0.387 OA
ATOM     41  H   UNL     1      -0.451  35.431  68.439  1.00  0.00     0.211 HD
ENDBRANCH  32  40
ENDBRANCH   1  27
TORSDOF 12
ENDMDL
MODEL 9
REMARK VINA RESULT:    -4.692     18.548     20.815
REMARK INTER + INTRA:          -8.084
REMARK INTER:                  -6.880
REMARK INTRA:                  -1.204
REMARK UNBOUND:                -1.198
REMARK SMILES O=c1c(O[C@H]2O[C@@H](CO)[C@@H](O)[C@@H](O)[C@H]2O)c(-c2ccc(O)c(O)c2)oc2cc(O)cc(O)c12
REMARK SMILES IDX 4 1 3 2 16 3 25 4 2 5 26 6 1 7 33 8 27 9 31 10 28 11 30 12
REMARK SMILES IDX 17 13 18 14 19 15 20 16 24 17 22 18 21 19 23 21 32 23 29 25
REMARK SMILES IDX 5 27 14 28 6 29 12 30 7 31 10 32 15 33 13 35 8 37 9 38 11 40
REMARK H PARENT 21 20 23 22 32 24 29 26 15 34 13 36 9 39 11 41
REMARK Flexibility Score: inf
ROOT
ATOM      1  O   UNL     1      19.742  45.579  76.770  1.00  0.00    -0.454 OA
ENDROOT
BRANCH   1   2
ATOM      2  C   UNL     1      19.389  45.705  78.121  1.00  0.00     0.214 A 
ATOM      3  C   UNL     1      19.047  44.584  78.903  1.00  0.00     0.180 A 
ATOM      4  O   UNL     1      18.675  44.756  80.167  1.00  0.00    -0.452 OA
ATOM      5  C   UNL     1      19.392  46.971  78.717  1.00  0.00     0.239 A 
ATOM      6  C   UNL     1      18.614  45.943  80.758  1.00  0.00     0.146 A 
ATOM      7  O   UNL     1      19.824  47.946  78.047  1.00  0.00    -0.285 OA
ATOM      8  C   UNL     1      18.947  47.126  80.050  1.00  0.00     0.111 A 
ATOM      9  C   UNL     1      18.234  46.000  82.101  1.00  0.00     0.094 A 
ATOM     10  C   UNL     1      18.830  48.379  80.725  1.00  0.00     0.134 A 
ATOM     11  C   UNL     1      18.180  47.222  82.768  1.00  0.00     0.123 A 
ATOM     12  C   UNL     1      18.482  48.401  82.081  1.00  0.00     0.093 A 
BRANCH   3  13
ATOM     13  C   UNL     1      19.096  43.202  78.377  1.00  0.00     0.025 A 
ATOM     14  C   UNL     1      20.007  42.885  77.358  1.00  0.00     0.016 A 
ATOM     15  C   UNL     1      20.083  41.583  76.857  1.00  0.00     0.051 A 
ATOM     16  C   UNL     1      19.236  40.584  77.355  1.00  0.00     0.157 A 
ATOM     17  C   UNL     1      18.228  42.203  78.856  1.00  0.00     0.062 A 
ATOM     18  C   UNL     1      18.303  40.897  78.358  1.00  0.00     0.158 A 
BRANCH  16  19
ATOM     19  O   UNL     1      19.319  39.284  76.857  1.00  0.00    -0.504 OA
ATOM     20  H   UNL     1      18.901  39.028  75.972  1.00  0.00     0.293 HD
ENDBRANCH  16  19
BRANCH  18  21
ATOM     21  O   UNL     1      17.446  39.926  78.872  1.00  0.00    -0.504 OA
ATOM     22  H   UNL     1      17.013  39.223  78.285  1.00  0.00     0.293 HD
ENDBRANCH  18  21
ENDBRANCH   3  13
BRANCH  10  23
ATOM     23  O   UNL     1      19.014  49.619  80.108  1.00  0.00    -0.507 OA
ATOM     24  H   UNL     1      18.756  50.507  80.509  1.00  0.00     0.293 HD
ENDBRANCH  10  23
BRANCH  11  25
ATOM     25  O   UNL     1      17.824  47.255  84.114  1.00  0.00    -0.508 OA
ATOM     26  H   UNL     1      17.221  46.549  84.520  1.00  0.00     0.293 HD
ENDBRANCH  11  25
ENDBRANCH   1   2
BRANCH   1  27
ATOM     27  C   UNL     1      18.853  45.859  75.683  1.00  0.00     0.339 C 
ATOM     28  C   UNL     1      19.544  46.748  74.630  1.00  0.00     0.214 C 
ATOM     29  O   UNL     1      17.662  46.458  76.166  1.00  0.00    -0.332 OA
ATOM     30  C   UNL     1      18.631  46.916  73.386  1.00  0.00     0.180 C 
ATOM     31  C   UNL     1      16.757  46.903  75.154  1.00  0.00     0.179 C 
ATOM     32  C   UNL     1      17.163  46.543  73.691  1.00  0.00     0.177 C 
BRANCH  28  33
ATOM     33  O   UNL     1      19.841  47.996  75.204  1.00  0.00    -0.384 OA
ATOM     34  H   UNL     1      19.033  48.564  75.100  1.00  0.00     0.211 HD
ENDBRANCH  28  33
BRANCH  30  35
ATOM     35  O   UNL     1      18.703  48.229  72.883  1.00  0.00    -0.387 OA
ATOM     36  H   UNL     1      19.147  48.779  73.581  1.00  0.00     0.211 HD
ENDBRANCH  30  35
BRANCH  31  37
ATOM     37  C   UNL     1      16.510  48.411  75.334  1.00  0.00     0.191 C 
BRANCH  37  38
ATOM     38  O   UNL     1      17.264  48.903  76.410  1.00  0.00    -0.394 OA
ATOM     39  H   UNL     1      17.224  49.893  76.360  1.00  0.00     0.210 HD
ENDBRANCH  37  38
ENDBRANCH  31  37
BRANCH  32  40
ATOM     40  O   UNL     1      16.301  47.143  72.755  1.00  0.00    -0.387 OA
ATOM     41  H   UNL     1      15.617  47.641  73.273  1.00  0.00     0.211 HD
ENDBRANCH  32  40
ENDBRANCH   1  27
TORSDOF 12
ENDMDL
