MODEL 1
REMARK VINA RESULT:    -3.526      0.000      0.000
REMARK INTER + INTRA:          -4.972
REMARK INTER:                  -4.763
REMARK INTRA:                  -0.209
REMARK UNBOUND:                -0.209
REMARK SMILES CCCCCCCC(=O)[O-]
REMARK SMILES IDX 5 1 6 2 7 3 8 4 9 5 10 6 4 7 3 8 2 9 1 10
REMARK H PARENT
REMARK Flexibility Score: inf
ROOT
ATOM      1  C   UNL     1      62.579  32.209  60.808  1.00  0.00     0.000 C 
ENDROOT
BRANCH   1   2
ATOM      2  C   UNL     1      61.452  31.164  60.855  1.00  0.00     0.006 C 
BRANCH   2   3
ATOM      3  C   UNL     1      61.632  30.170  62.011  1.00  0.00     0.053 C 
BRANCH   3   4
ATOM      4  C   UNL     1      62.487  29.005  61.614  1.00  0.00     0.041 C 
ATOM      5  O   UNL     1      61.956  27.906  61.303  1.00  0.00    -0.550 OA
ATOM      6  O   UNL     1      63.871  29.125  61.616  1.00  0.00    -0.550 OA
ENDBRANCH   3   4
ENDBRANCH   2   3
ENDBRANCH   1   2
BRANCH   1   7
ATOM      7  C   UNL     1      62.068  33.614  60.450  1.00  0.00     0.000 C 
BRANCH   7   8
ATOM      8  C   UNL     1      62.991  34.730  60.963  1.00  0.00    -0.000 C 
BRANCH   8   9
ATOM      9  C   UNL     1      64.390  34.183  61.272  1.00  0.00    -0.003 C 
ATOM     10  C   UNL     1      65.252  35.233  61.966  1.00  0.00     0.004 C 
ENDBRANCH   8   9
ENDBRANCH   7   8
ENDBRANCH   1   7
TORSDOF 6
ENDMDL
MODEL 2
REMARK VINA RESULT:    -3.499     13.037     14.232
REMARK INTER + INTRA:          -4.936
REMARK INTER:                  -4.735
REMARK INTRA:                  -0.201
REMARK UNBOUND:                -0.209
REMARK SMILES CCCCCCCC(=O)[O-]
REMARK SMILES IDX 5 1 6 2 7 3 8 4 9 5 10 6 4 7 3 8 2 9 1 10
REMARK H PARENT
REMARK Flexibility Score: inf
ROOT
ATOM      1  C   UNL     1      55.828  28.243  50.774  1.00  0.00     0.000 C 
ENDROOT
BRANCH   1   2
ATOM      2  C   UNL     1      54.663  27.308  50.409  1.00  0.00     0.006 C 
BRANCH   2   3
ATOM      3  C   UNL     1      55.151  25.926  49.956  1.00  0.00     0.053 C 
BRANCH   3   4
ATOM      4  C   UNL     1      54.011  25.030  49.577  1.00  0.00     0.041 C 
ATOM      5  O   UNL     1      53.117  25.440  48.790  1.00  0.00    -0.550 OA
ATOM      6  O   UNL     1      53.922  23.753  50.114  1.00  0.00    -0.550 OA
ENDBRANCH   3   4
ENDBRANCH   2   3
ENDBRANCH   1   2
BRANCH   1   7
ATOM      7  C   UNL     1      57.194  27.540  50.704  1.00  0.00     0.000 C 
BRANCH   7   8
ATOM      8  C   UNL     1      58.371  28.515  50.860  1.00  0.00    -0.000 C 
BRANCH   8   9
ATOM      9  C   UNL     1      59.204  28.576  49.574  1.00  0.00    -0.003 C 
ATOM     10  C   UNL     1      60.201  27.424  49.507  1.00  0.00     0.004 C 
ENDBRANCH   8   9
ENDBRANCH   7   8
ENDBRANCH   1   7
TORSDOF 6
ENDMDL
MODEL 3
REMARK VINA RESULT:    -3.499     12.259     13.835
REMARK INTER + INTRA:          -4.935
REMARK INTER:                  -4.695
REMARK INTRA:                  -0.241
REMARK UNBOUND:                -0.209
REMARK SMILES CCCCCCCC(=O)[O-]
REMARK SMILES IDX 5 1 6 2 7 3 8 4 9 5 10 6 4 7 3 8 2 9 1 10
REMARK H PARENT
REMARK Flexibility Score: inf
ROOT
ATOM      1  C   UNL     1      57.217  27.539  50.722  1.00  0.00     0.000 C 
ENDROOT
BRANCH   1   2
ATOM      2  C   UNL     1      58.300  28.631  50.734  1.00  0.00     0.006 C 
BRANCH   2   3
ATOM      3  C   UNL     1      59.250  28.517  49.534  1.00  0.00     0.053 C 
BRANCH   3   4
ATOM      4  C   UNL     1      60.518  27.807  49.895  1.00  0.00     0.041 C 
ATOM      5  O   UNL     1      60.668  26.590  49.606  1.00  0.00    -0.550 OA
ATOM      6  O   UNL     1      61.524  28.481  50.576  1.00  0.00    -0.550 OA
ENDBRANCH   3   4
ENDBRANCH   2   3
ENDBRANCH   1   2
BRANCH   1   7
ATOM      7  C   UNL     1      55.801  28.107  50.910  1.00  0.00     0.000 C 
BRANCH   7   8
ATOM      8  C   UNL     1      54.719  27.233  50.258  1.00  0.00    -0.000 C 
BRANCH   8   9
ATOM      9  C   UNL     1      55.261  25.832  49.949  1.00  0.00    -0.003 C 
ATOM     10  C   UNL     1      54.165  24.927  49.396  1.00  0.00     0.004 C 
ENDBRANCH   8   9
ENDBRANCH   7   8
ENDBRANCH   1   7
TORSDOF 6
ENDMDL
MODEL 4
REMARK VINA RESULT:    -3.281      3.153      4.998
REMARK INTER + INTRA:          -4.641
REMARK INTER:                  -4.250
REMARK INTRA:                  -0.391
REMARK UNBOUND:                -0.209
REMARK SMILES CCCCCCCC(=O)[O-]
REMARK SMILES IDX 5 1 6 2 7 3 8 4 9 5 10 6 4 7 3 8 2 9 1 10
REMARK H PARENT
REMARK Flexibility Score: inf
ROOT
ATOM      1  C   UNL     1      61.928  31.966  59.620  1.00  0.00     0.000 C 
ENDROOT
BRANCH   1   2
ATOM      2  C   UNL     1      62.260  33.158  60.535  1.00  0.00     0.006 C 
BRANCH   2   3
ATOM      3  C   UNL     1      63.771  33.319  60.748  1.00  0.00     0.053 C 
BRANCH   3   4
ATOM      4  C   UNL     1      64.104  34.625  61.401  1.00  0.00     0.041 C 
ATOM      5  O   UNL     1      65.252  34.819  61.883  1.00  0.00    -0.550 OA
ATOM      6  O   UNL     1      63.139  35.618  61.503  1.00  0.00    -0.550 OA
ENDBRANCH   3   4
ENDBRANCH   2   3
ENDBRANCH   1   2
BRANCH   1   7
ATOM      7  C   UNL     1      60.984  30.953  60.288  1.00  0.00     0.000 C 
BRANCH   7   8
ATOM      8  C   UNL     1      61.446  30.554  61.698  1.00  0.00    -0.000 C 
BRANCH   8   9
ATOM      9  C   UNL     1      62.295  29.278  61.655  1.00  0.00    -0.003 C 
ATOM     10  C   UNL     1      63.783  29.608  61.588  1.00  0.00     0.004 C 
ENDBRANCH   8   9
ENDBRANCH   7   8
ENDBRANCH   1   7
TORSDOF 6
ENDMDL
MODEL 5
REMARK VINA RESULT:    -3.254     12.318     13.293
REMARK INTER + INTRA:          -4.604
REMARK INTER:                  -4.308
REMARK INTRA:                  -0.297
REMARK UNBOUND:                -0.209
REMARK SMILES CCCCCCCC(=O)[O-]
REMARK SMILES IDX 5 1 6 2 7 3 8 4 9 5 10 6 4 7 3 8 2 9 1 10
REMARK H PARENT
REMARK Flexibility Score: inf
ROOT
ATOM      1  C   UNL     1      58.046  28.393  50.586  1.00  0.00     0.000 C 
ENDROOT
BRANCH   1   2
ATOM      2  C   UNL     1      59.242  28.519  49.627  1.00  0.00     0.006 C 
BRANCH   2   3
ATOM      3  C   UNL     1      60.061  27.223  49.552  1.00  0.00     0.053 C 
BRANCH   3   4
ATOM      4  C   UNL     1      61.490  27.445  49.942  1.00  0.00     0.041 C 
ATOM      5  O   UNL     1      61.871  28.579  50.338  1.00  0.00    -0.550 OA
ATOM      6  O   UNL     1      62.408  26.407  49.841  1.00  0.00    -0.550 OA
ENDBRANCH   3   4
ENDBRANCH   2   3
ENDBRANCH   1   2
BRANCH   1   7
ATOM      7  C   UNL     1      57.541  26.947  50.715  1.00  0.00     0.000 C 
BRANCH   7   8
ATOM      8  C   UNL     1      56.008  26.849  50.699  1.00  0.00    -0.000 C 
BRANCH   8   9
ATOM      9  C   UNL     1      55.371  28.241  50.794  1.00  0.00    -0.003 C 
ATOM     10  C   UNL     1      53.900  28.202  50.390  1.00  0.00     0.004 C 
ENDBRANCH   8   9
ENDBRANCH   7   8
ENDBRANCH   1   7
TORSDOF 6
ENDMDL
MODEL 6
REMARK VINA RESULT:    -3.251      1.467      2.130
REMARK INTER + INTRA:          -4.601
REMARK INTER:                  -4.393
REMARK INTRA:                  -0.208
REMARK UNBOUND:                -0.209
REMARK SMILES CCCCCCCC(=O)[O-]
REMARK SMILES IDX 5 1 6 2 7 3 8 4 9 5 10 6 4 7 3 8 2 9 1 10
REMARK H PARENT
REMARK Flexibility Score: inf
ROOT
ATOM      1  C   UNL     1      64.497  32.352  60.652  1.00  0.00     0.000 C 
ENDROOT
BRANCH   1   2
ATOM      2  C   UNL     1      63.774  31.047  60.276  1.00  0.00     0.006 C 
BRANCH   2   3
ATOM      3  C   UNL     1      63.908  29.977  61.368  1.00  0.00     0.053 C 
BRANCH   3   4
ATOM      4  C   UNL     1      62.581  29.383  61.730  1.00  0.00     0.041 C 
ATOM      5  O   UNL     1      61.615  30.131  62.036  1.00  0.00    -0.550 OA
ATOM      6  O   UNL     1      62.420  28.004  61.756  1.00  0.00    -0.550 OA
ENDBRANCH   3   4
ENDBRANCH   2   3
ENDBRANCH   1   2
BRANCH   1   7
ATOM      7  C   UNL     1      63.524  33.518  60.890  1.00  0.00     0.000 C 
BRANCH   7   8
ATOM      8  C   UNL     1      64.227  34.781  61.410  1.00  0.00    -0.000 C 
BRANCH   8   9
ATOM      9  C   UNL     1      63.280  35.986  61.381  1.00  0.00    -0.003 C 
ATOM     10  C   UNL     1      61.903  35.592  60.855  1.00  0.00     0.004 C 
ENDBRANCH   8   9
ENDBRANCH   7   8
ENDBRANCH   1   7
TORSDOF 6
ENDMDL
MODEL 7
REMARK VINA RESULT:    -3.251     12.818     13.825
REMARK INTER + INTRA:          -4.600
REMARK INTER:                  -4.260
REMARK INTRA:                  -0.339
REMARK UNBOUND:                -0.209
REMARK SMILES CCCCCCCC(=O)[O-]
REMARK SMILES IDX 5 1 6 2 7 3 8 4 9 5 10 6 4 7 3 8 2 9 1 10
REMARK H PARENT
REMARK Flexibility Score: inf
ROOT
ATOM      1  C   UNL     1      57.152  25.297  51.015  1.00  0.00     0.000 C 
ENDROOT
BRANCH   1   2
ATOM      2  C   UNL     1      58.473  26.069  51.173  1.00  0.00     0.006 C 
BRANCH   2   3
ATOM      3  C   UNL     1      59.375  25.928  49.939  1.00  0.00     0.053 C 
BRANCH   3   4
ATOM      4  C   UNL     1      60.068  27.214  49.607  1.00  0.00     0.041 C 
ATOM      5  O   UNL     1      59.396  28.255  49.379  1.00  0.00    -0.550 OA
ATOM      6  O   UNL     1      61.453  27.256  49.522  1.00  0.00    -0.550 OA
ENDBRANCH   3   4
ENDBRANCH   2   3
ENDBRANCH   1   2
BRANCH   1   7
ATOM      7  C   UNL     1      56.072  26.116  50.291  1.00  0.00     0.000 C 
BRANCH   7   8
ATOM      8  C   UNL     1      56.090  27.601  50.683  1.00  0.00    -0.000 C 
BRANCH   8   9
ATOM      9  C   UNL     1      54.675  28.191  50.658  1.00  0.00    -0.003 C 
ATOM     10  C   UNL     1      53.683  27.219  50.027  1.00  0.00     0.004 C 
ENDBRANCH   8   9
ENDBRANCH   7   8
ENDBRANCH   1   7
TORSDOF 6
ENDMDL
MODEL 8
REMARK VINA RESULT:    -3.243     12.822     13.688
REMARK INTER + INTRA:          -4.589
REMARK INTER:                  -4.155
REMARK INTRA:                  -0.434
REMARK UNBOUND:                -0.209
REMARK SMILES CCCCCCCC(=O)[O-]
REMARK SMILES IDX 5 1 6 2 7 3 8 4 9 5 10 6 4 7 3 8 2 9 1 10
REMARK H PARENT
REMARK Flexibility Score: inf
ROOT
ATOM      1  C   UNL     1      58.048  28.089  51.129  1.00  0.00     0.000 C 
ENDROOT
BRANCH   1   2
ATOM      2  C   UNL     1      56.573  27.747  50.853  1.00  0.00     0.006 C 
BRANCH   2   3
ATOM      3  C   UNL     1      56.385  26.277  50.456  1.00  0.00     0.053 C 
BRANCH   3   4
ATOM      4  C   UNL     1      54.993  26.004  49.978  1.00  0.00     0.041 C 
ATOM      5  O   UNL     1      54.185  26.954  49.799  1.00  0.00    -0.550 OA
ATOM      6  O   UNL     1      54.577  24.697  49.755  1.00  0.00    -0.550 OA
ENDBRANCH   3   4
ENDBRANCH   2   3
ENDBRANCH   1   2
BRANCH   1   7
ATOM      7  C   UNL     1      58.790  28.562  49.869  1.00  0.00     0.000 C 
BRANCH   7   8
ATOM      8  C   UNL     1      59.983  27.662  49.510  1.00  0.00    -0.000 C 
BRANCH   8   9
ATOM      9  C   UNL     1      60.277  26.669  50.641  1.00  0.00    -0.003 C 
ATOM     10  C   UNL     1      60.247  25.230  50.134  1.00  0.00     0.004 C 
ENDBRANCH   8   9
ENDBRANCH   7   8
ENDBRANCH   1   7
TORSDOF 6
ENDMDL
MODEL 9
REMARK VINA RESULT:    -3.201      3.430      5.234
REMARK INTER + INTRA:          -4.533
REMARK INTER:                  -4.141
REMARK INTRA:                  -0.391
REMARK UNBOUND:                -0.209
REMARK SMILES CCCCCCCC(=O)[O-]
REMARK SMILES IDX 5 1 6 2 7 3 8 4 9 5 10 6 4 7 3 8 2 9 1 10
REMARK H PARENT
REMARK Flexibility Score: inf
ROOT
ATOM      1  C   UNL     1      64.533  31.975  60.184  1.00  0.00     0.000 C 
ENDROOT
BRANCH   1   2
ATOM      2  C   UNL     1      64.125  33.244  60.952  1.00  0.00     0.006 C 
BRANCH   2   3
ATOM      3  C   UNL     1      62.665  33.635  60.687  1.00  0.00     0.053 C 
BRANCH   3   4
ATOM      4  C   UNL     1      62.410  35.078  60.998  1.00  0.00     0.041 C 
ATOM      5  O   UNL     1      61.320  35.615  60.669  1.00  0.00    -0.550 OA
ATOM      6  O   UNL     1      63.389  35.837  61.627  1.00  0.00    -0.550 OA
ENDBRANCH   3   4
ENDBRANCH   2   3
ENDBRANCH   1   2
BRANCH   1   7
ATOM      7  C   UNL     1      63.444  30.891  60.212  1.00  0.00     0.000 C 
BRANCH   7   8
ATOM      8  C   UNL     1      63.639  29.882  61.355  1.00  0.00    -0.000 C 
BRANCH   8   9
ATOM      9  C   UNL     1      62.288  29.389  61.886  1.00  0.00    -0.003 C 
ATOM     10  C   UNL     1      61.203  30.445  61.699  1.00  0.00     0.004 C 
ENDBRANCH   8   9
ENDBRANCH   7   8
ENDBRANCH   1   7
TORSDOF 6
ENDMDL
