MODEL 1
REMARK VINA RESULT:    -4.188      0.000      0.000
REMARK INTER + INTRA:          -6.323
REMARK INTER:                  -5.657
REMARK INTRA:                  -0.666
REMARK UNBOUND:                -0.666
REMARK SMILES O=C[C@@H](O)[C@@H](O)[C@@H](O)CO
REMARK SMILES IDX 7 1 9 2 10 3 5 5 3 6 2 7 1 8 4 9 6 11 8 13
REMARK H PARENT 10 4 4 10 6 12 8 14
REMARK Flexibility Score: inf
ROOT
ATOM      1  C   UNL     1      61.963  -6.750  -2.637  1.00  0.00     0.171 C 
ENDROOT
BRANCH   1   2
ATOM      2  C   UNL     1      63.156  -6.840  -3.602  1.00  0.00     0.190 C 
BRANCH   2   3
ATOM      3  O   UNL     1      64.075  -5.808  -3.358  1.00  0.00    -0.394 OA
ATOM      4  H   UNL     1      63.554  -5.009  -3.086  1.00  0.00     0.210 HD
ENDBRANCH   2   3
ENDBRANCH   1   2
BRANCH   1   5
ATOM      5  C   UNL     1      61.987  -5.435  -1.816  1.00  0.00     0.181 C 
BRANCH   5   6
ATOM      6  C   UNL     1      60.591  -5.065  -1.247  1.00  0.00     0.209 C 
BRANCH   6   7
ATOM      7  C   UNL     1      60.664  -4.073  -0.111  1.00  0.00     0.258 C 
ATOM      8  O   UNL     1      60.998  -4.425   1.009  1.00  0.00    -0.300 OA
ENDBRANCH   6   7
BRANCH   6   9
ATOM      9  O   UNL     1      59.741  -4.595  -2.264  1.00  0.00    -0.383 OA
ATOM     10  H   UNL     1      58.947  -5.191  -2.303  1.00  0.00     0.211 HD
ENDBRANCH   6   9
ENDBRANCH   5   6
BRANCH   5  11
ATOM     11  O   UNL     1      62.915  -5.554  -0.764  1.00  0.00    -0.387 OA
ATOM     12  H   UNL     1      62.422  -5.892   0.028  1.00  0.00     0.211 HD
ENDBRANCH   5  11
ENDBRANCH   1   5
BRANCH   1  13
ATOM     13  O   UNL     1      60.783  -6.818  -3.398  1.00  0.00    -0.388 OA
ATOM     14  H   UNL     1      60.025  -6.907  -2.764  1.00  0.00     0.211 HD
ENDBRANCH   1  13
TORSDOF 8
ENDMDL
MODEL 2
REMARK VINA RESULT:    -4.102      1.033      4.243
REMARK INTER + INTRA:          -6.207
REMARK INTER:                  -5.764
REMARK INTRA:                  -0.443
REMARK UNBOUND:                -0.666
REMARK SMILES O=C[C@@H](O)[C@@H](O)[C@@H](O)CO
REMARK SMILES IDX 7 1 9 2 10 3 5 5 3 6 2 7 1 8 4 9 6 11 8 13
REMARK H PARENT 10 4 4 10 6 12 8 14
REMARK Flexibility Score: inf
ROOT
ATOM      1  C   UNL     1      61.123  -5.656  -0.797  1.00  0.00     0.171 C 
ENDROOT
BRANCH   1   2
ATOM      2  C   UNL     1      60.808  -4.203  -0.407  1.00  0.00     0.190 C 
BRANCH   2   3
ATOM      3  O   UNL     1      61.639  -3.776   0.641  1.00  0.00    -0.394 OA
ATOM      4  H   UNL     1      61.999  -4.591   1.081  1.00  0.00     0.210 HD
ENDBRANCH   2   3
ENDBRANCH   1   2
BRANCH   1   5
ATOM      5  C   UNL     1      61.296  -5.814  -2.330  1.00  0.00     0.181 C 
BRANCH   5   6
ATOM      6  C   UNL     1      62.575  -6.608  -2.705  1.00  0.00     0.209 C 
BRANCH   6   7
ATOM      7  C   UNL     1      62.336  -7.628  -3.793  1.00  0.00     0.258 C 
ATOM      8  O   UNL     1      62.018  -7.281  -4.919  1.00  0.00    -0.300 OA
ENDBRANCH   6   7
BRANCH   6   9
ATOM      9  O   UNL     1      63.622  -5.739  -3.059  1.00  0.00    -0.383 OA
ATOM     10  H   UNL     1      64.240  -6.229  -3.663  1.00  0.00     0.211 HD
ENDBRANCH   6   9
ENDBRANCH   5   6
BRANCH   5  11
ATOM     11  O   UNL     1      60.162  -6.453  -2.867  1.00  0.00    -0.387 OA
ATOM     12  H   UNL     1      59.664  -5.776  -3.396  1.00  0.00     0.211 HD
ENDBRANCH   5  11
ENDBRANCH   1   5
BRANCH   1  13
ATOM     13  O   UNL     1      62.308  -6.034  -0.141  1.00  0.00    -0.388 OA
ATOM     14  H   UNL     1      62.921  -6.405  -0.826  1.00  0.00     0.211 HD
ENDBRANCH   1  13
TORSDOF 8
ENDMDL
MODEL 3
REMARK VINA RESULT:    -4.088      1.010      3.803
REMARK INTER + INTRA:          -6.188
REMARK INTER:                  -5.629
REMARK INTRA:                  -0.558
REMARK UNBOUND:                -0.666
REMARK SMILES O=C[C@@H](O)[C@@H](O)[C@@H](O)CO
REMARK SMILES IDX 7 1 9 2 10 3 5 5 3 6 2 7 1 8 4 9 6 11 8 13
REMARK H PARENT 10 4 4 10 6 12 8 14
REMARK Flexibility Score: inf
ROOT
ATOM      1  C   UNL     1      61.122  -4.755  -1.229  1.00  0.00     0.171 C 
ENDROOT
BRANCH   1   2
ATOM      2  C   UNL     1      60.754  -4.118   0.120  1.00  0.00     0.190 C 
BRANCH   2   3
ATOM      3  O   UNL     1      61.882  -3.541   0.725  1.00  0.00    -0.394 OA
ATOM      4  H   UNL     1      62.258  -4.216   1.348  1.00  0.00     0.210 HD
ENDBRANCH   2   3
ENDBRANCH   1   2
BRANCH   1   5
ATOM      5  C   UNL     1      61.530  -6.242  -1.069  1.00  0.00     0.181 C 
BRANCH   5   6
ATOM      6  C   UNL     1      62.545  -6.698  -2.151  1.00  0.00     0.209 C 
BRANCH   6   7
ATOM      7  C   UNL     1      61.903  -7.493  -3.262  1.00  0.00     0.258 C 
ATOM      8  O   UNL     1      60.742  -7.294  -3.586  1.00  0.00    -0.300 OA
ENDBRANCH   6   7
BRANCH   6   9
ATOM      9  O   UNL     1      63.255  -5.600  -2.671  1.00  0.00    -0.383 OA
ATOM     10  H   UNL     1      62.895  -5.401  -3.575  1.00  0.00     0.211 HD
ENDBRANCH   6   9
ENDBRANCH   5   6
BRANCH   5  11
ATOM     11  O   UNL     1      62.076  -6.444   0.212  1.00  0.00    -0.387 OA
ATOM     12  H   UNL     1      61.954  -5.601   0.721  1.00  0.00     0.211 HD
ENDBRANCH   5  11
ENDBRANCH   1   5
BRANCH   1  13
ATOM     13  O   UNL     1      60.003  -4.654  -2.075  1.00  0.00    -0.388 OA
ATOM     14  H   UNL     1      60.226  -5.126  -2.919  1.00  0.00     0.211 HD
ENDBRANCH   1  13
TORSDOF 8
ENDMDL
MODEL 4
REMARK VINA RESULT:    -4.031      1.040      2.432
REMARK INTER + INTRA:          -6.110
REMARK INTER:                  -5.394
REMARK INTRA:                  -0.717
REMARK UNBOUND:                -0.666
REMARK SMILES O=C[C@@H](O)[C@@H](O)[C@@H](O)CO
REMARK SMILES IDX 7 1 9 2 10 3 5 5 3 6 2 7 1 8 4 9 6 11 8 13
REMARK H PARENT 10 4 4 10 6 12 8 14
REMARK Flexibility Score: inf
ROOT
ATOM      1  C   UNL     1      62.725  -5.846  -2.763  1.00  0.00     0.171 C 
ENDROOT
BRANCH   1   2
ATOM      2  C   UNL     1      62.334  -7.250  -3.252  1.00  0.00     0.190 C 
BRANCH   2   3
ATOM      3  O   UNL     1      60.986  -7.286  -3.643  1.00  0.00    -0.394 OA
ATOM      4  H   UNL     1      60.623  -6.370  -3.528  1.00  0.00     0.210 HD
ENDBRANCH   2   3
ENDBRANCH   1   2
BRANCH   1   5
ATOM      5  C   UNL     1      62.251  -5.591  -1.309  1.00  0.00     0.181 C 
BRANCH   5   6
ATOM      6  C   UNL     1      61.480  -4.253  -1.162  1.00  0.00     0.209 C 
BRANCH   6   7
ATOM      7  C   UNL     1      60.005  -4.388  -1.458  1.00  0.00     0.258 C 
ATOM      8  O   UNL     1      59.618  -4.864  -2.513  1.00  0.00    -0.300 OA
ENDBRANCH   6   7
BRANCH   6   9
ATOM      9  O   UNL     1      61.683  -3.692   0.112  1.00  0.00    -0.383 OA
ATOM     10  H   UNL     1      60.876  -3.875   0.662  1.00  0.00     0.211 HD
ENDBRANCH   6   9
ENDBRANCH   5   6
BRANCH   5  11
ATOM     11  O   UNL     1      61.438  -6.660  -0.886  1.00  0.00    -0.387 OA
ATOM     12  H   UNL     1      60.494  -6.365  -0.973  1.00  0.00     0.211 HD
ENDBRANCH   5  11
ENDBRANCH   1   5
BRANCH   1  13
ATOM     13  O   UNL     1      64.124  -5.736  -2.837  1.00  0.00    -0.388 OA
ATOM     14  H   UNL     1      64.510  -6.492  -2.323  1.00  0.00     0.211 HD
ENDBRANCH   1  13
TORSDOF 8
ENDMDL
MODEL 5
REMARK VINA RESULT:    -3.897      1.264      1.977
REMARK INTER + INTRA:          -5.930
REMARK INTER:                  -5.197
REMARK INTRA:                  -0.733
REMARK UNBOUND:                -0.666
REMARK SMILES O=C[C@@H](O)[C@@H](O)[C@@H](O)CO
REMARK SMILES IDX 7 1 9 2 10 3 5 5 3 6 2 7 1 8 4 9 6 11 8 13
REMARK H PARENT 10 4 4 10 6 12 8 14
REMARK Flexibility Score: inf
ROOT
ATOM      1  C   UNL     1      62.235  -7.041  -3.350  1.00  0.00     0.171 C 
ENDROOT
BRANCH   1   2
ATOM      2  C   UNL     1      62.787  -7.163  -4.780  1.00  0.00     0.190 C 
BRANCH   2   3
ATOM      3  O   UNL     1      64.124  -7.591  -4.764  1.00  0.00    -0.394 OA
ATOM      4  H   UNL     1      64.370  -7.816  -5.699  1.00  0.00     0.210 HD
ENDBRANCH   2   3
ENDBRANCH   1   2
BRANCH   1   5
ATOM      5  C   UNL     1      62.684  -5.721  -2.673  1.00  0.00     0.181 C 
BRANCH   5   6
ATOM      6  C   UNL     1      62.238  -5.633  -1.189  1.00  0.00     0.209 C 
BRANCH   6   7
ATOM      7  C   UNL     1      61.121  -4.642  -0.968  1.00  0.00     0.258 C 
ATOM      8  O   UNL     1      60.170  -4.588  -1.732  1.00  0.00    -0.300 OA
ENDBRANCH   6   7
BRANCH   6   9
ATOM      9  O   UNL     1      61.882  -6.901  -0.694  1.00  0.00    -0.383 OA
ATOM     10  H   UNL     1      62.124  -6.937   0.268  1.00  0.00     0.211 HD
ENDBRANCH   6   9
ENDBRANCH   5   6
BRANCH   5  11
ATOM     11  O   UNL     1      64.084  -5.601  -2.758  1.00  0.00    -0.387 OA
ATOM     12  H   UNL     1      64.343  -4.792  -2.246  1.00  0.00     0.211 HD
ENDBRANCH   5  11
ENDBRANCH   1   5
BRANCH   1  13
ATOM     13  O   UNL     1      60.832  -7.088  -3.422  1.00  0.00    -0.388 OA
ATOM     14  H   UNL     1      60.535  -6.307  -3.956  1.00  0.00     0.211 HD
ENDBRANCH   1  13
TORSDOF 8
ENDMDL
MODEL 6
REMARK VINA RESULT:    -3.825      1.346      2.385
REMARK INTER + INTRA:          -5.832
REMARK INTER:                  -5.335
REMARK INTRA:                  -0.498
REMARK UNBOUND:                -0.666
REMARK SMILES O=C[C@@H](O)[C@@H](O)[C@@H](O)CO
REMARK SMILES IDX 7 1 9 2 10 3 5 5 3 6 2 7 1 8 4 9 6 11 8 13
REMARK H PARENT 10 4 4 10 6 12 8 14
REMARK Flexibility Score: inf
ROOT
ATOM      1  C   UNL     1      63.021  -6.444  -2.741  1.00  0.00     0.171 C 
ENDROOT
BRANCH   1   2
ATOM      2  C   UNL     1      63.550  -7.844  -2.393  1.00  0.00     0.190 C 
BRANCH   2   3
ATOM      3  O   UNL     1      62.497  -8.769  -2.308  1.00  0.00    -0.394 OA
ATOM      4  H   UNL     1      61.650  -8.259  -2.399  1.00  0.00     0.210 HD
ENDBRANCH   2   3
ENDBRANCH   1   2
BRANCH   1   5
ATOM      5  C   UNL     1      62.206  -5.831  -1.573  1.00  0.00     0.181 C 
BRANCH   5   6
ATOM      6  C   UNL     1      60.676  -5.866  -1.834  1.00  0.00     0.209 C 
BRANCH   6   7
ATOM      7  C   UNL     1      60.059  -4.489  -1.896  1.00  0.00     0.258 C 
ATOM      8  O   UNL     1      59.099  -4.264  -2.616  1.00  0.00    -0.300 OA
ENDBRANCH   6   7
BRANCH   6   9
ATOM      9  O   UNL     1      60.381  -6.596  -3.000  1.00  0.00    -0.383 OA
ATOM     10  H   UNL     1      59.649  -7.233  -2.787  1.00  0.00     0.211 HD
ENDBRANCH   6   9
ENDBRANCH   5   6
BRANCH   5  11
ATOM     11  O   UNL     1      62.503  -6.519  -0.382  1.00  0.00    -0.387 OA
ATOM     12  H   UNL     1      63.288  -6.072   0.029  1.00  0.00     0.211 HD
ENDBRANCH   5  11
ENDBRANCH   1   5
BRANCH   1  13
ATOM     13  O   UNL     1      64.125  -5.625  -3.036  1.00  0.00    -0.388 OA
ATOM     14  H   UNL     1      64.283  -5.044  -2.247  1.00  0.00     0.211 HD
ENDBRANCH   1  13
TORSDOF 8
ENDMDL
MODEL 7
REMARK VINA RESULT:    -3.651      1.426      3.994
REMARK INTER + INTRA:          -5.597
REMARK INTER:                  -4.778
REMARK INTRA:                  -0.819
REMARK UNBOUND:                -0.666
REMARK SMILES O=C[C@@H](O)[C@@H](O)[C@@H](O)CO
REMARK SMILES IDX 7 1 9 2 10 3 5 5 3 6 2 7 1 8 4 9 6 11 8 13
REMARK H PARENT 10 4 4 10 6 12 8 14
REMARK Flexibility Score: inf
ROOT
ATOM      1  C   UNL     1      60.994  -5.366  -0.572  1.00  0.00     0.171 C 
ENDROOT
BRANCH   1   2
ATOM      2  C   UNL     1      60.409  -4.423  -1.636  1.00  0.00     0.190 C 
BRANCH   2   3
ATOM      3  O   UNL     1      59.641  -5.138  -2.568  1.00  0.00    -0.394 OA
ATOM      4  H   UNL     1      59.902  -4.817  -3.471  1.00  0.00     0.210 HD
ENDBRANCH   2   3
ENDBRANCH   1   2
BRANCH   1   5
ATOM      5  C   UNL     1      62.134  -6.244  -1.148  1.00  0.00     0.181 C 
BRANCH   5   6
ATOM      6  C   UNL     1      61.675  -7.698  -1.437  1.00  0.00     0.209 C 
BRANCH   6   7
ATOM      7  C   UNL     1      61.688  -8.037  -2.908  1.00  0.00     0.258 C 
ATOM      8  O   UNL     1      60.904  -7.508  -3.681  1.00  0.00    -0.300 OA
ENDBRANCH   6   7
BRANCH   6   9
ATOM      9  O   UNL     1      62.442  -8.624  -0.706  1.00  0.00    -0.383 OA
ATOM     10  H   UNL     1      62.878  -8.140   0.044  1.00  0.00     0.211 HD
ENDBRANCH   6   9
ENDBRANCH   5   6
BRANCH   5  11
ATOM     11  O   UNL     1      62.631  -5.657  -2.327  1.00  0.00    -0.387 OA
ATOM     12  H   UNL     1      63.577  -5.940  -2.421  1.00  0.00     0.211 HD
ENDBRANCH   5  11
ENDBRANCH   1   5
BRANCH   1  13
ATOM     13  O   UNL     1      61.484  -4.576   0.483  1.00  0.00    -0.388 OA
ATOM     14  H   UNL     1      62.228  -4.027   0.123  1.00  0.00     0.211 HD
ENDBRANCH   1  13
TORSDOF 8
ENDMDL
MODEL 8
REMARK VINA RESULT:    -3.630     13.787     15.066
REMARK INTER + INTRA:          -5.568
REMARK INTER:                  -5.185
REMARK INTRA:                  -0.383
REMARK UNBOUND:                -0.666
REMARK SMILES O=C[C@@H](O)[C@@H](O)[C@@H](O)CO
REMARK SMILES IDX 7 1 9 2 10 3 5 5 3 6 2 7 1 8 4 9 6 11 8 13
REMARK H PARENT 10 4 4 10 6 12 8 14
REMARK Flexibility Score: inf
ROOT
ATOM      1  C   UNL     1      47.749  -8.685  -4.062  1.00  0.00     0.171 C 
ENDROOT
BRANCH   1   2
ATOM      2  C   UNL     1      47.914  -9.180  -2.616  1.00  0.00     0.190 C 
BRANCH   2   3
ATOM      3  O   UNL     1      49.210  -8.918  -2.143  1.00  0.00    -0.394 OA
ATOM      4  H   UNL     1      49.134  -8.723  -1.173  1.00  0.00     0.210 HD
ENDBRANCH   2   3
ENDBRANCH   1   2
BRANCH   1   5
ATOM      5  C   UNL     1      47.041  -7.307  -4.120  1.00  0.00     0.181 C 
BRANCH   5   6
ATOM      6  C   UNL     1      45.694  -7.299  -3.348  1.00  0.00     0.209 C 
BRANCH   6   7
ATOM      7  C   UNL     1      45.017  -5.950  -3.361  1.00  0.00     0.258 C 
ATOM      8  O   UNL     1      45.625  -4.940  -3.041  1.00  0.00    -0.300 OA
ENDBRANCH   6   7
BRANCH   6   9
ATOM      9  O   UNL     1      44.828  -8.295  -3.836  1.00  0.00    -0.383 OA
ATOM     10  H   UNL     1      44.073  -7.847  -4.300  1.00  0.00     0.211 HD
ENDBRANCH   6   9
ENDBRANCH   5   6
BRANCH   5  11
ATOM     11  O   UNL     1      47.895  -6.317  -3.600  1.00  0.00    -0.387 OA
ATOM     12  H   UNL     1      47.343  -5.718  -3.034  1.00  0.00     0.211 HD
ENDBRANCH   5  11
ENDBRANCH   1   5
BRANCH   1  13
ATOM     13  O   UNL     1      49.029  -8.590  -4.636  1.00  0.00    -0.388 OA
ATOM     14  H   UNL     1      48.961  -7.979  -5.415  1.00  0.00     0.211 HD
ENDBRANCH   1  13
TORSDOF 8
ENDMDL
MODEL 9
REMARK VINA RESULT:    -3.589      1.832      4.654
REMARK INTER + INTRA:          -5.514
REMARK INTER:                  -4.820
REMARK INTRA:                  -0.694
REMARK UNBOUND:                -0.666
REMARK SMILES O=C[C@@H](O)[C@@H](O)[C@@H](O)CO
REMARK SMILES IDX 7 1 9 2 10 3 5 5 3 6 2 7 1 8 4 9 6 11 8 13
REMARK H PARENT 10 4 4 10 6 12 8 14
REMARK Flexibility Score: inf
ROOT
ATOM      1  C   UNL     1      62.726  -6.211  -2.400  1.00  0.00     0.171 C 
ENDROOT
BRANCH   1   2
ATOM      2  C   UNL     1      61.888  -5.102  -1.746  1.00  0.00     0.190 C 
BRANCH   2   3
ATOM      3  O   UNL     1      61.119  -5.614  -0.689  1.00  0.00    -0.394 OA
ATOM      4  H   UNL     1      61.752  -5.958  -0.006  1.00  0.00     0.210 HD
ENDBRANCH   2   3
ENDBRANCH   1   2
BRANCH   1   5
ATOM      5  C   UNL     1      61.912  -6.998  -3.459  1.00  0.00     0.181 C 
BRANCH   5   6
ATOM      6  C   UNL     1      62.306  -8.498  -3.518  1.00  0.00     0.209 C 
BRANCH   6   7
ATOM      7  C   UNL     1      61.850  -9.177  -4.787  1.00  0.00     0.258 C 
ATOM      8  O   UNL     1      60.815  -8.840  -5.341  1.00  0.00    -0.300 OA
ENDBRANCH   6   7
BRANCH   6   9
ATOM      9  O   UNL     1      63.692  -8.662  -3.336  1.00  0.00    -0.383 OA
ATOM     10  H   UNL     1      63.990  -8.020  -2.640  1.00  0.00     0.211 HD
ENDBRANCH   6   9
ENDBRANCH   5   6
BRANCH   5  11
ATOM     11  O   UNL     1      60.537  -6.876  -3.181  1.00  0.00    -0.387 OA
ATOM     12  H   UNL     1      60.324  -7.524  -2.460  1.00  0.00     0.211 HD
ENDBRANCH   5  11
ENDBRANCH   1   5
BRANCH   1  13
ATOM     13  O   UNL     1      63.844  -5.610  -3.006  1.00  0.00    -0.388 OA
ATOM     14  H   UNL     1      64.548  -6.303  -3.084  1.00  0.00     0.211 HD
ENDBRANCH   1  13
TORSDOF 8
ENDMDL
