MODEL 1
REMARK VINA RESULT:    -6.478      0.000      0.000
REMARK INTER + INTRA:          -9.693
REMARK INTER:                  -9.319
REMARK INTRA:                  -0.374
REMARK UNBOUND:                -0.374
REMARK SMILES CC(C)=CCCC(C)=CCCC(C)=CCO
REMARK SMILES IDX 10 1 9 2 7 3 8 4 6 5 5 6 4 7 1 8 2 9 3 10 11 11 12 12 14 13
REMARK SMILES IDX 13 14 15 15 16 16
REMARK H PARENT 16 17
REMARK Flexibility Score: inf
ROOT
ATOM      1  C   UNL     1      11.733  -2.144  14.858  1.00  0.00     0.032 C 
ENDROOT
BRANCH   1   2
ATOM      2  C   UNL     1      11.099  -3.228  15.696  1.00  0.00    -0.028 C 
ATOM      3  C   UNL     1      11.578  -4.489  15.754  1.00  0.00    -0.077 C 
ATOM      4  C   UNL     1      12.802  -4.903  14.973  1.00  0.00     0.039 C 
BRANCH   3   5
ATOM      5  C   UNL     1      10.875  -5.509  16.623  1.00  0.00     0.034 C 
BRANCH   5   6
ATOM      6  C   UNL     1      11.793  -5.980  17.758  1.00  0.00     0.032 C 
BRANCH   6   7
ATOM      7  C   UNL     1      11.439  -5.289  19.051  1.00  0.00    -0.028 C 
ATOM      8  C   UNL     1      13.167  -3.501  18.756  1.00  0.00     0.039 C 
ATOM      9  C   UNL     1      12.030  -4.160  19.501  1.00  0.00    -0.080 C 
ATOM     10  C   UNL     1      11.541  -3.559  20.793  1.00  0.00     0.039 C 
ENDBRANCH   6   7
ENDBRANCH   5   6
ENDBRANCH   3   5
ENDBRANCH   1   2
BRANCH   1  11
ATOM     11  C   UNL     1      10.988  -1.962  13.529  1.00  0.00     0.034 C 
BRANCH  11  12
ATOM     12  C   UNL     1      11.830  -2.456  12.369  1.00  0.00    -0.075 C 
ATOM     13  C   UNL     1      13.180  -2.382  12.352  1.00  0.00    -0.000 C 
ATOM     14  C   UNL     1      11.135  -3.106  11.201  1.00  0.00     0.039 C 
BRANCH  13  15
ATOM     15  C   UNL     1      14.020  -1.763  13.440  1.00  0.00     0.183 C 
BRANCH  15  16
ATOM     16  O   UNL     1      14.296  -0.419  13.154  1.00  0.00    -0.392 OA
ATOM     17  H   UNL     1      14.914  -0.416  12.377  1.00  0.00     0.210 HD
ENDBRANCH  15  16
ENDBRANCH  13  15
ENDBRANCH  11  12
ENDBRANCH   1  11
TORSDOF 8
ENDMDL
MODEL 2
REMARK VINA RESULT:    -6.309      2.682      6.430
REMARK INTER + INTRA:          -9.449
REMARK INTER:                  -8.462
REMARK INTRA:                  -0.987
REMARK UNBOUND:                -0.374
REMARK SMILES CC(C)=CCCC(C)=CCCC(C)=CCO
REMARK SMILES IDX 10 1 9 2 7 3 8 4 6 5 5 6 4 7 1 8 2 9 3 10 11 11 12 12 14 13
REMARK SMILES IDX 13 14 15 15 16 16
REMARK H PARENT 16 17
REMARK Flexibility Score: inf
ROOT
ATOM      1  C   UNL     1      13.455  -3.368  17.859  1.00  0.00     0.032 C 
ENDROOT
BRANCH   1   2
ATOM      2  C   UNL     1      13.509  -2.994  16.398  1.00  0.00    -0.028 C 
ATOM      3  C   UNL     1      13.883  -1.771  15.963  1.00  0.00    -0.077 C 
ATOM      4  C   UNL     1      14.283  -0.680  16.929  1.00  0.00     0.039 C 
BRANCH   3   5
ATOM      5  C   UNL     1      13.908  -1.489  14.477  1.00  0.00     0.034 C 
BRANCH   5   6
ATOM      6  C   UNL     1      13.885  -2.796  13.675  1.00  0.00     0.032 C 
BRANCH   6   7
ATOM      7  C   UNL     1      12.981  -2.668  12.474  1.00  0.00    -0.028 C 
ATOM      8  C   UNL     1      10.961  -3.491  13.704  1.00  0.00     0.039 C 
ATOM      9  C   UNL     1      11.660  -2.952  12.478  1.00  0.00    -0.080 C 
ATOM     10  C   UNL     1      10.875  -2.736  11.210  1.00  0.00     0.039 C 
ENDBRANCH   6   7
ENDBRANCH   5   6
ENDBRANCH   3   5
ENDBRANCH   1   2
BRANCH   1  11
ATOM     11  C   UNL     1      13.322  -4.885  18.040  1.00  0.00     0.034 C 
BRANCH  11  12
ATOM     12  C   UNL     1      11.863  -5.298  18.062  1.00  0.00    -0.075 C 
ATOM     13  C   UNL     1      11.100  -5.257  19.178  1.00  0.00    -0.000 C 
ATOM     14  C   UNL     1      11.217  -5.726  16.770  1.00  0.00     0.039 C 
BRANCH  13  15
ATOM     15  C   UNL     1      11.596  -4.853  20.543  1.00  0.00     0.183 C 
BRANCH  15  16
ATOM     16  O   UNL     1      11.156  -3.564  20.874  1.00  0.00    -0.392 OA
ATOM     17  H   UNL     1      10.441  -3.674  21.553  1.00  0.00     0.210 HD
ENDBRANCH  15  16
ENDBRANCH  13  15
ENDBRANCH  11  12
ENDBRANCH   1  11
TORSDOF 8
ENDMDL
MODEL 3
REMARK VINA RESULT:    -5.801      2.725      6.337
REMARK INTER + INTRA:          -8.718
REMARK INTER:                  -7.822
REMARK INTRA:                  -0.896
REMARK UNBOUND:                -0.374
REMARK SMILES CC(C)=CCCC(C)=CCCC(C)=CCO
REMARK SMILES IDX 10 1 9 2 7 3 8 4 6 5 5 6 4 7 1 8 2 9 3 10 11 11 12 12 14 13
REMARK SMILES IDX 13 14 15 15 16 16
REMARK H PARENT 16 17
REMARK Flexibility Score: inf
ROOT
ATOM      1  C   UNL     1      10.969  -5.016  16.715  1.00  0.00     0.032 C 
ENDROOT
BRANCH   1   2
ATOM      2  C   UNL     1      11.000  -4.867  15.213  1.00  0.00    -0.028 C 
ATOM      3  C   UNL     1      11.023  -3.669  14.591  1.00  0.00    -0.077 C 
ATOM      4  C   UNL     1      11.023  -2.376  15.373  1.00  0.00     0.039 C 
BRANCH   3   5
ATOM      5  C   UNL     1      11.054  -3.619  13.080  1.00  0.00     0.034 C 
BRANCH   5   6
ATOM      6  C   UNL     1      11.794  -2.368  12.592  1.00  0.00     0.032 C 
BRANCH   6   7
ATOM      7  C   UNL     1      13.209  -2.707  12.194  1.00  0.00    -0.028 C 
ATOM      8  C   UNL     1      14.185  -1.869  14.343  1.00  0.00     0.039 C 
ATOM      9  C   UNL     1      14.291  -2.512  12.980  1.00  0.00    -0.080 C 
ATOM     10  C   UNL     1      15.641  -2.940  12.463  1.00  0.00     0.039 C 
ENDBRANCH   6   7
ENDBRANCH   5   6
ENDBRANCH   3   5
ENDBRANCH   1   2
BRANCH   1  11
ATOM     11  C   UNL     1      12.382  -5.191  17.286  1.00  0.00     0.034 C 
BRANCH  11  12
ATOM     12  C   UNL     1      12.657  -4.162  18.365  1.00  0.00    -0.075 C 
ATOM     13  C   UNL     1      12.070  -4.194  19.583  1.00  0.00    -0.000 C 
ATOM     14  C   UNL     1      13.669  -3.081  18.088  1.00  0.00     0.039 C 
BRANCH  13  15
ATOM     15  C   UNL     1      11.040  -5.207  20.013  1.00  0.00     0.183 C 
BRANCH  15  16
ATOM     16  O   UNL     1      11.488  -5.935  21.125  1.00  0.00    -0.392 OA
ATOM     17  H   UNL     1      10.752  -6.554  21.373  1.00  0.00     0.210 HD
ENDBRANCH  15  16
ENDBRANCH  13  15
ENDBRANCH  11  12
ENDBRANCH   1  11
TORSDOF 8
ENDMDL
MODEL 4
REMARK VINA RESULT:    -5.685      1.497      1.806
REMARK INTER + INTRA:          -8.551
REMARK INTER:                  -7.499
REMARK INTRA:                  -1.052
REMARK UNBOUND:                -0.374
REMARK SMILES CC(C)=CCCC(C)=CCCC(C)=CCO
REMARK SMILES IDX 10 1 9 2 7 3 8 4 6 5 5 6 4 7 1 8 2 9 3 10 11 11 12 12 14 13
REMARK SMILES IDX 13 14 15 15 16 16
REMARK H PARENT 16 17
REMARK Flexibility Score: inf
ROOT
ATOM      1  C   UNL     1      12.425  -1.896  14.499  1.00  0.00     0.032 C 
ENDROOT
BRANCH   1   2
ATOM      2  C   UNL     1      11.990  -2.972  15.464  1.00  0.00    -0.028 C 
ATOM      3  C   UNL     1      11.282  -4.059  15.087  1.00  0.00    -0.077 C 
ATOM      4  C   UNL     1      10.875  -4.273  13.648  1.00  0.00     0.039 C 
BRANCH   3   5
ATOM      5  C   UNL     1      10.891  -5.085  16.127  1.00  0.00     0.034 C 
BRANCH   5   6
ATOM      6  C   UNL     1      12.038  -5.319  17.118  1.00  0.00     0.032 C 
BRANCH   6   7
ATOM      7  C   UNL     1      11.590  -5.032  18.529  1.00  0.00    -0.028 C 
ATOM      8  C   UNL     1      13.256  -3.191  18.856  1.00  0.00     0.039 C 
ATOM      9  C   UNL     1      12.110  -4.062  19.314  1.00  0.00    -0.080 C 
ATOM     10  C   UNL     1      11.531  -3.864  20.691  1.00  0.00     0.039 C 
ENDBRANCH   6   7
ENDBRANCH   5   6
ENDBRANCH   3   5
ENDBRANCH   1   2
BRANCH   1  11
ATOM     11  C   UNL     1      13.886  -2.087  14.074  1.00  0.00     0.034 C 
BRANCH  11  12
ATOM     12  C   UNL     1      13.974  -2.485  12.614  1.00  0.00    -0.075 C 
ATOM     13  C   UNL     1      15.043  -3.122  12.084  1.00  0.00    -0.000 C 
ATOM     14  C   UNL     1      12.795  -2.203  11.719  1.00  0.00     0.039 C 
BRANCH  13  15
ATOM     15  C   UNL     1      16.297  -3.473  12.844  1.00  0.00     0.183 C 
BRANCH  15  16
ATOM     16  O   UNL     1      17.181  -2.386  12.881  1.00  0.00    -0.392 OA
ATOM     17  H   UNL     1      16.685  -1.632  13.293  1.00  0.00     0.210 HD
ENDBRANCH  15  16
ENDBRANCH  13  15
ENDBRANCH  11  12
ENDBRANCH   1  11
TORSDOF 8
ENDMDL
MODEL 5
REMARK VINA RESULT:    -5.619      1.511      2.410
REMARK INTER + INTRA:          -8.457
REMARK INTER:                  -7.553
REMARK INTRA:                  -0.903
REMARK UNBOUND:                -0.374
REMARK SMILES CC(C)=CCCC(C)=CCCC(C)=CCO
REMARK SMILES IDX 10 1 9 2 7 3 8 4 6 5 5 6 4 7 1 8 2 9 3 10 11 11 12 12 14 13
REMARK SMILES IDX 13 14 15 15 16 16
REMARK H PARENT 16 17
REMARK Flexibility Score: inf
ROOT
ATOM      1  C   UNL     1      11.228  -1.752  14.815  1.00  0.00     0.032 C 
ENDROOT
BRANCH   1   2
ATOM      2  C   UNL     1      11.272  -2.926  15.763  1.00  0.00    -0.028 C 
ATOM      3  C   UNL     1      11.160  -4.208  15.354  1.00  0.00    -0.077 C 
ATOM      4  C   UNL     1      10.985  -4.556  13.895  1.00  0.00     0.039 C 
BRANCH   3   5
ATOM      5  C   UNL     1      11.215  -5.319  16.378  1.00  0.00     0.034 C 
BRANCH   5   6
ATOM      6  C   UNL     1      12.265  -5.015  17.454  1.00  0.00     0.032 C 
BRANCH   6   7
ATOM      7  C   UNL     1      11.974  -5.787  18.717  1.00  0.00    -0.028 C 
ATOM      8  C   UNL     1      11.583  -3.724  20.081  1.00  0.00     0.039 C 
ATOM      9  C   UNL     1      11.640  -5.222  19.898  1.00  0.00    -0.080 C 
ATOM     10  C   UNL     1      11.335  -6.125  21.066  1.00  0.00     0.039 C 
ENDBRANCH   6   7
ENDBRANCH   5   6
ENDBRANCH   3   5
ENDBRANCH   1   2
BRANCH   1  11
ATOM     11  C   UNL     1      12.413  -0.806  15.047  1.00  0.00     0.034 C 
BRANCH  11  12
ATOM     12  C   UNL     1      13.692  -1.590  15.267  1.00  0.00    -0.075 C 
ATOM     13  C   UNL     1      14.363  -2.206  14.267  1.00  0.00    -0.000 C 
ATOM     14  C   UNL     1      14.273  -1.646  16.656  1.00  0.00     0.039 C 
BRANCH  13  15
ATOM     15  C   UNL     1      13.914  -2.243  12.828  1.00  0.00     0.183 C 
BRANCH  15  16
ATOM     16  O   UNL     1      14.930  -2.742  12.001  1.00  0.00    -0.392 OA
ATOM     17  H   UNL     1      14.548  -3.524  11.524  1.00  0.00     0.210 HD
ENDBRANCH  15  16
ENDBRANCH  13  15
ENDBRANCH  11  12
ENDBRANCH   1  11
TORSDOF 8
ENDMDL
MODEL 6
REMARK VINA RESULT:    -5.410      1.552      2.372
REMARK INTER + INTRA:          -8.157
REMARK INTER:                  -6.976
REMARK INTRA:                  -1.181
REMARK UNBOUND:                -0.374
REMARK SMILES CC(C)=CCCC(C)=CCCC(C)=CCO
REMARK SMILES IDX 10 1 9 2 7 3 8 4 6 5 5 6 4 7 1 8 2 9 3 10 11 11 12 12 14 13
REMARK SMILES IDX 13 14 15 15 16 16
REMARK H PARENT 16 17
REMARK Flexibility Score: inf
ROOT
ATOM      1  C   UNL     1      14.074  -2.011  15.212  1.00  0.00     0.032 C 
ENDROOT
BRANCH   1   2
ATOM      2  C   UNL     1      13.433  -3.359  15.436  1.00  0.00    -0.028 C 
ATOM      3  C   UNL     1      12.116  -3.516  15.693  1.00  0.00    -0.077 C 
ATOM      4  C   UNL     1      11.183  -2.331  15.769  1.00  0.00     0.039 C 
BRANCH   3   5
ATOM      5  C   UNL     1      11.563  -4.908  15.904  1.00  0.00     0.034 C 
BRANCH   5   6
ATOM      6  C   UNL     1      12.223  -5.576  17.116  1.00  0.00     0.032 C 
BRANCH   6   7
ATOM      7  C   UNL     1      11.519  -5.182  18.391  1.00  0.00    -0.028 C 
ATOM      8  C   UNL     1      13.212  -3.432  18.974  1.00  0.00     0.039 C 
ATOM      9  C   UNL     1      11.937  -4.203  19.223  1.00  0.00    -0.080 C 
ATOM     10  C   UNL     1      11.107  -3.892  20.441  1.00  0.00     0.039 C 
ENDBRANCH   6   7
ENDBRANCH   5   6
ENDBRANCH   3   5
ENDBRANCH   1   2
BRANCH   1  11
ATOM     11  C   UNL     1      13.671  -1.423  13.854  1.00  0.00     0.034 C 
BRANCH  11  12
ATOM     12  C   UNL     1      14.002  -2.386  12.731  1.00  0.00    -0.075 C 
ATOM     13  C   UNL     1      13.077  -2.856  11.864  1.00  0.00    -0.000 C 
ATOM     14  C   UNL     1      15.438  -2.800  12.539  1.00  0.00     0.039 C 
BRANCH  13  15
ATOM     15  C   UNL     1      11.605  -2.537  11.922  1.00  0.00     0.183 C 
BRANCH  15  16
ATOM     16  O   UNL     1      10.875  -3.631  12.409  1.00  0.00    -0.392 OA
ATOM     17  H   UNL     1      11.142  -3.750  13.357  1.00  0.00     0.210 HD
ENDBRANCH  15  16
ENDBRANCH  13  15
ENDBRANCH  11  12
ENDBRANCH   1  11
TORSDOF 8
ENDMDL
MODEL 7
REMARK VINA RESULT:    -5.040      2.654      6.462
REMARK INTER + INTRA:          -7.624
REMARK INTER:                  -7.086
REMARK INTRA:                  -0.538
REMARK UNBOUND:                -0.374
REMARK SMILES CC(C)=CCCC(C)=CCCC(C)=CCO
REMARK SMILES IDX 10 1 9 2 7 3 8 4 6 5 5 6 4 7 1 8 2 9 3 10 11 11 12 12 14 13
REMARK SMILES IDX 13 14 15 15 16 16
REMARK H PARENT 16 17
REMARK Flexibility Score: inf
ROOT
ATOM      1  C   UNL     1      13.418  -3.556  18.161  1.00  0.00     0.032 C 
ENDROOT
BRANCH   1   2
ATOM      2  C   UNL     1      12.544  -3.282  16.961  1.00  0.00    -0.028 C 
ATOM      3  C   UNL     1      12.796  -2.294  16.075  1.00  0.00    -0.077 C 
ATOM      4  C   UNL     1      13.993  -1.386  16.229  1.00  0.00     0.039 C 
BRANCH   3   5
ATOM      5  C   UNL     1      11.863  -2.095  14.902  1.00  0.00     0.034 C 
BRANCH   5   6
ATOM      6  C   UNL     1      12.034  -3.220  13.875  1.00  0.00     0.032 C 
BRANCH   6   7
ATOM      7  C   UNL     1      13.495  -3.468  13.593  1.00  0.00    -0.028 C 
ATOM      8  C   UNL     1      13.505  -2.048  11.531  1.00  0.00     0.039 C 
ATOM      9  C   UNL     1      14.176  -2.928  12.559  1.00  0.00    -0.080 C 
ATOM     10  C   UNL     1      15.646  -3.234  12.429  1.00  0.00     0.039 C 
ENDBRANCH   6   7
ENDBRANCH   5   6
ENDBRANCH   3   5
ENDBRANCH   1   2
BRANCH   1  11
ATOM     11  C   UNL     1      13.342  -5.031  18.577  1.00  0.00     0.034 C 
BRANCH  11  12
ATOM     12  C   UNL     1      11.903  -5.506  18.613  1.00  0.00    -0.075 C 
ATOM     13  C   UNL     1      11.103  -5.361  19.694  1.00  0.00    -0.000 C 
ATOM     14  C   UNL     1      11.319  -6.124  17.369  1.00  0.00     0.039 C 
BRANCH  13  15
ATOM     15  C   UNL     1      11.536  -4.765  21.009  1.00  0.00     0.183 C 
BRANCH  15  16
ATOM     16  O   UNL     1      11.287  -3.386  21.039  1.00  0.00    -0.392 OA
ATOM     17  H   UNL     1      11.888  -3.005  21.731  1.00  0.00     0.210 HD
ENDBRANCH  15  16
ENDBRANCH  13  15
ENDBRANCH  11  12
ENDBRANCH   1  11
TORSDOF 8
ENDMDL
MODEL 8
REMARK VINA RESULT:    -5.003      1.761      5.917
REMARK INTER + INTRA:          -7.571
REMARK INTER:                  -6.972
REMARK INTRA:                  -0.598
REMARK UNBOUND:                -0.374
REMARK SMILES CC(C)=CCCC(C)=CCCC(C)=CCO
REMARK SMILES IDX 10 1 9 2 7 3 8 4 6 5 5 6 4 7 1 8 2 9 3 10 11 11 12 12 14 13
REMARK SMILES IDX 13 14 15 15 16 16
REMARK H PARENT 16 17
REMARK Flexibility Score: inf
ROOT
ATOM      1  C   UNL     1      10.875  -4.493  16.470  1.00  0.00     0.032 C 
ENDROOT
BRANCH   1   2
ATOM      2  C   UNL     1      10.995  -4.490  14.966  1.00  0.00    -0.028 C 
ATOM      3  C   UNL     1      11.151  -3.361  14.241  1.00  0.00    -0.077 C 
ATOM      4  C   UNL     1      11.220  -2.005  14.902  1.00  0.00     0.039 C 
BRANCH   3   5
ATOM      5  C   UNL     1      11.263  -3.457  12.736  1.00  0.00     0.034 C 
BRANCH   5   6
ATOM      6  C   UNL     1      12.122  -2.314  12.180  1.00  0.00     0.032 C 
BRANCH   6   7
ATOM      7  C   UNL     1      13.539  -2.776  11.950  1.00  0.00    -0.028 C 
ATOM      8  C   UNL     1      14.391  -1.740  14.064  1.00  0.00     0.039 C 
ATOM      9  C   UNL     1      14.565  -2.548  12.800  1.00  0.00    -0.080 C 
ATOM     10  C   UNL     1      15.921  -3.108  12.456  1.00  0.00     0.039 C 
ENDBRANCH   6   7
ENDBRANCH   5   6
ENDBRANCH   3   5
ENDBRANCH   1   2
BRANCH   1  11
ATOM     11  C   UNL     1      11.469  -5.773  17.073  1.00  0.00     0.034 C 
BRANCH  11  12
ATOM     12  C   UNL     1      12.150  -5.479  18.395  1.00  0.00    -0.075 C 
ATOM     13  C   UNL     1      13.194  -4.627  18.516  1.00  0.00    -0.000 C 
ATOM     14  C   UNL     1      11.607  -6.125  19.643  1.00  0.00     0.039 C 
BRANCH  13  15
ATOM     15  C   UNL     1      13.850  -3.905  17.367  1.00  0.00     0.183 C 
BRANCH  15  16
ATOM     16  O   UNL     1      13.607  -2.527  17.438  1.00  0.00    -0.392 OA
ATOM     17  H   UNL     1      12.957  -2.317  16.718  1.00  0.00     0.210 HD
ENDBRANCH  15  16
ENDBRANCH  13  15
ENDBRANCH  11  12
ENDBRANCH   1  11
TORSDOF 8
ENDMDL
MODEL 9
REMARK VINA RESULT:    -3.852     14.705     17.645
REMARK INTER + INTRA:          -5.914
REMARK INTER:                  -5.165
REMARK INTRA:                  -0.749
REMARK UNBOUND:                -0.374
REMARK SMILES CC(C)=CCCC(C)=CCCC(C)=CCO
REMARK SMILES IDX 10 1 9 2 7 3 8 4 6 5 5 6 4 7 1 8 2 9 3 10 11 11 12 12 14 13
REMARK SMILES IDX 13 14 15 15 16 16
REMARK H PARENT 16 17
REMARK Flexibility Score: inf
ROOT
ATOM      1  C   UNL     1      10.921  11.154   3.526  1.00  0.00     0.032 C 
ENDROOT
BRANCH   1   2
ATOM      2  C   UNL     1      11.449   9.787   3.167  1.00  0.00    -0.028 C 
ATOM      3  C   UNL     1      11.984   9.496   1.961  1.00  0.00    -0.077 C 
ATOM      4  C   UNL     1      12.093  10.541   0.876  1.00  0.00     0.039 C 
BRANCH   3   5
ATOM      5  C   UNL     1      12.488   8.096   1.693  1.00  0.00     0.034 C 
BRANCH   5   6
ATOM      6  C   UNL     1      12.379   7.228   2.952  1.00  0.00     0.032 C 
BRANCH   6   7
ATOM      7  C   UNL     1      13.254   6.005   2.835  1.00  0.00    -0.028 C 
ATOM      8  C   UNL     1      14.063   6.158   5.199  1.00  0.00     0.039 C 
ATOM      9  C   UNL     1      13.996   5.497   3.843  1.00  0.00    -0.080 C 
ATOM     10  C   UNL     1      14.790   4.241   3.589  1.00  0.00     0.039 C 
ENDBRANCH   6   7
ENDBRANCH   5   6
ENDBRANCH   3   5
ENDBRANCH   1   2
BRANCH   1  11
ATOM     11  C   UNL     1      11.026  11.412   5.035  1.00  0.00     0.034 C 
BRANCH  11  12
ATOM     12  C   UNL     1      12.436  11.822   5.413  1.00  0.00    -0.075 C 
ATOM     13  C   UNL     1      13.356  10.952   5.888  1.00  0.00    -0.000 C 
ATOM     14  C   UNL     1      12.850  13.255   5.202  1.00  0.00     0.039 C 
BRANCH  13  15
ATOM     15  C   UNL     1      13.099   9.490   6.155  1.00  0.00     0.183 C 
BRANCH  15  16
ATOM     16  O   UNL     1      12.706   9.286   7.485  1.00  0.00    -0.392 OA
ATOM     17  H   UNL     1      11.852   9.777   7.606  1.00  0.00     0.210 HD
ENDBRANCH  15  16
ENDBRANCH  13  15
ENDBRANCH  11  12
ENDBRANCH   1  11
TORSDOF 8
ENDMDL
