MODEL 1
REMARK VINA RESULT:    -5.861      0.000      0.000
REMARK INTER + INTRA:          -6.443
REMARK INTER:                  -6.889
REMARK INTRA:                   0.446
REMARK UNBOUND:                 0.446
REMARK SMILES O=c1c(O)c(-c2ccc(O)c(O)c2)oc2cc(O)ccc12
REMARK SMILES IDX 5 1 3 2 2 3 1 4 21 5 15 6 14 7 16 8 17 9 19 10 20 11 6 12
REMARK SMILES IDX 7 13 8 14 9 15 13 16 11 17 10 18 12 20 4 22 18 24
REMARK H PARENT 10 19 12 21 4 23 18 25
REMARK Flexibility Score: inf
ROOT
ATOM      1  C   UNL     1       0.589   7.416  10.244  1.00  0.00     0.180 A 
ATOM      2  C   UNL     1       1.673   6.744   9.643  1.00  0.00     0.208 A 
ATOM      3  C   UNL     1       2.909   6.724  10.306  1.00  0.00     0.235 A 
ATOM      4  O   UNL     1       3.891   6.120   9.793  1.00  0.00    -0.285 OA
ATOM      5  C   UNL     1       3.043   7.387  11.536  1.00  0.00     0.069 A 
ATOM      6  C   UNL     1       1.916   8.057  12.061  1.00  0.00     0.142 A 
ATOM      7  O   UNL     1       0.762   8.044  11.406  1.00  0.00    -0.452 OA
ATOM      8  C   UNL     1       2.013   8.738  13.280  1.00  0.00     0.094 A 
ATOM      9  C   UNL     1       3.225   8.755  13.985  1.00  0.00     0.119 A 
ATOM     10  C   UNL     1       4.341   8.091  13.467  1.00  0.00     0.047 A 
ATOM     11  C   UNL     1       4.255   7.409  12.250  1.00  0.00     0.020 A 
ENDROOT
BRANCH   1  12
ATOM     12  C   UNL     1      -0.751   7.467   9.617  1.00  0.00     0.025 A 
ATOM     13  C   UNL     1      -1.750   8.270  10.186  1.00  0.00     0.016 A 
ATOM     14  C   UNL     1      -3.025   8.317   9.622  1.00  0.00     0.051 A 
ATOM     15  C   UNL     1      -3.335   7.554   8.491  1.00  0.00     0.157 A 
ATOM     16  C   UNL     1      -1.065   6.680   8.495  1.00  0.00     0.062 A 
ATOM     17  C   UNL     1      -2.344   6.719   7.924  1.00  0.00     0.158 A 
BRANCH  15  18
ATOM     18  O   UNL     1      -4.628   7.651   7.971  1.00  0.00    -0.504 OA
ATOM     19  H   UNL     1      -5.002   8.485   7.541  1.00  0.00     0.293 HD
ENDBRANCH  15  18
BRANCH  17  20
ATOM     20  O   UNL     1      -2.584   5.913   6.809  1.00  0.00    -0.504 OA
ATOM     21  H   UNL     1      -2.360   6.180   5.861  1.00  0.00     0.293 HD
ENDBRANCH  17  20
ENDBRANCH   1  12
BRANCH   2  22
ATOM     22  O   UNL     1       1.522   6.136   8.394  1.00  0.00    -0.502 OA
ATOM     23  H   UNL     1       2.302   5.727   7.893  1.00  0.00     0.293 HD
ENDBRANCH   2  22
BRANCH   9  24
ATOM     24  O   UNL     1       3.329   9.430  15.199  1.00  0.00    -0.508 OA
ATOM     25  H   UNL     1       3.371  10.442  15.241  1.00  0.00     0.293 HD
ENDBRANCH   9  24
TORSDOF 5
ENDMDL
MODEL 2
REMARK VINA RESULT:    -5.757      2.262      2.890
REMARK INTER + INTRA:          -6.321
REMARK INTER:                  -6.631
REMARK INTRA:                   0.311
REMARK UNBOUND:                 0.446
REMARK SMILES O=c1c(O)c(-c2ccc(O)c(O)c2)oc2cc(O)ccc12
REMARK SMILES IDX 5 1 3 2 2 3 1 4 21 5 15 6 14 7 16 8 17 9 19 10 20 11 6 12
REMARK SMILES IDX 7 13 8 14 9 15 13 16 11 17 10 18 12 20 4 22 18 24
REMARK H PARENT 10 19 12 21 4 23 18 25
REMARK Flexibility Score: inf
ROOT
ATOM      1  C   UNL     1       1.392   6.383   8.903  1.00  0.00     0.180 A 
ATOM      2  C   UNL     1       1.997   5.903   7.723  1.00  0.00     0.208 A 
ATOM      3  C   UNL     1       3.291   5.363   7.797  1.00  0.00     0.235 A 
ATOM      4  O   UNL     1       3.849   4.919   6.757  1.00  0.00    -0.285 OA
ATOM      5  C   UNL     1       3.956   5.333   9.033  1.00  0.00     0.069 A 
ATOM      6  C   UNL     1       3.291   5.855  10.164  1.00  0.00     0.142 A 
ATOM      7  O   UNL     1       2.064   6.348  10.053  1.00  0.00    -0.452 OA
ATOM      8  C   UNL     1       3.926   5.851  11.412  1.00  0.00     0.094 A 
ATOM      9  C   UNL     1       5.220   5.328  11.544  1.00  0.00     0.119 A 
ATOM     10  C   UNL     1       5.879   4.810  10.425  1.00  0.00     0.047 A 
ATOM     11  C   UNL     1       5.255   4.810   9.174  1.00  0.00     0.020 A 
ENDROOT
BRANCH   1  12
ATOM     12  C   UNL     1       0.025   6.949   8.912  1.00  0.00     0.025 A 
ATOM     13  C   UNL     1      -0.361   7.807   9.952  1.00  0.00     0.016 A 
ATOM     14  C   UNL     1      -1.652   8.337   9.989  1.00  0.00     0.051 A 
ATOM     15  C   UNL     1      -2.587   8.010   9.001  1.00  0.00     0.157 A 
ATOM     16  C   UNL     1      -0.919   6.599   7.930  1.00  0.00     0.062 A 
ATOM     17  C   UNL     1      -2.218   7.124   7.962  1.00  0.00     0.158 A 
BRANCH  15  18
ATOM     18  O   UNL     1      -3.859   8.579   9.092  1.00  0.00    -0.504 OA
ATOM     19  H   UNL     1      -4.715   8.084   8.885  1.00  0.00     0.293 HD
ENDBRANCH  15  18
BRANCH  17  20
ATOM     20  O   UNL     1      -3.102   6.735   6.953  1.00  0.00    -0.504 OA
ATOM     21  H   UNL     1      -2.828   6.209   6.135  1.00  0.00     0.293 HD
ENDBRANCH  17  20
ENDBRANCH   1  12
BRANCH   2  22
ATOM     22  O   UNL     1       1.329   5.992   6.500  1.00  0.00    -0.502 OA
ATOM     23  H   UNL     1       0.333   6.162   6.438  1.00  0.00     0.293 HD
ENDBRANCH   2  22
BRANCH   9  24
ATOM     24  O   UNL     1       5.858   5.320  12.782  1.00  0.00    -0.508 OA
ATOM     25  H   UNL     1       5.335   5.373  13.648  1.00  0.00     0.293 HD
ENDBRANCH   9  24
TORSDOF 5
ENDMDL
MODEL 3
REMARK VINA RESULT:    -5.694      1.770      2.229
REMARK INTER + INTRA:          -6.247
REMARK INTER:                  -5.927
REMARK INTRA:                  -0.320
REMARK UNBOUND:                 0.446
REMARK SMILES O=c1c(O)c(-c2ccc(O)c(O)c2)oc2cc(O)ccc12
REMARK SMILES IDX 5 1 3 2 2 3 1 4 21 5 15 6 14 7 16 8 17 9 19 10 20 11 6 12
REMARK SMILES IDX 7 13 8 14 9 15 13 16 11 17 10 18 12 20 4 22 18 24
REMARK H PARENT 10 19 12 21 4 23 18 25
REMARK Flexibility Score: inf
ROOT
ATOM      1  C   UNL     1       0.690   7.224   8.567  1.00  0.00     0.180 A 
ATOM      2  C   UNL     1       1.434   6.243   7.878  1.00  0.00     0.208 A 
ATOM      3  C   UNL     1       2.585   5.716   8.484  1.00  0.00     0.235 A 
ATOM      4  O   UNL     1       3.261   4.831   7.891  1.00  0.00    -0.285 OA
ATOM      5  C   UNL     1       2.979   6.190   9.745  1.00  0.00     0.069 A 
ATOM      6  C   UNL     1       2.194   7.190  10.360  1.00  0.00     0.142 A 
ATOM      7  O   UNL     1       1.107   7.655   9.757  1.00  0.00    -0.452 OA
ATOM      8  C   UNL     1       2.560   7.695  11.613  1.00  0.00     0.094 A 
ATOM      9  C   UNL     1       3.703   7.209  12.264  1.00  0.00     0.119 A 
ATOM     10  C   UNL     1       4.480   6.217  11.656  1.00  0.00     0.047 A 
ATOM     11  C   UNL     1       4.125   5.708  10.405  1.00  0.00     0.020 A 
ENDROOT
BRANCH   1  12
ATOM     12  C   UNL     1      -0.544   7.814   8.005  1.00  0.00     0.025 A 
ATOM     13  C   UNL     1      -0.477   9.041   7.328  1.00  0.00     0.016 A 
ATOM     14  C   UNL     1      -1.633   9.624   6.806  1.00  0.00     0.051 A 
ATOM     15  C   UNL     1      -2.878   9.007   6.962  1.00  0.00     0.157 A 
ATOM     16  C   UNL     1      -1.797   7.202   8.184  1.00  0.00     0.062 A 
ATOM     17  C   UNL     1      -2.963   7.783   7.667  1.00  0.00     0.158 A 
BRANCH  15  18
ATOM     18  O   UNL     1      -3.995   9.639   6.411  1.00  0.00    -0.504 OA
ATOM     19  H   UNL     1      -3.954  10.276   5.629  1.00  0.00     0.293 HD
ENDBRANCH  15  18
BRANCH  17  20
ATOM     20  O   UNL     1      -4.172   7.118   7.881  1.00  0.00    -0.504 OA
ATOM     21  H   UNL     1      -4.391   6.603   8.722  1.00  0.00     0.293 HD
ENDBRANCH  17  20
ENDBRANCH   1  12
BRANCH   2  22
ATOM     22  O   UNL     1       1.044   5.828   6.603  1.00  0.00    -0.502 OA
ATOM     23  H   UNL     1       1.004   4.851   6.340  1.00  0.00     0.293 HD
ENDBRANCH   2  22
BRANCH   9  24
ATOM     24  O   UNL     1       4.074   7.705  13.511  1.00  0.00    -0.508 OA
ATOM     25  H   UNL     1       3.628   7.386  14.363  1.00  0.00     0.293 HD
ENDBRANCH   9  24
TORSDOF 5
ENDMDL
MODEL 4
REMARK VINA RESULT:    -5.575      2.421      6.559
REMARK INTER + INTRA:          -6.108
REMARK INTER:                  -5.798
REMARK INTRA:                  -0.310
REMARK UNBOUND:                 0.446
REMARK SMILES O=c1c(O)c(-c2ccc(O)c(O)c2)oc2cc(O)ccc12
REMARK SMILES IDX 5 1 3 2 2 3 1 4 21 5 15 6 14 7 16 8 17 9 19 10 20 11 6 12
REMARK SMILES IDX 7 13 8 14 9 15 13 16 11 17 10 18 12 20 4 22 18 24
REMARK H PARENT 10 19 12 21 4 23 18 25
REMARK Flexibility Score: inf
ROOT
ATOM      1  C   UNL     1       1.410   6.801   8.547  1.00  0.00     0.180 A 
ATOM      2  C   UNL     1       1.597   7.624   9.678  1.00  0.00     0.208 A 
ATOM      3  C   UNL     1       0.479   8.242  10.258  1.00  0.00     0.235 A 
ATOM      4  O   UNL     1       0.620   8.975  11.275  1.00  0.00    -0.285 OA
ATOM      5  C   UNL     1      -0.790   8.044   9.691  1.00  0.00     0.069 A 
ATOM      6  C   UNL     1      -0.891   7.224   8.545  1.00  0.00     0.142 A 
ATOM      7  O   UNL     1       0.190   6.650   8.033  1.00  0.00    -0.452 OA
ATOM      8  C   UNL     1      -2.138   7.012   7.945  1.00  0.00     0.094 A 
ATOM      9  C   UNL     1      -3.289   7.607   8.480  1.00  0.00     0.119 A 
ATOM     10  C   UNL     1      -3.191   8.418   9.615  1.00  0.00     0.047 A 
ATOM     11  C   UNL     1      -1.950   8.638  10.220  1.00  0.00     0.020 A 
ENDROOT
BRANCH   1  12
ATOM     12  C   UNL     1       2.536   6.100   7.890  1.00  0.00     0.025 A 
ATOM     13  C   UNL     1       3.077   6.621   6.706  1.00  0.00     0.016 A 
ATOM     14  C   UNL     1       4.126   5.965   6.060  1.00  0.00     0.051 A 
ATOM     15  C   UNL     1       4.644   4.771   6.571  1.00  0.00     0.157 A 
ATOM     16  C   UNL     1       3.038   4.887   8.394  1.00  0.00     0.062 A 
ATOM     17  C   UNL     1       4.089   4.220   7.749  1.00  0.00     0.158 A 
BRANCH  15  18
ATOM     18  O   UNL     1       5.698   4.168   5.881  1.00  0.00    -0.504 OA
ATOM     19  H   UNL     1       5.600   3.712   4.985  1.00  0.00     0.293 HD
ENDBRANCH  15  18
BRANCH  17  20
ATOM     20  O   UNL     1       4.539   3.022   8.308  1.00  0.00    -0.504 OA
ATOM     21  H   UNL     1       5.512   2.763   8.377  1.00  0.00     0.293 HD
ENDBRANCH  17  20
ENDBRANCH   1  12
BRANCH   2  22
ATOM     22  O   UNL     1       2.879   7.841  10.189  1.00  0.00    -0.502 OA
ATOM     23  H   UNL     1       3.035   8.198  11.123  1.00  0.00     0.293 HD
ENDBRANCH   2  22
BRANCH   9  24
ATOM     24  O   UNL     1      -4.533   7.400   7.889  1.00  0.00    -0.508 OA
ATOM     25  H   UNL     1      -5.384   7.764   8.303  1.00  0.00     0.293 HD
ENDBRANCH   9  24
TORSDOF 5
ENDMDL
MODEL 5
REMARK VINA RESULT:    -5.572      1.349      2.991
REMARK INTER + INTRA:          -6.103
REMARK INTER:                  -6.549
REMARK INTRA:                   0.446
REMARK UNBOUND:                 0.446
REMARK SMILES O=c1c(O)c(-c2ccc(O)c(O)c2)oc2cc(O)ccc12
REMARK SMILES IDX 5 1 3 2 2 3 1 4 21 5 15 6 14 7 16 8 17 9 19 10 20 11 6 12
REMARK SMILES IDX 7 13 8 14 9 15 13 16 11 17 10 18 12 20 4 22 18 24
REMARK H PARENT 10 19 12 21 4 23 18 25
REMARK Flexibility Score: inf
ROOT
ATOM      1  C   UNL     1       0.572   7.533  10.147  1.00  0.00     0.180 A 
ATOM      2  C   UNL     1       1.039   8.542  11.015  1.00  0.00     0.208 A 
ATOM      3  C   UNL     1       2.355   8.464  11.496  1.00  0.00     0.235 A 
ATOM      4  O   UNL     1       2.799   9.359  12.267  1.00  0.00    -0.285 OA
ATOM      5  C   UNL     1       3.165   7.381  11.120  1.00  0.00     0.069 A 
ATOM      6  C   UNL     1       2.616   6.400  10.265  1.00  0.00     0.142 A 
ATOM      7  O   UNL     1       1.369   6.515   9.825  1.00  0.00    -0.452 OA
ATOM      8  C   UNL     1       3.388   5.300   9.876  1.00  0.00     0.094 A 
ATOM      9  C   UNL     1       4.708   5.168  10.329  1.00  0.00     0.119 A 
ATOM     10  C   UNL     1       5.254   6.140  11.174  1.00  0.00     0.047 A 
ATOM     11  C   UNL     1       4.490   7.241  11.570  1.00  0.00     0.020 A 
ENDROOT
BRANCH   1  12
ATOM     12  C   UNL     1      -0.796   7.554   9.582  1.00  0.00     0.025 A 
ATOM     13  C   UNL     1      -1.790   8.319  10.209  1.00  0.00     0.016 A 
ATOM     14  C   UNL     1      -3.091   8.337   9.704  1.00  0.00     0.051 A 
ATOM     15  C   UNL     1      -3.431   7.582   8.577  1.00  0.00     0.157 A 
ATOM     16  C   UNL     1      -1.139   6.774   8.464  1.00  0.00     0.062 A 
ATOM     17  C   UNL     1      -2.444   6.784   7.953  1.00  0.00     0.158 A 
BRANCH  15  18
ATOM     18  O   UNL     1      -4.748   7.649   8.118  1.00  0.00    -0.504 OA
ATOM     19  H   UNL     1      -5.177   8.487   7.753  1.00  0.00     0.293 HD
ENDBRANCH  15  18
BRANCH  17  20
ATOM     20  O   UNL     1      -2.712   5.987   6.838  1.00  0.00    -0.504 OA
ATOM     21  H   UNL     1      -2.591   6.294   5.883  1.00  0.00     0.293 HD
ENDBRANCH  17  20
ENDBRANCH   1  12
BRANCH   2  22
ATOM     22  O   UNL     1       0.194   9.581  11.411  1.00  0.00    -0.502 OA
ATOM     23  H   UNL     1      -0.797   9.581  11.205  1.00  0.00     0.293 HD
ENDBRANCH   2  22
BRANCH   9  24
ATOM     24  O   UNL     1       5.484   4.077   9.946  1.00  0.00    -0.508 OA
ATOM     25  H   UNL     1       5.324   3.152  10.330  1.00  0.00     0.293 HD
ENDBRANCH   9  24
TORSDOF 5
ENDMDL
MODEL 6
REMARK VINA RESULT:    -5.532      2.390      4.289
REMARK INTER + INTRA:          -6.057
REMARK INTER:                  -5.746
REMARK INTRA:                  -0.311
REMARK UNBOUND:                 0.446
REMARK SMILES O=c1c(O)c(-c2ccc(O)c(O)c2)oc2cc(O)ccc12
REMARK SMILES IDX 5 1 3 2 2 3 1 4 21 5 15 6 14 7 16 8 17 9 19 10 20 11 6 12
REMARK SMILES IDX 7 13 8 14 9 15 13 16 11 17 10 18 12 20 4 22 18 24
REMARK H PARENT 10 19 12 21 4 23 18 25
REMARK Flexibility Score: inf
ROOT
ATOM      1  C   UNL     1      -0.916   7.973   8.634  1.00  0.00     0.180 A 
ATOM      2  C   UNL     1      -0.465   8.312   9.927  1.00  0.00     0.208 A 
ATOM      3  C   UNL     1       0.783   7.835  10.355  1.00  0.00     0.235 A 
ATOM      4  O   UNL     1       1.212   8.133  11.503  1.00  0.00    -0.285 OA
ATOM      5  C   UNL     1       1.540   7.018   9.501  1.00  0.00     0.069 A 
ATOM      6  C   UNL     1       1.008   6.704   8.230  1.00  0.00     0.142 A 
ATOM      7  O   UNL     1      -0.172   7.184   7.859  1.00  0.00    -0.452 OA
ATOM      8  C   UNL     1       1.729   5.884   7.354  1.00  0.00     0.094 A 
ATOM      9  C   UNL     1       2.979   5.375   7.731  1.00  0.00     0.119 A 
ATOM     10  C   UNL     1       3.507   5.686   8.988  1.00  0.00     0.047 A 
ATOM     11  C   UNL     1       2.795   6.502   9.871  1.00  0.00     0.020 A 
ENDROOT
BRANCH   1  12
ATOM     12  C   UNL     1      -2.211   8.452   8.102  1.00  0.00     0.025 A 
ATOM     13  C   UNL     1      -2.256   9.645   7.366  1.00  0.00     0.016 A 
ATOM     14  C   UNL     1      -3.470  10.125   6.871  1.00  0.00     0.051 A 
ATOM     15  C   UNL     1      -4.662   9.436   7.114  1.00  0.00     0.157 A 
ATOM     16  C   UNL     1      -3.410   7.769   8.368  1.00  0.00     0.062 A 
ATOM     17  C   UNL     1      -4.634   8.246   7.878  1.00  0.00     0.158 A 
BRANCH  15  18
ATOM     18  O   UNL     1      -5.842   9.965   6.585  1.00  0.00    -0.504 OA
ATOM     19  H   UNL     1      -6.648   9.410   6.334  1.00  0.00     0.293 HD
ENDBRANCH  15  18
BRANCH  17  20
ATOM     20  O   UNL     1      -5.785   7.514   8.178  1.00  0.00    -0.504 OA
ATOM     21  H   UNL     1      -5.791   6.519   8.354  1.00  0.00     0.293 HD
ENDBRANCH  17  20
ENDBRANCH   1  12
BRANCH   2  22
ATOM     22  O   UNL     1      -1.263   9.086  10.772  1.00  0.00    -0.502 OA
ATOM     23  H   UNL     1      -1.840   9.843  10.429  1.00  0.00     0.293 HD
ENDBRANCH   2  22
BRANCH   9  24
ATOM     24  O   UNL     1       3.703   4.559   6.864  1.00  0.00    -0.508 OA
ATOM     25  H   UNL     1       3.303   3.712   6.477  1.00  0.00     0.293 HD
ENDBRANCH   9  24
TORSDOF 5
ENDMDL
MODEL 7
REMARK VINA RESULT:    -5.504      2.653      6.911
REMARK INTER + INTRA:          -6.024
REMARK INTER:                  -5.706
REMARK INTRA:                  -0.318
REMARK UNBOUND:                 0.446
REMARK SMILES O=c1c(O)c(-c2ccc(O)c(O)c2)oc2cc(O)ccc12
REMARK SMILES IDX 5 1 3 2 2 3 1 4 21 5 15 6 14 7 16 8 17 9 19 10 20 11 6 12
REMARK SMILES IDX 7 13 8 14 9 15 13 16 11 17 10 18 12 20 4 22 18 24
REMARK H PARENT 10 19 12 21 4 23 18 25
REMARK Flexibility Score: inf
ROOT
ATOM      1  C   UNL     1       2.161   6.708   8.766  1.00  0.00     0.180 A 
ATOM      2  C   UNL     1       2.582   7.975   8.311  1.00  0.00     0.208 A 
ATOM      3  C   UNL     1       1.619   8.879   7.836  1.00  0.00     0.235 A 
ATOM      4  O   UNL     1       1.971  10.022   7.434  1.00  0.00    -0.285 OA
ATOM      5  C   UNL     1       0.269   8.496   7.806  1.00  0.00     0.069 A 
ATOM      6  C   UNL     1      -0.070   7.201   8.257  1.00  0.00     0.142 A 
ATOM      7  O   UNL     1       0.871   6.379   8.707  1.00  0.00    -0.452 OA
ATOM      8  C   UNL     1      -1.404   6.779   8.233  1.00  0.00     0.094 A 
ATOM      9  C   UNL     1      -2.408   7.638   7.765  1.00  0.00     0.119 A 
ATOM     10  C   UNL     1      -2.074   8.921   7.320  1.00  0.00     0.047 A 
ATOM     11  C   UNL     1      -0.745   9.352   7.338  1.00  0.00     0.020 A 
ENDROOT
BRANCH   1  12
ATOM     12  C   UNL     1       3.112   5.707   9.298  1.00  0.00     0.025 A 
ATOM     13  C   UNL     1       3.564   4.673   8.465  1.00  0.00     0.016 A 
ATOM     14  C   UNL     1       4.446   3.708   8.953  1.00  0.00     0.051 A 
ATOM     15  C   UNL     1       4.882   3.745  10.281  1.00  0.00     0.157 A 
ATOM     16  C   UNL     1       3.529   5.734  10.640  1.00  0.00     0.062 A 
ATOM     17  C   UNL     1       4.413   4.767  11.139  1.00  0.00     0.158 A 
BRANCH  15  18
ATOM     18  O   UNL     1       5.771   2.754  10.705  1.00  0.00    -0.504 OA
ATOM     19  H   UNL     1       6.609   2.495  10.205  1.00  0.00     0.293 HD
ENDBRANCH  15  18
BRANCH  17  20
ATOM     20  O   UNL     1       4.786   4.858  12.481  1.00  0.00    -0.504 OA
ATOM     21  H   UNL     1       4.157   5.123  13.225  1.00  0.00     0.293 HD
ENDBRANCH  17  20
ENDBRANCH   1  12
BRANCH   2  22
ATOM     22  O   UNL     1       3.938   8.309   8.307  1.00  0.00    -0.502 OA
ATOM     23  H   UNL     1       4.271   9.218   8.009  1.00  0.00     0.293 HD
ENDBRANCH   2  22
BRANCH   9  24
ATOM     24  O   UNL     1      -3.738   7.226   7.738  1.00  0.00    -0.508 OA
ATOM     25  H   UNL     1      -4.119   6.717   6.948  1.00  0.00     0.293 HD
ENDBRANCH   9  24
TORSDOF 5
ENDMDL
MODEL 8
REMARK VINA RESULT:    -5.472     17.611     18.690
REMARK INTER + INTRA:          -5.986
REMARK INTER:                  -5.937
REMARK INTRA:                  -0.049
REMARK UNBOUND:                 0.446
REMARK SMILES O=c1c(O)c(-c2ccc(O)c(O)c2)oc2cc(O)ccc12
REMARK SMILES IDX 5 1 3 2 2 3 1 4 21 5 15 6 14 7 16 8 17 9 19 10 20 11 6 12
REMARK SMILES IDX 7 13 8 14 9 15 13 16 11 17 10 18 12 20 4 22 18 24
REMARK H PARENT 10 19 12 21 4 23 18 25
REMARK Flexibility Score: inf
ROOT
ATOM      1  C   UNL     1      -7.570  -2.388  22.570  1.00  0.00     0.180 A 
ATOM      2  C   UNL     1      -8.326  -2.273  21.384  1.00  0.00     0.208 A 
ATOM      3  C   UNL     1      -8.461  -3.398  20.556  1.00  0.00     0.235 A 
ATOM      4  O   UNL     1      -9.140  -3.322  19.496  1.00  0.00    -0.285 OA
ATOM      5  C   UNL     1      -7.828  -4.599  20.914  1.00  0.00     0.069 A 
ATOM      6  C   UNL     1      -7.069  -4.626  22.105  1.00  0.00     0.142 A 
ATOM      7  O   UNL     1      -6.974  -3.543  22.865  1.00  0.00    -0.452 OA
ATOM      8  C   UNL     1      -6.415  -5.802  22.490  1.00  0.00     0.094 A 
ATOM      9  C   UNL     1      -6.511  -6.955  21.699  1.00  0.00     0.119 A 
ATOM     10  C   UNL     1      -7.263  -6.930  20.520  1.00  0.00     0.047 A 
ATOM     11  C   UNL     1      -7.919  -5.760  20.125  1.00  0.00     0.020 A 
ENDROOT
BRANCH   1  12
ATOM     12  C   UNL     1      -7.396  -1.254  23.505  1.00  0.00     0.025 A 
ATOM     13  C   UNL     1      -8.527  -0.609  24.025  1.00  0.00     0.016 A 
ATOM     14  C   UNL     1      -8.385   0.475  24.893  1.00  0.00     0.051 A 
ATOM     15  C   UNL     1      -7.117   0.946  25.247  1.00  0.00     0.157 A 
ATOM     16  C   UNL     1      -6.120  -0.769  23.838  1.00  0.00     0.062 A 
ATOM     17  C   UNL     1      -5.968   0.321  24.707  1.00  0.00     0.158 A 
BRANCH  15  18
ATOM     18  O   UNL     1      -7.043   2.030  26.125  1.00  0.00    -0.504 OA
ATOM     19  H   UNL     1      -6.838   1.945  27.110  1.00  0.00     0.293 HD
ENDBRANCH  15  18
BRANCH  17  20
ATOM     20  O   UNL     1      -4.671   0.747  24.996  1.00  0.00    -0.504 OA
ATOM     21  H   UNL     1      -3.856   0.474  24.466  1.00  0.00     0.293 HD
ENDBRANCH  17  20
ENDBRANCH   1  12
BRANCH   2  22
ATOM     22  O   UNL     1      -8.903  -1.052  21.030  1.00  0.00    -0.502 OA
ATOM     23  H   UNL     1      -9.847  -0.801  21.297  1.00  0.00     0.293 HD
ENDBRANCH   2  22
BRANCH   9  24
ATOM     24  O   UNL     1      -5.863  -8.129  22.075  1.00  0.00    -0.508 OA
ATOM     25  H   UNL     1      -6.267  -9.040  21.889  1.00  0.00     0.293 HD
ENDBRANCH   9  24
TORSDOF 5
ENDMDL
MODEL 9
REMARK VINA RESULT:    -5.408     19.377     20.007
REMARK INTER + INTRA:          -5.911
REMARK INTER:                  -5.605
REMARK INTRA:                  -0.306
REMARK UNBOUND:                 0.446
REMARK SMILES O=c1c(O)c(-c2ccc(O)c(O)c2)oc2cc(O)ccc12
REMARK SMILES IDX 5 1 3 2 2 3 1 4 21 5 15 6 14 7 16 8 17 9 19 10 20 11 6 12
REMARK SMILES IDX 7 13 8 14 9 15 13 16 11 17 10 18 12 20 4 22 18 24
REMARK H PARENT 10 19 12 21 4 23 18 25
REMARK Flexibility Score: inf
ROOT
ATOM      1  C   UNL     1      -6.990  -5.071  23.095  1.00  0.00     0.180 A 
ATOM      2  C   UNL     1      -8.227  -5.749  23.119  1.00  0.00     0.208 A 
ATOM      3  C   UNL     1      -8.246  -7.132  22.878  1.00  0.00     0.235 A 
ATOM      4  O   UNL     1      -9.338  -7.762  22.904  1.00  0.00    -0.285 OA
ATOM      5  C   UNL     1      -7.043  -7.800  22.601  1.00  0.00     0.069 A 
ATOM      6  C   UNL     1      -5.849  -7.046  22.573  1.00  0.00     0.142 A 
ATOM      7  O   UNL     1      -5.873  -5.741  22.815  1.00  0.00    -0.452 OA
ATOM      8  C   UNL     1      -4.631  -7.675  22.290  1.00  0.00     0.094 A 
ATOM      9  C   UNL     1      -4.590  -9.053  22.038  1.00  0.00     0.119 A 
ATOM     10  C   UNL     1      -5.771  -9.801  22.067  1.00  0.00     0.047 A 
ATOM     11  C   UNL     1      -6.993  -9.183  22.347  1.00  0.00     0.020 A 
ENDROOT
BRANCH   1  12
ATOM     12  C   UNL     1      -6.885  -3.618  23.357  1.00  0.00     0.025 A 
ATOM     13  C   UNL     1      -6.617  -3.169  24.658  1.00  0.00     0.016 A 
ATOM     14  C   UNL     1      -6.533  -1.803  24.931  1.00  0.00     0.051 A 
ATOM     15  C   UNL     1      -6.729  -0.859  23.918  1.00  0.00     0.157 A 
ATOM     16  C   UNL     1      -7.107  -2.673  22.341  1.00  0.00     0.062 A 
ATOM     17  C   UNL     1      -7.027  -1.299  22.607  1.00  0.00     0.158 A 
BRANCH  15  18
ATOM     18  O   UNL     1      -6.624   0.493  24.255  1.00  0.00    -0.504 OA
ATOM     19  H   UNL     1      -7.294   0.986  24.828  1.00  0.00     0.293 HD
ENDBRANCH  15  18
BRANCH  17  20
ATOM     20  O   UNL     1      -7.257  -0.417  21.549  1.00  0.00    -0.504 OA
ATOM     21  H   UNL     1      -6.553  -0.147  20.876  1.00  0.00     0.293 HD
ENDBRANCH  17  20
ENDBRANCH   1  12
BRANCH   2  22
ATOM     22  O   UNL     1      -9.413  -5.048  23.348  1.00  0.00    -0.502 OA
ATOM     23  H   UNL     1     -10.175  -5.436  23.891  1.00  0.00     0.293 HD
ENDBRANCH   2  22
BRANCH   9  24
ATOM     24  O   UNL     1      -3.382  -9.687  21.756  1.00  0.00    -0.508 OA
ATOM     25  H   UNL     1      -2.638  -9.212  21.258  1.00  0.00     0.293 HD
ENDBRANCH   9  24
TORSDOF 5
ENDMDL
