MODEL 1
REMARK VINA RESULT:    -1.818      0.000      0.000
REMARK INTER + INTRA:          -2.542
REMARK INTER:                  -2.296
REMARK INTRA:                  -0.245
REMARK UNBOUND:                -0.245
REMARK SMILES CCCCC[C@H](C)O
REMARK SMILES IDX 4 1 3 2 2 3 1 4 5 5 6 6 7 7 8 8
REMARK H PARENT 8 9
REMARK Flexibility Score: inf
ROOT
ATOM      1  C   UNL     1     125.764 109.539 135.463  1.00  0.00     0.003 C 
ENDROOT
BRANCH   1   2
ATOM      2  C   UNL     1     126.645 109.978 134.277  1.00  0.00    -0.000 C 
BRANCH   2   3
ATOM      3  C   UNL     1     127.125 108.808 133.392  1.00  0.00    -0.003 C 
ATOM      4  C   UNL     1     126.747 107.442 133.965  1.00  0.00     0.004 C 
ENDBRANCH   2   3
ENDBRANCH   1   2
BRANCH   1   5
ATOM      5  C   UNL     1     126.010 110.301 136.780  1.00  0.00     0.031 C 
BRANCH   5   6
ATOM      6  C   UNL     1     126.059 109.423 138.047  1.00  0.00     0.111 C 
ATOM      7  C   UNL     1     125.991 107.926 137.717  1.00  0.00     0.038 C 
BRANCH   6   8
ATOM      8  O   UNL     1     124.969 109.766 138.864  1.00  0.00    -0.393 OA
ATOM      9  H   UNL     1     124.329 110.272 138.298  1.00  0.00     0.210 HD
ENDBRANCH   6   8
ENDBRANCH   5   6
ENDBRANCH   1   5
TORSDOF 5
ENDMDL
MODEL 2
REMARK VINA RESULT:    -1.692      2.173      3.284
REMARK INTER + INTRA:          -2.383
REMARK INTER:                  -2.043
REMARK INTRA:                  -0.340
REMARK UNBOUND:                -0.245
REMARK SMILES CCCCC[C@H](C)O
REMARK SMILES IDX 4 1 3 2 2 3 1 4 5 5 6 6 7 7 8 8
REMARK H PARENT 8 9
REMARK Flexibility Score: inf
ROOT
ATOM      1  C   UNL     1     127.125 108.976 133.340  1.00  0.00     0.003 C 
ENDROOT
BRANCH   1   2
ATOM      2  C   UNL     1     126.291 110.234 133.651  1.00  0.00    -0.000 C 
BRANCH   2   3
ATOM      3  C   UNL     1     127.077 111.334 134.395  1.00  0.00    -0.003 C 
ATOM      4  C   UNL     1     126.604 111.524 135.836  1.00  0.00     0.004 C 
ENDBRANCH   2   3
ENDBRANCH   1   2
BRANCH   1   5
ATOM      5  C   UNL     1     126.756 107.725 134.162  1.00  0.00     0.031 C 
BRANCH   5   6
ATOM      6  C   UNL     1     125.558 107.897 135.117  1.00  0.00     0.111 C 
ATOM      7  C   UNL     1     125.950 107.668 136.583  1.00  0.00     0.038 C 
BRANCH   6   8
ATOM      8  O   UNL     1     124.567 106.970 134.754  1.00  0.00    -0.393 OA
ATOM      9  H   UNL     1     123.852 107.025 135.441  1.00  0.00     0.210 HD
ENDBRANCH   6   8
ENDBRANCH   5   6
ENDBRANCH   1   5
TORSDOF 5
ENDMDL
MODEL 3
REMARK VINA RESULT:    -1.691      1.330      1.726
REMARK INTER + INTRA:          -2.381
REMARK INTER:                  -2.228
REMARK INTRA:                  -0.153
REMARK UNBOUND:                -0.245
REMARK SMILES CCCCC[C@H](C)O
REMARK SMILES IDX 4 1 3 2 2 3 1 4 5 5 6 6 7 7 8 8
REMARK H PARENT 8 9
REMARK Flexibility Score: inf
ROOT
ATOM      1  C   UNL     1     126.001 110.154 136.416  1.00  0.00     0.003 C 
ENDROOT
BRANCH   1   2
ATOM      2  C   UNL     1     126.503 109.934 134.976  1.00  0.00    -0.000 C 
BRANCH   2   3
ATOM      3  C   UNL     1     126.366 108.477 134.484  1.00  0.00    -0.003 C 
ATOM      4  C   UNL     1     127.125 108.221 133.182  1.00  0.00     0.004 C 
ENDBRANCH   2   3
ENDBRANCH   1   2
BRANCH   1   5
ATOM      5  C   UNL     1     125.807 108.870 137.246  1.00  0.00     0.031 C 
BRANCH   5   6
ATOM      6  C   UNL     1     126.143 109.002 138.746  1.00  0.00     0.111 C 
ATOM      7  C   UNL     1     126.851 110.325 139.067  1.00  0.00     0.038 C 
BRANCH   6   8
ATOM      8  O   UNL     1     126.977 107.932 139.107  1.00  0.00    -0.393 OA
ATOM      9  H   UNL     1     127.009 107.312 138.332  1.00  0.00     0.210 HD
ENDBRANCH   6   8
ENDBRANCH   5   6
ENDBRANCH   1   5
TORSDOF 5
ENDMDL
MODEL 4
REMARK VINA RESULT:    -1.621      2.410      4.408
REMARK INTER + INTRA:          -2.292
REMARK INTER:                  -2.045
REMARK INTRA:                  -0.248
REMARK UNBOUND:                -0.245
REMARK SMILES CCCCC[C@H](C)O
REMARK SMILES IDX 4 1 3 2 2 3 1 4 5 5 6 6 7 7 8 8
REMARK H PARENT 8 9
REMARK Flexibility Score: inf
ROOT
ATOM      1  C   UNL     1     125.669 109.226 136.378  1.00  0.00     0.003 C 
ENDROOT
BRANCH   1   2
ATOM      2  C   UNL     1     126.067 108.873 137.824  1.00  0.00    -0.000 C 
BRANCH   2   3
ATOM      3  C   UNL     1     126.593 110.076 138.637  1.00  0.00    -0.003 C 
ATOM      4  C   UNL     1     126.864 111.302 137.766  1.00  0.00     0.004 C 
ENDBRANCH   2   3
ENDBRANCH   1   2
BRANCH   1   5
ATOM      5  C   UNL     1     126.057 108.179 135.316  1.00  0.00     0.031 C 
BRANCH   5   6
ATOM      6  C   UNL     1     126.781 108.739 134.075  1.00  0.00     0.111 C 
ATOM      7  C   UNL     1     126.815 110.273 134.068  1.00  0.00     0.038 C 
BRANCH   6   8
ATOM      8  O   UNL     1     126.107 108.287 132.929  1.00  0.00    -0.393 OA
ATOM      9  H   UNL     1     126.780 107.838 132.353  1.00  0.00     0.210 HD
ENDBRANCH   6   8
ENDBRANCH   5   6
ENDBRANCH   1   5
TORSDOF 5
ENDMDL
MODEL 5
REMARK VINA RESULT:    -1.615      1.472      1.786
REMARK INTER + INTRA:          -2.285
REMARK INTER:                  -2.110
REMARK INTRA:                  -0.175
REMARK UNBOUND:                -0.245
REMARK SMILES CCCCC[C@H](C)O
REMARK SMILES IDX 4 1 3 2 2 3 1 4 5 5 6 6 7 7 8 8
REMARK H PARENT 8 9
REMARK Flexibility Score: inf
ROOT
ATOM      1  C   UNL     1     125.988 110.303 134.528  1.00  0.00     0.003 C 
ENDROOT
BRANCH   1   2
ATOM      2  C   UNL     1     127.125 109.640 133.726  1.00  0.00    -0.000 C 
BRANCH   2   3
ATOM      3  C   UNL     1     126.922 108.129 133.489  1.00  0.00    -0.003 C 
ATOM      4  C   UNL     1     126.436 107.397 134.741  1.00  0.00     0.004 C 
ENDBRANCH   2   3
ENDBRANCH   1   2
BRANCH   1   5
ATOM      5  C   UNL     1     126.430 111.027 135.815  1.00  0.00     0.031 C 
BRANCH   5   6
ATOM      6  C   UNL     1     125.647 110.642 137.087  1.00  0.00     0.111 C 
ATOM      7  C   UNL     1     125.729 111.728 138.168  1.00  0.00     0.038 C 
BRANCH   6   8
ATOM      8  O   UNL     1     126.185 109.447 137.592  1.00  0.00    -0.393 OA
ATOM      9  H   UNL     1     127.078 109.330 137.174  1.00  0.00     0.210 HD
ENDBRANCH   6   8
ENDBRANCH   5   6
ENDBRANCH   1   5
TORSDOF 5
ENDMDL
MODEL 6
REMARK VINA RESULT:    -1.527      1.916      2.654
REMARK INTER + INTRA:          -2.175
REMARK INTER:                  -1.904
REMARK INTRA:                  -0.271
REMARK UNBOUND:                -0.245
REMARK SMILES CCCCC[C@H](C)O
REMARK SMILES IDX 4 1 3 2 2 3 1 4 5 5 6 6 7 7 8 8
REMARK H PARENT 8 9
REMARK Flexibility Score: inf
ROOT
ATOM      1  C   UNL     1     125.853 109.534 137.223  1.00  0.00     0.003 C 
ENDROOT
BRANCH   1   2
ATOM      2  C   UNL     1     125.912 108.969 135.791  1.00  0.00    -0.000 C 
BRANCH   2   3
ATOM      3  C   UNL     1     126.377 109.994 134.735  1.00  0.00    -0.003 C 
ATOM      4  C   UNL     1     127.125 109.343 133.571  1.00  0.00     0.004 C 
ENDBRANCH   2   3
ENDBRANCH   1   2
BRANCH   1   5
ATOM      5  C   UNL     1     126.550 110.894 137.420  1.00  0.00     0.031 C 
BRANCH   5   6
ATOM      6  C   UNL     1     125.608 112.078 137.720  1.00  0.00     0.111 C 
ATOM      7  C   UNL     1     124.136 111.647 137.768  1.00  0.00     0.038 C 
BRANCH   6   8
ATOM      8  O   UNL     1     125.774 113.041 136.712  1.00  0.00    -0.393 OA
ATOM      9  H   UNL     1     126.611 112.814 136.227  1.00  0.00     0.210 HD
ENDBRANCH   6   8
ENDBRANCH   5   6
ENDBRANCH   1   5
TORSDOF 5
ENDMDL
MODEL 7
REMARK VINA RESULT:    -0.574      1.949      2.249
REMARK INTER + INTRA:          -0.970
REMARK INTER:                  -0.783
REMARK INTRA:                  -0.187
REMARK UNBOUND:                -0.245
REMARK SMILES CCCCC[C@H](C)O
REMARK SMILES IDX 4 1 3 2 2 3 1 4 5 5 6 6 7 7 8 8
REMARK H PARENT 8 9
REMARK Flexibility Score: inf
ROOT
ATOM      1  C   UNL     1     126.463 110.708 135.108  1.00  0.00     0.003 C 
ENDROOT
BRANCH   1   2
ATOM      2  C   UNL     1     127.125 110.315 133.773  1.00  0.00    -0.000 C 
BRANCH   2   3
ATOM      3  C   UNL     1     127.107 108.798 133.492  1.00  0.00    -0.003 C 
ATOM      4  C   UNL     1     126.360 108.008 134.567  1.00  0.00     0.004 C 
ENDBRANCH   2   3
ENDBRANCH   1   2
BRANCH   1   5
ATOM      5  C   UNL     1     126.891 112.077 135.674  1.00  0.00     0.031 C 
BRANCH   5   6
ATOM      6  C   UNL     1     126.922 112.170 137.214  1.00  0.00     0.111 C 
ATOM      7  C   UNL     1     126.563 110.836 137.881  1.00  0.00     0.038 C 
BRANCH   6   8
ATOM      8  O   UNL     1     126.000 113.150 137.615  1.00  0.00    -0.393 OA
ATOM      9  H   UNL     1     126.470 113.750 138.252  1.00  0.00     0.210 HD
ENDBRANCH   6   8
ENDBRANCH   5   6
ENDBRANCH   1   5
TORSDOF 5
ENDMDL
