MODEL 1
REMARK VINA RESULT:    -5.175      0.000      0.000
REMARK INTER + INTRA:         -10.630
REMARK INTER:                  -9.713
REMARK INTRA:                  -0.917
REMARK UNBOUND:                -0.917
REMARK SMILES O=C([O-])CCCCCCCCCCCCCCC(=O)[O-]
REMARK SMILES IDX 10 1 9 2 8 3 7 4 6 5 5 6 4 7 2 8 1 9 3 10 11 11 12 12 13 13
REMARK SMILES IDX 14 14 15 15 16 16 17 17 18 18 19 19 20 20
REMARK H PARENT
REMARK Flexibility Score: inf
ROOT
ATOM      1  C   UNL     1      12.254  -8.418   4.229  1.00  0.00     0.000 C 
ENDROOT
BRANCH   1   2
ATOM      2  C   UNL     1      13.095  -9.695   4.372  1.00  0.00     0.000 C 
BRANCH   2   3
ATOM      3  C   UNL     1      12.476 -10.713   5.346  1.00  0.00     0.000 C 
BRANCH   3   4
ATOM      4  C   UNL     1      11.400 -11.633   4.734  1.00  0.00     0.000 C 
BRANCH   4   5
ATOM      5  C   UNL     1      10.042 -11.624   5.458  1.00  0.00     0.000 C 
BRANCH   5   6
ATOM      6  C   UNL     1       9.316 -12.978   5.382  1.00  0.00     0.006 C 
BRANCH   6   7
ATOM      7  C   UNL     1       8.500 -13.269   6.649  1.00  0.00     0.053 C 
BRANCH   7   8
ATOM      8  C   UNL     1       8.643 -14.695   7.087  1.00  0.00     0.041 C 
ATOM      9  O   UNL     1       7.659 -15.480   7.030  1.00  0.00    -0.550 OA
ATOM     10  O   UNL     1       9.873 -15.166   7.530  1.00  0.00    -0.550 OA
ENDBRANCH   7   8
ENDBRANCH   6   7
ENDBRANCH   5   6
ENDBRANCH   4   5
ENDBRANCH   3   4
ENDBRANCH   2   3
ENDBRANCH   1   2
BRANCH   1  11
ATOM     11  C   UNL     1      12.161  -7.984   2.762  1.00  0.00     0.000 C 
BRANCH  11  12
ATOM     12  C   UNL     1      12.016  -9.197   1.835  1.00  0.00     0.000 C 
BRANCH  12  13
ATOM     13  C   UNL     1      12.329  -8.819   0.380  1.00  0.00     0.000 C 
BRANCH  13  14
ATOM     14  C   UNL     1      13.798  -9.071   0.003  1.00  0.00     0.000 C 
BRANCH  14  15
ATOM     15  C   UNL     1      14.448  -7.859  -0.686  1.00  0.00     0.000 C 
BRANCH  15  16
ATOM     16  C   UNL     1      14.327  -7.920  -2.223  1.00  0.00     0.006 C 
BRANCH  16  17
ATOM     17  C   UNL     1      13.207  -7.032  -2.787  1.00  0.00     0.053 C 
BRANCH  17  18
ATOM     18  C   UNL     1      12.141  -7.827  -3.473  1.00  0.00     0.041 C 
ATOM     19  O   UNL     1      12.297  -8.204  -4.665  1.00  0.00    -0.550 OA
ATOM     20  O   UNL     1      10.980  -8.171  -2.790  1.00  0.00    -0.550 OA
ENDBRANCH  17  18
ENDBRANCH  16  17
ENDBRANCH  15  16
ENDBRANCH  14  15
ENDBRANCH  13  14
ENDBRANCH  12  13
ENDBRANCH  11  12
ENDBRANCH   1  11
TORSDOF 15
ENDMDL
MODEL 2
REMARK VINA RESULT:    -5.117      2.705      4.585
REMARK INTER + INTRA:         -10.520
REMARK INTER:                  -9.513
REMARK INTRA:                  -1.007
REMARK UNBOUND:                -0.917
REMARK SMILES O=C([O-])CCCCCCCCCCCCCCC(=O)[O-]
REMARK SMILES IDX 10 1 9 2 8 3 7 4 6 5 5 6 4 7 2 8 1 9 3 10 11 11 12 12 13 13
REMARK SMILES IDX 14 14 15 15 16 16 17 17 18 18 19 19 20 20
REMARK H PARENT
REMARK Flexibility Score: inf
ROOT
ATOM      1  C   UNL     1      13.568  -9.313  -0.578  1.00  0.00     0.000 C 
ENDROOT
BRANCH   1   2
ATOM      2  C   UNL     1      13.390  -9.535   0.931  1.00  0.00     0.000 C 
BRANCH   2   3
ATOM      3  C   UNL     1      12.071  -8.954   1.470  1.00  0.00     0.000 C 
BRANCH   3   4
ATOM      4  C   UNL     1      12.223  -7.969   2.647  1.00  0.00     0.000 C 
BRANCH   4   5
ATOM      5  C   UNL     1      11.875  -8.544   4.031  1.00  0.00     0.000 C 
BRANCH   5   6
ATOM      6  C   UNL     1      13.028  -9.353   4.649  1.00  0.00     0.006 C 
BRANCH   6   7
ATOM      7  C   UNL     1      12.526 -10.575   5.430  1.00  0.00     0.053 C 
BRANCH   7   8
ATOM      8  C   UNL     1      11.475 -11.326   4.672  1.00  0.00     0.041 C 
ATOM      9  O   UNL     1      11.759 -11.894   3.584  1.00  0.00    -0.550 OA
ATOM     10  O   UNL     1      10.187 -11.425   5.183  1.00  0.00    -0.550 OA
ENDBRANCH   7   8
ENDBRANCH   6   7
ENDBRANCH   5   6
ENDBRANCH   4   5
ENDBRANCH   3   4
ENDBRANCH   2   3
ENDBRANCH   1   2
BRANCH   1  11
ATOM     11  C   UNL     1      14.384  -8.046  -0.854  1.00  0.00     0.000 C 
BRANCH  11  12
ATOM     12  C   UNL     1      14.398  -7.713  -2.350  1.00  0.00     0.000 C 
BRANCH  12  13
ATOM     13  C   UNL     1      13.068  -7.080  -2.786  1.00  0.00     0.000 C 
BRANCH  13  14
ATOM     14  C   UNL     1      12.307  -7.938  -3.809  1.00  0.00     0.000 C 
BRANCH  14  15
ATOM     15  C   UNL     1      13.033  -9.255  -4.133  1.00  0.00     0.000 C 
BRANCH  15  16
ATOM     16  C   UNL     1      12.360 -10.032  -5.283  1.00  0.00     0.006 C 
BRANCH  16  17
ATOM     17  C   UNL     1      11.227  -9.252  -5.971  1.00  0.00     0.053 C 
BRANCH  17  18
ATOM     18  C   UNL     1      11.143  -9.545  -7.436  1.00  0.00     0.041 C 
ATOM     19  O   UNL     1      12.188  -9.797  -8.094  1.00  0.00    -0.550 OA
ATOM     20  O   UNL     1       9.909  -9.560  -8.073  1.00  0.00    -0.550 OA
ENDBRANCH  17  18
ENDBRANCH  16  17
ENDBRANCH  15  16
ENDBRANCH  14  15
ENDBRANCH  13  14
ENDBRANCH  12  13
ENDBRANCH  11  12
ENDBRANCH   1  11
TORSDOF 15
ENDMDL
MODEL 3
REMARK VINA RESULT:    -5.054      9.068     11.063
REMARK INTER + INTRA:         -10.403
REMARK INTER:                  -9.258
REMARK INTRA:                  -1.145
REMARK UNBOUND:                -0.917
REMARK SMILES O=C([O-])CCCCCCCCCCCCCCC(=O)[O-]
REMARK SMILES IDX 10 1 9 2 8 3 7 4 6 5 5 6 4 7 2 8 1 9 3 10 11 11 12 12 13 13
REMARK SMILES IDX 14 14 15 15 16 16 17 17 18 18 19 19 20 20
REMARK H PARENT
REMARK Flexibility Score: inf
ROOT
ATOM      1  C   UNL     1       4.795 -18.021   0.032  1.00  0.00     0.000 C 
ENDROOT
BRANCH   1   2
ATOM      2  C   UNL     1       3.688 -17.993   1.097  1.00  0.00     0.000 C 
BRANCH   2   3
ATOM      3  C   UNL     1       3.812 -19.136   2.119  1.00  0.00     0.000 C 
BRANCH   3   4
ATOM      4  C   UNL     1       4.011 -18.688   3.581  1.00  0.00     0.000 C 
BRANCH   4   5
ATOM      5  C   UNL     1       3.313 -17.371   3.963  1.00  0.00     0.000 C 
BRANCH   5   6
ATOM      6  C   UNL     1       4.299 -16.285   4.426  1.00  0.00     0.006 C 
BRANCH   6   7
ATOM      7  C   UNL     1       5.751 -16.630   4.069  1.00  0.00     0.053 C 
BRANCH   7   8
ATOM      8  C   UNL     1       6.719 -15.665   4.683  1.00  0.00     0.041 C 
ATOM      9  O   UNL     1       6.813 -14.490   4.239  1.00  0.00    -0.550 OA
ATOM     10  O   UNL     1       7.497 -16.055   5.766  1.00  0.00    -0.550 OA
ENDBRANCH   7   8
ENDBRANCH   6   7
ENDBRANCH   5   6
ENDBRANCH   4   5
ENDBRANCH   3   4
ENDBRANCH   2   3
ENDBRANCH   1   2
BRANCH   1  11
ATOM     11  C   UNL     1       4.218 -18.350  -1.350  1.00  0.00     0.000 C 
BRANCH  11  12
ATOM     12  C   UNL     1       2.785 -17.824  -1.489  1.00  0.00     0.000 C 
BRANCH  12  13
ATOM     13  C   UNL     1       2.284 -17.966  -2.933  1.00  0.00     0.000 C 
BRANCH  13  14
ATOM     14  C   UNL     1       3.148 -18.921  -3.772  1.00  0.00     0.000 C 
BRANCH  14  15
ATOM     15  C   UNL     1       3.800 -18.224  -4.979  1.00  0.00     0.000 C 
BRANCH  15  16
ATOM     16  C   UNL     1       4.153 -16.750  -4.689  1.00  0.00     0.006 C 
BRANCH  16  17
ATOM     17  C   UNL     1       5.649 -16.435  -4.841  1.00  0.00     0.053 C 
BRANCH  17  18
ATOM     18  C   UNL     1       6.043 -16.225  -6.270  1.00  0.00     0.041 C 
ATOM     19  O   UNL     1       7.091 -16.756  -6.725  1.00  0.00    -0.550 OA
ATOM     20  O   UNL     1       5.242 -15.458  -7.107  1.00  0.00    -0.550 OA
ENDBRANCH  17  18
ENDBRANCH  16  17
ENDBRANCH  15  16
ENDBRANCH  14  15
ENDBRANCH  13  14
ENDBRANCH  12  13
ENDBRANCH  11  12
ENDBRANCH   1  11
TORSDOF 15
ENDMDL
MODEL 4
REMARK VINA RESULT:    -5.023      4.623      8.231
REMARK INTER + INTRA:         -10.346
REMARK INTER:                  -9.245
REMARK INTRA:                  -1.101
REMARK UNBOUND:                -0.917
REMARK SMILES O=C([O-])CCCCCCCCCCCCCCC(=O)[O-]
REMARK SMILES IDX 10 1 9 2 8 3 7 4 6 5 5 6 4 7 2 8 1 9 3 10 11 11 12 12 13 13
REMARK SMILES IDX 14 14 15 15 16 16 17 17 18 18 19 19 20 20
REMARK H PARENT
REMARK Flexibility Score: inf
ROOT
ATOM      1  C   UNL     1      12.242  -9.205  -3.541  1.00  0.00     0.000 C 
ENDROOT
BRANCH   1   2
ATOM      2  C   UNL     1      12.222  -7.676  -3.683  1.00  0.00     0.000 C 
BRANCH   2   3
ATOM      3  C   UNL     1      13.211  -6.974  -2.735  1.00  0.00     0.000 C 
BRANCH   3   4
ATOM      4  C   UNL     1      14.377  -7.853  -2.239  1.00  0.00     0.000 C 
BRANCH   4   5
ATOM      5  C   UNL     1      14.473  -8.013  -0.712  1.00  0.00     0.000 C 
BRANCH   5   6
ATOM      6  C   UNL     1      13.126  -8.376  -0.064  1.00  0.00     0.006 C 
BRANCH   6   7
ATOM      7  C   UNL     1      13.242  -9.584   0.876  1.00  0.00     0.053 C 
BRANCH   7   8
ATOM      8  C   UNL     1      12.831  -9.242   2.275  1.00  0.00     0.041 C 
ATOM      9  O   UNL     1      12.452  -8.075   2.559  1.00  0.00    -0.550 OA
ATOM     10  O   UNL     1      12.839 -10.222   3.260  1.00  0.00    -0.550 OA
ENDBRANCH   7   8
ENDBRANCH   6   7
ENDBRANCH   5   6
ENDBRANCH   4   5
ENDBRANCH   3   4
ENDBRANCH   2   3
ENDBRANCH   1   2
BRANCH   1  11
ATOM     11  C   UNL     1      12.483  -9.879  -4.896  1.00  0.00     0.000 C 
BRANCH  11  12
ATOM     12  C   UNL     1      11.744  -9.142  -6.019  1.00  0.00     0.000 C 
BRANCH  12  13
ATOM     13  C   UNL     1      12.281  -9.555  -7.397  1.00  0.00     0.000 C 
BRANCH  13  14
ATOM     14  C   UNL     1      11.190 -10.138  -8.310  1.00  0.00     0.000 C 
BRANCH  14  15
ATOM     15  C   UNL     1       9.820  -9.470  -8.096  1.00  0.00     0.000 C 
BRANCH  15  16
ATOM     16  C   UNL     1       8.697 -10.497  -7.842  1.00  0.00     0.006 C 
BRANCH  16  17
ATOM     17  C   UNL     1       9.215 -11.913  -7.547  1.00  0.00     0.053 C 
BRANCH  17  18
ATOM     18  C   UNL     1       8.117 -12.930  -7.541  1.00  0.00     0.041 C 
ATOM     19  O   UNL     1       8.207 -13.967  -8.252  1.00  0.00    -0.550 OA
ATOM     20  O   UNL     1       7.000 -12.744  -6.736  1.00  0.00    -0.550 OA
ENDBRANCH  17  18
ENDBRANCH  16  17
ENDBRANCH  15  16
ENDBRANCH  14  15
ENDBRANCH  13  14
ENDBRANCH  12  13
ENDBRANCH  11  12
ENDBRANCH   1  11
TORSDOF 15
ENDMDL
MODEL 5
REMARK VINA RESULT:    -5.003      5.440      8.875
REMARK INTER + INTRA:         -10.308
REMARK INTER:                  -9.294
REMARK INTRA:                  -1.013
REMARK UNBOUND:                -0.917
REMARK SMILES O=C([O-])CCCCCCCCCCCCCCC(=O)[O-]
REMARK SMILES IDX 10 1 9 2 8 3 7 4 6 5 5 6 4 7 2 8 1 9 3 10 11 11 12 12 13 13
REMARK SMILES IDX 14 14 15 15 16 16 17 17 18 18 19 19 20 20
REMARK H PARENT
REMARK Flexibility Score: inf
ROOT
ATOM      1  C   UNL     1       6.834 -15.245   4.949  1.00  0.00     0.000 C 
ENDROOT
BRANCH   1   2
ATOM      2  C   UNL     1       6.020 -16.407   4.359  1.00  0.00     0.000 C 
BRANCH   2   3
ATOM      3  C   UNL     1       4.598 -15.991   3.944  1.00  0.00     0.000 C 
BRANCH   3   4
ATOM      4  C   UNL     1       3.553 -17.125   3.962  1.00  0.00     0.000 C 
BRANCH   4   5
ATOM      5  C   UNL     1       4.096 -18.521   3.607  1.00  0.00     0.000 C 
BRANCH   5   6
ATOM      6  C   UNL     1       3.678 -18.984   2.201  1.00  0.00     0.006 C 
BRANCH   6   7
ATOM      7  C   UNL     1       4.608 -18.435   1.110  1.00  0.00     0.053 C 
BRANCH   7   8
ATOM      8  C   UNL     1       3.898 -17.472   0.207  1.00  0.00     0.041 C 
ATOM      9  O   UNL     1       3.037 -17.887  -0.613  1.00  0.00    -0.550 OA
ATOM     10  O   UNL     1       4.167 -16.112   0.293  1.00  0.00    -0.550 OA
ENDBRANCH   7   8
ENDBRANCH   6   7
ENDBRANCH   5   6
ENDBRANCH   4   5
ENDBRANCH   3   4
ENDBRANCH   2   3
ENDBRANCH   1   2
BRANCH   1  11
ATOM     11  C   UNL     1       7.618 -15.697   6.186  1.00  0.00     0.000 C 
BRANCH  11  12
ATOM     12  C   UNL     1       8.154 -14.492   6.969  1.00  0.00     0.000 C 
BRANCH  12  13
ATOM     13  C   UNL     1       7.670 -13.173   6.350  1.00  0.00     0.000 C 
BRANCH  13  14
ATOM     14  C   UNL     1       8.771 -12.101   6.299  1.00  0.00     0.000 C 
BRANCH  14  15
ATOM     15  C   UNL     1       9.400 -11.965   4.902  1.00  0.00     0.000 C 
BRANCH  15  16
ATOM     16  C   UNL     1      10.899 -12.331   4.893  1.00  0.00     0.006 C 
BRANCH  16  17
ATOM     17  C   UNL     1      11.825 -11.136   5.167  1.00  0.00     0.053 C 
BRANCH  17  18
ATOM     18  C   UNL     1      12.532 -10.670   3.933  1.00  0.00     0.041 C 
ATOM     19  O   UNL     1      11.876 -10.201   2.965  1.00  0.00    -0.550 OA
ATOM     20  O   UNL     1      13.918 -10.734   3.858  1.00  0.00    -0.550 OA
ENDBRANCH  17  18
ENDBRANCH  16  17
ENDBRANCH  15  16
ENDBRANCH  14  15
ENDBRANCH  13  14
ENDBRANCH  12  13
ENDBRANCH  11  12
ENDBRANCH   1  11
TORSDOF 15
ENDMDL
MODEL 6
REMARK VINA RESULT:    -4.992      1.612      9.354
REMARK INTER + INTRA:         -10.287
REMARK INTER:                  -9.165
REMARK INTRA:                  -1.122
REMARK UNBOUND:                -0.917
REMARK SMILES O=C([O-])CCCCCCCCCCCCCCC(=O)[O-]
REMARK SMILES IDX 10 1 9 2 8 3 7 4 6 5 5 6 4 7 2 8 1 9 3 10 11 11 12 12 13 13
REMARK SMILES IDX 14 14 15 15 16 16 17 17 18 18 19 19 20 20
REMARK H PARENT
REMARK Flexibility Score: inf
ROOT
ATOM      1  C   UNL     1      13.273  -9.824   0.548  1.00  0.00     0.000 C 
ENDROOT
BRANCH   1   2
ATOM      2  C   UNL     1      13.200  -8.436  -0.107  1.00  0.00     0.000 C 
BRANCH   2   3
ATOM      3  C   UNL     1      14.402  -8.144  -1.024  1.00  0.00     0.000 C 
BRANCH   3   4
ATOM      4  C   UNL     1      14.075  -7.325  -2.289  1.00  0.00     0.000 C 
BRANCH   4   5
ATOM      5  C   UNL     1      12.590  -7.304  -2.690  1.00  0.00     0.000 C 
BRANCH   5   6
ATOM      6  C   UNL     1      12.335  -7.928  -4.073  1.00  0.00     0.006 C 
BRANCH   6   7
ATOM      7  C   UNL     1      12.798  -9.389  -4.143  1.00  0.00     0.053 C 
BRANCH   7   8
ATOM      8  C   UNL     1      12.191 -10.110  -5.308  1.00  0.00     0.041 C 
ATOM      9  O   UNL     1      12.384  -9.697  -6.482  1.00  0.00    -0.550 OA
ATOM     10  O   UNL     1      11.435 -11.256  -5.098  1.00  0.00    -0.550 OA
ENDBRANCH   7   8
ENDBRANCH   6   7
ENDBRANCH   5   6
ENDBRANCH   4   5
ENDBRANCH   3   4
ENDBRANCH   2   3
ENDBRANCH   1   2
BRANCH   1  11
ATOM     11  C   UNL     1      12.410  -9.879   1.813  1.00  0.00     0.000 C 
BRANCH  11  12
ATOM     12  C   UNL     1      12.165  -8.474   2.376  1.00  0.00     0.000 C 
BRANCH  12  13
ATOM     13  C   UNL     1      12.407  -8.438   3.892  1.00  0.00     0.000 C 
BRANCH  13  14
ATOM     14  C   UNL     1      13.240  -9.630   4.390  1.00  0.00     0.000 C 
BRANCH  14  15
ATOM     15  C   UNL     1      12.537 -10.417   5.509  1.00  0.00     0.000 C 
BRANCH  15  16
ATOM     16  C   UNL     1      11.703 -11.595   4.965  1.00  0.00     0.006 C 
BRANCH  16  17
ATOM     17  C   UNL     1      10.188 -11.338   4.991  1.00  0.00     0.053 C 
BRANCH  17  18
ATOM     18  C   UNL     1       9.447 -12.387   5.760  1.00  0.00     0.041 C 
ATOM     19  O   UNL     1       8.552 -12.057   6.584  1.00  0.00    -0.550 OA
ATOM     20  O   UNL     1       9.729 -13.732   5.554  1.00  0.00    -0.550 OA
ENDBRANCH  17  18
ENDBRANCH  16  17
ENDBRANCH  15  16
ENDBRANCH  14  15
ENDBRANCH  13  14
ENDBRANCH  12  13
ENDBRANCH  11  12
ENDBRANCH   1  11
TORSDOF 15
ENDMDL
MODEL 7
REMARK VINA RESULT:    -4.948      1.910      3.553
REMARK INTER + INTRA:         -10.203
REMARK INTER:                  -9.201
REMARK INTRA:                  -1.002
REMARK UNBOUND:                -0.917
REMARK SMILES O=C([O-])CCCCCCCCCCCCCCC(=O)[O-]
REMARK SMILES IDX 10 1 9 2 8 3 7 4 6 5 5 6 4 7 2 8 1 9 3 10 11 11 12 12 13 13
REMARK SMILES IDX 14 14 15 15 16 16 17 17 18 18 19 19 20 20
REMARK H PARENT
REMARK Flexibility Score: inf
ROOT
ATOM      1  C   UNL     1      10.643 -11.128   4.629  1.00  0.00     0.000 C 
ENDROOT
BRANCH   1   2
ATOM      2  C   UNL     1       9.895 -12.299   5.284  1.00  0.00     0.000 C 
BRANCH   2   3
ATOM      3  C   UNL     1       8.815 -11.838   6.279  1.00  0.00     0.000 C 
BRANCH   3   4
ATOM      4  C   UNL     1       7.991 -12.972   6.922  1.00  0.00     0.000 C 
BRANCH   4   5
ATOM      5  C   UNL     1       8.723 -14.319   7.054  1.00  0.00     0.000 C 
BRANCH   5   6
ATOM      6  C   UNL     1       7.927 -15.492   6.455  1.00  0.00     0.006 C 
BRANCH   6   7
ATOM      7  C   UNL     1       7.011 -15.045   5.308  1.00  0.00     0.053 C 
BRANCH   7   8
ATOM      8  C   UNL     1       7.680 -15.185   3.975  1.00  0.00     0.041 C 
ATOM      9  O   UNL     1       8.823 -15.708   3.889  1.00  0.00    -0.550 OA
ATOM     10  O   UNL     1       7.027 -14.767   2.822  1.00  0.00    -0.550 OA
ENDBRANCH   7   8
ENDBRANCH   6   7
ENDBRANCH   5   6
ENDBRANCH   4   5
ENDBRANCH   3   4
ENDBRANCH   2   3
ENDBRANCH   1   2
BRANCH   1  11
ATOM     11  C   UNL     1      12.102 -11.079   5.096  1.00  0.00     0.000 C 
BRANCH  11  12
ATOM     12  C   UNL     1      12.788  -9.792   4.624  1.00  0.00     0.000 C 
BRANCH  12  13
ATOM     13  C   UNL     1      11.773  -8.821   4.005  1.00  0.00     0.000 C 
BRANCH  13  14
ATOM     14  C   UNL     1      12.231  -8.267   2.646  1.00  0.00     0.000 C 
BRANCH  14  15
ATOM     15  C   UNL     1      12.673  -9.375   1.674  1.00  0.00     0.000 C 
BRANCH  15  16
ATOM     16  C   UNL     1      12.712  -8.892   0.209  1.00  0.00     0.006 C 
BRANCH  16  17
ATOM     17  C   UNL     1      14.067  -8.297  -0.205  1.00  0.00     0.053 C 
BRANCH  17  18
ATOM     18  C   UNL     1      14.053  -7.775  -1.608  1.00  0.00     0.041 C 
ATOM     19  O   UNL     1      13.038  -7.175  -2.052  1.00  0.00    -0.550 OA
ATOM     20  O   UNL     1      15.169  -7.932  -2.421  1.00  0.00    -0.550 OA
ENDBRANCH  17  18
ENDBRANCH  16  17
ENDBRANCH  15  16
ENDBRANCH  14  15
ENDBRANCH  13  14
ENDBRANCH  12  13
ENDBRANCH  11  12
ENDBRANCH   1  11
TORSDOF 15
ENDMDL
MODEL 8
REMARK VINA RESULT:    -4.931      8.197     12.586
REMARK INTER + INTRA:         -10.173
REMARK INTER:                  -9.336
REMARK INTRA:                  -0.837
REMARK UNBOUND:                -0.917
REMARK SMILES O=C([O-])CCCCCCCCCCCCCCC(=O)[O-]
REMARK SMILES IDX 10 1 9 2 8 3 7 4 6 5 5 6 4 7 2 8 1 9 3 10 11 11 12 12 13 13
REMARK SMILES IDX 14 14 15 15 16 16 17 17 18 18 19 19 20 20
REMARK H PARENT
REMARK Flexibility Score: inf
ROOT
ATOM      1  C   UNL     1       4.617 -18.588   1.314  1.00  0.00     0.000 C 
ENDROOT
BRANCH   1   2
ATOM      2  C   UNL     1       3.878 -17.480   0.549  1.00  0.00     0.000 C 
BRANCH   2   3
ATOM      3  C   UNL     1       3.547 -17.873  -0.901  1.00  0.00     0.000 C 
BRANCH   3   4
ATOM      4  C   UNL     1       4.626 -18.714  -1.614  1.00  0.00     0.000 C 
BRANCH   4   5
ATOM      5  C   UNL     1       4.132 -19.518  -2.830  1.00  0.00     0.000 C 
BRANCH   5   6
ATOM      6  C   UNL     1       3.098 -18.752  -3.672  1.00  0.00     0.006 C 
BRANCH   6   7
ATOM      7  C   UNL     1       3.683 -18.263  -5.004  1.00  0.00     0.053 C 
BRANCH   7   8
ATOM      8  C   UNL     1       4.359 -16.934  -4.860  1.00  0.00     0.041 C 
ATOM      9  O   UNL     1       3.887 -16.060  -4.085  1.00  0.00    -0.550 OA
ATOM     10  O   UNL     1       5.530 -16.670  -5.560  1.00  0.00    -0.550 OA
ENDBRANCH   7   8
ENDBRANCH   6   7
ENDBRANCH   5   6
ENDBRANCH   4   5
ENDBRANCH   3   4
ENDBRANCH   2   3
ENDBRANCH   1   2
BRANCH   1  11
ATOM     11  C   UNL     1       3.865 -18.968   2.594  1.00  0.00     0.000 C 
BRANCH  11  12
ATOM     12  C   UNL     1       4.040 -17.896   3.676  1.00  0.00     0.000 C 
BRANCH  12  13
ATOM     13  C   UNL     1       5.527 -17.597   3.919  1.00  0.00     0.000 C 
BRANCH  13  14
ATOM     14  C   UNL     1       5.772 -16.161   4.411  1.00  0.00     0.000 C 
BRANCH  14  15
ATOM     15  C   UNL     1       7.228 -15.926   4.847  1.00  0.00     0.000 C 
BRANCH  15  16
ATOM     16  C   UNL     1       7.351 -15.625   6.355  1.00  0.00     0.006 C 
BRANCH  16  17
ATOM     17  C   UNL     1       8.672 -14.940   6.740  1.00  0.00     0.053 C 
BRANCH  17  18
ATOM     18  C   UNL     1       8.604 -13.452   6.593  1.00  0.00     0.041 C 
ATOM     19  O   UNL     1       7.678 -12.800   7.145  1.00  0.00    -0.550 OA
ATOM     20  O   UNL     1       9.577 -12.780   5.861  1.00  0.00    -0.550 OA
ENDBRANCH  17  18
ENDBRANCH  16  17
ENDBRANCH  15  16
ENDBRANCH  14  15
ENDBRANCH  13  14
ENDBRANCH  12  13
ENDBRANCH  11  12
ENDBRANCH   1  11
TORSDOF 15
ENDMDL
MODEL 9
REMARK VINA RESULT:    -4.879      5.523     10.236
REMARK INTER + INTRA:         -10.075
REMARK INTER:                  -9.120
REMARK INTRA:                  -0.955
REMARK UNBOUND:                -0.917
REMARK SMILES O=C([O-])CCCCCCCCCCCCCCC(=O)[O-]
REMARK SMILES IDX 10 1 9 2 8 3 7 4 6 5 5 6 4 7 2 8 1 9 3 10 11 11 12 12 13 13
REMARK SMILES IDX 14 14 15 15 16 16 17 17 18 18 19 19 20 20
REMARK H PARENT
REMARK Flexibility Score: inf
ROOT
ATOM      1  C   UNL     1       6.951 -15.208   5.522  1.00  0.00     0.000 C 
ENDROOT
BRANCH   1   2
ATOM      2  C   UNL     1       8.121 -14.968   6.488  1.00  0.00     0.000 C 
BRANCH   2   3
ATOM      3  C   UNL     1       8.214 -13.507   6.964  1.00  0.00     0.000 C 
BRANCH   3   4
ATOM      4  C   UNL     1       8.531 -12.479   5.859  1.00  0.00     0.000 C 
BRANCH   4   5
ATOM      5  C   UNL     1       9.925 -12.611   5.222  1.00  0.00     0.000 C 
BRANCH   5   6
ATOM      6  C   UNL     1      10.817 -11.384   5.478  1.00  0.00     0.006 C 
BRANCH   6   7
ATOM      7  C   UNL     1      11.117 -10.607   4.189  1.00  0.00     0.053 C 
BRANCH   7   8
ATOM      8  C   UNL     1      12.235  -9.627   4.378  1.00  0.00     0.041 C 
ATOM      9  O   UNL     1      13.337 -10.004   4.857  1.00  0.00    -0.550 OA
ATOM     10  O   UNL     1      12.068  -8.301   3.996  1.00  0.00    -0.550 OA
ENDBRANCH   7   8
ENDBRANCH   6   7
ENDBRANCH   5   6
ENDBRANCH   4   5
ENDBRANCH   3   4
ENDBRANCH   2   3
ENDBRANCH   1   2
BRANCH   1  11
ATOM     11  C   UNL     1       7.352 -16.177   4.404  1.00  0.00     0.000 C 
BRANCH  11  12
ATOM     12  C   UNL     1       6.118 -16.704   3.663  1.00  0.00     0.000 C 
BRANCH  12  13
ATOM     13  C   UNL     1       4.825 -16.287   4.378  1.00  0.00     0.000 C 
BRANCH  13  14
ATOM     14  C   UNL     1       3.613 -17.136   3.960  1.00  0.00     0.000 C 
BRANCH  14  15
ATOM     15  C   UNL     1       3.995 -18.587   3.622  1.00  0.00     0.000 C 
BRANCH  15  16
ATOM     16  C   UNL     1       3.501 -19.016   2.225  1.00  0.00     0.006 C 
BRANCH  16  17
ATOM     17  C   UNL     1       4.457 -18.625   1.087  1.00  0.00     0.053 C 
BRANCH  17  18
ATOM     18  C   UNL     1       3.880 -17.569   0.198  1.00  0.00     0.041 C 
ATOM     19  O   UNL     1       3.039 -17.875  -0.688  1.00  0.00    -0.550 OA
ATOM     20  O   UNL     1       4.257 -16.241   0.359  1.00  0.00    -0.550 OA
ENDBRANCH  17  18
ENDBRANCH  16  17
ENDBRANCH  15  16
ENDBRANCH  14  15
ENDBRANCH  13  14
ENDBRANCH  12  13
ENDBRANCH  11  12
ENDBRANCH   1  11
TORSDOF 15
ENDMDL
