MODEL 1
REMARK VINA RESULT:    -3.353      0.000      0.000
REMARK INTER + INTRA:          -7.453
REMARK INTER:                  -5.705
REMARK INTRA:                  -1.747
REMARK UNBOUND:                -1.747
REMARK SMILES CCCCCCCCCCCCCC(=O)[O-]
REMARK SMILES IDX 8 1 9 2 10 3 11 4 12 5 13 6 14 7 15 8 16 9 7 10 6 11 5 12
REMARK SMILES IDX 4 13 3 14 2 15 1 16
REMARK H PARENT
REMARK Flexibility Score: inf
ROOT
ATOM      1  C   UNL     1      61.369  32.047  60.450  1.00  0.00     0.000 C 
ENDROOT
BRANCH   1   2
ATOM      2  C   UNL     1      61.043  30.654  61.015  1.00  0.00     0.000 C 
BRANCH   2   3
ATOM      3  C   UNL     1      62.294  29.924  61.534  1.00  0.00     0.000 C 
BRANCH   3   4
ATOM      4  C   UNL     1      62.344  28.445  61.106  1.00  0.00     0.000 C 
BRANCH   4   5
ATOM      5  C   UNL     1      63.662  28.001  60.445  1.00  0.00     0.006 C 
BRANCH   5   6
ATOM      6  C   UNL     1      64.766  29.061  60.541  1.00  0.00     0.053 C 
BRANCH   6   7
ATOM      7  C   UNL     1      65.256  29.429  59.177  1.00  0.00     0.041 C 
ATOM      8  O   UNL     1      64.505  29.292  58.175  1.00  0.00    -0.550 OA
ATOM      9  O   UNL     1      66.525  29.970  59.017  1.00  0.00    -0.550 OA
ENDBRANCH   6   7
ENDBRANCH   5   6
ENDBRANCH   4   5
ENDBRANCH   3   4
ENDBRANCH   2   3
ENDBRANCH   1   2
BRANCH   1  10
ATOM     10  C   UNL     1      62.099  31.975  59.096  1.00  0.00     0.000 C 
BRANCH  10  11
ATOM     11  C   UNL     1      63.498  32.619  59.135  1.00  0.00    -0.000 C 
BRANCH  11  12
ATOM     12  C   UNL     1      64.079  32.833  60.545  1.00  0.00    -0.000 C 
BRANCH  12  13
ATOM     13  C   UNL     1      64.503  34.286  60.805  1.00  0.00    -0.000 C 
BRANCH  13  14
ATOM     14  C   UNL     1      63.691  35.258  59.936  1.00  0.00    -0.000 C 
BRANCH  14  15
ATOM     15  C   UNL     1      62.531  35.911  60.705  1.00  0.00    -0.003 C 
ATOM     16  C   UNL     1      61.182  35.722  60.012  1.00  0.00     0.004 C 
ENDBRANCH  14  15
ENDBRANCH  13  14
ENDBRANCH  12  13
ENDBRANCH  11  12
ENDBRANCH  10  11
ENDBRANCH   1  10
TORSDOF 12
ENDMDL
MODEL 2
REMARK VINA RESULT:    -3.329      1.196      2.551
REMARK INTER + INTRA:          -7.412
REMARK INTER:                  -6.042
REMARK INTRA:                  -1.370
REMARK UNBOUND:                -1.747
REMARK SMILES CCCCCCCCCCCCCC(=O)[O-]
REMARK SMILES IDX 8 1 9 2 10 3 11 4 12 5 13 6 14 7 15 8 16 9 7 10 6 11 5 12
REMARK SMILES IDX 4 13 3 14 2 15 1 16
REMARK H PARENT
REMARK Flexibility Score: inf
ROOT
ATOM      1  C   UNL     1      61.178  32.819  58.977  1.00  0.00     0.000 C 
ENDROOT
BRANCH   1   2
ATOM      2  C   UNL     1      61.699  32.456  60.378  1.00  0.00     0.000 C 
BRANCH   2   3
ATOM      3  C   UNL     1      61.040  31.183  60.938  1.00  0.00     0.000 C 
BRANCH   3   4
ATOM      4  C   UNL     1      62.063  30.174  61.490  1.00  0.00     0.000 C 
BRANCH   4   5
ATOM      5  C   UNL     1      63.508  30.374  60.999  1.00  0.00     0.006 C 
BRANCH   5   6
ATOM      6  C   UNL     1      64.247  29.052  60.757  1.00  0.00     0.053 C 
BRANCH   6   7
ATOM      7  C   UNL     1      65.651  29.312  60.312  1.00  0.00     0.041 C 
ATOM      8  O   UNL     1      66.594  28.591  60.735  1.00  0.00    -0.550 OA
ATOM      9  O   UNL     1      65.914  30.319  59.392  1.00  0.00    -0.550 OA
ENDBRANCH   6   7
ENDBRANCH   5   6
ENDBRANCH   4   5
ENDBRANCH   3   4
ENDBRANCH   2   3
ENDBRANCH   1   2
BRANCH   1  10
ATOM     10  C   UNL     1      61.297  34.324  58.678  1.00  0.00     0.000 C 
BRANCH  10  11
ATOM     11  C   UNL     1      60.692  35.204  59.787  1.00  0.00    -0.000 C 
BRANCH  11  12
ATOM     12  C   UNL     1      61.635  36.283  60.352  1.00  0.00    -0.000 C 
BRANCH  12  13
ATOM     13  C   UNL     1      63.103  36.061  59.961  1.00  0.00    -0.000 C 
BRANCH  13  14
ATOM     14  C   UNL     1      63.983  35.881  61.207  1.00  0.00    -0.000 C 
BRANCH  14  15
ATOM     15  C   UNL     1      64.779  34.566  61.183  1.00  0.00    -0.003 C 
ATOM     16  C   UNL     1      64.820  33.924  59.796  1.00  0.00     0.004 C 
ENDBRANCH  14  15
ENDBRANCH  13  14
ENDBRANCH  12  13
ENDBRANCH  11  12
ENDBRANCH  10  11
ENDBRANCH   1  10
TORSDOF 12
ENDMDL
MODEL 3
REMARK VINA RESULT:    -3.255     11.349     12.879
REMARK INTER + INTRA:          -7.286
REMARK INTER:                  -5.545
REMARK INTRA:                  -1.741
REMARK UNBOUND:                -1.747
REMARK SMILES CCCCCCCCCCCCCC(=O)[O-]
REMARK SMILES IDX 8 1 9 2 10 3 11 4 12 5 13 6 14 7 15 8 16 9 7 10 6 11 5 12
REMARK SMILES IDX 4 13 3 14 2 15 1 16
REMARK H PARENT
REMARK Flexibility Score: inf
ROOT
ATOM      1  C   UNL     1      57.522  27.691  51.406  1.00  0.00     0.000 C 
ENDROOT
BRANCH   1   2
ATOM      2  C   UNL     1      57.374  28.801  50.351  1.00  0.00     0.000 C 
BRANCH   2   3
ATOM      3  C   UNL     1      58.716  29.175  49.699  1.00  0.00     0.000 C 
BRANCH   3   4
ATOM      4  C   UNL     1      59.882  28.293  50.184  1.00  0.00     0.000 C 
BRANCH   4   5
ATOM      5  C   UNL     1      60.414  27.287  49.147  1.00  0.00     0.006 C 
BRANCH   5   6
ATOM      6  C   UNL     1      61.369  26.252  49.754  1.00  0.00     0.053 C 
BRANCH   6   7
ATOM      7  C   UNL     1      60.639  25.367  50.714  1.00  0.00     0.041 C 
ATOM      8  O   UNL     1      59.615  24.735  50.341  1.00  0.00    -0.550 OA
ATOM      9  O   UNL     1      61.116  25.201  52.008  1.00  0.00    -0.550 OA
ENDBRANCH   6   7
ENDBRANCH   5   6
ENDBRANCH   4   5
ENDBRANCH   3   4
ENDBRANCH   2   3
ENDBRANCH   1   2
BRANCH   1  10
ATOM     10  C   UNL     1      56.626  26.475  51.109  1.00  0.00     0.000 C 
BRANCH  10  11
ATOM     11  C   UNL     1      56.462  26.207  49.601  1.00  0.00    -0.000 C 
BRANCH  11  12
ATOM     12  C   UNL     1      55.024  25.890  49.147  1.00  0.00    -0.000 C 
BRANCH  12  13
ATOM     13  C   UNL     1      53.956  26.540  50.039  1.00  0.00    -0.000 C 
BRANCH  13  14
ATOM     14  C   UNL     1      53.330  27.760  49.347  1.00  0.00    -0.000 C 
BRANCH  14  15
ATOM     15  C   UNL     1      53.813  29.091  49.945  1.00  0.00    -0.003 C 
ATOM     16  C   UNL     1      53.834  29.079  51.474  1.00  0.00     0.004 C 
ENDBRANCH  14  15
ENDBRANCH  13  14
ENDBRANCH  12  13
ENDBRANCH  11  12
ENDBRANCH  10  11
ENDBRANCH   1  10
TORSDOF 12
ENDMDL
MODEL 4
REMARK VINA RESULT:    -3.195     10.646     12.273
REMARK INTER + INTRA:          -7.185
REMARK INTER:                  -5.316
REMARK INTRA:                  -1.868
REMARK UNBOUND:                -1.747
REMARK SMILES CCCCCCCCCCCCCC(=O)[O-]
REMARK SMILES IDX 8 1 9 2 10 3 11 4 12 5 13 6 14 7 15 8 16 9 7 10 6 11 5 12
REMARK SMILES IDX 4 13 3 14 2 15 1 16
REMARK H PARENT
REMARK Flexibility Score: inf
ROOT
ATOM      1  C   UNL     1      58.546  27.544  52.969  1.00  0.00     0.000 C 
ENDROOT
BRANCH   1   2
ATOM      2  C   UNL     1      57.883  28.778  52.335  1.00  0.00     0.000 C 
BRANCH   2   3
ATOM      3  C   UNL     1      58.834  29.537  51.393  1.00  0.00     0.000 C 
BRANCH   3   4
ATOM      4  C   UNL     1      58.505  29.314  49.905  1.00  0.00     0.000 C 
BRANCH   4   5
ATOM      5  C   UNL     1      59.705  28.923  49.023  1.00  0.00     0.006 C 
BRANCH   5   6
ATOM      6  C   UNL     1      60.238  27.517  49.326  1.00  0.00     0.053 C 
BRANCH   6   7
ATOM      7  C   UNL     1      61.675  27.580  49.736  1.00  0.00     0.041 C 
ATOM      8  O   UNL     1      62.421  26.575  49.588  1.00  0.00    -0.550 OA
ATOM      9  O   UNL     1      62.205  28.762  50.235  1.00  0.00    -0.550 OA
ENDBRANCH   6   7
ENDBRANCH   5   6
ENDBRANCH   4   5
ENDBRANCH   3   4
ENDBRANCH   2   3
ENDBRANCH   1   2
BRANCH   1  10
ATOM     10  C   UNL     1      58.073  26.228  52.327  1.00  0.00     0.000 C 
BRANCH  10  11
ATOM     11  C   UNL     1      56.754  26.383  51.547  1.00  0.00    -0.000 C 
BRANCH  11  12
ATOM     12  C   UNL     1      56.826  25.993  50.059  1.00  0.00    -0.000 C 
BRANCH  12  13
ATOM     13  C   UNL     1      55.511  26.248  49.307  1.00  0.00    -0.000 C 
BRANCH  13  14
ATOM     14  C   UNL     1      54.485  26.942  50.216  1.00  0.00    -0.000 C 
BRANCH  14  15
ATOM     15  C   UNL     1      54.049  28.313  49.674  1.00  0.00    -0.003 C 
ATOM     16  C   UNL     1      54.794  29.474  50.333  1.00  0.00     0.004 C 
ENDBRANCH  14  15
ENDBRANCH  13  14
ENDBRANCH  12  13
ENDBRANCH  11  12
ENDBRANCH  10  11
ENDBRANCH   1  10
TORSDOF 12
ENDMDL
MODEL 5
REMARK VINA RESULT:    -3.150      3.315      6.011
REMARK INTER + INTRA:          -7.107
REMARK INTER:                  -5.209
REMARK INTRA:                  -1.898
REMARK UNBOUND:                -1.747
REMARK SMILES CCCCCCCCCCCCCC(=O)[O-]
REMARK SMILES IDX 8 1 9 2 10 3 11 4 12 5 13 6 14 7 15 8 16 9 7 10 6 11 5 12
REMARK SMILES IDX 4 13 3 14 2 15 1 16
REMARK H PARENT
REMARK Flexibility Score: inf
ROOT
ATOM      1  C   UNL     1      64.625  32.462  59.629  1.00  0.00     0.000 C 
ENDROOT
BRANCH   1   2
ATOM      2  C   UNL     1      64.544  33.152  61.001  1.00  0.00     0.000 C 
BRANCH   2   3
ATOM      3  C   UNL     1      64.302  34.667  60.884  1.00  0.00     0.000 C 
BRANCH   3   4
ATOM      4  C   UNL     1      63.254  35.024  59.813  1.00  0.00     0.000 C 
BRANCH   4   5
ATOM      5  C   UNL     1      62.163  36.009  60.272  1.00  0.00     0.006 C 
BRANCH   5   6
ATOM      6  C   UNL     1      60.743  35.501  59.993  1.00  0.00     0.053 C 
BRANCH   6   7
ATOM      7  C   UNL     1      60.162  36.201  58.806  1.00  0.00     0.041 C 
ATOM      8  O   UNL     1      60.803  37.125  58.237  1.00  0.00    -0.550 OA
ATOM      9  O   UNL     1      58.935  35.799  58.293  1.00  0.00    -0.550 OA
ENDBRANCH   6   7
ENDBRANCH   5   6
ENDBRANCH   4   5
ENDBRANCH   3   4
ENDBRANCH   2   3
ENDBRANCH   1   2
BRANCH   1  10
ATOM     10  C   UNL     1      64.736  30.932  59.747  1.00  0.00     0.000 C 
BRANCH  10  11
ATOM     11  C   UNL     1      64.046  30.377  61.007  1.00  0.00    -0.000 C 
BRANCH  11  12
ATOM     12  C   UNL     1      62.635  29.802  60.779  1.00  0.00    -0.000 C 
BRANCH  12  13
ATOM     13  C   UNL     1      61.534  30.628  61.461  1.00  0.00    -0.000 C 
BRANCH  13  14
ATOM     14  C   UNL     1      61.101  31.806  60.574  1.00  0.00    -0.000 C 
BRANCH  14  15
ATOM     15  C   UNL     1      60.741  31.368  59.146  1.00  0.00    -0.003 C 
ATOM     16  C   UNL     1      61.293  32.314  58.080  1.00  0.00     0.004 C 
ENDBRANCH  14  15
ENDBRANCH  13  14
ENDBRANCH  12  13
ENDBRANCH  11  12
ENDBRANCH  10  11
ENDBRANCH   1  10
TORSDOF 12
ENDMDL
MODEL 6
REMARK VINA RESULT:    -3.134      1.645      2.447
REMARK INTER + INTRA:          -7.080
REMARK INTER:                  -5.624
REMARK INTRA:                  -1.456
REMARK UNBOUND:                -1.747
REMARK SMILES CCCCCCCCCCCCCC(=O)[O-]
REMARK SMILES IDX 8 1 9 2 10 3 11 4 12 5 13 6 14 7 15 8 16 9 7 10 6 11 5 12
REMARK SMILES IDX 4 13 3 14 2 15 1 16
REMARK H PARENT
REMARK Flexibility Score: inf
ROOT
ATOM      1  C   UNL     1      60.742  30.934  59.921  1.00  0.00     0.000 C 
ENDROOT
BRANCH   1   2
ATOM      2  C   UNL     1      61.535  30.700  61.218  1.00  0.00     0.000 C 
BRANCH   2   3
ATOM      3  C   UNL     1      62.700  29.714  61.024  1.00  0.00     0.000 C 
BRANCH   3   4
ATOM      4  C   UNL     1      64.079  30.371  61.221  1.00  0.00     0.000 C 
BRANCH   4   5
ATOM      5  C   UNL     1      64.850  30.670  59.922  1.00  0.00     0.006 C 
BRANCH   5   6
ATOM      6  C   UNL     1      64.164  30.100  58.675  1.00  0.00     0.053 C 
BRANCH   6   7
ATOM      7  C   UNL     1      64.329  31.032  57.517  1.00  0.00     0.041 C 
ATOM      8  O   UNL     1      64.341  32.279  57.703  1.00  0.00    -0.550 OA
ATOM      9  O   UNL     1      64.518  30.526  56.237  1.00  0.00    -0.550 OA
ENDBRANCH   6   7
ENDBRANCH   5   6
ENDBRANCH   4   5
ENDBRANCH   3   4
ENDBRANCH   2   3
ENDBRANCH   1   2
BRANCH   1  10
ATOM     10  C   UNL     1      61.130  32.252  59.227  1.00  0.00     0.000 C 
BRANCH  10  11
ATOM     11  C   UNL     1      61.951  33.188  60.133  1.00  0.00    -0.000 C 
BRANCH  11  12
ATOM     12  C   UNL     1      61.629  34.687  59.988  1.00  0.00    -0.000 C 
BRANCH  12  13
ATOM     13  C   UNL     1      62.818  35.593  60.340  1.00  0.00    -0.000 C 
BRANCH  13  14
ATOM     14  C   UNL     1      64.112  34.776  60.468  1.00  0.00    -0.000 C 
BRANCH  14  15
ATOM     15  C   UNL     1      65.047  35.317  61.562  1.00  0.00    -0.003 C 
ATOM     16  C   UNL     1      64.843  36.808  61.830  1.00  0.00     0.004 C 
ENDBRANCH  14  15
ENDBRANCH  13  14
ENDBRANCH  12  13
ENDBRANCH  11  12
ENDBRANCH  10  11
ENDBRANCH   1  10
TORSDOF 12
ENDMDL
MODEL 7
REMARK VINA RESULT:    -3.130      1.240      2.110
REMARK INTER + INTRA:          -7.073
REMARK INTER:                  -5.220
REMARK INTRA:                  -1.853
REMARK UNBOUND:                -1.747
REMARK SMILES CCCCCCCCCCCCCC(=O)[O-]
REMARK SMILES IDX 8 1 9 2 10 3 11 4 12 5 13 6 14 7 15 8 16 9 7 10 6 11 5 12
REMARK SMILES IDX 4 13 3 14 2 15 1 16
REMARK H PARENT
REMARK Flexibility Score: inf
ROOT
ATOM      1  C   UNL     1      62.255  32.609  57.924  1.00  0.00     0.000 C 
ENDROOT
BRANCH   1   2
ATOM      2  C   UNL     1      61.187  32.277  58.979  1.00  0.00     0.000 C 
BRANCH   2   3
ATOM      3  C   UNL     1      61.784  32.105  60.387  1.00  0.00     0.000 C 
BRANCH   3   4
ATOM      4  C   UNL     1      61.247  30.860  61.116  1.00  0.00     0.000 C 
BRANCH   4   5
ATOM      5  C   UNL     1      62.286  29.751  61.365  1.00  0.00     0.006 C 
BRANCH   5   6
ATOM      6  C   UNL     1      63.732  30.259  61.294  1.00  0.00     0.053 C 
BRANCH   6   7
ATOM      7  C   UNL     1      64.601  29.262  60.595  1.00  0.00     0.041 C 
ATOM      8  O   UNL     1      65.693  29.623  60.081  1.00  0.00    -0.550 OA
ATOM      9  O   UNL     1      64.231  27.924  60.553  1.00  0.00    -0.550 OA
ENDBRANCH   6   7
ENDBRANCH   5   6
ENDBRANCH   4   5
ENDBRANCH   3   4
ENDBRANCH   2   3
ENDBRANCH   1   2
BRANCH   1  10
ATOM     10  C   UNL     1      63.667  32.180  58.363  1.00  0.00     0.000 C 
BRANCH  10  11
ATOM     11  C   UNL     1      64.756  33.184  57.942  1.00  0.00    -0.000 C 
BRANCH  11  12
ATOM     12  C   UNL     1      64.766  34.506  58.732  1.00  0.00    -0.000 C 
BRANCH  12  13
ATOM     13  C   UNL     1      64.849  34.297  60.252  1.00  0.00    -0.000 C 
BRANCH  13  14
ATOM     14  C   UNL     1      63.835  35.187  60.985  1.00  0.00    -0.000 C 
BRANCH  14  15
ATOM     15  C   UNL     1      62.985  36.031  60.022  1.00  0.00    -0.003 C 
ATOM     16  C   UNL     1      61.483  35.823  60.219  1.00  0.00     0.004 C 
ENDBRANCH  14  15
ENDBRANCH  13  14
ENDBRANCH  12  13
ENDBRANCH  11  12
ENDBRANCH  10  11
ENDBRANCH   1  10
TORSDOF 12
ENDMDL
MODEL 8
REMARK VINA RESULT:    -3.126      2.692      5.408
REMARK INTER + INTRA:          -7.066
REMARK INTER:                  -5.290
REMARK INTRA:                  -1.777
REMARK UNBOUND:                -1.747
REMARK SMILES CCCCCCCCCCCCCC(=O)[O-]
REMARK SMILES IDX 8 1 9 2 10 3 11 4 12 5 13 6 14 7 15 8 16 9 7 10 6 11 5 12
REMARK SMILES IDX 4 13 3 14 2 15 1 16
REMARK H PARENT
REMARK Flexibility Score: inf
ROOT
ATOM      1  C   UNL     1      61.926  31.720  57.564  1.00  0.00     0.000 C 
ENDROOT
BRANCH   1   2
ATOM      2  C   UNL     1      62.244  33.203  57.814  1.00  0.00     0.000 C 
BRANCH   2   3
ATOM      3  C   UNL     1      61.024  33.986  58.331  1.00  0.00     0.000 C 
BRANCH   3   4
ATOM      4  C   UNL     1      61.210  34.503  59.769  1.00  0.00     0.000 C 
BRANCH   4   5
ATOM      5  C   UNL     1      62.662  34.495  60.282  1.00  0.00     0.006 C 
BRANCH   5   6
ATOM      6  C   UNL     1      63.145  35.880  60.733  1.00  0.00     0.053 C 
BRANCH   6   7
ATOM      7  C   UNL     1      64.636  35.902  60.844  1.00  0.00     0.041 C 
ATOM      8  O   UNL     1      65.212  35.282  61.777  1.00  0.00    -0.550 OA
ATOM      9  O   UNL     1      65.395  36.567  59.889  1.00  0.00    -0.550 OA
ENDBRANCH   6   7
ENDBRANCH   5   6
ENDBRANCH   4   5
ENDBRANCH   3   4
ENDBRANCH   2   3
ENDBRANCH   1   2
BRANCH   1  10
ATOM     10  C   UNL     1      60.597  31.287  58.208  1.00  0.00     0.000 C 
BRANCH  10  11
ATOM     11  C   UNL     1      60.792  30.330  59.399  1.00  0.00    -0.000 C 
BRANCH  11  12
ATOM     12  C   UNL     1      61.243  31.002  60.710  1.00  0.00    -0.000 C 
BRANCH  12  13
ATOM     13  C   UNL     1      62.148  30.103  61.565  1.00  0.00    -0.000 C 
BRANCH  13  14
ATOM     14  C   UNL     1      63.517  29.907  60.897  1.00  0.00    -0.000 C 
BRANCH  14  15
ATOM     15  C   UNL     1      64.286  31.227  60.728  1.00  0.00    -0.003 C 
ATOM     16  C   UNL     1      65.034  31.309  59.397  1.00  0.00     0.004 C 
ENDBRANCH  14  15
ENDBRANCH  13  14
ENDBRANCH  12  13
ENDBRANCH  11  12
ENDBRANCH  10  11
ENDBRANCH   1  10
TORSDOF 12
ENDMDL
MODEL 9
REMARK VINA RESULT:    -3.096      1.984      3.418
REMARK INTER + INTRA:          -7.015
REMARK INTER:                  -5.499
REMARK INTRA:                  -1.517
REMARK UNBOUND:                -1.747
REMARK SMILES CCCCCCCCCCCCCC(=O)[O-]
REMARK SMILES IDX 8 1 9 2 10 3 11 4 12 5 13 6 14 7 15 8 16 9 7 10 6 11 5 12
REMARK SMILES IDX 4 13 3 14 2 15 1 16
REMARK H PARENT
REMARK Flexibility Score: inf
ROOT
ATOM      1  C   UNL     1      61.475  34.010  58.735  1.00  0.00     0.000 C 
ENDROOT
BRANCH   1   2
ATOM      2  C   UNL     1      62.298  32.714  58.821  1.00  0.00     0.000 C 
BRANCH   2   3
ATOM      3  C   UNL     1      62.566  32.284  60.273  1.00  0.00     0.000 C 
BRANCH   3   4
ATOM      4  C   UNL     1      63.935  31.602  60.452  1.00  0.00     0.000 C 
BRANCH   4   5
ATOM      5  C   UNL     1      63.887  30.195  61.075  1.00  0.00     0.006 C 
BRANCH   5   6
ATOM      6  C   UNL     1      62.463  29.743  61.422  1.00  0.00     0.053 C 
BRANCH   6   7
ATOM      7  C   UNL     1      62.165  28.422  60.786  1.00  0.00     0.041 C 
ATOM      8  O   UNL     1      62.408  27.352  61.405  1.00  0.00    -0.550 OA
ATOM      9  O   UNL     1      61.572  28.372  59.531  1.00  0.00    -0.550 OA
ENDBRANCH   6   7
ENDBRANCH   5   6
ENDBRANCH   4   5
ENDBRANCH   3   4
ENDBRANCH   2   3
ENDBRANCH   1   2
BRANCH   1  10
ATOM     10  C   UNL     1      61.495  34.806  60.052  1.00  0.00     0.000 C 
BRANCH  10  11
ATOM     11  C   UNL     1      62.176  36.180  59.912  1.00  0.00    -0.000 C 
BRANCH  11  12
ATOM     12  C   UNL     1      63.264  36.480  60.960  1.00  0.00    -0.000 C 
BRANCH  12  13
ATOM     13  C   UNL     1      64.219  35.299  61.189  1.00  0.00    -0.000 C 
BRANCH  13  14
ATOM     14  C   UNL     1      65.648  35.655  60.752  1.00  0.00    -0.000 C 
BRANCH  14  15
ATOM     15  C   UNL     1      65.754  35.928  59.243  1.00  0.00    -0.003 C 
ATOM     16  C   UNL     1      65.412  34.703  58.395  1.00  0.00     0.004 C 
ENDBRANCH  14  15
ENDBRANCH  13  14
ENDBRANCH  12  13
ENDBRANCH  11  12
ENDBRANCH  10  11
ENDBRANCH   1  10
TORSDOF 12
ENDMDL
