MODEL 1
REMARK VINA RESULT:    -6.797      0.000      0.000
REMARK INTER + INTRA:          -9.949
REMARK INTER:                  -8.982
REMARK INTRA:                  -0.967
REMARK UNBOUND:                -0.967
REMARK SMILES CC[C@H](C=C[C@@H](C)[C@H]1CC[C@H]2[C@H]3CC=C4C[C@@H](O)CC[C@@]4(C)[C@H]3CC[C@]12C)C(C)C
REMARK SMILES IDX 6 1 7 2 5 3 4 4 3 5 2 6 1 7 28 8 29 9 30 10 8 11 9 12 26 13
REMARK SMILES IDX 10 14 11 15 25 16 27 17 12 18 24 19 23 20 13 21 21 22 14 23
REMARK SMILES IDX 15 24 20 25 22 26 16 27 19 28 17 29 18 30
REMARK H PARENT 18 31
REMARK Flexibility Score: inf
ROOT
ATOM      1  C   UNL     1       4.966 -24.386   4.581  1.00  0.00     0.012 C 
ATOM      2  C   UNL     1       4.311 -23.076   4.087  1.00  0.00     0.012 C 
ENDROOT
BRANCH   1   3
ATOM      3  C   UNL     1       6.213 -24.053   5.385  1.00  0.00    -0.028 C 
ATOM      4  C   UNL     1       6.273 -24.013   6.731  1.00  0.00    -0.027 C 
BRANCH   4   5
ATOM      5  C   UNL     1       5.096 -24.209   7.679  1.00  0.00     0.014 C 
BRANCH   5   6
ATOM      6  C   UNL     1       4.616 -25.674   7.518  1.00  0.00     0.004 C 
ATOM      7  C   UNL     1       3.150 -25.802   7.105  1.00  0.00     0.004 C 
ENDBRANCH   5   6
BRANCH   5   8
ATOM      8  C   UNL     1       5.453 -23.854   9.174  1.00  0.00    -0.011 C 
ATOM      9  C   UNL     1       4.780 -22.572   9.710  1.00  0.00     0.008 C 
ATOM     10  C   UNL     1       5.087 -25.012  10.124  1.00  0.00     0.008 C 
ENDBRANCH   5   8
ENDBRANCH   4   5
ENDBRANCH   1   3
BRANCH   1  11
ATOM     11  C   UNL     1       5.316 -25.333   3.382  1.00  0.00     0.002 C 
ATOM     12  C   UNL     1       6.772 -25.149   2.859  1.00  0.00     0.005 C 
ATOM     13  C   UNL     1       5.200 -26.880   3.593  1.00  0.00    -0.026 C 
ATOM     14  C   UNL     1       7.225 -26.498   2.279  1.00  0.00     0.005 C 
ATOM     15  C   UNL     1       5.969 -27.359   2.348  1.00  0.00    -0.001 C 
ATOM     16  C   UNL     1       3.768 -27.459   3.487  1.00  0.00     0.007 C 
ATOM     17  C   UNL     1       5.858 -27.295   4.943  1.00  0.00     0.012 C 
ATOM     18  C   UNL     1       6.058 -28.887   2.095  1.00  0.00     0.000 C 
ATOM     19  C   UNL     1       3.784 -29.003   3.404  1.00  0.00     0.005 C 
ATOM     20  C   UNL     1       4.663 -29.577   2.244  1.00  0.00     0.003 C 
ATOM     21  C   UNL     1       7.155 -29.659   2.830  1.00  0.00     0.031 C 
ATOM     22  C   UNL     1       4.720 -31.185   2.180  1.00  0.00    -0.008 C 
ATOM     23  C   UNL     1       7.241 -31.030   2.235  1.00  0.00    -0.027 C 
ATOM     24  C   UNL     1       6.135 -31.733   1.907  1.00  0.00    -0.065 C 
ATOM     25  C   UNL     1       4.275 -31.885   3.506  1.00  0.00     0.014 C 
ATOM     26  C   UNL     1       3.758 -31.613   1.037  1.00  0.00     0.016 C 
ATOM     27  C   UNL     1       6.282 -33.230   1.754  1.00  0.00     0.063 C 
ATOM     28  C   UNL     1       4.426 -33.430   3.491  1.00  0.00     0.033 C 
ATOM     29  C   UNL     1       5.833 -33.904   3.064  1.00  0.00     0.118 C 
BRANCH  29  30
ATOM     30  O   UNL     1       6.750 -33.625   4.093  1.00  0.00    -0.393 OA
ATOM     31  H   UNL     1       6.838 -32.636   4.137  1.00  0.00     0.210 HD
ENDBRANCH  29  30
ENDBRANCH   1  11
TORSDOF 6
ENDMDL
MODEL 2
REMARK VINA RESULT:    -6.667      1.315      2.128
REMARK INTER + INTRA:          -9.778
REMARK INTER:                  -8.245
REMARK INTRA:                  -1.533
REMARK UNBOUND:                -0.967
REMARK SMILES CC[C@H](C=C[C@@H](C)[C@H]1CC[C@H]2[C@H]3CC=C4C[C@@H](O)CC[C@@]4(C)[C@H]3CC[C@]12C)C(C)C
REMARK SMILES IDX 6 1 7 2 5 3 4 4 3 5 2 6 1 7 28 8 29 9 30 10 8 11 9 12 26 13
REMARK SMILES IDX 10 14 11 15 25 16 27 17 12 18 24 19 23 20 13 21 21 22 14 23
REMARK SMILES IDX 15 24 20 25 22 26 16 27 19 28 17 29 18 30
REMARK H PARENT 18 31
REMARK Flexibility Score: inf
ROOT
ATOM      1  C   UNL     1       3.622 -26.200   5.853  1.00  0.00     0.012 C 
ATOM      2  C   UNL     1       2.204 -26.684   6.230  1.00  0.00     0.012 C 
ENDROOT
BRANCH   1   3
ATOM      3  C   UNL     1       3.709 -24.695   6.050  1.00  0.00    -0.028 C 
ATOM      4  C   UNL     1       4.637 -24.068   6.801  1.00  0.00    -0.027 C 
BRANCH   4   5
ATOM      5  C   UNL     1       5.703 -24.753   7.647  1.00  0.00     0.014 C 
BRANCH   5   6
ATOM      6  C   UNL     1       7.069 -24.498   6.961  1.00  0.00     0.004 C 
ATOM      7  C   UNL     1       7.025 -23.423   5.876  1.00  0.00     0.004 C 
ENDBRANCH   5   6
BRANCH   5   8
ATOM      8  C   UNL     1       5.688 -24.274   9.151  1.00  0.00    -0.011 C 
ATOM      9  C   UNL     1       5.073 -22.876   9.376  1.00  0.00     0.008 C 
ATOM     10  C   UNL     1       4.929 -25.274  10.046  1.00  0.00     0.008 C 
ENDBRANCH   5   8
ENDBRANCH   4   5
ENDBRANCH   1   3
BRANCH   1  11
ATOM     11  C   UNL     1       3.981 -26.587   4.376  1.00  0.00     0.002 C 
ATOM     12  C   UNL     1       4.966 -25.586   3.702  1.00  0.00     0.005 C 
ATOM     13  C   UNL     1       4.641 -27.981   4.108  1.00  0.00    -0.026 C 
ATOM     14  C   UNL     1       5.778 -26.373   2.662  1.00  0.00     0.005 C 
ATOM     15  C   UNL     1       5.129 -27.752   2.667  1.00  0.00    -0.001 C 
ATOM     16  C   UNL     1       3.664 -29.182   4.067  1.00  0.00     0.007 C 
ATOM     17  C   UNL     1       5.788 -28.245   5.131  1.00  0.00     0.012 C 
ATOM     18  C   UNL     1       5.813 -28.938   1.936  1.00  0.00     0.000 C 
ATOM     19  C   UNL     1       4.346 -30.450   3.504  1.00  0.00     0.005 C 
ATOM     20  C   UNL     1       4.994 -30.260   2.093  1.00  0.00     0.003 C 
ATOM     21  C   UNL     1       7.303 -29.159   2.197  1.00  0.00     0.031 C 
ATOM     22  C   UNL     1       5.744 -31.564   1.520  1.00  0.00    -0.008 C 
ATOM     23  C   UNL     1       7.812 -30.150   1.197  1.00  0.00    -0.027 C 
ATOM     24  C   UNL     1       7.098 -31.245   0.856  1.00  0.00    -0.065 C 
ATOM     25  C   UNL     1       6.082 -32.629   2.614  1.00  0.00     0.014 C 
ATOM     26  C   UNL     1       4.782 -32.201   0.478  1.00  0.00     0.016 C 
ATOM     27  C   UNL     1       7.848 -32.393   0.219  1.00  0.00     0.063 C 
ATOM     28  C   UNL     1       6.899 -33.842   2.091  1.00  0.00     0.033 C 
ATOM     29  C   UNL     1       8.166 -33.435   1.308  1.00  0.00     0.118 C 
BRANCH  29  30
ATOM     30  O   UNL     1       9.123 -32.924   2.204  1.00  0.00    -0.393 OA
ATOM     31  H   UNL     1       9.964 -33.429   2.044  1.00  0.00     0.210 HD
ENDBRANCH  29  30
ENDBRANCH   1  11
TORSDOF 6
ENDMDL
MODEL 3
REMARK VINA RESULT:    -6.625     12.113     14.927
REMARK INTER + INTRA:          -9.722
REMARK INTER:                  -9.149
REMARK INTRA:                  -0.573
REMARK UNBOUND:                -0.967
REMARK SMILES CC[C@H](C=C[C@@H](C)[C@H]1CC[C@H]2[C@H]3CC=C4C[C@@H](O)CC[C@@]4(C)[C@H]3CC[C@]12C)C(C)C
REMARK SMILES IDX 6 1 7 2 5 3 4 4 3 5 2 6 1 7 28 8 29 9 30 10 8 11 9 12 26 13
REMARK SMILES IDX 10 14 11 15 25 16 27 17 12 18 24 19 23 20 13 21 21 22 14 23
REMARK SMILES IDX 15 24 20 25 22 26 16 27 19 28 17 29 18 30
REMARK H PARENT 18 31
REMARK Flexibility Score: inf
ROOT
ATOM      1  C   UNL     1       1.152 -19.257  -4.353  1.00  0.00     0.012 C 
ATOM      2  C   UNL     1       0.079 -19.528  -3.276  1.00  0.00     0.012 C 
ENDROOT
BRANCH   1   3
ATOM      3  C   UNL     1       2.183 -20.374  -4.329  1.00  0.00    -0.028 C 
ATOM      4  C   UNL     1       2.814 -20.864  -5.415  1.00  0.00    -0.027 C 
BRANCH   4   5
ATOM      5  C   UNL     1       2.550 -20.450  -6.857  1.00  0.00     0.014 C 
BRANCH   5   6
ATOM      6  C   UNL     1       3.921 -20.120  -7.500  1.00  0.00     0.004 C 
ATOM      7  C   UNL     1       5.092 -20.884  -6.884  1.00  0.00     0.004 C 
ENDBRANCH   5   6
BRANCH   5   8
ATOM      8  C   UNL     1       1.754 -21.544  -7.669  1.00  0.00    -0.011 C 
ATOM      9  C   UNL     1       0.539 -22.141  -6.926  1.00  0.00     0.008 C 
ATOM     10  C   UNL     1       1.256 -20.985  -9.016  1.00  0.00     0.008 C 
ENDBRANCH   5   8
ENDBRANCH   4   5
ENDBRANCH   1   3
BRANCH   1  11
ATOM     11  C   UNL     1       1.838 -17.864  -4.135  1.00  0.00     0.002 C 
ATOM     12  C   UNL     1       0.936 -16.848  -3.373  1.00  0.00     0.005 C 
ATOM     13  C   UNL     1       3.190 -17.812  -3.346  1.00  0.00    -0.026 C 
ATOM     14  C   UNL     1       1.866 -15.896  -2.606  1.00  0.00     0.005 C 
ATOM     15  C   UNL     1       3.260 -16.299  -3.073  1.00  0.00    -0.001 C 
ATOM     16  C   UNL     1       4.452 -18.181  -4.164  1.00  0.00     0.007 C 
ATOM     17  C   UNL     1       3.100 -18.685  -2.058  1.00  0.00     0.012 C 
ATOM     18  C   UNL     1       4.515 -15.752  -2.343  1.00  0.00     0.000 C 
ATOM     19  C   UNL     1       5.748 -17.813  -3.405  1.00  0.00     0.005 C 
ATOM     20  C   UNL     1       5.834 -16.315  -2.966  1.00  0.00     0.003 C 
ATOM     21  C   UNL     1       4.530 -15.830  -0.816  1.00  0.00     0.031 C 
ATOM     22  C   UNL     1       7.161 -15.935  -2.137  1.00  0.00    -0.008 C 
ATOM     23  C   UNL     1       5.676 -15.006  -0.317  1.00  0.00    -0.027 C 
ATOM     24  C   UNL     1       6.881 -15.023  -0.926  1.00  0.00    -0.065 C 
ATOM     25  C   UNL     1       7.905 -17.173  -1.536  1.00  0.00     0.014 C 
ATOM     26  C   UNL     1       8.110 -15.214  -3.134  1.00  0.00     0.016 C 
ATOM     27  C   UNL     1       8.073 -14.548  -0.125  1.00  0.00     0.063 C 
ATOM     28  C   UNL     1       9.125 -16.812  -0.647  1.00  0.00     0.033 C 
ATOM     29  C   UNL     1       8.797 -15.779   0.454  1.00  0.00     0.118 C 
BRANCH  29  30
ATOM     30  O   UNL     1       8.004 -16.388   1.443  1.00  0.00    -0.393 OA
ATOM     31  H   UNL     1       8.294 -16.010   2.315  1.00  0.00     0.210 HD
ENDBRANCH  29  30
ENDBRANCH   1  11
TORSDOF 6
ENDMDL
MODEL 4
REMARK VINA RESULT:    -6.625      3.709      8.021
REMARK INTER + INTRA:          -9.722
REMARK INTER:                  -7.953
REMARK INTRA:                  -1.769
REMARK UNBOUND:                -0.967
REMARK SMILES CC[C@H](C=C[C@@H](C)[C@H]1CC[C@H]2[C@H]3CC=C4C[C@@H](O)CC[C@@]4(C)[C@H]3CC[C@]12C)C(C)C
REMARK SMILES IDX 6 1 7 2 5 3 4 4 3 5 2 6 1 7 28 8 29 9 30 10 8 11 9 12 26 13
REMARK SMILES IDX 10 14 11 15 25 16 27 17 12 18 24 19 23 20 13 21 21 22 14 23
REMARK SMILES IDX 15 24 20 25 22 26 16 27 19 28 17 29 18 30
REMARK H PARENT 18 31
REMARK Flexibility Score: inf
ROOT
ATOM      1  C   UNL     1       2.417 -32.450   4.562  1.00  0.00     0.012 C 
ATOM      2  C   UNL     1       3.118 -33.304   3.483  1.00  0.00     0.012 C 
ENDROOT
BRANCH   1   3
ATOM      3  C   UNL     1       1.051 -33.043   4.865  1.00  0.00    -0.028 C 
ATOM      4  C   UNL     1       0.496 -33.112   6.092  1.00  0.00    -0.027 C 
BRANCH   4   5
ATOM      5  C   UNL     1       1.164 -32.688   7.394  1.00  0.00     0.014 C 
BRANCH   5   6
ATOM      6  C   UNL     1       0.061 -32.094   8.306  1.00  0.00     0.004 C 
ATOM      7  C   UNL     1      -0.133 -30.588   8.140  1.00  0.00     0.004 C 
ENDBRANCH   5   6
BRANCH   5   8
ATOM      8  C   UNL     1       1.947 -33.869   8.089  1.00  0.00    -0.011 C 
ATOM      9  C   UNL     1       3.467 -33.882   7.818  1.00  0.00     0.008 C 
ATOM     10  C   UNL     1       1.739 -33.852   9.616  1.00  0.00     0.008 C 
ENDBRANCH   5   8
ENDBRANCH   4   5
ENDBRANCH   1   3
BRANCH   1  11
ATOM     11  C   UNL     1       2.283 -30.955   4.105  1.00  0.00     0.002 C 
ATOM     12  C   UNL     1       0.827 -30.410   4.209  1.00  0.00     0.005 C 
ATOM     13  C   UNL     1       3.131 -29.868   4.847  1.00  0.00    -0.026 C 
ATOM     14  C   UNL     1       0.922 -28.898   4.461  1.00  0.00     0.005 C 
ATOM     15  C   UNL     1       2.413 -28.605   4.341  1.00  0.00    -0.001 C 
ATOM     16  C   UNL     1       4.609 -29.757   4.397  1.00  0.00     0.007 C 
ATOM     17  C   UNL     1       3.044 -30.071   6.390  1.00  0.00     0.012 C 
ATOM     18  C   UNL     1       2.974 -27.227   4.781  1.00  0.00     0.000 C 
ATOM     19  C   UNL     1       5.276 -28.478   4.954  1.00  0.00     0.005 C 
ATOM     20  C   UNL     1       4.525 -27.153   4.599  1.00  0.00     0.003 C 
ATOM     21  C   UNL     1       2.535 -26.692   6.144  1.00  0.00     0.031 C 
ATOM     22  C   UNL     1       5.191 -25.821   5.213  1.00  0.00    -0.008 C 
ATOM     23  C   UNL     1       2.953 -25.258   6.241  1.00  0.00    -0.027 C 
ATOM     24  C   UNL     1       4.157 -24.837   5.795  1.00  0.00    -0.065 C 
ATOM     25  C   UNL     1       6.182 -26.096   6.391  1.00  0.00     0.014 C 
ATOM     26  C   UNL     1       5.968 -25.144   4.049  1.00  0.00     0.016 C 
ATOM     27  C   UNL     1       4.675 -23.520   6.329  1.00  0.00     0.063 C 
ATOM     28  C   UNL     1       6.748 -24.814   7.059  1.00  0.00     0.033 C 
ATOM     29  C   UNL     1       5.654 -23.810   7.483  1.00  0.00     0.118 C 
BRANCH  29  30
ATOM     30  O   UNL     1       4.958 -24.321   8.593  1.00  0.00    -0.393 OA
ATOM     31  H   UNL     1       4.312 -23.619   8.874  1.00  0.00     0.210 HD
ENDBRANCH  29  30
ENDBRANCH   1  11
TORSDOF 6
ENDMDL
MODEL 5
REMARK VINA RESULT:    -6.398      1.989      3.820
REMARK INTER + INTRA:          -9.422
REMARK INTER:                  -8.068
REMARK INTRA:                  -1.354
REMARK UNBOUND:                -0.967
REMARK SMILES CC[C@H](C=C[C@@H](C)[C@H]1CC[C@H]2[C@H]3CC=C4C[C@@H](O)CC[C@@]4(C)[C@H]3CC[C@]12C)C(C)C
REMARK SMILES IDX 6 1 7 2 5 3 4 4 3 5 2 6 1 7 28 8 29 9 30 10 8 11 9 12 26 13
REMARK SMILES IDX 10 14 11 15 25 16 27 17 12 18 24 19 23 20 13 21 21 22 14 23
REMARK SMILES IDX 15 24 20 25 22 26 16 27 19 28 17 29 18 30
REMARK H PARENT 18 31
REMARK Flexibility Score: inf
ROOT
ATOM      1  C   UNL     1       5.090 -26.530   5.676  1.00  0.00     0.012 C 
ATOM      2  C   UNL     1       6.177 -26.471   6.771  1.00  0.00     0.012 C 
ENDROOT
BRANCH   1   3
ATOM      3  C   UNL     1       3.882 -25.721   6.121  1.00  0.00    -0.028 C 
ATOM      4  C   UNL     1       3.682 -24.417   5.842  1.00  0.00    -0.027 C 
BRANCH   4   5
ATOM      5  C   UNL     1       4.660 -23.507   5.110  1.00  0.00     0.014 C 
BRANCH   5   6
ATOM      6  C   UNL     1       3.879 -22.824   3.959  1.00  0.00     0.004 C 
ATOM      7  C   UNL     1       4.187 -23.397   2.577  1.00  0.00     0.004 C 
ENDBRANCH   5   6
BRANCH   5   8
ATOM      8  C   UNL     1       5.354 -22.462   6.068  1.00  0.00    -0.011 C 
ATOM      9  C   UNL     1       5.488 -22.923   7.535  1.00  0.00     0.008 C 
ATOM     10  C   UNL     1       6.761 -22.089   5.559  1.00  0.00     0.008 C 
ENDBRANCH   5   8
ENDBRANCH   4   5
ENDBRANCH   1   3
BRANCH   1  11
ATOM     11  C   UNL     1       4.679 -28.011   5.361  1.00  0.00     0.002 C 
ATOM     12  C   UNL     1       3.161 -28.174   5.052  1.00  0.00     0.005 C 
ATOM     13  C   UNL     1       5.375 -28.741   4.163  1.00  0.00    -0.026 C 
ATOM     14  C   UNL     1       3.015 -29.372   4.100  1.00  0.00     0.005 C 
ATOM     15  C   UNL     1       4.425 -29.944   4.021  1.00  0.00    -0.001 C 
ATOM     16  C   UNL     1       6.783 -29.312   4.461  1.00  0.00     0.007 C 
ATOM     17  C   UNL     1       5.414 -27.813   2.912  1.00  0.00     0.012 C 
ATOM     18  C   UNL     1       4.771 -31.018   2.956  1.00  0.00     0.000 C 
ATOM     19  C   UNL     1       7.258 -30.264   3.339  1.00  0.00     0.005 C 
ATOM     20  C   UNL     1       6.274 -31.441   3.034  1.00  0.00     0.003 C 
ATOM     21  C   UNL     1       4.331 -30.749   1.517  1.00  0.00     0.031 C 
ATOM     22  C   UNL     1       6.742 -32.412   1.837  1.00  0.00    -0.008 C 
ATOM     23  C   UNL     1       4.507 -32.011   0.730  1.00  0.00    -0.027 C 
ATOM     24  C   UNL     1       5.594 -32.798   0.884  1.00  0.00    -0.065 C 
ATOM     25  C   UNL     1       7.833 -31.785   0.907  1.00  0.00     0.014 C 
ATOM     26  C   UNL     1       7.324 -33.687   2.508  1.00  0.00     0.016 C 
ATOM     27  C   UNL     1       5.914 -33.767  -0.232  1.00  0.00     0.063 C 
ATOM     28  C   UNL     1       8.214 -32.669  -0.311  1.00  0.00     0.033 C 
ATOM     29  C   UNL     1       6.994 -33.139  -1.133  1.00  0.00     0.118 C 
BRANCH  29  30
ATOM     30  O   UNL     1       6.460 -32.046  -1.840  1.00  0.00    -0.393 OA
ATOM     31  H   UNL     1       5.959 -31.496  -1.181  1.00  0.00     0.210 HD
ENDBRANCH  29  30
ENDBRANCH   1  11
TORSDOF 6
ENDMDL
MODEL 6
REMARK VINA RESULT:    -6.389      4.211      7.902
REMARK INTER + INTRA:          -9.410
REMARK INTER:                  -8.422
REMARK INTRA:                  -0.988
REMARK UNBOUND:                -0.967
REMARK SMILES CC[C@H](C=C[C@@H](C)[C@H]1CC[C@H]2[C@H]3CC=C4C[C@@H](O)CC[C@@]4(C)[C@H]3CC[C@]12C)C(C)C
REMARK SMILES IDX 6 1 7 2 5 3 4 4 3 5 2 6 1 7 28 8 29 9 30 10 8 11 9 12 26 13
REMARK SMILES IDX 10 14 11 15 25 16 27 17 12 18 24 19 23 20 13 21 21 22 14 23
REMARK SMILES IDX 15 24 20 25 22 26 16 27 19 28 17 29 18 30
REMARK H PARENT 18 31
REMARK Flexibility Score: inf
ROOT
ATOM      1  C   UNL     1       0.185 -30.903   6.344  1.00  0.00     0.012 C 
ATOM      2  C   UNL     1      -0.394 -30.100   7.530  1.00  0.00     0.012 C 
ENDROOT
BRANCH   1   3
ATOM      3  C   UNL     1       0.043 -32.390   6.626  1.00  0.00    -0.028 C 
ATOM      4  C   UNL     1       0.639 -33.042   7.645  1.00  0.00    -0.027 C 
BRANCH   4   5
ATOM      5  C   UNL     1       1.617 -32.428   8.639  1.00  0.00     0.014 C 
BRANCH   5   6
ATOM      6  C   UNL     1       1.075 -32.725  10.060  1.00  0.00     0.004 C 
ATOM      7  C   UNL     1      -0.001 -33.808  10.099  1.00  0.00     0.004 C 
ENDBRANCH   5   6
BRANCH   5   8
ATOM      8  C   UNL     1       3.094 -32.947   8.439  1.00  0.00    -0.011 C 
ATOM      9  C   UNL     1       3.783 -33.443   9.728  1.00  0.00     0.008 C 
ATOM     10  C   UNL     1       3.148 -34.088   7.404  1.00  0.00     0.008 C 
ENDBRANCH   5   8
ENDBRANCH   4   5
ENDBRANCH   1   3
BRANCH   1  11
ATOM     11  C   UNL     1       1.685 -30.529   6.082  1.00  0.00     0.002 C 
ATOM     12  C   UNL     1       2.319 -31.328   4.904  1.00  0.00     0.005 C 
ATOM     13  C   UNL     1       2.037 -29.042   5.743  1.00  0.00    -0.026 C 
ATOM     14  C   UNL     1       3.412 -30.441   4.287  1.00  0.00     0.005 C 
ATOM     15  C   UNL     1       3.471 -29.239   5.222  1.00  0.00    -0.001 C 
ATOM     16  C   UNL     1       2.127 -28.087   6.960  1.00  0.00     0.007 C 
ATOM     17  C   UNL     1       1.047 -28.478   4.680  1.00  0.00     0.012 C 
ATOM     18  C   UNL     1       4.274 -27.975   4.815  1.00  0.00     0.000 C 
ATOM     19  C   UNL     1       2.768 -26.734   6.573  1.00  0.00     0.005 C 
ATOM     20  C   UNL     1       4.176 -26.856   5.903  1.00  0.00     0.003 C 
ATOM     21  C   UNL     1       4.048 -27.420   3.408  1.00  0.00     0.031 C 
ATOM     22  C   UNL     1       4.829 -25.454   5.458  1.00  0.00    -0.008 C 
ATOM     23  C   UNL     1       5.107 -26.399   3.132  1.00  0.00    -0.027 C 
ATOM     24  C   UNL     1       5.495 -25.507   4.069  1.00  0.00    -0.065 C 
ATOM     25  C   UNL     1       3.799 -24.281   5.357  1.00  0.00     0.014 C 
ATOM     26  C   UNL     1       5.889 -25.101   6.539  1.00  0.00     0.016 C 
ATOM     27  C   UNL     1       6.204 -24.259   3.590  1.00  0.00     0.063 C 
ATOM     28  C   UNL     1       4.398 -22.951   4.827  1.00  0.00     0.033 C 
ATOM     29  C   UNL     1       5.177 -23.114   3.503  1.00  0.00     0.118 C 
BRANCH  29  30
ATOM     30  O   UNL     1       4.269 -23.354   2.455  1.00  0.00    -0.393 OA
ATOM     31  H   UNL     1       4.337 -22.580   1.836  1.00  0.00     0.210 HD
ENDBRANCH  29  30
ENDBRANCH   1  11
TORSDOF 6
ENDMDL
MODEL 7
REMARK VINA RESULT:    -6.252      3.925      5.252
REMARK INTER + INTRA:          -9.229
REMARK INTER:                  -7.588
REMARK INTRA:                  -1.641
REMARK UNBOUND:                -0.967
REMARK SMILES CC[C@H](C=C[C@@H](C)[C@H]1CC[C@H]2[C@H]3CC=C4C[C@@H](O)CC[C@@]4(C)[C@H]3CC[C@]12C)C(C)C
REMARK SMILES IDX 6 1 7 2 5 3 4 4 3 5 2 6 1 7 28 8 29 9 30 10 8 11 9 12 26 13
REMARK SMILES IDX 10 14 11 15 25 16 27 17 12 18 24 19 23 20 13 21 21 22 14 23
REMARK SMILES IDX 15 24 20 25 22 26 16 27 19 28 17 29 18 30
REMARK H PARENT 18 31
REMARK Flexibility Score: inf
ROOT
ATOM      1  C   UNL     1       4.510 -26.306   4.009  1.00  0.00     0.012 C 
ATOM      2  C   UNL     1       4.617 -25.675   2.603  1.00  0.00     0.012 C 
ENDROOT
BRANCH   1   3
ATOM      3  C   UNL     1       5.803 -26.063   4.770  1.00  0.00    -0.028 C 
ATOM      4  C   UNL     1       5.930 -25.237   5.829  1.00  0.00    -0.027 C 
BRANCH   4   5
ATOM      5  C   UNL     1       4.833 -24.345   6.396  1.00  0.00     0.014 C 
BRANCH   5   6
ATOM      6  C   UNL     1       4.951 -24.395   7.940  1.00  0.00     0.004 C 
ATOM      7  C   UNL     1       5.411 -25.748   8.482  1.00  0.00     0.004 C 
ENDBRANCH   5   6
BRANCH   5   8
ATOM      8  C   UNL     1       4.896 -22.871   5.836  1.00  0.00    -0.011 C 
ATOM      9  C   UNL     1       6.320 -22.362   5.522  1.00  0.00     0.008 C 
ATOM     10  C   UNL     1       4.049 -22.725   4.557  1.00  0.00     0.008 C 
ENDBRANCH   5   8
ENDBRANCH   4   5
ENDBRANCH   1   3
BRANCH   1  11
ATOM     11  C   UNL     1       4.199 -27.840   3.921  1.00  0.00     0.002 C 
ATOM     12  C   UNL     1       5.428 -28.736   4.260  1.00  0.00     0.005 C 
ATOM     13  C   UNL     1       3.063 -28.426   4.826  1.00  0.00    -0.026 C 
ATOM     14  C   UNL     1       4.889 -30.050   4.846  1.00  0.00     0.005 C 
ATOM     15  C   UNL     1       3.379 -29.925   4.681  1.00  0.00    -0.001 C 
ATOM     16  C   UNL     1       1.621 -28.217   4.301  1.00  0.00     0.007 C 
ATOM     17  C   UNL     1       3.197 -27.888   6.282  1.00  0.00     0.012 C 
ATOM     18  C   UNL     1       2.433 -30.936   5.383  1.00  0.00     0.000 C 
ATOM     19  C   UNL     1       0.602 -29.077   5.084  1.00  0.00     0.005 C 
ATOM     20  C   UNL     1       0.931 -30.606   5.104  1.00  0.00     0.003 C 
ATOM     21  C   UNL     1       2.686 -31.225   6.863  1.00  0.00     0.031 C 
ATOM     22  C   UNL     1      -0.103 -31.502   5.954  1.00  0.00    -0.008 C 
ATOM     23  C   UNL     1       1.862 -32.412   7.255  1.00  0.00    -0.027 C 
ATOM     24  C   UNL     1       0.591 -32.567   6.826  1.00  0.00    -0.065 C 
ATOM     25  C   UNL     1      -0.975 -30.677   6.957  1.00  0.00     0.014 C 
ATOM     26  C   UNL     1      -1.038 -32.191   4.922  1.00  0.00     0.016 C 
ATOM     27  C   UNL     1      -0.297 -33.511   7.607  1.00  0.00     0.063 C 
ATOM     28  C   UNL     1      -1.899 -31.542   7.857  1.00  0.00     0.033 C 
ATOM     29  C   UNL     1      -1.153 -32.682   8.584  1.00  0.00     0.118 C 
BRANCH  29  30
ATOM     30  O   UNL     1      -0.344 -32.137   9.597  1.00  0.00    -0.393 OA
ATOM     31  H   UNL     1      -0.375 -31.150   9.488  1.00  0.00     0.210 HD
ENDBRANCH  29  30
ENDBRANCH   1  11
TORSDOF 6
ENDMDL
MODEL 8
REMARK VINA RESULT:    -6.244     12.716     16.040
REMARK INTER + INTRA:          -9.219
REMARK INTER:                  -7.516
REMARK INTRA:                  -1.703
REMARK UNBOUND:                -0.967
REMARK SMILES CC[C@H](C=C[C@@H](C)[C@H]1CC[C@H]2[C@H]3CC=C4C[C@@H](O)CC[C@@]4(C)[C@H]3CC[C@]12C)C(C)C
REMARK SMILES IDX 6 1 7 2 5 3 4 4 3 5 2 6 1 7 28 8 29 9 30 10 8 11 9 12 26 13
REMARK SMILES IDX 10 14 11 15 25 16 27 17 12 18 24 19 23 20 13 21 21 22 14 23
REMARK SMILES IDX 15 24 20 25 22 26 16 27 19 28 17 29 18 30
REMARK H PARENT 18 31
REMARK Flexibility Score: inf
ROOT
ATOM      1  C   UNL     1      -9.878 -18.807   4.214  1.00  0.00     0.012 C 
ATOM      2  C   UNL     1      -9.931 -17.483   5.009  1.00  0.00     0.012 C 
ENDROOT
BRANCH   1   3
ATOM      3  C   UNL     1     -11.063 -18.871   3.264  1.00  0.00    -0.028 C 
ATOM      4  C   UNL     1     -10.971 -18.948   1.921  1.00  0.00    -0.027 C 
BRANCH   4   5
ATOM      5  C   UNL     1      -9.677 -18.901   1.116  1.00  0.00     0.014 C 
BRANCH   5   6
ATOM      6  C   UNL     1      -9.603 -20.210   0.289  1.00  0.00     0.004 C 
ATOM      7  C   UNL     1      -9.336 -21.458   1.129  1.00  0.00     0.004 C 
ENDBRANCH   5   6
BRANCH   5   8
ATOM      8  C   UNL     1      -9.568 -17.613   0.212  1.00  0.00    -0.011 C 
ATOM      9  C   UNL     1     -10.807 -17.336  -0.667  1.00  0.00     0.008 C 
ATOM     10  C   UNL     1      -9.303 -16.356   1.064  1.00  0.00     0.008 C 
ENDBRANCH   5   8
ENDBRANCH   4   5
ENDBRANCH   1   3
BRANCH   1  11
ATOM     11  C   UNL     1      -9.870 -20.047   5.174  1.00  0.00     0.002 C 
ATOM     12  C   UNL     1     -10.558 -21.302   4.559  1.00  0.00     0.005 C 
ATOM     13  C   UNL     1      -8.492 -20.597   5.674  1.00  0.00    -0.026 C 
ATOM     14  C   UNL     1      -9.889 -22.540   5.177  1.00  0.00     0.005 C 
ATOM     15  C   UNL     1      -8.954 -21.955   6.230  1.00  0.00    -0.001 C 
ATOM     16  C   UNL     1      -7.856 -19.820   6.853  1.00  0.00     0.007 C 
ATOM     17  C   UNL     1      -7.488 -20.706   4.487  1.00  0.00     0.012 C 
ATOM     18  C   UNL     1      -7.893 -22.856   6.916  1.00  0.00     0.000 C 
ATOM     19  C   UNL     1      -6.672 -20.599   7.472  1.00  0.00     0.005 C 
ATOM     20  C   UNL     1      -7.027 -22.049   7.937  1.00  0.00     0.003 C 
ATOM     21  C   UNL     1      -7.031 -23.739   6.013  1.00  0.00     0.031 C 
ATOM     22  C   UNL     1      -5.787 -22.880   8.542  1.00  0.00    -0.008 C 
ATOM     23  C   UNL     1      -6.293 -24.713   6.878  1.00  0.00    -0.027 C 
ATOM     24  C   UNL     1      -5.739 -24.341   8.053  1.00  0.00    -0.065 C 
ATOM     25  C   UNL     1      -4.389 -22.291   8.165  1.00  0.00     0.014 C 
ATOM     26  C   UNL     1      -5.949 -22.845  10.087  1.00  0.00     0.016 C 
ATOM     27  C   UNL     1      -4.654 -25.229   8.622  1.00  0.00     0.063 C 
ATOM     28  C   UNL     1      -3.187 -23.143   8.653  1.00  0.00     0.033 C 
ATOM     29  C   UNL     1      -3.285 -24.630   8.247  1.00  0.00     0.118 C 
BRANCH  29  30
ATOM     30  O   UNL     1      -3.064 -24.751   6.863  1.00  0.00    -0.393 OA
ATOM     31  H   UNL     1      -3.631 -25.504   6.548  1.00  0.00     0.210 HD
ENDBRANCH  29  30
ENDBRANCH   1  11
TORSDOF 6
ENDMDL
MODEL 9
REMARK VINA RESULT:    -6.192      2.015      4.025
REMARK INTER + INTRA:          -9.150
REMARK INTER:                  -7.598
REMARK INTRA:                  -1.552
REMARK UNBOUND:                -0.967
REMARK SMILES CC[C@H](C=C[C@@H](C)[C@H]1CC[C@H]2[C@H]3CC=C4C[C@@H](O)CC[C@@]4(C)[C@H]3CC[C@]12C)C(C)C
REMARK SMILES IDX 6 1 7 2 5 3 4 4 3 5 2 6 1 7 28 8 29 9 30 10 8 11 9 12 26 13
REMARK SMILES IDX 10 14 11 15 25 16 27 17 12 18 24 19 23 20 13 21 21 22 14 23
REMARK SMILES IDX 15 24 20 25 22 26 16 27 19 28 17 29 18 30
REMARK H PARENT 18 31
REMARK Flexibility Score: inf
ROOT
ATOM      1  C   UNL     1       5.936 -26.066   5.550  1.00  0.00     0.012 C 
ATOM      2  C   UNL     1       6.150 -25.839   7.063  1.00  0.00     0.012 C 
ENDROOT
BRANCH   1   3
ATOM      3  C   UNL     1       5.201 -24.872   4.962  1.00  0.00    -0.028 C 
ATOM      4  C   UNL     1       5.747 -23.969   4.122  1.00  0.00    -0.027 C 
BRANCH   4   5
ATOM      5  C   UNL     1       7.205 -23.934   3.682  1.00  0.00     0.014 C 
BRANCH   5   6
ATOM      6  C   UNL     1       7.217 -23.894   2.132  1.00  0.00     0.004 C 
ATOM      7  C   UNL     1       5.831 -23.745   1.507  1.00  0.00     0.004 C 
ENDBRANCH   5   6
BRANCH   5   8
ATOM      8  C   UNL     1       8.006 -22.734   4.320  1.00  0.00    -0.011 C 
ATOM      9  C   UNL     1       8.698 -21.805   3.298  1.00  0.00     0.008 C 
ATOM     10  C   UNL     1       7.093 -21.864   5.206  1.00  0.00     0.008 C 
ENDBRANCH   5   8
ENDBRANCH   4   5
ENDBRANCH   1   3
BRANCH   1  11
ATOM     11  C   UNL     1       5.144 -27.392   5.280  1.00  0.00     0.002 C 
ATOM     12  C   UNL     1       3.714 -27.147   4.712  1.00  0.00     0.005 C 
ATOM     13  C   UNL     1       5.754 -28.439   4.289  1.00  0.00    -0.026 C 
ATOM     14  C   UNL     1       3.353 -28.363   3.844  1.00  0.00     0.005 C 
ATOM     15  C   UNL     1       4.514 -29.323   4.068  1.00  0.00    -0.001 C 
ATOM     16  C   UNL     1       6.858 -29.350   4.881  1.00  0.00     0.007 C 
ATOM     17  C   UNL     1       6.265 -27.730   2.998  1.00  0.00     0.012 C 
ATOM     18  C   UNL     1       4.671 -30.579   3.169  1.00  0.00     0.000 C 
ATOM     19  C   UNL     1       7.181 -30.534   3.941  1.00  0.00     0.005 C 
ATOM     20  C   UNL     1       5.942 -31.405   3.553  1.00  0.00     0.003 C 
ATOM     21  C   UNL     1       4.557 -30.380   1.658  1.00  0.00     0.031 C 
ATOM     22  C   UNL     1       6.264 -32.614   2.539  1.00  0.00    -0.008 C 
ATOM     23  C   UNL     1       4.454 -31.729   1.015  1.00  0.00    -0.027 C 
ATOM     24  C   UNL     1       5.211 -32.770   1.424  1.00  0.00    -0.065 C 
ATOM     25  C   UNL     1       7.622 -32.454   1.779  1.00  0.00     0.014 C 
ATOM     26  C   UNL     1       6.318 -33.906   3.400  1.00  0.00     0.016 C 
ATOM     27  C   UNL     1       5.383 -33.925   0.463  1.00  0.00     0.063 C 
ATOM     28  C   UNL     1       7.893 -33.559   0.722  1.00  0.00     0.033 C 
ATOM     29  C   UNL     1       6.727 -33.756  -0.271  1.00  0.00     0.118 C 
BRANCH  29  30
ATOM     30  O   UNL     1       6.669 -32.655  -1.145  1.00  0.00    -0.393 OA
ATOM     31  H   UNL     1       5.817 -32.181  -0.950  1.00  0.00     0.210 HD
ENDBRANCH  29  30
ENDBRANCH   1  11
TORSDOF 6
ENDMDL
