MODEL 1
REMARK VINA RESULT:    -1.494      0.000      0.000
REMARK INTER + INTRA:          -0.336
REMARK INTER:                  -2.105
REMARK INTRA:                   1.769
REMARK UNBOUND:                 1.769
REMARK SMILES CC1=CCCC(C)=CCC(C)(C)C=CC1
REMARK SMILES IDX 2 1 3 2 1 3 4 4 5 5 6 6 7 7 8 8 15 10 14 11 13 12 10 13
REMARK SMILES IDX 11 14 12 15 9 16
REMARK H PARENT
REMARK Flexibility Score: 60.00
ROOT
ATOM      1  C   UNL     1      13.087  -9.915 -27.243  1.00  0.00    -0.074 C 
ATOM      2  C   UNL     1      11.741 -10.079 -27.155  1.00  0.00    -0.027 C 
ATOM      3  C   UNL     1      13.591  -8.793 -28.118  1.00  0.00     0.039 C 
ENDROOT
BRANCH   2   4
ATOM      4  C   UNL     1      10.993 -11.136 -26.368  1.00  0.00     0.032 C 
BRANCH   4   5
ATOM      5  C   UNL     1      10.198 -12.067 -27.311  1.00  0.00     0.034 C 
BRANCH   5   6
ATOM      6  C   UNL     1      11.024 -12.527 -28.502  1.00  0.00    -0.077 C 
ATOM      7  C   UNL     1      10.896 -11.795 -29.813  1.00  0.00     0.039 C 
ATOM      8  C   UNL     1      11.901 -13.556 -28.427  1.00  0.00    -0.027 CG0
ATOM      9  G   UNL     1      12.148 -14.386 -27.183  1.00  0.00     0.000 G0
ENDBRANCH   5   6
ENDBRANCH   4   5
ENDBRANCH   2   4
BRANCH   1  10
ATOM     10  C   UNL     1      14.113 -10.729 -26.469  1.00  0.00     0.057 C 
BRANCH  10  11
ATOM     11  C   UNL     1      14.688 -11.866 -27.287  1.00  0.00    -0.026 C 
ATOM     12  C   UNL     1      14.389 -13.186 -27.212  1.00  0.00    -0.024 C 
BRANCH  12  13
ATOM     13  C   UNL     1      13.360 -13.886 -26.315  1.00  0.00    -0.014 C 
ATOM     14  C   UNL     1      14.050 -15.125 -25.691  1.00  0.00     0.016 C 
ATOM     15  C   UNL     1      12.933 -12.961 -25.141  1.00  0.00     0.016 C 
BRANCH  13  16
ATOM     16  C   UNL     1      12.163 -14.383 -27.185  1.00  0.00     0.038 CG0
ATOM     17  G   UNL     1      11.916 -13.553 -28.428  1.00  0.00     0.000 G0
ENDBRANCH  13  16
ENDBRANCH  12  13
ENDBRANCH  10  11
ENDBRANCH   1  10
TORSDOF 0
ENDMDL
MODEL 2
REMARK VINA RESULT:    -1.440      1.323      3.904
REMARK INTER + INTRA:          -0.260
REMARK INTER:                  -1.885
REMARK INTRA:                   1.624
REMARK UNBOUND:                 1.769
REMARK SMILES CC1=CCCC(C)=CCC(C)(C)C=CC1
REMARK SMILES IDX 2 1 3 2 1 3 4 4 5 5 6 6 7 7 8 8 15 10 14 11 13 12 10 13
REMARK SMILES IDX 11 14 12 15 9 16
REMARK H PARENT
REMARK Flexibility Score: 60.00
ROOT
ATOM      1  C   UNL     1      12.386 -13.054 -25.512  1.00  0.00    -0.074 C 
ATOM      2  C   UNL     1      12.751 -11.803 -25.128  1.00  0.00    -0.027 C 
ATOM      3  C   UNL     1      11.181 -13.661 -24.836  1.00  0.00     0.039 C 
ENDROOT
BRANCH   2   4
ATOM      4  C   UNL     1      13.927 -10.992 -25.634  1.00  0.00     0.032 C 
BRANCH   4   5
ATOM      5  C   UNL     1      14.024 -11.062 -27.175  1.00  0.00     0.034 C 
BRANCH   5   6
ATOM      6  C   UNL     1      13.005 -10.164 -27.860  1.00  0.00    -0.077 C 
ATOM      7  C   UNL     1      13.004  -8.688 -27.558  1.00  0.00     0.039 C 
ATOM      8  C   UNL     1      12.110 -10.633 -28.761  1.00  0.00    -0.027 CG0
ATOM      9  G   UNL     1      11.988 -12.086 -29.175  1.00  0.00     0.000 G0
ENDBRANCH   5   6
ENDBRANCH   4   5
ENDBRANCH   2   4
BRANCH   1  10
ATOM     10  C   UNL     1      13.055 -13.851 -26.622  1.00  0.00     0.057 C 
BRANCH  10  11
ATOM     11  C   UNL     1      12.068 -14.680 -27.416  1.00  0.00    -0.026 C 
ATOM     12  C   UNL     1      11.081 -14.248 -28.238  1.00  0.00    -0.024 C 
BRANCH  12  13
ATOM     13  C   UNL     1      10.720 -12.808 -28.627  1.00  0.00    -0.014 C 
ATOM     14  C   UNL     1       9.671 -12.880 -29.764  1.00  0.00     0.016 C 
ATOM     15  C   UNL     1      10.052 -12.067 -27.435  1.00  0.00     0.016 C 
BRANCH  13  16
ATOM     16  C   UNL     1      11.988 -12.084 -29.179  1.00  0.00     0.038 CG0
ATOM     17  G   UNL     1      12.103 -10.632 -28.761  1.00  0.00     0.000 G0
ENDBRANCH  13  16
ENDBRANCH  12  13
ENDBRANCH  10  11
ENDBRANCH   1  10
TORSDOF 0
ENDMDL
MODEL 3
REMARK VINA RESULT:    -1.369      1.581      4.182
REMARK INTER + INTRA:          -0.161
REMARK INTER:                  -1.435
REMARK INTRA:                   1.275
REMARK UNBOUND:                 1.769
REMARK SMILES CC1=CCCC(C)=CCC(C)(C)C=CC1
REMARK SMILES IDX 2 1 3 2 1 3 4 4 5 5 6 6 7 7 8 8 15 10 14 11 13 12 10 13
REMARK SMILES IDX 11 14 12 15 9 16
REMARK H PARENT
REMARK Flexibility Score: 60.00
ROOT
ATOM      1  C   UNL     1      10.801 -13.293 -24.690  1.00  0.00    -0.074 C 
ATOM      2  C   UNL     1      10.500 -14.021 -25.797  1.00  0.00    -0.027 C 
ATOM      3  C   UNL     1      10.374 -13.853 -23.356  1.00  0.00     0.039 C 
ENDROOT
BRANCH   2   4
ATOM      4  C   UNL     1      10.796 -13.668 -27.240  1.00  0.00     0.032 C 
BRANCH   4   5
ATOM      5  C   UNL     1      11.994 -14.485 -27.774  1.00  0.00     0.034 C 
BRANCH   5   6
ATOM      6  C   UNL     1      13.306 -14.087 -27.114  1.00  0.00    -0.077 C 
ATOM      7  C   UNL     1      14.080 -15.119 -26.337  1.00  0.00     0.039 C 
ATOM      8  C   UNL     1      13.828 -12.842 -27.222  1.00  0.00    -0.027 CG0
ATOM      9  G   UNL     1      13.175 -11.698 -27.972  1.00  0.00     0.000 G0
ENDBRANCH   5   6
ENDBRANCH   4   5
ENDBRANCH   2   4
BRANCH   1  10
ATOM     10  C   UNL     1      11.599 -11.997 -24.696  1.00  0.00     0.057 C 
BRANCH  10  11
ATOM     11  C   UNL     1      10.995 -10.948 -25.605  1.00  0.00    -0.026 C 
ATOM     12  C   UNL     1      11.594 -10.266 -26.612  1.00  0.00    -0.024 C 
BRANCH  12  13
ATOM     13  C   UNL     1      13.030 -10.399 -27.136  1.00  0.00    -0.014 C 
ATOM     14  C   UNL     1      13.298  -9.193 -28.072  1.00  0.00     0.016 C 
ATOM     15  C   UNL     1      14.053 -10.308 -25.970  1.00  0.00     0.016 C 
BRANCH  13  16
ATOM     16  C   UNL     1      13.158 -11.706 -27.979  1.00  0.00     0.038 CG0
ATOM     17  G   UNL     1      13.809 -12.857 -27.239  1.00  0.00     0.000 G0
ENDBRANCH  13  16
ENDBRANCH  12  13
ENDBRANCH  10  11
ENDBRANCH   1  10
TORSDOF 0
ENDMDL
MODEL 4
REMARK VINA RESULT:    -1.168      1.915      3.605
REMARK INTER + INTRA:           0.123
REMARK INTER:                  -1.626
REMARK INTRA:                   1.749
REMARK UNBOUND:                 1.769
REMARK SMILES CC1=CCCC(C)=CCC(C)(C)C=CC1
REMARK SMILES IDX 2 1 3 2 1 3 4 4 5 5 6 6 7 7 8 8 15 10 14 11 13 12 10 13
REMARK SMILES IDX 11 14 12 15 9 16
REMARK H PARENT
REMARK Flexibility Score: 60.00
ROOT
ATOM      1  C   UNL     1      10.971 -12.713 -24.855  1.00  0.00    -0.074 C 
ATOM      2  C   UNL     1      10.765 -11.392 -24.611  1.00  0.00    -0.027 C 
ATOM      3  C   UNL     1      10.590 -13.685 -23.765  1.00  0.00     0.039 C 
ENDROOT
BRANCH   2   4
ATOM      4  C   UNL     1      11.082 -10.228 -25.527  1.00  0.00     0.032 C 
BRANCH   4   5
ATOM      5  C   UNL     1      11.537 -10.726 -26.917  1.00  0.00     0.034 C 
BRANCH   5   6
ATOM      6  C   UNL     1      12.786 -10.009 -27.409  1.00  0.00    -0.077 C 
ATOM      7  C   UNL     1      12.638  -8.763 -28.242  1.00  0.00     0.039 C 
ATOM      8  C   UNL     1      14.035 -10.430 -27.101  1.00  0.00    -0.027 CG0
ATOM      9  G   UNL     1      14.349 -11.658 -26.271  1.00  0.00     0.000 G0
ENDBRANCH   5   6
ENDBRANCH   4   5
ENDBRANCH   2   4
BRANCH   1  10
ATOM     10  C   UNL     1      11.484 -13.283 -26.169  1.00  0.00     0.057 C 
BRANCH  10  11
ATOM     11  C   UNL     1      12.623 -14.260 -25.972  1.00  0.00    -0.026 C 
ATOM     12  C   UNL     1      13.912 -14.137 -26.373  1.00  0.00    -0.024 C 
BRANCH  12  13
ATOM     13  C   UNL     1      14.581 -12.960 -27.096  1.00  0.00    -0.014 C 
ATOM     14  C   UNL     1      16.102 -13.250 -27.151  1.00  0.00     0.016 C 
ATOM     15  C   UNL     1      14.081 -12.859 -28.564  1.00  0.00     0.016 C 
BRANCH  13  16
ATOM     16  C   UNL     1      14.366 -11.652 -26.272  1.00  0.00     0.038 CG0
ATOM     17  G   UNL     1      14.033 -10.438 -27.115  1.00  0.00     0.000 G0
ENDBRANCH  13  16
ENDBRANCH  12  13
ENDBRANCH  10  11
ENDBRANCH   1  10
TORSDOF 0
ENDMDL
MODEL 5
REMARK VINA RESULT:    -0.850      1.521      3.150
REMARK INTER + INTRA:           0.571
REMARK INTER:                  -1.086
REMARK INTRA:                   1.657
REMARK UNBOUND:                 1.769
REMARK SMILES CC1=CCCC(C)=CCC(C)(C)C=CC1
REMARK SMILES IDX 2 1 3 2 1 3 4 4 5 5 6 6 7 7 8 8 15 10 14 11 13 12 10 13
REMARK SMILES IDX 11 14 12 15 9 16
REMARK H PARENT
REMARK Flexibility Score: 60.00
ROOT
ATOM      1  C   UNL     1      12.961 -10.088 -28.014  1.00  0.00    -0.074 C 
ATOM      2  C   UNL     1      13.470 -10.317 -26.775  1.00  0.00    -0.027 C 
ATOM      3  C   UNL     1      12.794  -8.649 -28.438  1.00  0.00     0.039 C 
ENDROOT
BRANCH   2   4
ATOM      4  C   UNL     1      13.711 -11.659 -26.113  1.00  0.00     0.032 C 
BRANCH   4   5
ATOM      5  C   UNL     1      12.821 -11.825 -24.861  1.00  0.00     0.034 C 
BRANCH   5   6
ATOM      6  C   UNL     1      11.367 -11.469 -25.133  1.00  0.00    -0.077 C 
ATOM      7  C   UNL     1      10.859 -10.106 -24.741  1.00  0.00     0.039 C 
ATOM      8  C   UNL     1      10.511 -12.319 -25.746  1.00  0.00    -0.027 CG0
ATOM      9  G   UNL     1      10.870 -13.718 -26.206  1.00  0.00     0.000 G0
ENDBRANCH   5   6
ENDBRANCH   4   5
ENDBRANCH   2   4
BRANCH   1  10
ATOM     10  C   UNL     1      12.620 -11.172 -29.026  1.00  0.00     0.057 C 
BRANCH  10  11
ATOM     11  C   UNL     1      11.151 -11.540 -29.008  1.00  0.00    -0.026 C 
ATOM     12  C   UNL     1      10.571 -12.645 -28.480  1.00  0.00    -0.024 C 
BRANCH  12  13
ATOM     13  C   UNL     1      11.231 -13.803 -27.719  1.00  0.00    -0.014 C 
ATOM     14  C   UNL     1      10.648 -15.124 -28.281  1.00  0.00     0.016 C 
ATOM     15  C   UNL     1      12.763 -13.832 -27.982  1.00  0.00     0.016 C 
BRANCH  13  16
ATOM     16  C   UNL     1      10.859 -13.712 -26.206  1.00  0.00     0.038 CG0
ATOM     17  G   UNL     1      10.493 -12.316 -25.743  1.00  0.00     0.000 G0
ENDBRANCH  13  16
ENDBRANCH  12  13
ENDBRANCH  10  11
ENDBRANCH   1  10
TORSDOF 0
ENDMDL
MODEL 6
REMARK VINA RESULT:    -0.848      1.686      4.548
REMARK INTER + INTRA:           0.574
REMARK INTER:                  -0.706
REMARK INTRA:                   1.280
REMARK UNBOUND:                 1.769
REMARK SMILES CC1=CCCC(C)=CCC(C)(C)C=CC1
REMARK SMILES IDX 2 1 3 2 1 3 4 4 5 5 6 6 7 7 8 8 15 10 14 11 13 12 10 13
REMARK SMILES IDX 11 14 12 15 9 16
REMARK H PARENT
REMARK Flexibility Score: 60.00
ROOT
ATOM      1  C   UNL     1      10.916 -14.183 -28.210  1.00  0.00    -0.074 C 
ATOM      2  C   UNL     1      12.041 -14.738 -27.688  1.00  0.00    -0.027 C 
ATOM      3  C   UNL     1       9.844 -15.125 -28.700  1.00  0.00     0.039 C 
ENDROOT
BRANCH   2   4
ATOM      4  C   UNL     1      13.261 -14.015 -27.154  1.00  0.00     0.032 C 
BRANCH   4   5
ATOM      5  C   UNL     1      13.211 -13.909 -25.613  1.00  0.00     0.034 C 
BRANCH   5   6
ATOM      6  C   UNL     1      12.080 -13.013 -25.131  1.00  0.00    -0.077 C 
ATOM      7  C   UNL     1      11.003 -13.596 -24.253  1.00  0.00     0.039 C 
ATOM      8  C   UNL     1      12.014 -11.695 -25.435  1.00  0.00    -0.027 CG0
ATOM      9  G   UNL     1      13.019 -10.961 -26.299  1.00  0.00     0.000 G0
ENDBRANCH   5   6
ENDBRANCH   4   5
ENDBRANCH   2   4
BRANCH   1  10
ATOM     10  C   UNL     1      10.631 -12.689 -28.266  1.00  0.00     0.057 C 
BRANCH  10  11
ATOM     11  C   UNL     1      11.646 -11.937 -29.099  1.00  0.00    -0.026 C 
ATOM     12  C   UNL     1      12.359 -10.835 -28.758  1.00  0.00    -0.024 C 
BRANCH  12  13
ATOM     13  C   UNL     1      12.368 -10.075 -27.425  1.00  0.00    -0.014 C 
ATOM     14  C   UNL     1      13.251  -8.816 -27.611  1.00  0.00     0.016 C 
ATOM     15  C   UNL     1      10.940  -9.581 -27.062  1.00  0.00     0.016 C 
BRANCH  13  16
ATOM     16  C   UNL     1      13.019 -10.966 -26.322  1.00  0.00     0.038 CG0
ATOM     17  G   UNL     1      12.020 -11.689 -25.441  1.00  0.00     0.000 G0
ENDBRANCH  13  16
ENDBRANCH  12  13
ENDBRANCH  10  11
ENDBRANCH   1  10
TORSDOF 0
ENDMDL
MODEL 7
REMARK VINA RESULT:    -0.846      1.427      3.776
REMARK INTER + INTRA:           0.577
REMARK INTER:                  -0.719
REMARK INTRA:                   1.296
REMARK UNBOUND:                 1.769
REMARK SMILES CC1=CCCC(C)=CCC(C)(C)C=CC1
REMARK SMILES IDX 2 1 3 2 1 3 4 4 5 5 6 6 7 7 8 8 15 10 14 11 13 12 10 13
REMARK SMILES IDX 11 14 12 15 9 16
REMARK H PARENT
REMARK Flexibility Score: 60.00
ROOT
ATOM      1  C   UNL     1      14.083 -14.023 -26.273  1.00  0.00    -0.074 C 
ATOM      2  C   UNL     1      13.060 -14.137 -25.386  1.00  0.00    -0.027 C 
ATOM      3  C   UNL     1      15.114 -15.125 -26.286  1.00  0.00     0.039 C 
ENDROOT
BRANCH   2   4
ATOM      4  C   UNL     1      11.922 -13.162 -25.164  1.00  0.00     0.032 C 
BRANCH   4   5
ATOM      5  C   UNL     1      10.641 -13.633 -25.889  1.00  0.00     0.034 C 
BRANCH   5   6
ATOM      6  C   UNL     1      10.746 -13.489 -27.400  1.00  0.00    -0.077 C 
ATOM      7  C   UNL     1      10.492 -14.691 -28.272  1.00  0.00     0.039 C 
ATOM      8  C   UNL     1      11.029 -12.310 -28.002  1.00  0.00    -0.027 CG0
ATOM      9  G   UNL     1      11.302 -11.014 -27.267  1.00  0.00     0.000 G0
ENDBRANCH   5   6
ENDBRANCH   4   5
ENDBRANCH   2   4
BRANCH   1  10
ATOM     10  C   UNL     1      14.219 -12.910 -27.302  1.00  0.00     0.057 C 
BRANCH  10  11
ATOM     11  C   UNL     1      14.420 -11.552 -26.662  1.00  0.00    -0.026 C 
ATOM     12  C   UNL     1      13.719 -10.412 -26.877  1.00  0.00    -0.024 C 
BRANCH  12  13
ATOM     13  C   UNL     1      12.506 -10.193 -27.791  1.00  0.00    -0.014 C 
ATOM     14  C   UNL     1      12.135  -8.690 -27.722  1.00  0.00     0.016 C 
ATOM     15  C   UNL     1      12.866 -10.507 -29.270  1.00  0.00     0.016 C 
BRANCH  13  16
ATOM     16  C   UNL     1      11.294 -11.017 -27.255  1.00  0.00     0.038 CG0
ATOM     17  G   UNL     1      11.049 -12.313 -28.002  1.00  0.00     0.000 G0
ENDBRANCH  13  16
ENDBRANCH  12  13
ENDBRANCH  10  11
ENDBRANCH   1  10
TORSDOF 0
ENDMDL
MODEL 8
REMARK VINA RESULT:    -0.567      1.499      3.585
REMARK INTER + INTRA:           0.970
REMARK INTER:                  -0.943
REMARK INTRA:                   1.912
REMARK UNBOUND:                 1.769
REMARK SMILES CC1=CCCC(C)=CCC(C)(C)C=CC1
REMARK SMILES IDX 2 1 3 2 1 3 4 4 5 5 6 6 7 7 8 8 15 10 14 11 13 12 10 13
REMARK SMILES IDX 11 14 12 15 9 16
REMARK H PARENT
REMARK Flexibility Score: 60.00
ROOT
ATOM      1  C   UNL     1      11.508 -11.461 -29.067  1.00  0.00    -0.074 C 
ATOM      2  C   UNL     1      12.569 -10.792 -28.546  1.00  0.00    -0.027 C 
ATOM      3  C   UNL     1      11.395 -11.517 -30.571  1.00  0.00     0.039 C 
ENDROOT
BRANCH   2   4
ATOM      4  C   UNL     1      12.891 -10.576 -27.081  1.00  0.00     0.032 C 
BRANCH   4   5
ATOM      5  C   UNL     1      14.350 -10.980 -26.770  1.00  0.00     0.034 C 
BRANCH   5   6
ATOM      6  C   UNL     1      14.521 -12.488 -26.659  1.00  0.00    -0.077 C 
ATOM      7  C   UNL     1      15.566 -13.173 -27.499  1.00  0.00     0.039 C 
ATOM      8  C   UNL     1      13.788 -13.244 -25.807  1.00  0.00    -0.027 CG0
ATOM      9  G   UNL     1      12.706 -12.704 -24.894  1.00  0.00     0.000 G0
ENDBRANCH   5   6
ENDBRANCH   4   5
ENDBRANCH   2   4
BRANCH   1  10
ATOM     10  C   UNL     1      10.472 -12.218 -28.248  1.00  0.00     0.057 C 
BRANCH  10  11
ATOM     11  C   UNL     1      10.963 -13.583 -27.813  1.00  0.00    -0.026 C 
ATOM     12  C   UNL     1      11.314 -13.990 -26.569  1.00  0.00    -0.024 C 
BRANCH  12  13
ATOM     13  C   UNL     1      11.270 -13.198 -25.255  1.00  0.00    -0.014 C 
ATOM     14  C   UNL     1      10.396 -11.942 -25.495  1.00  0.00     0.016 C 
ATOM     15  C   UNL     1      10.580 -14.027 -24.135  1.00  0.00     0.016 C 
BRANCH  13  16
ATOM     16  C   UNL     1      12.710 -12.725 -24.883  1.00  0.00     0.038 CG0
ATOM     17  G   UNL     1      13.789 -13.240 -25.813  1.00  0.00     0.000 G0
ENDBRANCH  13  16
ENDBRANCH  12  13
ENDBRANCH  10  11
ENDBRANCH   1  10
TORSDOF 0
ENDMDL
MODEL 9
REMARK VINA RESULT:    -0.361      1.080      3.391
REMARK INTER + INTRA:           1.260
REMARK INTER:                  -1.285
REMARK INTRA:                   2.545
REMARK UNBOUND:                 1.769
REMARK SMILES CC1=CCCC(C)=CCC(C)(C)C=CC1
REMARK SMILES IDX 2 1 3 2 1 3 4 4 5 5 6 6 7 7 8 8 15 10 14 11 13 12 10 13
REMARK SMILES IDX 11 14 12 15 9 16
REMARK H PARENT
REMARK Flexibility Score: 60.00
ROOT
ATOM      1  C   UNL     1      13.950 -11.030 -26.310  1.00  0.00    -0.074 C 
ATOM      2  C   UNL     1      13.485 -11.817 -25.304  1.00  0.00    -0.027 C 
ATOM      3  C   UNL     1      15.443 -10.821 -26.390  1.00  0.00     0.039 C 
ENDROOT
BRANCH   2   4
ATOM      4  C   UNL     1      12.041 -12.160 -24.998  1.00  0.00     0.032 C 
BRANCH   4   5
ATOM      5  C   UNL     1      11.794 -13.679 -25.127  1.00  0.00     0.034 C 
BRANCH   5   6
ATOM      6  C   UNL     1      12.648 -14.314 -26.215  1.00  0.00    -0.077 C 
ATOM      7  C   UNL     1      13.995 -14.884 -25.853  1.00  0.00     0.039 C 
ATOM      8  C   UNL     1      12.234 -14.417 -27.500  1.00  0.00    -0.027 CG0
ATOM      9  G   UNL     1      10.907 -13.899 -28.019  1.00  0.00     0.000 G0
ENDBRANCH   5   6
ENDBRANCH   4   5
ENDBRANCH   2   4
BRANCH   1  10
ATOM     10  C   UNL     1      13.086 -10.412 -27.399  1.00  0.00     0.057 C 
BRANCH  10  11
ATOM     11  C   UNL     1      11.606 -10.550 -27.111  1.00  0.00    -0.026 C 
ATOM     12  C   UNL     1      10.720 -11.411 -27.670  1.00  0.00    -0.024 C 
BRANCH  12  13
ATOM     13  C   UNL     1      10.979 -12.510 -28.710  1.00  0.00    -0.014 C 
ATOM     14  C   UNL     1       9.844 -12.433 -29.762  1.00  0.00     0.016 C 
ATOM     15  C   UNL     1      12.316 -12.254 -29.461  1.00  0.00     0.016 C 
BRANCH  13  16
ATOM     16  C   UNL     1      10.908 -13.908 -28.020  1.00  0.00     0.038 CG0
ATOM     17  G   UNL     1      12.239 -14.404 -27.490  1.00  0.00     0.000 G0
ENDBRANCH  13  16
ENDBRANCH  12  13
ENDBRANCH  10  11
ENDBRANCH   1  10
TORSDOF 0
ENDMDL
