MODEL 1
REMARK VINA RESULT:    -1.081      0.000      0.000
REMARK INTER + INTRA:          -4.603
REMARK INTER:                  -2.850
REMARK INTRA:                  -1.753
REMARK UNBOUND:                -1.753
REMARK SMILES CCCCCCCCCCCCCCCCCCCCCCCCCCCCCC(=O)[O-]
REMARK SMILES IDX 16 1 17 2 18 3 19 4 20 5 21 6 22 7 23 8 24 9 25 10 26 11
REMARK SMILES IDX 27 12 28 13 29 14 30 15 31 16 32 17 15 18 14 19 13 20 12 21
REMARK SMILES IDX 11 22 10 23 9 24 8 25 7 26 6 27 5 28 4 29 3 30 2 31 1 32
REMARK H PARENT
REMARK Flexibility Score: inf
ROOT
ATOM      1  C   UNL     1     -21.490  -0.573   1.840  1.00  0.00     0.000 C 
ENDROOT
BRANCH   1   2
ATOM      2  C   UNL     1     -22.767   0.003   2.478  1.00  0.00     0.000 C 
BRANCH   2   3
ATOM      3  C   UNL     1     -23.111   1.451   2.070  1.00  0.00     0.000 C 
BRANCH   3   4
ATOM      4  C   UNL     1     -23.999   1.586   0.820  1.00  0.00     0.000 C 
BRANCH   4   5
ATOM      5  C   UNL     1     -24.790   2.906   0.789  1.00  0.00     0.000 C 
BRANCH   5   6
ATOM      6  C   UNL     1     -24.133   3.959  -0.123  1.00  0.00     0.000 C 
BRANCH   6   7
ATOM      7  C   UNL     1     -22.603   4.070   0.060  1.00  0.00     0.000 C 
BRANCH   7   8
ATOM      8  C   UNL     1     -22.135   5.409   0.666  1.00  0.00     0.000 C 
BRANCH   8   9
ATOM      9  C   UNL     1     -22.946   5.859   1.901  1.00  0.00     0.000 C 
BRANCH   9  10
ATOM     10  C   UNL     1     -23.786   7.124   1.651  1.00  0.00     0.000 C 
BRANCH  10  11
ATOM     11  C   UNL     1     -25.250   6.791   1.310  1.00  0.00     0.000 C 
BRANCH  11  12
ATOM     12  C   UNL     1     -26.122   6.607   2.573  1.00  0.00     0.000 C 
BRANCH  12  13
ATOM     13  C   UNL     1     -25.318   6.575   3.888  1.00  0.00     0.006 C 
BRANCH  13  14
ATOM     14  C   UNL     1     -25.726   5.453   4.853  1.00  0.00     0.053 C 
BRANCH  14  15
ATOM     15  C   UNL     1     -25.210   4.118   4.410  1.00  0.00     0.041 C 
ATOM     16  O   UNL     1     -26.008   3.160   4.239  1.00  0.00    -0.550 OA
ATOM     17  O   UNL     1     -23.853   3.936   4.174  1.00  0.00    -0.550 OA
ENDBRANCH  14  15
ENDBRANCH  13  14
ENDBRANCH  12  13
ENDBRANCH  11  12
ENDBRANCH  10  11
ENDBRANCH   9  10
ENDBRANCH   8   9
ENDBRANCH   7   8
ENDBRANCH   6   7
ENDBRANCH   5   6
ENDBRANCH   4   5
ENDBRANCH   3   4
ENDBRANCH   2   3
ENDBRANCH   1   2
BRANCH   1  18
ATOM     18  C   UNL     1     -21.615  -0.764   0.321  1.00  0.00     0.000 C 
BRANCH  18  19
ATOM     19  C   UNL     1     -22.455  -2.009  -0.007  1.00  0.00     0.000 C 
BRANCH  19  20
ATOM     20  C   UNL     1     -21.984  -3.263   0.745  1.00  0.00     0.000 C 
BRANCH  20  21
ATOM     21  C   UNL     1     -22.796  -4.521   0.389  1.00  0.00     0.000 C 
BRANCH  21  22
ATOM     22  C   UNL     1     -24.236  -4.196  -0.047  1.00  0.00     0.000 C 
BRANCH  22  23
ATOM     23  C   UNL     1     -25.155  -5.434  -0.125  1.00  0.00     0.000 C 
BRANCH  23  24
ATOM     24  C   UNL     1     -24.363  -6.753  -0.086  1.00  0.00    -0.000 C 
BRANCH  24  25
ATOM     25  C   UNL     1     -24.808  -7.669   1.074  1.00  0.00    -0.000 C 
BRANCH  25  26
ATOM     26  C   UNL     1     -25.980  -8.598   0.715  1.00  0.00    -0.000 C 
BRANCH  26  27
ATOM     27  C   UNL     1     -25.525  -9.915   0.063  1.00  0.00    -0.000 C 
BRANCH  27  28
ATOM     28  C   UNL     1     -24.067 -10.261   0.418  1.00  0.00    -0.000 C 
BRANCH  28  29
ATOM     29  C   UNL     1     -23.955 -11.416   1.430  1.00  0.00    -0.000 C 
BRANCH  29  30
ATOM     30  C   UNL     1     -24.124 -10.932   2.881  1.00  0.00    -0.000 C 
BRANCH  30  31
ATOM     31  C   UNL     1     -23.034 -11.485   3.813  1.00  0.00    -0.003 C 
ATOM     32  C   UNL     1     -22.010 -12.338   3.057  1.00  0.00     0.004 C 
ENDBRANCH  30  31
ENDBRANCH  29  30
ENDBRANCH  28  29
ENDBRANCH  27  28
ENDBRANCH  26  27
ENDBRANCH  25  26
ENDBRANCH  24  25
ENDBRANCH  23  24
ENDBRANCH  22  23
ENDBRANCH  21  22
ENDBRANCH  20  21
ENDBRANCH  19  20
ENDBRANCH  18  19
ENDBRANCH   1  18
TORSDOF 28
ENDMDL
MODEL 2
REMARK VINA RESULT:    -0.768      1.922      3.030
REMARK INTER + INTRA:          -3.779
REMARK INTER:                  -2.913
REMARK INTRA:                  -0.867
REMARK UNBOUND:                -1.753
REMARK SMILES CCCCCCCCCCCCCCCCCCCCCCCCCCCCCC(=O)[O-]
REMARK SMILES IDX 16 1 17 2 18 3 19 4 20 5 21 6 22 7 23 8 24 9 25 10 26 11
REMARK SMILES IDX 27 12 28 13 29 14 30 15 31 16 32 17 15 18 14 19 13 20 12 21
REMARK SMILES IDX 11 22 10 23 9 24 8 25 7 26 6 27 5 28 4 29 3 30 2 31 1 32
REMARK H PARENT
REMARK Flexibility Score: inf
ROOT
ATOM      1  C   UNL     1     -21.642   0.958   0.713  1.00  0.00     0.000 C 
ENDROOT
BRANCH   1   2
ATOM      2  C   UNL     1     -22.192   2.126  -0.125  1.00  0.00     0.000 C 
BRANCH   2   3
ATOM      3  C   UNL     1     -23.064   3.138   0.649  1.00  0.00     0.000 C 
BRANCH   3   4
ATOM      4  C   UNL     1     -24.574   2.840   0.643  1.00  0.00     0.000 C 
BRANCH   4   5
ATOM      5  C   UNL     1     -24.996   1.867   1.759  1.00  0.00     0.000 C 
BRANCH   5   6
ATOM      6  C   UNL     1     -24.317   2.190   3.103  1.00  0.00     0.000 C 
BRANCH   6   7
ATOM      7  C   UNL     1     -23.502   3.502   3.087  1.00  0.00     0.000 C 
BRANCH   7   8
ATOM      8  C   UNL     1     -24.090   4.623   3.968  1.00  0.00     0.000 C 
BRANCH   8   9
ATOM      9  C   UNL     1     -25.523   5.043   3.577  1.00  0.00     0.000 C 
BRANCH   9  10
ATOM     10  C   UNL     1     -25.570   6.302   2.692  1.00  0.00     0.000 C 
BRANCH  10  11
ATOM     11  C   UNL     1     -25.423   5.966   1.196  1.00  0.00     0.000 C 
BRANCH  11  12
ATOM     12  C   UNL     1     -24.792   7.125   0.390  1.00  0.00     0.000 C 
BRANCH  12  13
ATOM     13  C   UNL     1     -23.348   6.850  -0.073  1.00  0.00     0.006 C 
BRANCH  13  14
ATOM     14  C   UNL     1     -22.279   7.114   0.996  1.00  0.00     0.053 C 
BRANCH  14  15
ATOM     15  C   UNL     1     -20.998   6.397   0.697  1.00  0.00     0.041 C 
ATOM     16  O   UNL     1     -21.014   5.175   0.399  1.00  0.00    -0.550 OA
ATOM     17  O   UNL     1     -19.789   7.081   0.732  1.00  0.00    -0.550 OA
ENDBRANCH  14  15
ENDBRANCH  13  14
ENDBRANCH  12  13
ENDBRANCH  11  12
ENDBRANCH  10  11
ENDBRANCH   9  10
ENDBRANCH   8   9
ENDBRANCH   7   8
ENDBRANCH   6   7
ENDBRANCH   5   6
ENDBRANCH   4   5
ENDBRANCH   3   4
ENDBRANCH   2   3
ENDBRANCH   1   2
BRANCH   1  18
ATOM     18  C   UNL     1     -22.521  -0.299   0.634  1.00  0.00     0.000 C 
BRANCH  18  19
ATOM     19  C   UNL     1     -21.684  -1.528   0.243  1.00  0.00     0.000 C 
BRANCH  19  20
ATOM     20  C   UNL     1     -22.240  -2.839   0.820  1.00  0.00     0.000 C 
BRANCH  20  21
ATOM     21  C   UNL     1     -23.341  -3.464  -0.053  1.00  0.00     0.000 C 
BRANCH  21  22
ATOM     22  C   UNL     1     -23.250  -5.000  -0.119  1.00  0.00     0.000 C 
BRANCH  22  23
ATOM     23  C   UNL     1     -24.312  -5.722   0.736  1.00  0.00     0.000 C 
BRANCH  23  24
ATOM     24  C   UNL     1     -25.405  -6.383  -0.124  1.00  0.00    -0.000 C 
BRANCH  24  25
ATOM     25  C   UNL     1     -26.056  -7.590   0.583  1.00  0.00    -0.000 C 
BRANCH  25  26
ATOM     26  C   UNL     1     -25.787  -8.935  -0.112  1.00  0.00    -0.000 C 
BRANCH  26  27
ATOM     27  C   UNL     1     -24.446  -9.566   0.300  1.00  0.00    -0.000 C 
BRANCH  27  28
ATOM     28  C   UNL     1     -24.642 -10.829   1.159  1.00  0.00    -0.000 C 
BRANCH  28  29
ATOM     29  C   UNL     1     -23.480 -11.072   2.140  1.00  0.00    -0.000 C 
BRANCH  29  30
ATOM     30  C   UNL     1     -23.977 -11.523   3.525  1.00  0.00    -0.000 C 
BRANCH  30  31
ATOM     31  C   UNL     1     -25.508 -11.453   3.648  1.00  0.00    -0.003 C 
ATOM     32  C   UNL     1     -26.060 -12.526   4.591  1.00  0.00     0.004 C 
ENDBRANCH  30  31
ENDBRANCH  29  30
ENDBRANCH  28  29
ENDBRANCH  27  28
ENDBRANCH  26  27
ENDBRANCH  25  26
ENDBRANCH  24  25
ENDBRANCH  23  24
ENDBRANCH  22  23
ENDBRANCH  21  22
ENDBRANCH  20  21
ENDBRANCH  19  20
ENDBRANCH  18  19
ENDBRANCH   1  18
TORSDOF 28
ENDMDL
MODEL 3
REMARK VINA RESULT:    -0.697      4.110     12.841
REMARK INTER + INTRA:          -3.591
REMARK INTER:                  -1.769
REMARK INTRA:                  -1.822
REMARK UNBOUND:                -1.753
REMARK SMILES CCCCCCCCCCCCCCCCCCCCCCCCCCCCCC(=O)[O-]
REMARK SMILES IDX 16 1 17 2 18 3 19 4 20 5 21 6 22 7 23 8 24 9 25 10 26 11
REMARK SMILES IDX 27 12 28 13 29 14 30 15 31 16 32 17 15 18 14 19 13 20 12 21
REMARK SMILES IDX 11 22 10 23 9 24 8 25 7 26 6 27 5 28 4 29 3 30 2 31 1 32
REMARK H PARENT
REMARK Flexibility Score: inf
ROOT
ATOM      1  C   UNL     1     -21.040   0.258   1.688  1.00  0.00     0.000 C 
ENDROOT
BRANCH   1   2
ATOM      2  C   UNL     1     -22.143  -0.636   1.093  1.00  0.00     0.000 C 
BRANCH   2   3
ATOM      3  C   UNL     1     -22.260  -2.041   1.722  1.00  0.00     0.000 C 
BRANCH   3   4
ATOM      4  C   UNL     1     -23.082  -3.057   0.907  1.00  0.00     0.000 C 
BRANCH   4   5
ATOM      5  C   UNL     1     -22.204  -3.988   0.053  1.00  0.00     0.000 C 
BRANCH   5   6
ATOM      6  C   UNL     1     -22.768  -5.419  -0.018  1.00  0.00     0.000 C 
BRANCH   6   7
ATOM      7  C   UNL     1     -24.310  -5.476  -0.097  1.00  0.00     0.000 C 
BRANCH   7   8
ATOM      8  C   UNL     1     -24.928  -6.749   0.517  1.00  0.00     0.000 C 
BRANCH   8   9
ATOM      9  C   UNL     1     -24.430  -8.062  -0.125  1.00  0.00     0.000 C 
BRANCH   9  10
ATOM     10  C   UNL     1     -25.411  -9.236   0.049  1.00  0.00     0.000 C 
BRANCH  10  11
ATOM     11  C   UNL     1     -24.681 -10.577   0.252  1.00  0.00     0.000 C 
BRANCH  11  12
ATOM     12  C   UNL     1     -23.526 -10.471   1.273  1.00  0.00     0.000 C 
BRANCH  12  13
ATOM     13  C   UNL     1     -23.022 -11.833   1.790  1.00  0.00     0.006 C 
BRANCH  13  14
ATOM     14  C   UNL     1     -24.098 -12.688   2.472  1.00  0.00     0.053 C 
BRANCH  14  15
ATOM     15  C   UNL     1     -24.652 -12.022   3.695  1.00  0.00     0.041 C 
ATOM     16  O   UNL     1     -25.713 -12.449   4.220  1.00  0.00    -0.550 OA
ATOM     17  O   UNL     1     -23.989 -10.940   4.262  1.00  0.00    -0.550 OA
ENDBRANCH  14  15
ENDBRANCH  13  14
ENDBRANCH  12  13
ENDBRANCH  11  12
ENDBRANCH  10  11
ENDBRANCH   9  10
ENDBRANCH   8   9
ENDBRANCH   7   8
ENDBRANCH   6   7
ENDBRANCH   5   6
ENDBRANCH   4   5
ENDBRANCH   3   4
ENDBRANCH   2   3
ENDBRANCH   1   2
BRANCH   1  18
ATOM     18  C   UNL     1     -20.487   1.275   0.678  1.00  0.00     0.000 C 
BRANCH  18  19
ATOM     19  C   UNL     1     -18.958   1.386   0.796  1.00  0.00     0.000 C 
BRANCH  19  20
ATOM     20  C   UNL     1     -18.458   2.838   0.736  1.00  0.00     0.000 C 
BRANCH  20  21
ATOM     21  C   UNL     1     -19.549   3.835   0.308  1.00  0.00     0.000 C 
BRANCH  21  22
ATOM     22  C   UNL     1     -19.166   5.298   0.598  1.00  0.00     0.000 C 
BRANCH  22  23
ATOM     23  C   UNL     1     -20.060   6.328  -0.125  1.00  0.00     0.000 C 
BRANCH  23  24
ATOM     24  C   UNL     1     -21.559   6.011   0.030  1.00  0.00    -0.000 C 
BRANCH  24  25
ATOM     25  C   UNL     1     -21.998   5.970   1.509  1.00  0.00    -0.000 C 
BRANCH  25  26
ATOM     26  C   UNL     1     -23.509   5.756   1.701  1.00  0.00    -0.000 C 
BRANCH  26  27
ATOM     27  C   UNL     1     -23.908   5.578   3.176  1.00  0.00    -0.000 C 
BRANCH  27  28
ATOM     28  C   UNL     1     -25.369   5.115   3.327  1.00  0.00    -0.000 C 
BRANCH  28  29
ATOM     29  C   UNL     1     -25.491   3.613   3.643  1.00  0.00    -0.000 C 
BRANCH  29  30
ATOM     30  C   UNL     1     -26.017   2.810   2.440  1.00  0.00    -0.000 C 
BRANCH  30  31
ATOM     31  C   UNL     1     -24.980   1.808   1.907  1.00  0.00    -0.003 C 
ATOM     32  C   UNL     1     -24.077   2.430   0.836  1.00  0.00     0.004 C 
ENDBRANCH  30  31
ENDBRANCH  29  30
ENDBRANCH  28  29
ENDBRANCH  27  28
ENDBRANCH  26  27
ENDBRANCH  25  26
ENDBRANCH  24  25
ENDBRANCH  23  24
ENDBRANCH  22  23
ENDBRANCH  21  22
ENDBRANCH  20  21
ENDBRANCH  19  20
ENDBRANCH  18  19
ENDBRANCH   1  18
TORSDOF 28
ENDMDL
MODEL 4
REMARK VINA RESULT:    -0.573      2.023      3.331
REMARK INTER + INTRA:          -3.265
REMARK INTER:                  -1.572
REMARK INTRA:                  -1.694
REMARK UNBOUND:                -1.753
REMARK SMILES CCCCCCCCCCCCCCCCCCCCCCCCCCCCCC(=O)[O-]
REMARK SMILES IDX 16 1 17 2 18 3 19 4 20 5 21 6 22 7 23 8 24 9 25 10 26 11
REMARK SMILES IDX 27 12 28 13 29 14 30 15 31 16 32 17 15 18 14 19 13 20 12 21
REMARK SMILES IDX 11 22 10 23 9 24 8 25 7 26 6 27 5 28 4 29 3 30 2 31 1 32
REMARK H PARENT
REMARK Flexibility Score: inf
ROOT
ATOM      1  C   UNL     1     -22.262  -2.572   1.528  1.00  0.00     0.000 C 
ENDROOT
BRANCH   1   2
ATOM      2  C   UNL     1     -22.600  -1.080   1.359  1.00  0.00     0.000 C 
BRANCH   2   3
ATOM      3  C   UNL     1     -21.384  -0.144   1.188  1.00  0.00     0.000 C 
BRANCH   3   4
ATOM      4  C   UNL     1     -21.378   0.693  -0.104  1.00  0.00     0.000 C 
BRANCH   4   5
ATOM      5  C   UNL     1     -22.378   1.862  -0.063  1.00  0.00     0.000 C 
BRANCH   5   6
ATOM      6  C   UNL     1     -22.588   2.401   1.364  1.00  0.00     0.000 C 
BRANCH   6   7
ATOM      7  C   UNL     1     -23.939   1.989   1.990  1.00  0.00     0.000 C 
BRANCH   7   8
ATOM      8  C   UNL     1     -25.052   3.048   1.848  1.00  0.00     0.000 C 
BRANCH   8   9
ATOM      9  C   UNL     1     -25.185   3.988   3.066  1.00  0.00     0.000 C 
BRANCH   9  10
ATOM     10  C   UNL     1     -23.858   4.657   3.468  1.00  0.00     0.000 C 
BRANCH  10  11
ATOM     11  C   UNL     1     -23.952   6.194   3.441  1.00  0.00     0.000 C 
BRANCH  11  12
ATOM     12  C   UNL     1     -22.819   6.840   2.611  1.00  0.00     0.000 C 
BRANCH  12  13
ATOM     13  C   UNL     1     -23.204   7.124   1.145  1.00  0.00     0.006 C 
BRANCH  13  14
ATOM     14  C   UNL     1     -22.581   6.158   0.128  1.00  0.00     0.053 C 
BRANCH  14  15
ATOM     15  C   UNL     1     -21.103   6.010   0.328  1.00  0.00     0.041 C 
ATOM     16  O   UNL     1     -20.396   7.021   0.574  1.00  0.00    -0.550 OA
ATOM     17  O   UNL     1     -20.510   4.755   0.256  1.00  0.00    -0.550 OA
ENDBRANCH  14  15
ENDBRANCH  13  14
ENDBRANCH  12  13
ENDBRANCH  11  12
ENDBRANCH  10  11
ENDBRANCH   9  10
ENDBRANCH   8   9
ENDBRANCH   7   8
ENDBRANCH   6   7
ENDBRANCH   5   6
ENDBRANCH   4   5
ENDBRANCH   3   4
ENDBRANCH   2   3
ENDBRANCH   1   2
BRANCH   1  18
ATOM     18  C   UNL     1     -22.047  -3.292   0.189  1.00  0.00     0.000 C 
BRANCH  18  19
ATOM     19  C   UNL     1     -21.834  -4.798   0.405  1.00  0.00     0.000 C 
BRANCH  19  20
ATOM     20  C   UNL     1     -22.999  -5.650  -0.124  1.00  0.00     0.000 C 
BRANCH  20  21
ATOM     21  C   UNL     1     -24.368  -5.197   0.411  1.00  0.00     0.000 C 
BRANCH  21  22
ATOM     22  C   UNL     1     -25.476  -6.239   0.171  1.00  0.00     0.000 C 
BRANCH  22  23
ATOM     23  C   UNL     1     -25.164  -7.626   0.770  1.00  0.00     0.000 C 
BRANCH  23  24
ATOM     24  C   UNL     1     -25.941  -8.754   0.066  1.00  0.00    -0.000 C 
BRANCH  24  25
ATOM     25  C   UNL     1     -25.110 -10.049  -0.055  1.00  0.00    -0.000 C 
BRANCH  25  26
ATOM     26  C   UNL     1     -25.720 -11.249   0.688  1.00  0.00    -0.000 C 
BRANCH  26  27
ATOM     27  C   UNL     1     -26.124 -10.917   2.135  1.00  0.00    -0.000 C 
BRANCH  27  28
ATOM     28  C   UNL     1     -25.413 -11.827   3.155  1.00  0.00    -0.000 C 
BRANCH  28  29
ATOM     29  C   UNL     1     -24.207 -11.144   3.827  1.00  0.00    -0.000 C 
BRANCH  29  30
ATOM     30  C   UNL     1     -22.927 -11.267   2.982  1.00  0.00    -0.000 C 
BRANCH  30  31
ATOM     31  C   UNL     1     -22.344 -12.689   3.009  1.00  0.00    -0.003 C 
ATOM     32  C   UNL     1     -21.494 -12.986   1.769  1.00  0.00     0.004 C 
ENDBRANCH  30  31
ENDBRANCH  29  30
ENDBRANCH  28  29
ENDBRANCH  27  28
ENDBRANCH  26  27
ENDBRANCH  25  26
ENDBRANCH  24  25
ENDBRANCH  23  24
ENDBRANCH  22  23
ENDBRANCH  21  22
ENDBRANCH  20  21
ENDBRANCH  19  20
ENDBRANCH  18  19
ENDBRANCH   1  18
TORSDOF 28
ENDMDL
MODEL 5
REMARK VINA RESULT:    -0.476      2.171      3.408
REMARK INTER + INTRA:          -3.008
REMARK INTER:                  -2.392
REMARK INTRA:                  -0.615
REMARK UNBOUND:                -1.753
REMARK SMILES CCCCCCCCCCCCCCCCCCCCCCCCCCCCCC(=O)[O-]
REMARK SMILES IDX 16 1 17 2 18 3 19 4 20 5 21 6 22 7 23 8 24 9 25 10 26 11
REMARK SMILES IDX 27 12 28 13 29 14 30 15 31 16 32 17 15 18 14 19 13 20 12 21
REMARK SMILES IDX 11 22 10 23 9 24 8 25 7 26 6 27 5 28 4 29 3 30 2 31 1 32
REMARK H PARENT
REMARK Flexibility Score: inf
ROOT
ATOM      1  C   UNL     1     -21.415   1.147   1.079  1.00  0.00     0.000 C 
ENDROOT
BRANCH   1   2
ATOM      2  C   UNL     1     -22.096   2.151   0.131  1.00  0.00     0.000 C 
BRANCH   2   3
ATOM      3  C   UNL     1     -23.127   3.088   0.796  1.00  0.00     0.000 C 
BRANCH   3   4
ATOM      4  C   UNL     1     -24.593   2.836   0.399  1.00  0.00     0.000 C 
BRANCH   4   5
ATOM      5  C   UNL     1     -25.206   1.622   1.118  1.00  0.00     0.000 C 
BRANCH   5   6
ATOM      6  C   UNL     1     -25.174   1.773   2.650  1.00  0.00     0.000 C 
BRANCH   6   7
ATOM      7  C   UNL     1     -24.208   2.873   3.145  1.00  0.00     0.000 C 
BRANCH   7   8
ATOM      8  C   UNL     1     -24.901   4.036   3.884  1.00  0.00     0.000 C 
BRANCH   8   9
ATOM      9  C   UNL     1     -25.353   5.188   2.961  1.00  0.00     0.000 C 
BRANCH   9  10
ATOM     10  C   UNL     1     -24.462   6.440   3.066  1.00  0.00     0.000 C 
BRANCH  10  11
ATOM     11  C   UNL     1     -24.179   7.068   1.689  1.00  0.00     0.000 C 
BRANCH  11  12
ATOM     12  C   UNL     1     -22.668   7.125   1.366  1.00  0.00     0.000 C 
BRANCH  12  13
ATOM     13  C   UNL     1     -22.318   6.663  -0.063  1.00  0.00     0.006 C 
BRANCH  13  14
ATOM     14  C   UNL     1     -21.438   5.407  -0.125  1.00  0.00     0.053 C 
BRANCH  14  15
ATOM     15  C   UNL     1     -20.026   5.691   0.290  1.00  0.00     0.041 C 
ATOM     16  O   UNL     1     -19.666   6.871   0.534  1.00  0.00    -0.550 OA
ATOM     17  O   UNL     1     -19.114   4.651   0.420  1.00  0.00    -0.550 OA
ENDBRANCH  14  15
ENDBRANCH  13  14
ENDBRANCH  12  13
ENDBRANCH  11  12
ENDBRANCH  10  11
ENDBRANCH   9  10
ENDBRANCH   8   9
ENDBRANCH   7   8
ENDBRANCH   6   7
ENDBRANCH   5   6
ENDBRANCH   4   5
ENDBRANCH   3   4
ENDBRANCH   2   3
ENDBRANCH   1   2
BRANCH   1  18
ATOM     18  C   UNL     1     -22.207  -0.160   1.234  1.00  0.00     0.000 C 
BRANCH  18  19
ATOM     19  C   UNL     1     -22.247  -0.935  -0.092  1.00  0.00     0.000 C 
BRANCH  19  20
ATOM     20  C   UNL     1     -21.900  -2.423   0.074  1.00  0.00     0.000 C 
BRANCH  20  21
ATOM     21  C   UNL     1     -23.052  -3.247   0.675  1.00  0.00     0.000 C 
BRANCH  21  22
ATOM     22  C   UNL     1     -23.349  -4.529  -0.124  1.00  0.00     0.000 C 
BRANCH  22  23
ATOM     23  C   UNL     1     -24.120  -5.598   0.679  1.00  0.00     0.000 C 
BRANCH  23  24
ATOM     24  C   UNL     1     -25.290  -6.199  -0.121  1.00  0.00    -0.000 C 
BRANCH  24  25
ATOM     25  C   UNL     1     -25.934  -7.402   0.600  1.00  0.00    -0.000 C 
BRANCH  25  26
ATOM     26  C   UNL     1     -25.466  -8.767   0.068  1.00  0.00    -0.000 C 
BRANCH  26  27
ATOM     27  C   UNL     1     -24.377  -9.411   0.942  1.00  0.00    -0.000 C 
BRANCH  27  28
ATOM     28  C   UNL     1     -24.565 -10.935   1.068  1.00  0.00    -0.000 C 
BRANCH  28  29
ATOM     29  C   UNL     1     -23.264 -11.670   1.439  1.00  0.00    -0.000 C 
BRANCH  29  30
ATOM     30  C   UNL     1     -22.211 -11.582   0.321  1.00  0.00    -0.000 C 
BRANCH  30  31
ATOM     31  C   UNL     1     -21.414 -12.887   0.163  1.00  0.00    -0.003 C 
ATOM     32  C   UNL     1     -19.909 -12.632   0.037  1.00  0.00     0.004 C 
ENDBRANCH  30  31
ENDBRANCH  29  30
ENDBRANCH  28  29
ENDBRANCH  27  28
ENDBRANCH  26  27
ENDBRANCH  25  26
ENDBRANCH  24  25
ENDBRANCH  23  24
ENDBRANCH  22  23
ENDBRANCH  21  22
ENDBRANCH  20  21
ENDBRANCH  19  20
ENDBRANCH  18  19
ENDBRANCH   1  18
TORSDOF 28
ENDMDL
MODEL 6
REMARK VINA RESULT:    -0.398      1.270      2.045
REMARK INTER + INTRA:          -2.803
REMARK INTER:                  -3.481
REMARK INTRA:                   0.678
REMARK UNBOUND:                -1.753
REMARK SMILES CCCCCCCCCCCCCCCCCCCCCCCCCCCCCC(=O)[O-]
REMARK SMILES IDX 16 1 17 2 18 3 19 4 20 5 21 6 22 7 23 8 24 9 25 10 26 11
REMARK SMILES IDX 27 12 28 13 29 14 30 15 31 16 32 17 15 18 14 19 13 20 12 21
REMARK SMILES IDX 11 22 10 23 9 24 8 25 7 26 6 27 5 28 4 29 3 30 2 31 1 32
REMARK H PARENT
REMARK Flexibility Score: inf
ROOT
ATOM      1  C   UNL     1     -21.392  -0.641   1.398  1.00  0.00     0.000 C 
ENDROOT
BRANCH   1   2
ATOM      2  C   UNL     1     -20.286   0.425   1.293  1.00  0.00     0.000 C 
BRANCH   2   3
ATOM      3  C   UNL     1     -20.665   1.689   0.494  1.00  0.00     0.000 C 
BRANCH   3   4
ATOM      4  C   UNL     1     -21.896   2.451   1.017  1.00  0.00     0.000 C 
BRANCH   4   5
ATOM      5  C   UNL     1     -23.204   1.656   0.855  1.00  0.00     0.000 C 
BRANCH   5   6
ATOM      6  C   UNL     1     -24.232   1.994   1.950  1.00  0.00     0.000 C 
BRANCH   6   7
ATOM      7  C   UNL     1     -25.488   2.719   1.420  1.00  0.00     0.000 C 
BRANCH   7   8
ATOM      8  C   UNL     1     -25.248   3.547   0.141  1.00  0.00     0.000 C 
BRANCH   8   9
ATOM      9  C   UNL     1     -25.165   5.070   0.384  1.00  0.00     0.000 C 
BRANCH   9  10
ATOM     10  C   UNL     1     -23.729   5.573   0.620  1.00  0.00     0.000 C 
BRANCH  10  11
ATOM     11  C   UNL     1     -23.702   6.995   1.212  1.00  0.00     0.000 C 
BRANCH  11  12
ATOM     12  C   UNL     1     -23.016   7.044   2.596  1.00  0.00     0.000 C 
BRANCH  12  13
ATOM     13  C   UNL     1     -23.917   6.579   3.757  1.00  0.00     0.006 C 
BRANCH  13  14
ATOM     14  C   UNL     1     -25.115   5.722   3.325  1.00  0.00     0.053 C 
BRANCH  14  15
ATOM     15  C   UNL     1     -25.791   5.074   4.494  1.00  0.00     0.041 C 
ATOM     16  O   UNL     1     -26.125   5.766   5.492  1.00  0.00    -0.550 OA
ATOM     17  O   UNL     1     -26.067   3.713   4.477  1.00  0.00    -0.550 OA
ENDBRANCH  14  15
ENDBRANCH  13  14
ENDBRANCH  12  13
ENDBRANCH  11  12
ENDBRANCH  10  11
ENDBRANCH   9  10
ENDBRANCH   8   9
ENDBRANCH   7   8
ENDBRANCH   6   7
ENDBRANCH   5   6
ENDBRANCH   4   5
ENDBRANCH   3   4
ENDBRANCH   2   3
ENDBRANCH   1   2
BRANCH   1  18
ATOM     18  C   UNL     1     -22.333  -0.647   0.184  1.00  0.00     0.000 C 
BRANCH  18  19
ATOM     19  C   UNL     1     -22.865  -2.063  -0.089  1.00  0.00     0.000 C 
BRANCH  19  20
ATOM     20  C   UNL     1     -22.101  -3.149   0.684  1.00  0.00     0.000 C 
BRANCH  20  21
ATOM     21  C   UNL     1     -22.988  -4.340   1.087  1.00  0.00     0.000 C 
BRANCH  21  22
ATOM     22  C   UNL     1     -23.616  -5.053  -0.125  1.00  0.00     0.000 C 
BRANCH  22  23
ATOM     23  C   UNL     1     -23.519  -6.591  -0.059  1.00  0.00     0.000 C 
BRANCH  23  24
ATOM     24  C   UNL     1     -24.898  -7.257   0.095  1.00  0.00    -0.000 C 
BRANCH  24  25
ATOM     25  C   UNL     1     -24.798  -8.794   0.202  1.00  0.00    -0.000 C 
BRANCH  25  26
ATOM     26  C   UNL     1     -25.389  -9.365   1.501  1.00  0.00    -0.000 C 
BRANCH  26  27
ATOM     27  C   UNL     1     -24.754 -10.704   1.912  1.00  0.00    -0.000 C 
BRANCH  27  28
ATOM     28  C   UNL     1     -24.062 -11.403   0.727  1.00  0.00    -0.000 C 
BRANCH  28  29
ATOM     29  C   UNL     1     -23.787 -12.895   0.988  1.00  0.00    -0.000 C 
BRANCH  29  30
ATOM     30  C   UNL     1     -23.075 -13.124   2.334  1.00  0.00    -0.000 C 
BRANCH  30  31
ATOM     31  C   UNL     1     -21.661 -12.522   2.358  1.00  0.00    -0.003 C 
ATOM     32  C   UNL     1     -21.301 -11.952   3.733  1.00  0.00     0.004 C 
ENDBRANCH  30  31
ENDBRANCH  29  30
ENDBRANCH  28  29
ENDBRANCH  27  28
ENDBRANCH  26  27
ENDBRANCH  25  26
ENDBRANCH  24  25
ENDBRANCH  23  24
ENDBRANCH  22  23
ENDBRANCH  21  22
ENDBRANCH  20  21
ENDBRANCH  19  20
ENDBRANCH  18  19
ENDBRANCH   1  18
TORSDOF 28
ENDMDL
