MODEL 1
REMARK VINA RESULT:    -3.450      0.000      0.000
REMARK INTER + INTRA:          -6.275
REMARK INTER:                  -5.064
REMARK INTRA:                  -1.212
REMARK UNBOUND:                -1.212
REMARK SMILES CCCOC(=O)c1ccccc1C(=O)OCCC
REMARK SMILES IDX 7 1 8 2 9 3 10 4 11 5 12 6 5 7 6 8 4 9 3 10 2 11 1 12 13 13
REMARK SMILES IDX 14 14 15 15 16 16 17 17 18 18
REMARK H PARENT
REMARK Flexibility Score: inf
ROOT
ATOM      1  C   UNL     1      -4.167  -4.823   0.706  1.00  0.00     0.074 A 
ATOM      2  C   UNL     1      -3.334  -4.358  -0.327  1.00  0.00     0.016 A 
ATOM      3  C   UNL     1      -2.708  -5.252  -1.197  1.00  0.00     0.001 A 
ATOM      4  C   UNL     1      -2.902  -6.623  -1.048  1.00  0.00     0.001 A 
ATOM      5  C   UNL     1      -3.744  -7.105  -0.044  1.00  0.00     0.016 A 
ATOM      6  C   UNL     1      -4.402  -6.221   0.829  1.00  0.00     0.074 A 
ENDROOT
BRANCH   1   7
ATOM      7  C   UNL     1      -4.707  -3.827   1.660  1.00  0.00     0.339 C 
ATOM      8  O   UNL     1      -4.163  -3.664   2.787  1.00  0.00    -0.246 OA
BRANCH   7   9
ATOM      9  O   UNL     1      -5.785  -3.020   1.274  1.00  0.00    -0.462 OA
BRANCH   9  10
ATOM     10  C   UNL     1      -6.834  -3.453   0.407  1.00  0.00     0.233 C 
BRANCH  10  11
ATOM     11  C   UNL     1      -7.154  -2.387  -0.647  1.00  0.00     0.038 C 
ATOM     12  C   UNL     1      -5.906  -1.864  -1.352  1.00  0.00     0.007 C 
ENDBRANCH  10  11
ENDBRANCH   9  10
ENDBRANCH   7   9
ENDBRANCH   1   7
BRANCH   6  13
ATOM     13  C   UNL     1      -5.364  -6.796   1.797  1.00  0.00     0.339 C 
ATOM     14  O   UNL     1      -6.603  -6.749   1.569  1.00  0.00    -0.246 OA
BRANCH  13  15
ATOM     15  O   UNL     1      -4.884  -7.447   2.939  1.00  0.00    -0.462 OA
BRANCH  15  16
ATOM     16  C   UNL     1      -3.780  -6.960   3.694  1.00  0.00     0.233 C 
BRANCH  16  17
ATOM     17  C   UNL     1      -2.885  -8.130   4.096  1.00  0.00     0.038 C 
ATOM     18  C   UNL     1      -1.999  -8.574   2.936  1.00  0.00     0.007 C 
ENDBRANCH  16  17
ENDBRANCH  15  16
ENDBRANCH  13  15
ENDBRANCH   6  13
TORSDOF 8
ENDMDL
MODEL 2
REMARK VINA RESULT:    -3.422      0.081      5.225
REMARK INTER + INTRA:          -6.234
REMARK INTER:                  -5.034
REMARK INTRA:                  -1.200
REMARK UNBOUND:                -1.212
REMARK SMILES CCCOC(=O)c1ccccc1C(=O)OCCC
REMARK SMILES IDX 7 1 8 2 9 3 10 4 11 5 12 6 5 7 6 8 4 9 3 10 2 11 1 12 13 13
REMARK SMILES IDX 14 14 15 15 16 16 17 17 18 18
REMARK H PARENT
REMARK Flexibility Score: inf
ROOT
ATOM      1  C   UNL     1      -4.396  -6.265   0.833  1.00  0.00     0.074 A 
ATOM      2  C   UNL     1      -3.759  -7.174  -0.031  1.00  0.00     0.016 A 
ATOM      3  C   UNL     1      -2.931  -6.722  -1.059  1.00  0.00     0.001 A 
ATOM      4  C   UNL     1      -2.728  -5.357  -1.242  1.00  0.00     0.001 A 
ATOM      5  C   UNL     1      -3.331  -4.438  -0.382  1.00  0.00     0.016 A 
ATOM      6  C   UNL     1      -4.151  -4.872   0.675  1.00  0.00     0.074 A 
ENDROOT
BRANCH   1   7
ATOM      7  C   UNL     1      -5.348  -6.809   1.829  1.00  0.00     0.339 C 
ATOM      8  O   UNL     1      -6.591  -6.749   1.620  1.00  0.00    -0.246 OA
BRANCH   7   9
ATOM      9  O   UNL     1      -4.855  -7.450   2.973  1.00  0.00    -0.462 OA
BRANCH   9  10
ATOM     10  C   UNL     1      -3.717  -7.001   3.710  1.00  0.00     0.233 C 
BRANCH  10  11
ATOM     11  C   UNL     1      -2.794  -8.171   4.068  1.00  0.00     0.038 C 
ATOM     12  C   UNL     1      -1.916  -8.606   2.898  1.00  0.00     0.007 C 
ENDBRANCH  10  11
ENDBRANCH   9  10
ENDBRANCH   7   9
ENDBRANCH   1   7
BRANCH   6  13
ATOM     13  C   UNL     1      -4.667  -3.850   1.612  1.00  0.00     0.339 C 
ATOM     14  O   UNL     1      -4.094  -3.650   2.718  1.00  0.00    -0.246 OA
BRANCH  13  15
ATOM     15  O   UNL     1      -5.762  -3.062   1.237  1.00  0.00    -0.462 OA
BRANCH  15  16
ATOM     16  C   UNL     1      -6.802  -3.545   0.393  1.00  0.00     0.233 C 
BRANCH  16  17
ATOM     17  C   UNL     1      -7.151  -2.477  -0.642  1.00  0.00     0.038 C 
ATOM     18  C   UNL     1      -5.897  -1.933  -1.321  1.00  0.00     0.007 C 
ENDBRANCH  16  17
ENDBRANCH  15  16
ENDBRANCH  13  15
ENDBRANCH   6  13
TORSDOF 8
ENDMDL
MODEL 3
REMARK VINA RESULT:    -3.256      1.284      2.575
REMARK INTER + INTRA:          -5.991
REMARK INTER:                  -4.341
REMARK INTRA:                  -1.649
REMARK UNBOUND:                -1.212
REMARK SMILES CCCOC(=O)c1ccccc1C(=O)OCCC
REMARK SMILES IDX 7 1 8 2 9 3 10 4 11 5 12 6 5 7 6 8 4 9 3 10 2 11 1 12 13 13
REMARK SMILES IDX 14 14 15 15 16 16 17 17 18 18
REMARK H PARENT
REMARK Flexibility Score: inf
ROOT
ATOM      1  C   UNL     1      -4.141  -4.982   1.028  1.00  0.00     0.074 A 
ATOM      2  C   UNL     1      -3.625  -4.317  -0.100  1.00  0.00     0.016 A 
ATOM      3  C   UNL     1      -2.968  -5.024  -1.107  1.00  0.00     0.001 A 
ATOM      4  C   UNL     1      -2.815  -6.405  -1.005  1.00  0.00     0.001 A 
ATOM      5  C   UNL     1      -3.340  -7.088   0.093  1.00  0.00     0.016 A 
ATOM      6  C   UNL     1      -4.025  -6.398   1.109  1.00  0.00     0.074 A 
ENDROOT
BRANCH   1   7
ATOM      7  C   UNL     1      -4.725  -4.156   2.109  1.00  0.00     0.339 C 
ATOM      8  O   UNL     1      -3.975  -3.525   2.904  1.00  0.00    -0.246 OA
BRANCH   7   9
ATOM      9  O   UNL     1      -6.117  -4.028   2.201  1.00  0.00    -0.462 OA
BRANCH   9  10
ATOM     10  C   UNL     1      -6.837  -2.861   1.802  1.00  0.00     0.233 C 
BRANCH  10  11
ATOM     11  C   UNL     1      -7.377  -3.007   0.375  1.00  0.00     0.038 C 
ATOM     12  C   UNL     1      -6.558  -2.224  -0.646  1.00  0.00     0.007 C 
ENDBRANCH  10  11
ENDBRANCH   9  10
ENDBRANCH   7   9
ENDBRANCH   1   7
BRANCH   6  13
ATOM     13  C   UNL     1      -4.651  -7.198   2.186  1.00  0.00     0.339 C 
ATOM     14  O   UNL     1      -3.943  -7.700   3.101  1.00  0.00    -0.246 OA
BRANCH  13  15
ATOM     15  O   UNL     1      -6.042  -7.345   2.215  1.00  0.00    -0.462 OA
BRANCH  15  16
ATOM     16  C   UNL     1      -6.780  -7.891   1.127  1.00  0.00     0.233 C 
BRANCH  16  17
ATOM     17  C   UNL     1      -7.573  -6.779   0.443  1.00  0.00     0.038 C 
ATOM     18  C   UNL     1      -7.014  -6.472  -0.943  1.00  0.00     0.007 C 
ENDBRANCH  16  17
ENDBRANCH  15  16
ENDBRANCH  13  15
ENDBRANCH   6  13
TORSDOF 8
ENDMDL
MODEL 4
REMARK VINA RESULT:    -3.256      1.280      4.340
REMARK INTER + INTRA:          -5.990
REMARK INTER:                  -4.329
REMARK INTRA:                  -1.661
REMARK UNBOUND:                -1.212
REMARK SMILES CCCOC(=O)c1ccccc1C(=O)OCCC
REMARK SMILES IDX 7 1 8 2 9 3 10 4 11 5 12 6 5 7 6 8 4 9 3 10 2 11 1 12 13 13
REMARK SMILES IDX 14 14 15 15 16 16 17 17 18 18
REMARK H PARENT
REMARK Flexibility Score: inf
ROOT
ATOM      1  C   UNL     1      -4.020  -6.453   1.027  1.00  0.00     0.074 A 
ATOM      2  C   UNL     1      -3.311  -7.159   0.039  1.00  0.00     0.016 A 
ATOM      3  C   UNL     1      -2.741  -6.492  -1.046  1.00  0.00     0.001 A 
ATOM      4  C   UNL     1      -2.871  -5.111  -1.163  1.00  0.00     0.001 A 
ATOM      5  C   UNL     1      -3.551  -4.386  -0.182  1.00  0.00     0.016 A 
ATOM      6  C   UNL     1      -4.113  -5.036   0.931  1.00  0.00     0.074 A 
ENDROOT
BRANCH   1   7
ATOM      7  C   UNL     1      -4.694  -7.236   2.088  1.00  0.00     0.339 C 
ATOM      8  O   UNL     1      -4.037  -7.665   3.077  1.00  0.00    -0.246 OA
BRANCH   7   9
ATOM      9  O   UNL     1      -6.079  -7.439   2.019  1.00  0.00    -0.462 OA
BRANCH   9  10
ATOM     10  C   UNL     1      -6.759  -7.903   0.852  1.00  0.00     0.233 C 
BRANCH  10  11
ATOM     11  C   UNL     1      -7.469  -6.751   0.133  1.00  0.00     0.038 C 
ATOM     12  C   UNL     1      -6.894  -6.480  -1.254  1.00  0.00     0.007 C 
ENDBRANCH  10  11
ENDBRANCH   9  10
ENDBRANCH   7   9
ENDBRANCH   1   7
BRANCH   6  13
ATOM     13  C   UNL     1      -4.722  -4.194   1.986  1.00  0.00     0.339 C 
ATOM     14  O   UNL     1      -3.995  -3.602   2.829  1.00  0.00    -0.246 OA
BRANCH  13  15
ATOM     15  O   UNL     1      -6.110  -4.010   2.004  1.00  0.00    -0.462 OA
BRANCH  15  16
ATOM     16  C   UNL     1      -6.733  -2.822   1.527  1.00  0.00     0.233 C 
BRANCH  16  17
ATOM     17  C   UNL     1      -7.147  -3.017   0.070  1.00  0.00     0.038 C 
ATOM     18  C   UNL     1      -6.319  -2.138  -0.863  1.00  0.00     0.007 C 
ENDBRANCH  16  17
ENDBRANCH  15  16
ENDBRANCH  13  15
ENDBRANCH   6  13
TORSDOF 8
ENDMDL
MODEL 5
REMARK VINA RESULT:    -3.246     11.521     13.117
REMARK INTER + INTRA:          -5.975
REMARK INTER:                  -4.979
REMARK INTRA:                  -0.996
REMARK UNBOUND:                -1.212
REMARK SMILES CCCOC(=O)c1ccccc1C(=O)OCCC
REMARK SMILES IDX 7 1 8 2 9 3 10 4 11 5 12 6 5 7 6 8 4 9 3 10 2 11 1 12 13 13
REMARK SMILES IDX 14 14 15 15 16 16 17 17 18 18
REMARK H PARENT
REMARK Flexibility Score: inf
ROOT
ATOM      1  C   UNL     1       6.541  -0.158   3.502  1.00  0.00     0.074 A 
ATOM      2  C   UNL     1       7.105  -1.189   4.276  1.00  0.00     0.016 A 
ATOM      3  C   UNL     1       6.609  -1.481   5.547  1.00  0.00     0.001 A 
ATOM      4  C   UNL     1       5.545  -0.748   6.067  1.00  0.00     0.001 A 
ATOM      5  C   UNL     1       4.955   0.263   5.308  1.00  0.00     0.016 A 
ATOM      6  C   UNL     1       5.424   0.559   4.015  1.00  0.00     0.074 A 
ENDROOT
BRANCH   1   7
ATOM      7  C   UNL     1       7.188   0.171   2.212  1.00  0.00     0.339 C 
ATOM      8  O   UNL     1       8.165   0.970   2.175  1.00  0.00    -0.246 OA
BRANCH   7   9
ATOM      9  O   UNL     1       6.751  -0.463   1.042  1.00  0.00    -0.462 OA
BRANCH   9  10
ATOM     10  C   UNL     1       7.599  -1.234   0.190  1.00  0.00     0.233 C 
BRANCH  10  11
ATOM     11  C   UNL     1       7.039  -2.647  -0.013  1.00  0.00     0.038 C 
ATOM     12  C   UNL     1       7.111  -3.495   1.252  1.00  0.00     0.007 C 
ENDBRANCH  10  11
ENDBRANCH   9  10
ENDBRANCH   7   9
ENDBRANCH   1   7
BRANCH   6  13
ATOM     13  C   UNL     1       4.680   1.567   3.226  1.00  0.00     0.339 C 
ATOM     14  O   UNL     1       3.814   1.207   2.383  1.00  0.00    -0.246 OA
BRANCH  13  15
ATOM     15  O   UNL     1       4.903   2.929   3.465  1.00  0.00    -0.462 OA
BRANCH  15  16
ATOM     16  C   UNL     1       3.894   3.916   3.281  1.00  0.00     0.233 C 
BRANCH  16  17
ATOM     17  C   UNL     1       3.014   3.980   4.528  1.00  0.00     0.038 C 
ATOM     18  C   UNL     1       3.857   4.006   5.800  1.00  0.00     0.007 C 
ENDBRANCH  16  17
ENDBRANCH  15  16
ENDBRANCH  13  15
ENDBRANCH   6  13
TORSDOF 8
ENDMDL
MODEL 6
REMARK VINA RESULT:    -3.218     11.989     13.412
REMARK INTER + INTRA:          -5.935
REMARK INTER:                  -4.506
REMARK INTRA:                  -1.429
REMARK UNBOUND:                -1.212
REMARK SMILES CCCOC(=O)c1ccccc1C(=O)OCCC
REMARK SMILES IDX 7 1 8 2 9 3 10 4 11 5 12 6 5 7 6 8 4 9 3 10 2 11 1 12 13 13
REMARK SMILES IDX 14 14 15 15 16 16 17 17 18 18
REMARK H PARENT
REMARK Flexibility Score: inf
ROOT
ATOM      1  C   UNL     1       4.134   2.818   4.085  1.00  0.00     0.074 A 
ATOM      2  C   UNL     1       4.143   1.697   3.236  1.00  0.00     0.016 A 
ATOM      3  C   UNL     1       4.542   0.446   3.709  1.00  0.00     0.001 A 
ATOM      4  C   UNL     1       4.939   0.295   5.036  1.00  0.00     0.001 A 
ATOM      5  C   UNL     1       4.915   1.389   5.902  1.00  0.00     0.016 A 
ATOM      6  C   UNL     1       4.495   2.654   5.452  1.00  0.00     0.074 A 
ENDROOT
BRANCH   1   7
ATOM      7  C   UNL     1       3.808   4.134   3.489  1.00  0.00     0.339 C 
ATOM      8  O   UNL     1       2.669   4.647   3.663  1.00  0.00    -0.246 OA
BRANCH   7   9
ATOM      9  O   UNL     1       4.798   4.835   2.788  1.00  0.00    -0.462 OA
BRANCH   9  10
ATOM     10  C   UNL     1       6.167   4.895   3.190  1.00  0.00     0.233 C 
BRANCH  10  11
ATOM     11  C   UNL     1       7.042   3.999   2.305  1.00  0.00     0.038 C 
ATOM     12  C   UNL     1       7.722   2.883   3.091  1.00  0.00     0.007 C 
ENDBRANCH  10  11
ENDBRANCH   9  10
ENDBRANCH   7   9
ENDBRANCH   1   7
BRANCH   6  13
ATOM     13  C   UNL     1       4.390   3.741   6.451  1.00  0.00     0.339 C 
ATOM     14  O   UNL     1       5.362   4.520   6.652  1.00  0.00    -0.246 OA
BRANCH  13  15
ATOM     15  O   UNL     1       3.182   3.937   7.130  1.00  0.00    -0.462 OA
BRANCH  15  16
ATOM     16  C   UNL     1       2.981   3.520   8.476  1.00  0.00     0.233 C 
BRANCH  16  17
ATOM     17  C   UNL     1       2.089   2.279   8.494  1.00  0.00     0.038 C 
ATOM     18  C   UNL     1       2.859   1.051   8.972  1.00  0.00     0.007 C 
ENDBRANCH  16  17
ENDBRANCH  15  16
ENDBRANCH  13  15
ENDBRANCH   6  13
TORSDOF 8
ENDMDL
MODEL 7
REMARK VINA RESULT:    -3.202     11.994     13.624
REMARK INTER + INTRA:          -5.912
REMARK INTER:                  -4.540
REMARK INTRA:                  -1.371
REMARK UNBOUND:                -1.212
REMARK SMILES CCCOC(=O)c1ccccc1C(=O)OCCC
REMARK SMILES IDX 7 1 8 2 9 3 10 4 11 5 12 6 5 7 6 8 4 9 3 10 2 11 1 12 13 13
REMARK SMILES IDX 14 14 15 15 16 16 17 17 18 18
REMARK H PARENT
REMARK Flexibility Score: inf
ROOT
ATOM      1  C   UNL     1       4.369   2.761   5.442  1.00  0.00     0.074 A 
ATOM      2  C   UNL     1       4.766   1.491   5.899  1.00  0.00     0.016 A 
ATOM      3  C   UNL     1       4.841   0.408   5.022  1.00  0.00     0.001 A 
ATOM      4  C   UNL     1       4.519   0.575   3.677  1.00  0.00     0.001 A 
ATOM      5  C   UNL     1       4.146   1.831   3.198  1.00  0.00     0.016 A 
ATOM      6  C   UNL     1       4.086   2.941   4.059  1.00  0.00     0.074 A 
ENDROOT
BRANCH   1   7
ATOM      7  C   UNL     1       4.203   3.837   6.446  1.00  0.00     0.339 C 
ATOM      8  O   UNL     1       5.183   4.564   6.768  1.00  0.00    -0.246 OA
BRANCH   7   9
ATOM      9  O   UNL     1       2.934   4.083   6.986  1.00  0.00    -0.462 OA
BRANCH   9  10
ATOM     10  C   UNL     1       2.599   3.878   8.359  1.00  0.00     0.233 C 
BRANCH  10  11
ATOM     11  C   UNL     1       1.714   2.638   8.532  1.00  0.00     0.038 C 
ATOM     12  C   UNL     1       2.523   1.371   8.792  1.00  0.00     0.007 C 
ENDBRANCH  10  11
ENDBRANCH   9  10
ENDBRANCH   7   9
ENDBRANCH   1   7
BRANCH   6  13
ATOM     13  C   UNL     1       3.790   4.263   3.461  1.00  0.00     0.339 C 
ATOM     14  O   UNL     1       2.661   4.800   3.626  1.00  0.00    -0.246 OA
BRANCH  13  15
ATOM     15  O   UNL     1       4.794   4.941   2.759  1.00  0.00    -0.462 OA
BRANCH  15  16
ATOM     16  C   UNL     1       6.128   5.052   3.244  1.00  0.00     0.233 C 
BRANCH  16  17
ATOM     17  C   UNL     1       7.044   4.152   2.416  1.00  0.00     0.038 C 
ATOM     18  C   UNL     1       7.691   3.074   3.281  1.00  0.00     0.007 C 
ENDBRANCH  16  17
ENDBRANCH  15  16
ENDBRANCH  13  15
ENDBRANCH   6  13
TORSDOF 8
ENDMDL
MODEL 8
REMARK VINA RESULT:    -3.200      8.436      9.981
REMARK INTER + INTRA:          -5.908
REMARK INTER:                  -4.941
REMARK INTRA:                  -0.966
REMARK UNBOUND:                -1.212
REMARK SMILES CCCOC(=O)c1ccccc1C(=O)OCCC
REMARK SMILES IDX 7 1 8 2 9 3 10 4 11 5 12 6 5 7 6 8 4 9 3 10 2 11 1 12 13 13
REMARK SMILES IDX 14 14 15 15 16 16 17 17 18 18
REMARK H PARENT
REMARK Flexibility Score: inf
ROOT
ATOM      1  C   UNL     1       5.724  -4.385  -1.954  1.00  0.00     0.074 A 
ATOM      2  C   UNL     1       6.239  -3.088  -2.133  1.00  0.00     0.016 A 
ATOM      3  C   UNL     1       6.850  -2.410  -1.077  1.00  0.00     0.001 A 
ATOM      4  C   UNL     1       6.955  -3.015   0.174  1.00  0.00     0.001 A 
ATOM      5  C   UNL     1       6.471  -4.310   0.367  1.00  0.00     0.016 A 
ATOM      6  C   UNL     1       5.873  -5.020  -0.689  1.00  0.00     0.074 A 
ENDROOT
BRANCH   1   7
ATOM      7  C   UNL     1       4.990  -4.999  -3.084  1.00  0.00     0.339 C 
ATOM      8  O   UNL     1       5.610  -5.662  -3.961  1.00  0.00    -0.246 OA
BRANCH   7   9
ATOM      9  O   UNL     1       3.593  -4.895  -3.135  1.00  0.00    -0.462 OA
BRANCH   9  10
ATOM     10  C   UNL     1       2.720  -6.004  -3.349  1.00  0.00     0.233 C 
BRANCH  10  11
ATOM     11  C   UNL     1       1.556  -5.990  -2.352  1.00  0.00     0.038 C 
ATOM     12  C   UNL     1       1.575  -4.765  -1.444  1.00  0.00     0.007 C 
ENDBRANCH  10  11
ENDBRANCH   9  10
ENDBRANCH   7   9
ENDBRANCH   1   7
BRANCH   6  13
ATOM     13  C   UNL     1       5.484  -6.427  -0.441  1.00  0.00     0.339 C 
ATOM     14  O   UNL     1       6.312  -7.360  -0.629  1.00  0.00    -0.246 OA
BRANCH  13  15
ATOM     15  O   UNL     1       4.209  -6.710   0.062  1.00  0.00    -0.462 OA
BRANCH  15  16
ATOM     16  C   UNL     1       4.003  -7.402   1.289  1.00  0.00     0.233 C 
BRANCH  16  17
ATOM     17  C   UNL     1       2.778  -6.826   1.996  1.00  0.00     0.038 C 
ATOM     18  C   UNL     1       2.835  -7.081   3.499  1.00  0.00     0.007 C 
ENDBRANCH  16  17
ENDBRANCH  15  16
ENDBRANCH  13  15
ENDBRANCH   6  13
TORSDOF 8
ENDMDL
MODEL 9
REMARK VINA RESULT:    -3.198      8.942     11.131
REMARK INTER + INTRA:          -5.905
REMARK INTER:                  -5.233
REMARK INTRA:                  -0.671
REMARK UNBOUND:                -1.212
REMARK SMILES CCCOC(=O)c1ccccc1C(=O)OCCC
REMARK SMILES IDX 7 1 8 2 9 3 10 4 11 5 12 6 5 7 6 8 4 9 3 10 2 11 1 12 13 13
REMARK SMILES IDX 14 14 15 15 16 16 17 17 18 18
REMARK H PARENT
REMARK Flexibility Score: inf
ROOT
ATOM      1  C   UNL     1       6.485  -4.657   0.018  1.00  0.00     0.074 A 
ATOM      2  C   UNL     1       6.897  -3.997   1.190  1.00  0.00     0.016 A 
ATOM      3  C   UNL     1       7.278  -2.655   1.158  1.00  0.00     0.001 A 
ATOM      4  C   UNL     1       7.256  -1.952  -0.044  1.00  0.00     0.001 A 
ATOM      5  C   UNL     1       6.829  -2.580  -1.215  1.00  0.00     0.016 A 
ATOM      6  C   UNL     1       6.418  -3.925  -1.201  1.00  0.00     0.074 A 
ENDROOT
BRANCH   1   7
ATOM      7  C   UNL     1       6.203  -6.108   0.105  1.00  0.00     0.339 C 
ATOM      8  O   UNL     1       7.114  -6.949  -0.132  1.00  0.00    -0.246 OA
BRANCH   7   9
ATOM      9  O   UNL     1       4.936  -6.539   0.519  1.00  0.00    -0.462 OA
BRANCH   9  10
ATOM     10  C   UNL     1       4.618  -6.902   1.863  1.00  0.00     0.233 C 
BRANCH  10  11
ATOM     11  C   UNL     1       3.101  -6.983   2.069  1.00  0.00     0.038 C 
ATOM     12  C   UNL     1       2.712  -7.071   3.541  1.00  0.00     0.007 C 
ENDBRANCH  10  11
ENDBRANCH   9  10
ENDBRANCH   7   9
ENDBRANCH   1   7
BRANCH   6  13
ATOM     13  C   UNL     1       5.873  -4.493  -2.454  1.00  0.00     0.339 C 
ATOM     14  O   UNL     1       6.617  -5.147  -3.235  1.00  0.00    -0.246 OA
BRANCH  13  15
ATOM     15  O   UNL     1       4.510  -4.351  -2.738  1.00  0.00    -0.462 OA
BRANCH  15  16
ATOM     16  C   UNL     1       3.562  -5.385  -2.494  1.00  0.00     0.233 C 
BRANCH  16  17
ATOM     17  C   UNL     1       2.167  -4.894  -2.877  1.00  0.00     0.038 C 
ATOM     18  C   UNL     1       1.278  -4.738  -1.647  1.00  0.00     0.007 C 
ENDBRANCH  16  17
ENDBRANCH  15  16
ENDBRANCH  13  15
ENDBRANCH   6  13
TORSDOF 8
ENDMDL
