MODEL 1
REMARK VINA RESULT:    -2.648      0.000      0.000
REMARK INTER + INTRA:          -2.648
REMARK INTER:                  -2.648
REMARK INTRA:                   0.000
REMARK UNBOUND:                 0.000
REMARK SMILES CC(=O)[O-]
REMARK SMILES IDX 1 1 2 2 3 3 4 4
REMARK H PARENT
REMARK Flexibility Score: inf
ROOT
ATOM      1  C   UNL     1     -21.619 -14.394 -38.929  1.00  0.00     0.063 C 
ATOM      2  C   UNL     1     -21.507 -14.255 -37.449  1.00  0.00     0.038 C 
ATOM      3  O   UNL     1     -22.015 -15.125 -36.692  1.00  0.00    -0.550 OA
ATOM      4  O   UNL     1     -20.796 -13.196 -36.901  1.00  0.00    -0.550 OA
ENDROOT
TORSDOF 0
ENDMDL
MODEL 2
REMARK VINA RESULT:    -2.225     17.839     18.113
REMARK INTER + INTRA:          -2.225
REMARK INTER:                  -2.225
REMARK INTRA:                   0.000
REMARK UNBOUND:                 0.000
REMARK SMILES CC(=O)[O-]
REMARK SMILES IDX 1 1 2 2 3 3 4 4
REMARK H PARENT
REMARK Flexibility Score: inf
ROOT
ATOM      1  C   UNL     1     -20.328 -11.475 -19.332  1.00  0.00     0.063 C 
ATOM      2  C   UNL     1     -19.040 -11.003 -19.916  1.00  0.00     0.038 C 
ATOM      3  O   UNL     1     -18.240 -11.827 -20.432  1.00  0.00    -0.550 OA
ATOM      4  O   UNL     1     -18.743  -9.647 -19.940  1.00  0.00    -0.550 OA
ENDROOT
TORSDOF 0
ENDMDL
MODEL 3
REMARK VINA RESULT:    -2.084     18.006     18.357
REMARK INTER + INTRA:          -2.084
REMARK INTER:                  -2.084
REMARK INTRA:                   0.000
REMARK UNBOUND:                 0.000
REMARK SMILES CC(=O)[O-]
REMARK SMILES IDX 1 1 2 2 3 3 4 4
REMARK H PARENT
REMARK Flexibility Score: inf
ROOT
ATOM      1  C   UNL     1     -18.407 -11.795 -20.236  1.00  0.00     0.063 C 
ATOM      2  C   UNL     1     -19.168 -10.620 -19.721  1.00  0.00     0.038 C 
ATOM      3  O   UNL     1     -18.854  -9.456 -20.084  1.00  0.00    -0.550 OA
ATOM      4  O   UNL     1     -20.259 -10.810 -18.884  1.00  0.00    -0.550 OA
ENDROOT
TORSDOF 0
ENDMDL
MODEL 4
REMARK VINA RESULT:    -1.949     10.672     11.106
REMARK INTER + INTRA:          -1.949
REMARK INTER:                  -1.949
REMARK INTRA:                   0.000
REMARK UNBOUND:                 0.000
REMARK SMILES CC(=O)[O-]
REMARK SMILES IDX 1 1 2 2 3 3 4 4
REMARK H PARENT
REMARK Flexibility Score: inf
ROOT
ATOM      1  C   UNL     1     -21.706  -7.530 -29.966  1.00  0.00     0.063 C 
ATOM      2  C   UNL     1     -21.547  -7.854 -28.518  1.00  0.00     0.038 C 
ATOM      3  O   UNL     1     -20.554  -7.415 -27.879  1.00  0.00    -0.550 OA
ATOM      4  O   UNL     1     -22.520  -8.592 -27.859  1.00  0.00    -0.550 OA
ENDROOT
TORSDOF 0
ENDMDL
MODEL 5
REMARK VINA RESULT:    -1.890     17.218     17.550
REMARK INTER + INTRA:          -1.890
REMARK INTER:                  -1.890
REMARK INTRA:                   0.000
REMARK UNBOUND:                 0.000
REMARK SMILES CC(=O)[O-]
REMARK SMILES IDX 1 1 2 2 3 3 4 4
REMARK H PARENT
REMARK Flexibility Score: inf
ROOT
ATOM      1  C   UNL     1     -24.554   2.826 -32.752  1.00  0.00     0.063 C 
ATOM      2  C   UNL     1     -23.672   2.678 -33.945  1.00  0.00     0.038 C 
ATOM      3  O   UNL     1     -24.142   2.238 -35.028  1.00  0.00    -0.550 OA
ATOM      4  O   UNL     1     -22.343   3.075 -33.882  1.00  0.00    -0.550 OA
ENDROOT
TORSDOF 0
ENDMDL
MODEL 6
REMARK VINA RESULT:    -1.888     17.212     17.609
REMARK INTER + INTRA:          -1.888
REMARK INTER:                  -1.888
REMARK INTRA:                   0.000
REMARK UNBOUND:                 0.000
REMARK SMILES CC(=O)[O-]
REMARK SMILES IDX 1 1 2 2 3 3 4 4
REMARK H PARENT
REMARK Flexibility Score: inf
ROOT
ATOM      1  C   UNL     1     -24.468   2.851 -32.755  1.00  0.00     0.063 C 
ATOM      2  C   UNL     1     -23.582   2.745 -33.950  1.00  0.00     0.038 C 
ATOM      3  O   UNL     1     -22.379   3.111 -33.879  1.00  0.00    -0.550 OA
ATOM      4  O   UNL     1     -24.065   2.190 -35.128  1.00  0.00    -0.550 OA
ENDROOT
TORSDOF 0
ENDMDL
MODEL 7
REMARK VINA RESULT:    -1.879     17.519     17.790
REMARK INTER + INTRA:          -1.879
REMARK INTER:                  -1.879
REMARK INTRA:                   0.000
REMARK UNBOUND:                 0.000
REMARK SMILES CC(=O)[O-]
REMARK SMILES IDX 1 1 2 2 3 3 4 4
REMARK H PARENT
REMARK Flexibility Score: inf
ROOT
ATOM      1  C   UNL     1     -24.559   2.563 -34.800  1.00  0.00     0.063 C 
ATOM      2  C   UNL     1     -23.674   3.002 -33.683  1.00  0.00     0.038 C 
ATOM      3  O   UNL     1     -24.165   3.263 -32.553  1.00  0.00    -0.550 OA
ATOM      4  O   UNL     1     -22.300   3.072 -33.870  1.00  0.00    -0.550 OA
ENDROOT
TORSDOF 0
ENDMDL
MODEL 8
REMARK VINA RESULT:    -1.873     17.459     17.773
REMARK INTER + INTRA:          -1.873
REMARK INTER:                  -1.873
REMARK INTRA:                   0.000
REMARK UNBOUND:                 0.000
REMARK SMILES CC(=O)[O-]
REMARK SMILES IDX 1 1 2 2 3 3 4 4
REMARK H PARENT
REMARK Flexibility Score: inf
ROOT
ATOM      1  C   UNL     1     -24.357   2.499 -34.902  1.00  0.00     0.063 C 
ATOM      2  C   UNL     1     -23.529   2.946 -33.745  1.00  0.00     0.038 C 
ATOM      3  O   UNL     1     -22.282   3.068 -33.869  1.00  0.00    -0.550 OA
ATOM      4  O   UNL     1     -24.138   3.282 -32.543  1.00  0.00    -0.550 OA
ENDROOT
TORSDOF 0
ENDMDL
MODEL 9
REMARK VINA RESULT:    -1.849     18.101     18.256
REMARK INTER + INTRA:          -1.849
REMARK INTER:                  -1.849
REMARK INTRA:                   0.000
REMARK UNBOUND:                 0.000
REMARK SMILES CC(=O)[O-]
REMARK SMILES IDX 1 1 2 2 3 3 4 4
REMARK H PARENT
REMARK Flexibility Score: inf
ROOT
ATOM      1  C   UNL     1     -18.504 -11.314 -20.001  1.00  0.00     0.063 C 
ATOM      2  C   UNL     1     -19.735 -12.014 -19.531  1.00  0.00     0.038 C 
ATOM      3  O   UNL     1     -20.851 -11.430 -19.579  1.00  0.00    -0.550 OA
ATOM      4  O   UNL     1     -19.664 -13.328 -19.090  1.00  0.00    -0.550 OA
ENDROOT
TORSDOF 0
ENDMDL
