MODEL 1
REMARK VINA RESULT:    -2.400      0.000      0.000
REMARK INTER + INTRA:          -2.963
REMARK INTER:                  -2.891
REMARK INTRA:                  -0.072
REMARK UNBOUND:                -0.072
REMARK SMILES Oc1cc(O)c2c(c1)O[C@H](c1ccc(O)c(O)c1)[C@@H](O)C2
REMARK SMILES IDX 21 1 19 2 10 3 9 4 7 5 8 6 2 7 3 8 4 9 6 10 20 11 11 13
REMARK SMILES IDX 18 14 12 15 16 16 13 17 14 18 17 19 15 21 5 23 1 25
REMARK H PARENT 20 12 17 20 15 22 5 24 1 26
REMARK Flexibility Score: inf
ROOT
ATOM      1  C   UNL     1     -12.342  19.065 -16.389  1.00  0.00     0.079 C 
ATOM      2  C   UNL     1     -12.852  17.716 -16.929  1.00  0.00     0.164 C 
ATOM      3  C   UNL     1     -13.662  16.989 -15.842  1.00  0.00     0.232 C 
ATOM      4  O   UNL     1     -12.862  16.824 -14.672  1.00  0.00    -0.482 OA
ATOM      5  C   UNL     1     -11.980  17.812 -14.224  1.00  0.00     0.131 A 
ATOM      6  C   UNL     1     -11.371  17.663 -12.975  1.00  0.00     0.093 A 
ATOM      7  C   UNL     1     -10.497  18.644 -12.495  1.00  0.00     0.122 A 
ATOM      8  C   UNL     1     -10.239  19.781 -13.265  1.00  0.00     0.092 A 
ATOM      9  C   UNL     1     -10.840  19.947 -14.518  1.00  0.00     0.126 A 
ATOM     10  C   UNL     1     -11.690  18.937 -15.028  1.00  0.00     0.039 A 
ENDROOT
BRANCH   2  11
ATOM     11  O   UNL     1     -13.659  17.930 -18.058  1.00  0.00    -0.389 OA
ATOM     12  H   UNL     1     -14.010  17.042 -18.330  1.00  0.00     0.211 HD
ENDBRANCH   2  11
BRANCH   3  13
ATOM     13  C   UNL     1     -14.139  15.640 -16.326  1.00  0.00    -0.001 A 
ATOM     14  C   UNL     1     -15.297  15.060 -15.780  1.00  0.00     0.057 A 
ATOM     15  C   UNL     1     -13.460  14.972 -17.359  1.00  0.00     0.012 A 
ATOM     16  C   UNL     1     -15.760  13.821 -16.246  1.00  0.00     0.157 A 
ATOM     17  C   UNL     1     -13.920  13.737 -17.824  1.00  0.00     0.050 A 
ATOM     18  C   UNL     1     -15.066  13.157 -17.271  1.00  0.00     0.157 A 
BRANCH  16  19
ATOM     19  O   UNL     1     -16.905  13.251 -15.695  1.00  0.00    -0.504 OA
ATOM     20  H   UNL     1     -17.765  13.778 -15.592  1.00  0.00     0.293 HD
ENDBRANCH  16  19
BRANCH  18  21
ATOM     21  O   UNL     1     -15.500  11.922 -17.753  1.00  0.00    -0.504 OA
ATOM     22  H   UNL     1     -15.482  11.085 -17.184  1.00  0.00     0.293 HD
ENDBRANCH  18  21
ENDBRANCH   3  13
BRANCH   9  23
ATOM     23  O   UNL     1     -10.578  21.125 -15.221  1.00  0.00    -0.507 OA
ATOM     24  H   UNL     1      -9.656  21.384 -15.547  1.00  0.00     0.293 HD
ENDBRANCH   9  23
BRANCH   7  25
ATOM     25  O   UNL     1      -9.885  18.502 -11.252  1.00  0.00    -0.508 OA
ATOM     26  H   UNL     1     -10.383  18.118 -10.456  1.00  0.00     0.293 HD
ENDBRANCH   7  25
TORSDOF 6
ENDMDL
MODEL 2
REMARK VINA RESULT:    -2.370      2.103      2.159
REMARK INTER + INTRA:          -2.928
REMARK INTER:                  -3.265
REMARK INTRA:                   0.337
REMARK UNBOUND:                -0.072
REMARK SMILES Oc1cc(O)c2c(c1)O[C@H](c1ccc(O)c(O)c1)[C@@H](O)C2
REMARK SMILES IDX 21 1 19 2 10 3 9 4 7 5 8 6 2 7 3 8 4 9 6 10 20 11 11 13
REMARK SMILES IDX 18 14 12 15 16 16 13 17 14 18 17 19 15 21 5 23 1 25
REMARK H PARENT 20 12 17 20 15 22 5 24 1 26
REMARK Flexibility Score: inf
ROOT
ATOM      1  C   UNL     1     -12.415  18.453 -16.846  1.00  0.00     0.079 C 
ATOM      2  C   UNL     1     -12.710  16.941 -16.865  1.00  0.00     0.164 C 
ATOM      3  C   UNL     1     -14.197  16.694 -16.558  1.00  0.00     0.232 C 
ATOM      4  O   UNL     1     -14.537  17.286 -15.303  1.00  0.00    -0.482 OA
ATOM      5  C   UNL     1     -14.021  18.520 -14.895  1.00  0.00     0.131 A 
ATOM      6  C   UNL     1     -14.539  19.126 -13.748  1.00  0.00     0.093 A 
ATOM      7  C   UNL     1     -14.054  20.368 -13.325  1.00  0.00     0.122 A 
ATOM      8  C   UNL     1     -13.053  21.008 -14.059  1.00  0.00     0.092 A 
ATOM      9  C   UNL     1     -12.522  20.417 -15.212  1.00  0.00     0.126 A 
ATOM     10  C   UNL     1     -12.978  19.140 -15.619  1.00  0.00     0.039 A 
ENDROOT
BRANCH   2  11
ATOM     11  O   UNL     1     -12.392  16.410 -18.125  1.00  0.00    -0.389 OA
ATOM     12  H   UNL     1     -13.070  15.712 -18.319  1.00  0.00     0.211 HD
ENDBRANCH   2  11
BRANCH   3  13
ATOM     13  C   UNL     1     -14.510  15.217 -16.524  1.00  0.00    -0.001 A 
ATOM     14  C   UNL     1     -15.315  14.686 -15.502  1.00  0.00     0.057 A 
ATOM     15  C   UNL     1     -14.040  14.365 -17.538  1.00  0.00     0.012 A 
ATOM     16  C   UNL     1     -15.632  13.320 -15.481  1.00  0.00     0.157 A 
ATOM     17  C   UNL     1     -14.355  13.003 -17.519  1.00  0.00     0.050 A 
ATOM     18  C   UNL     1     -15.147  12.476 -16.494  1.00  0.00     0.157 A 
BRANCH  16  19
ATOM     19  O   UNL     1     -16.426  12.802 -14.460  1.00  0.00    -0.504 OA
ATOM     20  H   UNL     1     -17.426  12.682 -14.574  1.00  0.00     0.293 HD
ENDBRANCH  16  19
BRANCH  18  21
ATOM     21  O   UNL     1     -15.443  11.113 -16.499  1.00  0.00    -0.504 OA
ATOM     22  H   UNL     1     -16.392  10.768 -16.427  1.00  0.00     0.293 HD
ENDBRANCH  18  21
ENDBRANCH   3  13
BRANCH   9  23
ATOM     23  O   UNL     1     -11.556  21.125 -15.929  1.00  0.00    -0.507 OA
ATOM     24  H   UNL     1     -11.716  22.044 -16.318  1.00  0.00     0.293 HD
ENDBRANCH   9  23
BRANCH   7  25
ATOM     25  O   UNL     1     -14.564  20.977 -12.182  1.00  0.00    -0.508 OA
ATOM     26  H   UNL     1     -14.266  20.698 -11.254  1.00  0.00     0.293 HD
ENDBRANCH   7  25
TORSDOF 6
ENDMDL
MODEL 3
REMARK VINA RESULT:    -2.038      3.616      6.391
REMARK INTER + INTRA:          -2.527
REMARK INTER:                  -2.308
REMARK INTRA:                  -0.219
REMARK UNBOUND:                -0.072
REMARK SMILES Oc1cc(O)c2c(c1)O[C@H](c1ccc(O)c(O)c1)[C@@H](O)C2
REMARK SMILES IDX 21 1 19 2 10 3 9 4 7 5 8 6 2 7 3 8 4 9 6 10 20 11 11 13
REMARK SMILES IDX 18 14 12 15 16 16 13 17 14 18 17 19 15 21 5 23 1 25
REMARK H PARENT 20 12 17 20 15 22 5 24 1 26
REMARK Flexibility Score: inf
ROOT
ATOM      1  C   UNL     1     -14.829  12.510 -16.139  1.00  0.00     0.079 C 
ATOM      2  C   UNL     1     -15.495  12.163 -14.794  1.00  0.00     0.164 C 
ATOM      3  C   UNL     1     -16.626  13.163 -14.497  1.00  0.00     0.232 C 
ATOM      4  O   UNL     1     -16.110  14.494 -14.506  1.00  0.00    -0.482 OA
ATOM      5  C   UNL     1     -15.143  14.914 -15.425  1.00  0.00     0.131 A 
ATOM      6  C   UNL     1     -14.823  16.272 -15.500  1.00  0.00     0.093 A 
ATOM      7  C   UNL     1     -13.872  16.724 -16.421  1.00  0.00     0.122 A 
ATOM      8  C   UNL     1     -13.247  15.812 -17.275  1.00  0.00     0.092 A 
ATOM      9  C   UNL     1     -13.555  14.448 -17.215  1.00  0.00     0.126 A 
ATOM     10  C   UNL     1     -14.484  13.980 -16.255  1.00  0.00     0.039 A 
ENDROOT
BRANCH   2  11
ATOM     11  O   UNL     1     -16.015  10.860 -14.843  1.00  0.00    -0.389 OA
ATOM     12  H   UNL     1     -16.349  10.720 -15.767  1.00  0.00     0.211 HD
ENDBRANCH   2  11
BRANCH   3  13
ATOM     13  C   UNL     1     -17.270  12.877 -13.161  1.00  0.00    -0.001 A 
ATOM     14  C   UNL     1     -18.659  13.018 -12.999  1.00  0.00     0.057 A 
ATOM     15  C   UNL     1     -16.497  12.422 -12.079  1.00  0.00     0.012 A 
ATOM     16  C   UNL     1     -19.266  12.727 -11.769  1.00  0.00     0.157 A 
ATOM     17  C   UNL     1     -17.101  12.132 -10.852  1.00  0.00     0.050 A 
ATOM     18  C   UNL     1     -18.481  12.284 -10.691  1.00  0.00     0.157 A 
BRANCH  16  19
ATOM     19  O   UNL     1     -20.643  12.874 -11.616  1.00  0.00    -0.504 OA
ATOM     20  H   UNL     1     -21.037  13.503 -10.926  1.00  0.00     0.293 HD
ENDBRANCH  16  19
BRANCH  18  21
ATOM     21  O   UNL     1     -19.055  11.989  -9.455  1.00  0.00    -0.504 OA
ATOM     22  H   UNL     1     -20.033  11.741  -9.360  1.00  0.00     0.293 HD
ENDBRANCH  18  21
ENDBRANCH   3  13
BRANCH   9  23
ATOM     23  O   UNL     1     -12.930  13.593 -18.125  1.00  0.00    -0.507 OA
ATOM     24  H   UNL     1     -13.319  12.703 -18.408  1.00  0.00     0.293 HD
ENDBRANCH   9  23
BRANCH   7  25
ATOM     25  O   UNL     1     -13.547  18.075 -16.500  1.00  0.00    -0.508 OA
ATOM     26  H   UNL     1     -13.160  18.479 -17.346  1.00  0.00     0.293 HD
ENDBRANCH   7  25
TORSDOF 6
ENDMDL
MODEL 4
REMARK VINA RESULT:    -1.828      2.627      6.833
REMARK INTER + INTRA:          -2.275
REMARK INTER:                  -2.665
REMARK INTRA:                   0.391
REMARK UNBOUND:                -0.072
REMARK SMILES Oc1cc(O)c2c(c1)O[C@H](c1ccc(O)c(O)c1)[C@@H](O)C2
REMARK SMILES IDX 21 1 19 2 10 3 9 4 7 5 8 6 2 7 3 8 4 9 6 10 20 11 11 13
REMARK SMILES IDX 18 14 12 15 16 16 13 17 14 18 17 19 15 21 5 23 1 25
REMARK H PARENT 20 12 17 20 15 22 5 24 1 26
REMARK Flexibility Score: inf
ROOT
ATOM      1  C   UNL     1     -13.812  13.274 -17.024  1.00  0.00     0.079 C 
ATOM      2  C   UNL     1     -13.575  14.742 -17.426  1.00  0.00     0.164 C 
ATOM      3  C   UNL     1     -13.542  15.630 -16.171  1.00  0.00     0.232 C 
ATOM      4  O   UNL     1     -14.755  15.471 -15.433  1.00  0.00    -0.482 OA
ATOM      5  C   UNL     1     -15.386  14.231 -15.293  1.00  0.00     0.131 A 
ATOM      6  C   UNL     1     -16.459  14.113 -14.407  1.00  0.00     0.093 A 
ATOM      7  C   UNL     1     -17.100  12.881 -14.234  1.00  0.00     0.122 A 
ATOM      8  C   UNL     1     -16.658  11.763 -14.946  1.00  0.00     0.092 A 
ATOM      9  C   UNL     1     -15.584  11.863 -15.838  1.00  0.00     0.126 A 
ATOM     10  C   UNL     1     -14.961  13.116 -16.050  1.00  0.00     0.039 A 
ENDROOT
BRANCH   2  11
ATOM     11  O   UNL     1     -12.359  14.855 -18.119  1.00  0.00    -0.389 OA
ATOM     12  H   UNL     1     -12.081  13.933 -18.360  1.00  0.00     0.211 HD
ENDBRANCH   2  11
BRANCH   3  13
ATOM     13  C   UNL     1     -13.357  17.084 -16.535  1.00  0.00    -0.001 A 
ATOM     14  C   UNL     1     -13.631  18.091 -15.594  1.00  0.00     0.057 A 
ATOM     15  C   UNL     1     -12.864  17.445 -17.800  1.00  0.00     0.012 A 
ATOM     16  C   UNL     1     -13.434  19.441 -15.918  1.00  0.00     0.157 A 
ATOM     17  C   UNL     1     -12.667  18.791 -18.125  1.00  0.00     0.050 A 
ATOM     18  C   UNL     1     -12.952  19.791 -17.190  1.00  0.00     0.157 A 
BRANCH  16  19
ATOM     19  O   UNL     1     -13.714  20.433 -14.980  1.00  0.00    -0.504 OA
ATOM     20  H   UNL     1     -13.222  20.482 -14.096  1.00  0.00     0.293 HD
ENDBRANCH  16  19
BRANCH  18  21
ATOM     21  O   UNL     1     -12.748  21.124 -17.542  1.00  0.00    -0.504 OA
ATOM     22  H   UNL     1     -12.479  21.399 -18.479  1.00  0.00     0.293 HD
ENDBRANCH  18  21
ENDBRANCH   3  13
BRANCH   9  23
ATOM     23  O   UNL     1     -15.160  10.702 -16.487  1.00  0.00    -0.507 OA
ATOM     24  H   UNL     1     -14.625   9.974 -16.031  1.00  0.00     0.293 HD
ENDBRANCH   9  23
BRANCH   7  25
ATOM     25  O   UNL     1     -18.171  12.755 -13.353  1.00  0.00    -0.508 OA
ATOM     26  H   UNL     1     -18.895  13.462 -13.294  1.00  0.00     0.293 HD
ENDBRANCH   7  25
TORSDOF 6
ENDMDL
MODEL 5
REMARK VINA RESULT:    -1.570      2.417      3.306
REMARK INTER + INTRA:          -1.963
REMARK INTER:                  -2.337
REMARK INTRA:                   0.374
REMARK UNBOUND:                -0.072
REMARK SMILES Oc1cc(O)c2c(c1)O[C@H](c1ccc(O)c(O)c1)[C@@H](O)C2
REMARK SMILES IDX 21 1 19 2 10 3 9 4 7 5 8 6 2 7 3 8 4 9 6 10 20 11 11 13
REMARK SMILES IDX 18 14 12 15 16 16 13 17 14 18 17 19 15 21 5 23 1 25
REMARK H PARENT 20 12 17 20 15 22 5 24 1 26
REMARK Flexibility Score: inf
ROOT
ATOM      1  C   UNL     1     -13.153  16.439 -17.518  1.00  0.00     0.079 C 
ATOM      2  C   UNL     1     -13.685  15.193 -16.785  1.00  0.00     0.164 C 
ATOM      3  C   UNL     1     -15.010  15.528 -16.078  1.00  0.00     0.232 C 
ATOM      4  O   UNL     1     -14.818  16.627 -15.186  1.00  0.00    -0.482 OA
ATOM      5  C   UNL     1     -14.000  17.715 -15.507  1.00  0.00     0.131 A 
ATOM      6  C   UNL     1     -14.007  18.837 -14.675  1.00  0.00     0.093 A 
ATOM      7  C   UNL     1     -13.211  19.946 -14.979  1.00  0.00     0.122 A 
ATOM      8  C   UNL     1     -12.412  19.933 -16.125  1.00  0.00     0.092 A 
ATOM      9  C   UNL     1     -12.393  18.818 -16.971  1.00  0.00     0.126 A 
ATOM     10  C   UNL     1     -13.163  17.676 -16.644  1.00  0.00     0.039 A 
ENDROOT
BRANCH   2  11
ATOM     11  O   UNL     1     -13.889  14.151 -17.704  1.00  0.00    -0.389 OA
ATOM     12  H   UNL     1     -14.373  13.434 -17.218  1.00  0.00     0.211 HD
ENDBRANCH   2  11
BRANCH   3  13
ATOM     13  C   UNL     1     -15.536  14.337 -15.311  1.00  0.00    -0.001 A 
ATOM     14  C   UNL     1     -16.582  14.496 -14.386  1.00  0.00     0.057 A 
ATOM     15  C   UNL     1     -15.018  13.053 -15.546  1.00  0.00     0.012 A 
ATOM     16  C   UNL     1     -17.093  13.390 -13.692  1.00  0.00     0.157 A 
ATOM     17  C   UNL     1     -15.526  11.949 -14.855  1.00  0.00     0.050 A 
ATOM     18  C   UNL     1     -16.560  12.112 -13.927  1.00  0.00     0.157 A 
BRANCH  16  19
ATOM     19  O   UNL     1     -18.127  13.557 -12.773  1.00  0.00    -0.504 OA
ATOM     20  H   UNL     1     -18.487  14.475 -12.540  1.00  0.00     0.293 HD
ENDBRANCH  16  19
BRANCH  18  21
ATOM     21  O   UNL     1     -17.045  10.993 -13.251  1.00  0.00    -0.504 OA
ATOM     22  H   UNL     1     -17.280  11.019 -12.267  1.00  0.00     0.293 HD
ENDBRANCH  18  21
ENDBRANCH   3  13
BRANCH   9  23
ATOM     23  O   UNL     1     -11.610  18.883 -18.125  1.00  0.00    -0.507 OA
ATOM     24  H   UNL     1     -11.310  18.065 -18.639  1.00  0.00     0.293 HD
ENDBRANCH   9  23
BRANCH   7  25
ATOM     25  O   UNL     1     -13.211  21.068 -14.154  1.00  0.00    -0.508 OA
ATOM     26  H   UNL     1     -12.436  21.269 -13.532  1.00  0.00     0.293 HD
ENDBRANCH   7  25
TORSDOF 6
ENDMDL
MODEL 6
REMARK VINA RESULT:    -1.296      1.879      6.952
REMARK INTER + INTRA:          -1.633
REMARK INTER:                  -2.019
REMARK INTRA:                   0.386
REMARK UNBOUND:                -0.072
REMARK SMILES Oc1cc(O)c2c(c1)O[C@H](c1ccc(O)c(O)c1)[C@@H](O)C2
REMARK SMILES IDX 21 1 19 2 10 3 9 4 7 5 8 6 2 7 3 8 4 9 6 10 20 11 11 13
REMARK SMILES IDX 18 14 12 15 16 16 13 17 14 18 17 19 15 21 5 23 1 25
REMARK H PARENT 20 12 17 20 15 22 5 24 1 26
REMARK Flexibility Score: inf
ROOT
ATOM      1  C   UNL     1     -15.049  16.829 -14.986  1.00  0.00     0.079 C 
ATOM      2  C   UNL     1     -13.822  17.751 -15.122  1.00  0.00     0.164 C 
ATOM      3  C   UNL     1     -13.465  17.931 -16.607  1.00  0.00     0.232 C 
ATOM      4  O   UNL     1     -13.240  16.656 -17.209  1.00  0.00    -0.482 OA
ATOM      5  C   UNL     1     -14.014  15.535 -16.894  1.00  0.00     0.131 A 
ATOM      6  C   UNL     1     -13.865  14.372 -17.654  1.00  0.00     0.093 A 
ATOM      7  C   UNL     1     -14.637  13.240 -17.373  1.00  0.00     0.122 A 
ATOM      8  C   UNL     1     -15.567  13.277 -16.331  1.00  0.00     0.092 A 
ATOM      9  C   UNL     1     -15.731  14.433 -15.559  1.00  0.00     0.126 A 
ATOM     10  C   UNL     1     -14.921  15.566 -15.812  1.00  0.00     0.039 A 
ENDROOT
BRANCH   2  11
ATOM     11  O   UNL     1     -14.100  19.001 -14.546  1.00  0.00    -0.389 OA
ATOM     12  H   UNL     1     -13.266  19.536 -14.611  1.00  0.00     0.211 HD
ENDBRANCH   2  11
BRANCH   3  13
ATOM     13  C   UNL     1     -12.237  18.795 -16.773  1.00  0.00    -0.001 A 
ATOM     14  C   UNL     1     -11.767  19.572 -15.701  1.00  0.00     0.057 A 
ATOM     15  C   UNL     1     -11.524  18.795 -17.984  1.00  0.00     0.012 A 
ATOM     16  C   UNL     1     -10.611  20.354 -15.841  1.00  0.00     0.157 A 
ATOM     17  C   UNL     1     -10.372  19.574 -18.125  1.00  0.00     0.050 A 
ATOM     18  C   UNL     1      -9.913  20.355 -17.060  1.00  0.00     0.157 A 
BRANCH  16  19
ATOM     19  O   UNL     1     -10.155  21.125 -14.774  1.00  0.00    -0.504 OA
ATOM     20  H   UNL     1     -10.788  21.484 -14.069  1.00  0.00     0.293 HD
ENDBRANCH  16  19
BRANCH  18  21
ATOM     21  O   UNL     1      -8.761  21.123 -17.230  1.00  0.00    -0.504 OA
ATOM     22  H   UNL     1      -8.678  21.812 -17.967  1.00  0.00     0.293 HD
ENDBRANCH  18  21
ENDBRANCH   3  13
BRANCH   9  23
ATOM     23  O   UNL     1     -16.708  14.423 -14.562  1.00  0.00    -0.507 OA
ATOM     24  H   UNL     1     -17.659  14.116 -14.718  1.00  0.00     0.293 HD
ENDBRANCH   9  23
BRANCH   7  25
ATOM     25  O   UNL     1     -14.492  12.077 -18.125  1.00  0.00    -0.508 OA
ATOM     26  H   UNL     1     -13.595  11.617 -18.224  1.00  0.00     0.293 HD
ENDBRANCH   7  25
TORSDOF 6
ENDMDL
MODEL 7
REMARK VINA RESULT:     0.104      5.369      8.929
REMARK INTER + INTRA:           0.053
REMARK INTER:                   0.046
REMARK INTRA:                   0.008
REMARK UNBOUND:                -0.072
REMARK SMILES Oc1cc(O)c2c(c1)O[C@H](c1ccc(O)c(O)c1)[C@@H](O)C2
REMARK SMILES IDX 21 1 19 2 10 3 9 4 7 5 8 6 2 7 3 8 4 9 6 10 20 11 11 13
REMARK SMILES IDX 18 14 12 15 16 16 13 17 14 18 17 19 15 21 5 23 1 25
REMARK H PARENT 20 12 17 20 15 22 5 24 1 26
REMARK Flexibility Score: inf
ROOT
ATOM      1  C   UNL     1     -17.416  11.722 -10.712  1.00  0.00     0.079 C 
ATOM      2  C   UNL     1     -16.849  11.854 -12.138  1.00  0.00     0.164 C 
ATOM      3  C   UNL     1     -17.240  13.218 -12.732  1.00  0.00     0.232 C 
ATOM      4  O   UNL     1     -18.660  13.365 -12.711  1.00  0.00    -0.482 OA
ATOM      5  C   UNL     1     -19.442  12.912 -11.644  1.00  0.00     0.131 A 
ATOM      6  C   UNL     1     -20.795  13.256 -11.601  1.00  0.00     0.093 A 
ATOM      7  C   UNL     1     -21.598  12.830 -10.537  1.00  0.00     0.122 A 
ATOM      8  C   UNL     1     -21.041  12.065  -9.510  1.00  0.00     0.092 A 
ATOM      9  C   UNL     1     -19.686  11.712  -9.535  1.00  0.00     0.126 A 
ATOM     10  C   UNL     1     -18.880  12.103 -10.632  1.00  0.00     0.039 A 
ENDROOT
BRANCH   2  11
ATOM     11  O   UNL     1     -15.450  11.735 -12.106  1.00  0.00    -0.389 OA
ATOM     12  H   UNL     1     -15.083  12.644 -12.266  1.00  0.00     0.211 HD
ENDBRANCH   2  11
BRANCH   3  13
ATOM     13  C   UNL     1     -16.736  13.361 -14.149  1.00  0.00    -0.001 A 
ATOM     14  C   UNL     1     -16.364  12.225 -14.887  1.00  0.00     0.057 A 
ATOM     15  C   UNL     1     -16.678  14.625 -14.761  1.00  0.00     0.012 A 
ATOM     16  C   UNL     1     -15.922  12.349 -16.212  1.00  0.00     0.157 A 
ATOM     17  C   UNL     1     -16.237  14.750 -16.082  1.00  0.00     0.050 A 
ATOM     18  C   UNL     1     -15.857  13.619 -16.810  1.00  0.00     0.157 A 
BRANCH  16  19
ATOM     19  O   UNL     1     -15.550  11.218 -16.935  1.00  0.00    -0.504 OA
ATOM     20  H   UNL     1     -14.772  10.635 -16.647  1.00  0.00     0.293 HD
ENDBRANCH  16  19
BRANCH  18  21
ATOM     21  O   UNL     1     -15.420  13.775 -18.125  1.00  0.00    -0.504 OA
ATOM     22  H   UNL     1     -14.867  13.070 -18.596  1.00  0.00     0.293 HD
ENDBRANCH  18  21
ENDBRANCH   3  13
BRANCH   9  23
ATOM     23  O   UNL     1     -19.177  10.985  -8.458  1.00  0.00    -0.507 OA
ATOM     24  H   UNL     1     -19.685  10.840  -7.596  1.00  0.00     0.293 HD
ENDBRANCH   9  23
BRANCH   7  25
ATOM     25  O   UNL     1     -22.948  13.167 -10.488  1.00  0.00    -0.508 OA
ATOM     26  H   UNL     1     -23.423  13.328  -9.607  1.00  0.00     0.293 HD
ENDBRANCH   7  25
TORSDOF 6
ENDMDL
