MODEL 1
REMARK VINA RESULT:    -3.047      0.000      0.000
REMARK INTER + INTRA:          -3.539
REMARK INTER:                  -3.492
REMARK INTRA:                  -0.047
REMARK UNBOUND:                -0.047
REMARK SMILES CC(C)[C@H]([NH3+])C(=O)[O-]
REMARK SMILES IDX 4 1 5 2 6 6 7 7 8 8 2 9 1 10 3 11
REMARK H PARENT 5 3 5 4 5 5
REMARK Flexibility Score: inf
ROOT
ATOM      1  C   UNL     1     106.687 117.828  99.747  1.00  0.00     0.230 C 
ENDROOT
BRANCH   1   2
ATOM      2  N   UNL     1     107.370 118.329 100.951  1.00  0.00    -0.350 N 
ATOM      3  H   UNL     1     107.599 117.524 101.580  1.00  0.00     0.345 HD
ATOM      4  H   UNL     1     106.746 118.976 101.482  1.00  0.00     0.345 HD
ATOM      5  H   UNL     1     108.259 118.822 100.710  1.00  0.00     0.345 HD
ENDBRANCH   1   2
BRANCH   1   6
ATOM      6  C   UNL     1     105.282 117.384 100.067  1.00  0.00     0.099 C 
ATOM      7  O   UNL     1     104.370 117.445  99.199  1.00  0.00    -0.544 OA
ATOM      8  O   UNL     1     104.973 116.949 101.350  1.00  0.00    -0.544 OA
ENDBRANCH   1   6
BRANCH   1   9
ATOM      9  C   UNL     1     107.477 116.695  99.025  1.00  0.00     0.047 C 
ATOM     10  C   UNL     1     108.879 116.452  99.608  1.00  0.00     0.014 C 
ATOM     11  C   UNL     1     107.570 116.937  97.511  1.00  0.00     0.014 C 
ENDBRANCH   1   9
TORSDOF 3
ENDMDL
MODEL 2
REMARK VINA RESULT:    -3.036     16.662     17.353
REMARK INTER + INTRA:          -3.526
REMARK INTER:                  -3.479
REMARK INTRA:                  -0.047
REMARK UNBOUND:                -0.047
REMARK SMILES CC(C)[C@H]([NH3+])C(=O)[O-]
REMARK SMILES IDX 4 1 5 2 6 6 7 7 8 8 2 9 1 10 3 11
REMARK H PARENT 5 3 5 4 5 5
REMARK Flexibility Score: inf
ROOT
ATOM      1  C   UNL     1     111.538 100.375  99.752  1.00  0.00     0.230 C 
ENDROOT
BRANCH   1   2
ATOM      2  N   UNL     1     110.851  99.867 100.950  1.00  0.00    -0.350 N 
ATOM      3  H   UNL     1     111.234  98.924 101.196  1.00  0.00     0.345 HD
ATOM      4  H   UNL     1     109.830  99.752 100.764  1.00  0.00     0.345 HD
ATOM      5  H   UNL     1     110.988 100.502 101.769  1.00  0.00     0.345 HD
ENDBRANCH   1   2
BRANCH   1   6
ATOM      6  C   UNL     1     112.938 100.829 100.084  1.00  0.00     0.099 C 
ATOM      7  O   UNL     1     113.851 100.801  99.215  1.00  0.00    -0.544 OA
ATOM      8  O   UNL     1     113.241 101.238 101.376  1.00  0.00    -0.544 OA
ENDBRANCH   1   6
BRANCH   1   9
ATOM      9  C   UNL     1     110.745 101.503  99.026  1.00  0.00     0.047 C 
ATOM     10  C   UNL     1     109.353 101.763  99.627  1.00  0.00     0.014 C 
ATOM     11  C   UNL     1     110.628 101.241  97.517  1.00  0.00     0.014 C 
ENDBRANCH   1   9
TORSDOF 3
ENDMDL
MODEL 3
REMARK VINA RESULT:    -2.994     16.727     17.425
REMARK INTER + INTRA:          -3.478
REMARK INTER:                  -3.427
REMARK INTRA:                  -0.051
REMARK UNBOUND:                -0.047
REMARK SMILES CC(C)[C@H]([NH3+])C(=O)[O-]
REMARK SMILES IDX 4 1 5 2 6 6 7 7 8 8 2 9 1 10 3 11
REMARK H PARENT 5 3 5 4 5 5
REMARK Flexibility Score: inf
ROOT
ATOM      1  C   UNL     1     111.816 101.177 100.239  1.00  0.00     0.230 C 
ENDROOT
BRANCH   1   2
ATOM      2  N   UNL     1     113.114 101.220  99.547  1.00  0.00    -0.350 N 
ATOM      3  H   UNL     1     113.835 101.629 100.186  1.00  0.00     0.345 HD
ATOM      4  H   UNL     1     113.058 101.833  98.703  1.00  0.00     0.345 HD
ATOM      5  H   UNL     1     113.429 100.264  99.263  1.00  0.00     0.345 HD
ENDBRANCH   1   2
BRANCH   1   6
ATOM      6  C   UNL     1     111.815 100.126 101.321  1.00  0.00     0.099 C 
ATOM      7  O   UNL     1     110.970  99.192 101.316  1.00  0.00    -0.544 OA
ATOM      8  O   UNL     1     112.726 100.214 102.367  1.00  0.00    -0.544 OA
ENDBRANCH   1   6
BRANCH   1   9
ATOM      9  C   UNL     1     110.613 100.977  99.269  1.00  0.00     0.047 C 
ATOM     10  C   UNL     1     110.975 101.181  97.788  1.00  0.00     0.014 C 
ATOM     11  C   UNL     1     109.418 101.865  99.647  1.00  0.00     0.014 C 
ENDBRANCH   1   9
TORSDOF 3
ENDMDL
MODEL 4
REMARK VINA RESULT:    -2.993     16.761     17.421
REMARK INTER + INTRA:          -3.477
REMARK INTER:                  -3.496
REMARK INTRA:                   0.019
REMARK UNBOUND:                -0.047
REMARK SMILES CC(C)[C@H]([NH3+])C(=O)[O-]
REMARK SMILES IDX 4 1 5 2 6 6 7 7 8 8 2 9 1 10 3 11
REMARK H PARENT 5 3 5 4 5 5
REMARK Flexibility Score: inf
ROOT
ATOM      1  C   UNL     1     111.500 101.169 100.258  1.00  0.00     0.230 C 
ENDROOT
BRANCH   1   2
ATOM      2  N   UNL     1     112.813 101.827 100.357  1.00  0.00    -0.350 N 
ATOM      3  H   UNL     1     113.508 101.156 100.758  1.00  0.00     0.345 HD
ATOM      4  H   UNL     1     112.762 102.649 100.999  1.00  0.00     0.345 HD
ATOM      5  H   UNL     1     113.157 102.138  99.420  1.00  0.00     0.345 HD
ENDBRANCH   1   2
BRANCH   1   6
ATOM      6  C   UNL     1     111.655  99.690 100.009  1.00  0.00     0.099 C 
ATOM      7  O   UNL     1     110.744  98.880 100.331  1.00  0.00    -0.544 OA
ATOM      8  O   UNL     1     112.836  99.203  99.464  1.00  0.00    -0.544 OA
ENDBRANCH   1   6
BRANCH   1   9
ATOM      9  C   UNL     1     110.571 101.819  99.188  1.00  0.00     0.047 C 
ATOM     10  C   UNL     1     109.080 101.784  99.563  1.00  0.00     0.014 C 
ATOM     11  C   UNL     1     110.781 101.202  97.797  1.00  0.00     0.014 C 
ENDBRANCH   1   9
TORSDOF 3
ENDMDL
MODEL 5
REMARK VINA RESULT:    -2.985     16.570     17.103
REMARK INTER + INTRA:          -3.468
REMARK INTER:                  -3.402
REMARK INTRA:                  -0.066
REMARK UNBOUND:                -0.047
REMARK SMILES CC(C)[C@H]([NH3+])C(=O)[O-]
REMARK SMILES IDX 4 1 5 2 6 6 7 7 8 8 2 9 1 10 3 11
REMARK H PARENT 5 3 5 4 5 5
REMARK Flexibility Score: inf
ROOT
ATOM      1  C   UNL     1     111.220 100.547  98.100  1.00  0.00     0.230 C 
ENDROOT
BRANCH   1   2
ATOM      2  N   UNL     1     112.675 100.385  97.953  1.00  0.00    -0.350 N 
ATOM      3  H   UNL     1     113.163 100.960  98.679  1.00  0.00     0.345 HD
ATOM      4  H   UNL     1     112.989 100.727  97.018  1.00  0.00     0.345 HD
ATOM      5  H   UNL     1     112.964  99.387  98.075  1.00  0.00     0.345 HD
ENDBRANCH   1   2
BRANCH   1   6
ATOM      6  C   UNL     1     110.548 100.642  96.753  1.00  0.00     0.099 C 
ATOM      7  O   UNL     1     110.912 101.502  95.907  1.00  0.00    -0.544 OA
ATOM      8  O   UNL     1     109.480  99.805  96.455  1.00  0.00    -0.544 OA
ENDBRANCH   1   6
BRANCH   1   9
ATOM      9  C   UNL     1     110.828 101.755  99.003  1.00  0.00     0.047 C 
ATOM     10  C   UNL     1     111.810 102.003 100.161  1.00  0.00     0.014 C 
ATOM     11  C   UNL     1     109.396 101.626  99.543  1.00  0.00     0.014 C 
ENDBRANCH   1   9
TORSDOF 3
ENDMDL
MODEL 6
REMARK VINA RESULT:    -2.967      3.271      3.799
REMARK INTER + INTRA:          -3.448
REMARK INTER:                  -3.371
REMARK INTRA:                  -0.077
REMARK UNBOUND:                -0.047
REMARK SMILES CC(C)[C@H]([NH3+])C(=O)[O-]
REMARK SMILES IDX 4 1 5 2 6 6 7 7 8 8 2 9 1 10 3 11
REMARK H PARENT 5 3 5 4 5 5
REMARK Flexibility Score: inf
ROOT
ATOM      1  C   UNL     1     107.305 117.872  98.181  1.00  0.00     0.230 C 
ENDROOT
BRANCH   1   2
ATOM      2  N   UNL     1     105.916 117.997  97.710  1.00  0.00    -0.350 N 
ATOM      3  H   UNL     1     105.693 117.198  97.071  1.00  0.00     0.345 HD
ATOM      4  H   UNL     1     105.793 118.879  97.164  1.00  0.00     0.345 HD
ATOM      5  H   UNL     1     105.239 117.982  98.506  1.00  0.00     0.345 HD
ENDBRANCH   1   2
BRANCH   1   6
ATOM      6  C   UNL     1     108.280 118.075  97.048  1.00  0.00     0.099 C 
ATOM      7  O   UNL     1     109.060 119.065  97.034  1.00  0.00    -0.544 OA
ATOM      8  O   UNL     1     108.288 117.187  95.979  1.00  0.00    -0.544 OA
ENDBRANCH   1   6
BRANCH   1   9
ATOM      9  C   UNL     1     107.580 116.527  98.918  1.00  0.00     0.047 C 
ATOM     10  C   UNL     1     106.528 116.182  99.985  1.00  0.00     0.014 C 
ATOM     11  C   UNL     1     108.988 116.488  99.532  1.00  0.00     0.014 C 
ENDBRANCH   1   9
TORSDOF 3
ENDMDL
MODEL 7
REMARK VINA RESULT:    -2.960      1.563      2.064
REMARK INTER + INTRA:          -3.440
REMARK INTER:                  -3.388
REMARK INTRA:                  -0.052
REMARK UNBOUND:                -0.047
REMARK SMILES CC(C)[C@H]([NH3+])C(=O)[O-]
REMARK SMILES IDX 4 1 5 2 6 6 7 7 8 8 2 9 1 10 3 11
REMARK H PARENT 5 3 5 4 5 5
REMARK Flexibility Score: inf
ROOT
ATOM      1  C   UNL     1     106.380 117.203  99.789  1.00  0.00     0.230 C 
ENDROOT
BRANCH   1   2
ATOM      2  N   UNL     1     106.153 115.831 100.272  1.00  0.00    -0.350 N 
ATOM      3  H   UNL     1     106.970 115.231 100.011  1.00  0.00     0.345 HD
ATOM      4  H   UNL     1     105.306 115.420  99.820  1.00  0.00     0.345 HD
ATOM      5  H   UNL     1     106.042 115.804 101.311  1.00  0.00     0.345 HD
ENDBRANCH   1   2
BRANCH   1   6
ATOM      6  C   UNL     1     105.275 117.640  98.861  1.00  0.00     0.099 C 
ATOM      7  O   UNL     1     104.128 117.916  99.305  1.00  0.00    -0.544 OA
ATOM      8  O   UNL     1     105.505 117.691  97.492  1.00  0.00    -0.544 OA
ENDBRANCH   1   6
BRANCH   1   9
ATOM      9  C   UNL     1     107.775 117.390  99.120  1.00  0.00     0.047 C 
ATOM     10  C   UNL     1     108.825 116.367  99.584  1.00  0.00     0.014 C 
ATOM     11  C   UNL     1     108.312 118.818  99.305  1.00  0.00     0.014 C 
ENDBRANCH   1   9
TORSDOF 3
ENDMDL
MODEL 8
REMARK VINA RESULT:    -2.955      1.682      2.007
REMARK INTER + INTRA:          -3.434
REMARK INTER:                  -3.382
REMARK INTRA:                  -0.051
REMARK UNBOUND:                -0.047
REMARK SMILES CC(C)[C@H]([NH3+])C(=O)[O-]
REMARK SMILES IDX 4 1 5 2 6 6 7 7 8 8 2 9 1 10 3 11
REMARK H PARENT 5 3 5 4 5 5
REMARK Flexibility Score: inf
ROOT
ATOM      1  C   UNL     1     105.788 117.041  99.920  1.00  0.00     0.230 C 
ENDROOT
BRANCH   1   2
ATOM      2  N   UNL     1     105.424 117.598  98.607  1.00  0.00    -0.350 N 
ATOM      3  H   UNL     1     105.191 118.613  98.713  1.00  0.00     0.345 HD
ATOM      4  H   UNL     1     104.578 117.120  98.228  1.00  0.00     0.345 HD
ATOM      5  H   UNL     1     106.210 117.511  97.923  1.00  0.00     0.345 HD
ENDBRANCH   1   2
BRANCH   1   6
ATOM      6  C   UNL     1     104.790 117.450 100.975  1.00  0.00     0.099 C 
ATOM      7  O   UNL     1     103.589 117.684 100.674  1.00  0.00    -0.544 OA
ATOM      8  O   UNL     1     105.208 117.618 102.289  1.00  0.00    -0.544 OA
ENDBRANCH   1   6
BRANCH   1   9
ATOM      9  C   UNL     1     107.239 117.405 100.356  1.00  0.00     0.047 C 
ATOM     10  C   UNL     1     107.625 118.864 100.060  1.00  0.00     0.014 C 
ATOM     11  C   UNL     1     108.276 116.450  99.748  1.00  0.00     0.014 C 
ENDBRANCH   1   9
TORSDOF 3
ENDMDL
MODEL 9
REMARK VINA RESULT:    -2.882      2.387      3.304
REMARK INTER + INTRA:          -3.350
REMARK INTER:                  -3.293
REMARK INTRA:                  -0.057
REMARK UNBOUND:                -0.047
REMARK SMILES CC(C)[C@H]([NH3+])C(=O)[O-]
REMARK SMILES IDX 4 1 5 2 6 6 7 7 8 8 2 9 1 10 3 11
REMARK H PARENT 5 3 5 4 5 5
REMARK Flexibility Score: inf
ROOT
ATOM      1  C   UNL     1     105.863 116.816  99.904  1.00  0.00     0.230 C 
ENDROOT
BRANCH   1   2
ATOM      2  N   UNL     1     105.215 116.161 101.052  1.00  0.00    -0.350 N 
ATOM      3  H   UNL     1     104.993 115.169 100.805  1.00  0.00     0.345 HD
ATOM      4  H   UNL     1     104.315 116.636 101.284  1.00  0.00     0.345 HD
ATOM      5  H   UNL     1     105.836 116.160 101.893  1.00  0.00     0.345 HD
ENDBRANCH   1   2
BRANCH   1   6
ATOM      6  C   UNL     1     107.245 117.299 100.266  1.00  0.00     0.099 C 
ATOM      7  O   UNL     1     107.422 118.439 100.772  1.00  0.00    -0.544 OA
ATOM      8  O   UNL     1     108.347 116.497  99.993  1.00  0.00    -0.544 OA
ENDBRANCH   1   6
BRANCH   1   9
ATOM      9  C   UNL     1     105.010 117.974  99.302  1.00  0.00     0.047 C 
ATOM     10  C   UNL     1     103.562 118.007  99.819  1.00  0.00     0.014 C 
ATOM     11  C   UNL     1     105.022 117.955  97.766  1.00  0.00     0.014 C 
ENDBRANCH   1   9
TORSDOF 3
ENDMDL
