MODEL 1
REMARK VINA RESULT:    -3.259      0.000      0.000
REMARK INTER + INTRA:          -3.354
REMARK INTER:                  -3.354
REMARK INTRA:                   0.000
REMARK UNBOUND:                 0.000
REMARK SMILES Oc1ccc2[nH]ccc2c1
REMARK SMILES IDX 3 1 4 2 5 3 9 4 8 5 7 6 6 7 10 8 2 9 1 11
REMARK H PARENT 6 10 1 12
REMARK Flexibility Score: inf
ROOT
ATOM      1  C   UNL     1       3.812   3.853   4.853  1.00  0.00     0.048 A 
ATOM      2  C   UNL     1       4.202   3.001   5.902  1.00  0.00     0.030 A 
ATOM      3  C   UNL     1       4.601   1.706   5.576  1.00  0.00     0.046 A 
ATOM      4  C   UNL     1       4.619   1.264   4.280  1.00  0.00     0.003 A 
ATOM      5  C   UNL     1       5.056  -0.042   4.296  1.00  0.00     0.028 A 
ATOM      6  C   UNL     1       5.287  -0.331   5.638  1.00  0.00     0.083 A 
ATOM      7  N   UNL     1       5.008   0.741   6.415  1.00  0.00    -0.361 N 
ATOM      8  C   UNL     1       4.239   2.081   3.217  1.00  0.00     0.056 A 
ATOM      9  C   UNL     1       3.829   3.398   3.513  1.00  0.00     0.116 A 
ATOM     10  H   UNL     1       5.093   0.800   7.454  1.00  0.00     0.166 HD
ENDROOT
BRANCH   9  11
ATOM     11  O   UNL     1       3.438   4.262   2.492  1.00  0.00    -0.508 OA
ATOM     12  H   UNL     1       3.633   5.256   2.538  1.00  0.00     0.293 HD
ENDBRANCH   9  11
TORSDOF 1
ENDMDL
MODEL 2
REMARK VINA RESULT:    -3.196      1.370      1.869
REMARK INTER + INTRA:          -3.289
REMARK INTER:                  -3.289
REMARK INTRA:                   0.000
REMARK UNBOUND:                 0.000
REMARK SMILES Oc1ccc2[nH]ccc2c1
REMARK SMILES IDX 3 1 4 2 5 3 9 4 8 5 7 6 6 7 10 8 2 9 1 11
REMARK H PARENT 6 10 1 12
REMARK Flexibility Score: inf
ROOT
ATOM      1  C   UNL     1       4.134   2.479   4.395  1.00  0.00     0.048 A 
ATOM      2  C   UNL     1       4.567   2.467   5.733  1.00  0.00     0.030 A 
ATOM      3  C   UNL     1       5.079   1.275   6.242  1.00  0.00     0.046 A 
ATOM      4  C   UNL     1       5.167   0.144   5.474  1.00  0.00     0.003 A 
ATOM      5  C   UNL     1       5.710  -0.847   6.261  1.00  0.00     0.028 A 
ATOM      6  C   UNL     1       5.930  -0.248   7.499  1.00  0.00     0.083 A 
ATOM      7  N   UNL     1       5.544   1.048   7.481  1.00  0.00    -0.361 N 
ATOM      8  C   UNL     1       4.748   0.122   4.145  1.00  0.00     0.056 A 
ATOM      9  C   UNL     1       4.223   1.312   3.600  1.00  0.00     0.116 A 
ATOM     10  H   UNL     1       5.596   1.728   8.270  1.00  0.00     0.166 HD
ENDROOT
BRANCH   9  11
ATOM     11  O   UNL     1       3.788   1.351   2.277  1.00  0.00    -0.508 OA
ATOM     12  H   UNL     1       4.318   0.911   1.533  1.00  0.00     0.293 HD
ENDBRANCH   9  11
TORSDOF 1
ENDMDL
MODEL 3
REMARK VINA RESULT:    -3.186      2.392      3.222
REMARK INTER + INTRA:          -3.279
REMARK INTER:                  -3.279
REMARK INTRA:                   0.000
REMARK UNBOUND:                 0.000
REMARK SMILES Oc1ccc2[nH]ccc2c1
REMARK SMILES IDX 3 1 4 2 5 3 9 4 8 5 7 6 6 7 10 8 2 9 1 11
REMARK H PARENT 6 10 1 12
REMARK Flexibility Score: inf
ROOT
ATOM      1  C   UNL     1       5.969   0.557   2.353  1.00  0.00     0.048 A 
ATOM      2  C   UNL     1       6.985  -0.156   3.016  1.00  0.00     0.030 A 
ATOM      3  C   UNL     1       6.735  -0.588   4.317  1.00  0.00     0.046 A 
ATOM      4  C   UNL     1       5.543  -0.336   4.943  1.00  0.00     0.003 A 
ATOM      5  C   UNL     1       5.613  -0.889   6.202  1.00  0.00     0.028 A 
ATOM      6  C   UNL     1       6.879  -1.464   6.276  1.00  0.00     0.083 A 
ATOM      7  N   UNL     1       7.559  -1.278   5.122  1.00  0.00    -0.361 N 
ATOM      8  C   UNL     1       4.516   0.366   4.315  1.00  0.00     0.056 A 
ATOM      9  C   UNL     1       4.737   0.819   2.998  1.00  0.00     0.116 A 
ATOM     10  H   UNL     1       8.527  -1.604   4.906  1.00  0.00     0.166 HD
ENDROOT
BRANCH   9  11
ATOM     11  O   UNL     1       3.747   1.526   2.318  1.00  0.00    -0.508 OA
ATOM     12  H   UNL     1       3.080   2.108   2.813  1.00  0.00     0.293 HD
ENDBRANCH   9  11
TORSDOF 1
ENDMDL
MODEL 4
REMARK VINA RESULT:    -3.154     11.938     12.627
REMARK INTER + INTRA:          -3.247
REMARK INTER:                  -3.247
REMARK INTRA:                   0.000
REMARK UNBOUND:                 0.000
REMARK SMILES Oc1ccc2[nH]ccc2c1
REMARK SMILES IDX 3 1 4 2 5 3 9 4 8 5 7 6 6 7 10 8 2 9 1 11
REMARK H PARENT 6 10 1 12
REMARK Flexibility Score: inf
ROOT
ATOM      1  C   UNL     1      -3.914  -4.365   0.872  1.00  0.00     0.048 A 
ATOM      2  C   UNL     1      -4.311  -3.861  -0.380  1.00  0.00     0.030 A 
ATOM      3  C   UNL     1      -5.501  -3.138  -0.443  1.00  0.00     0.046 A 
ATOM      4  C   UNL     1      -6.269  -2.917   0.670  1.00  0.00     0.003 A 
ATOM      5  C   UNL     1      -7.364  -2.181   0.275  1.00  0.00     0.028 A 
ATOM      6  C   UNL     1      -7.198  -1.988  -1.093  1.00  0.00     0.083 A 
ATOM      7  N   UNL     1      -6.058  -2.574  -1.526  1.00  0.00    -0.361 N 
ATOM      8  C   UNL     1      -5.904  -3.402   1.924  1.00  0.00     0.056 A 
ATOM      9  C   UNL     1      -4.706  -4.138   2.023  1.00  0.00     0.116 A 
ATOM     10  H   UNL     1      -5.692  -2.585  -2.503  1.00  0.00     0.166 HD
ENDROOT
BRANCH   9  11
ATOM     11  O   UNL     1      -4.289  -4.649   3.251  1.00  0.00    -0.508 OA
ATOM     12  H   UNL     1      -3.323  -4.907   3.415  1.00  0.00     0.293 HD
ENDBRANCH   9  11
TORSDOF 1
ENDMDL
MODEL 5
REMARK VINA RESULT:    -3.146     11.853     12.442
REMARK INTER + INTRA:          -3.238
REMARK INTER:                  -3.238
REMARK INTRA:                   0.000
REMARK UNBOUND:                 0.000
REMARK SMILES Oc1ccc2[nH]ccc2c1
REMARK SMILES IDX 3 1 4 2 5 3 9 4 8 5 7 6 6 7 10 8 2 9 1 11
REMARK H PARENT 6 10 1 12
REMARK Flexibility Score: inf
ROOT
ATOM      1  C   UNL     1      -4.023  -4.435   1.224  1.00  0.00     0.048 A 
ATOM      2  C   UNL     1      -5.186  -4.097   1.940  1.00  0.00     0.030 A 
ATOM      3  C   UNL     1      -6.160  -3.346   1.284  1.00  0.00     0.046 A 
ATOM      4  C   UNL     1      -6.004  -2.945  -0.016  1.00  0.00     0.003 A 
ATOM      5  C   UNL     1      -7.129  -2.230  -0.364  1.00  0.00     0.028 A 
ATOM      6  C   UNL     1      -7.930  -2.236   0.775  1.00  0.00     0.083 A 
ATOM      7  N   UNL     1      -7.333  -2.920   1.778  1.00  0.00    -0.361 N 
ATOM      8  C   UNL     1      -4.866  -3.263  -0.754  1.00  0.00     0.056 A 
ATOM      9  C   UNL     1      -3.861  -4.021  -0.120  1.00  0.00     0.116 A 
ATOM     10  H   UNL     1      -7.710  -3.080   2.738  1.00  0.00     0.166 HD
ENDROOT
BRANCH   9  11
ATOM     11  O   UNL     1      -2.699  -4.370  -0.807  1.00  0.00    -0.508 OA
ATOM     12  H   UNL     1      -2.007  -4.986  -0.396  1.00  0.00     0.293 HD
ENDBRANCH   9  11
TORSDOF 1
ENDMDL
MODEL 6
REMARK VINA RESULT:    -3.099     11.856     12.384
REMARK INTER + INTRA:          -3.190
REMARK INTER:                  -3.190
REMARK INTRA:                   0.000
REMARK UNBOUND:                 0.000
REMARK SMILES Oc1ccc2[nH]ccc2c1
REMARK SMILES IDX 3 1 4 2 5 3 9 4 8 5 7 6 6 7 10 8 2 9 1 11
REMARK H PARENT 6 10 1 12
REMARK Flexibility Score: inf
ROOT
ATOM      1  C   UNL     1      -6.156  -3.893   3.216  1.00  0.00     0.048 A 
ATOM      2  C   UNL     1      -6.800  -3.100   2.248  1.00  0.00     0.030 A 
ATOM      3  C   UNL     1      -6.220  -3.017   0.983  1.00  0.00     0.046 A 
ATOM      4  C   UNL     1      -5.062  -3.682   0.678  1.00  0.00     0.003 A 
ATOM      5  C   UNL     1      -4.757  -3.396  -0.635  1.00  0.00     0.028 A 
ATOM      6  C   UNL     1      -5.774  -2.550  -1.069  1.00  0.00     0.083 A 
ATOM      7  N   UNL     1      -6.665  -2.323  -0.076  1.00  0.00    -0.361 N 
ATOM      8  C   UNL     1      -4.400  -4.475   1.612  1.00  0.00     0.056 A 
ATOM      9  C   UNL     1      -4.960  -4.580   2.902  1.00  0.00     0.116 A 
ATOM     10  H   UNL     1      -7.521  -1.728  -0.128  1.00  0.00     0.166 HD
ENDROOT
BRANCH   9  11
ATOM     11  O   UNL     1      -4.343  -5.359   3.879  1.00  0.00    -0.508 OA
ATOM     12  H   UNL     1      -3.989  -6.286   3.670  1.00  0.00     0.293 HD
ENDBRANCH   9  11
TORSDOF 1
ENDMDL
MODEL 7
REMARK VINA RESULT:    -3.092      9.642     10.432
REMARK INTER + INTRA:          -3.182
REMARK INTER:                  -3.182
REMARK INTRA:                   0.000
REMARK UNBOUND:                 0.000
REMARK SMILES Oc1ccc2[nH]ccc2c1
REMARK SMILES IDX 3 1 4 2 5 3 9 4 8 5 7 6 6 7 10 8 2 9 1 11
REMARK H PARENT 6 10 1 12
REMARK Flexibility Score: inf
ROOT
ATOM      1  C   UNL     1       4.734  -5.689  -0.292  1.00  0.00     0.048 A 
ATOM      2  C   UNL     1       5.041  -5.114  -1.539  1.00  0.00     0.030 A 
ATOM      3  C   UNL     1       4.004  -4.956  -2.457  1.00  0.00     0.046 A 
ATOM      4  C   UNL     1       2.722  -5.343  -2.168  1.00  0.00     0.003 A 
ATOM      5  C   UNL     1       1.947  -5.056  -3.269  1.00  0.00     0.028 A 
ATOM      6  C   UNL     1       2.823  -4.494  -4.194  1.00  0.00     0.083 A 
ATOM      7  N   UNL     1       4.078  -4.435  -3.692  1.00  0.00    -0.361 N 
ATOM      8  C   UNL     1       2.384  -5.915  -0.943  1.00  0.00     0.056 A 
ATOM      9  C   UNL     1       3.410  -6.089   0.009  1.00  0.00     0.116 A 
ATOM     10  H   UNL     1       4.926  -4.061  -4.170  1.00  0.00     0.166 HD
ENDROOT
BRANCH   9  11
ATOM     11  O   UNL     1       3.133  -6.656   1.251  1.00  0.00    -0.508 OA
ATOM     12  H   UNL     1       2.751  -7.592   1.332  1.00  0.00     0.293 HD
ENDBRANCH   9  11
TORSDOF 1
ENDMDL
MODEL 8
REMARK VINA RESULT:    -3.088     11.644     12.126
REMARK INTER + INTRA:          -3.178
REMARK INTER:                  -3.178
REMARK INTRA:                   0.000
REMARK UNBOUND:                 0.000
REMARK SMILES Oc1ccc2[nH]ccc2c1
REMARK SMILES IDX 3 1 4 2 5 3 9 4 8 5 7 6 6 7 10 8 2 9 1 11
REMARK H PARENT 6 10 1 12
REMARK Flexibility Score: inf
ROOT
ATOM      1  C   UNL     1      -4.804  -3.264  -0.871  1.00  0.00     0.048 A 
ATOM      2  C   UNL     1      -5.943  -2.779  -0.202  1.00  0.00     0.030 A 
ATOM      3  C   UNL     1      -6.123  -3.148   1.130  1.00  0.00     0.046 A 
ATOM      4  C   UNL     1      -5.227  -3.955   1.781  1.00  0.00     0.003 A 
ATOM      5  C   UNL     1      -5.688  -4.128   3.067  1.00  0.00     0.028 A 
ATOM      6  C   UNL     1      -6.870  -3.397   3.131  1.00  0.00     0.083 A 
ATOM      7  N   UNL     1      -7.131  -2.800   1.946  1.00  0.00    -0.361 N 
ATOM      8  C   UNL     1      -4.089  -4.452   1.148  1.00  0.00     0.056 A 
ATOM      9  C   UNL     1      -3.878  -4.098  -0.200  1.00  0.00     0.116 A 
ATOM     10  H   UNL     1      -7.949  -2.194   1.716  1.00  0.00     0.166 HD
ENDROOT
BRANCH   9  11
ATOM     11  O   UNL     1      -2.757  -4.564  -0.886  1.00  0.00    -0.508 OA
ATOM     12  H   UNL     1      -1.823  -4.259  -0.640  1.00  0.00     0.293 HD
ENDBRANCH   9  11
TORSDOF 1
ENDMDL
MODEL 9
REMARK VINA RESULT:    -3.040      2.596      4.075
REMARK INTER + INTRA:          -3.129
REMARK INTER:                  -3.129
REMARK INTRA:                   0.000
REMARK UNBOUND:                 0.000
REMARK SMILES Oc1ccc2[nH]ccc2c1
REMARK SMILES IDX 3 1 4 2 5 3 9 4 8 5 7 6 6 7 10 8 2 9 1 11
REMARK H PARENT 6 10 1 12
REMARK Flexibility Score: inf
ROOT
ATOM      1  C   UNL     1       4.912   0.277   4.149  1.00  0.00     0.048 A 
ATOM      2  C   UNL     1       4.537   1.210   3.164  1.00  0.00     0.030 A 
ATOM      3  C   UNL     1       4.167   2.486   3.584  1.00  0.00     0.046 A 
ATOM      4  C   UNL     1       4.166   2.837   4.908  1.00  0.00     0.003 A 
ATOM      5  C   UNL     1       3.756   4.149   4.987  1.00  0.00     0.028 A 
ATOM      6  C   UNL     1       3.525   4.537   3.669  1.00  0.00     0.083 A 
ATOM      7  N   UNL     1       3.778   3.518   2.817  1.00  0.00    -0.361 N 
ATOM      8  C   UNL     1       4.532   1.938   5.908  1.00  0.00     0.056 A 
ATOM      9  C   UNL     1       4.911   0.637   5.518  1.00  0.00     0.116 A 
ATOM     10  H   UNL     1       3.688   3.534   1.778  1.00  0.00     0.166 HD
ENDROOT
BRANCH   9  11
ATOM     11  O   UNL     1       5.288  -0.306   6.473  1.00  0.00    -0.508 OA
ATOM     12  H   UNL     1       6.249  -0.386   6.785  1.00  0.00     0.293 HD
ENDBRANCH   9  11
TORSDOF 1
ENDMDL
