MODEL 1
REMARK VINA RESULT:    -5.708      0.000      0.000
REMARK INTER + INTRA:          -5.875
REMARK INTER:                  -5.875
REMARK INTRA:                   0.000
REMARK UNBOUND:                 0.000
REMARK SMILES Oc1ccc2[nH]ccc2c1
REMARK SMILES IDX 3 1 4 2 5 3 9 4 8 5 7 6 6 7 10 8 2 9 1 11
REMARK H PARENT 6 10 1 12
REMARK Flexibility Score: inf
ROOT
ATOM      1  C   UNL     1      31.619 -11.610  15.813  1.00  0.00     0.048 A 
ATOM      2  C   UNL     1      32.310 -12.647  15.158  1.00  0.00     0.030 A 
ATOM      3  C   UNL     1      32.360 -12.616  13.765  1.00  0.00     0.046 A 
ATOM      4  C   UNL     1      31.762 -11.617  13.045  1.00  0.00     0.003 A 
ATOM      5  C   UNL     1      31.993 -11.875  11.712  1.00  0.00     0.028 A 
ATOM      6  C   UNL     1      32.739 -13.049  11.693  1.00  0.00     0.083 A 
ATOM      7  N   UNL     1      32.960 -13.498  12.950  1.00  0.00    -0.361 N 
ATOM      8  C   UNL     1      31.070 -10.577  13.662  1.00  0.00     0.056 A 
ATOM      9  C   UNL     1      31.000 -10.576  15.072  1.00  0.00     0.116 A 
ATOM     10  H   UNL     1      33.491 -14.355  13.225  1.00  0.00     0.166 HD
ENDROOT
BRANCH   9  11
ATOM     11  O   UNL     1      30.324  -9.563  15.745  1.00  0.00    -0.508 OA
ATOM     12  H   UNL     1      29.824  -8.837  15.243  1.00  0.00     0.293 HD
ENDBRANCH   9  11
TORSDOF 1
ENDMDL
MODEL 2
REMARK VINA RESULT:    -5.536     11.036     12.039
REMARK INTER + INTRA:          -5.698
REMARK INTER:                  -5.698
REMARK INTRA:                   0.000
REMARK UNBOUND:                 0.000
REMARK SMILES Oc1ccc2[nH]ccc2c1
REMARK SMILES IDX 3 1 4 2 5 3 9 4 8 5 7 6 6 7 10 8 2 9 1 11
REMARK H PARENT 6 10 1 12
REMARK Flexibility Score: inf
ROOT
ATOM      1  C   UNL     1      29.452 -12.789  25.742  1.00  0.00     0.048 A 
ATOM      2  C   UNL     1      30.242 -12.764  24.577  1.00  0.00     0.030 A 
ATOM      3  C   UNL     1      31.411 -13.522  24.569  1.00  0.00     0.046 A 
ATOM      4  C   UNL     1      31.792 -14.272  25.651  1.00  0.00     0.003 A 
ATOM      5  C   UNL     1      32.977 -14.894  25.325  1.00  0.00     0.028 A 
ATOM      6  C   UNL     1      33.261 -14.478  24.029  1.00  0.00     0.083 A 
ATOM      7  N   UNL     1      32.302 -13.640  23.571  1.00  0.00    -0.361 N 
ATOM      8  C   UNL     1      31.032 -14.317  26.818  1.00  0.00     0.056 A 
ATOM      9  C   UNL     1      29.841 -13.561  26.860  1.00  0.00     0.116 A 
ATOM     10  H   UNL     1      32.265 -13.183  22.633  1.00  0.00     0.166 HD
ENDROOT
BRANCH   9  11
ATOM     11  O   UNL     1      29.041 -13.567  27.999  1.00  0.00    -0.508 OA
ATOM     12  H   UNL     1      28.056 -13.803  27.952  1.00  0.00     0.293 HD
ENDBRANCH   9  11
TORSDOF 1
ENDMDL
MODEL 3
REMARK VINA RESULT:    -5.316     11.173     12.540
REMARK INTER + INTRA:          -5.472
REMARK INTER:                  -5.472
REMARK INTRA:                   0.000
REMARK UNBOUND:                 0.000
REMARK SMILES Oc1ccc2[nH]ccc2c1
REMARK SMILES IDX 3 1 4 2 5 3 9 4 8 5 7 6 6 7 10 8 2 9 1 11
REMARK H PARENT 6 10 1 12
REMARK Flexibility Score: inf
ROOT
ATOM      1  C   UNL     1      30.540 -14.441  26.772  1.00  0.00     0.048 A 
ATOM      2  C   UNL     1      30.798 -13.498  25.759  1.00  0.00     0.030 A 
ATOM      3  C   UNL     1      29.707 -12.966  25.074  1.00  0.00     0.046 A 
ATOM      4  C   UNL     1      28.421 -13.337  25.366  1.00  0.00     0.003 A 
ATOM      5  C   UNL     1      27.588 -12.637  24.522  1.00  0.00     0.028 A 
ATOM      6  C   UNL     1      28.435 -11.857  23.741  1.00  0.00     0.083 A 
ATOM      7  N   UNL     1      29.728 -12.061  24.082  1.00  0.00    -0.361 N 
ATOM      8  C   UNL     1      28.132 -14.267  26.362  1.00  0.00     0.056 A 
ATOM      9  C   UNL     1      29.213 -14.827  27.076  1.00  0.00     0.116 A 
ATOM     10  H   UNL     1      30.567 -11.606  23.658  1.00  0.00     0.166 HD
ENDROOT
BRANCH   9  11
ATOM     11  O   UNL     1      28.987 -15.761  28.083  1.00  0.00    -0.508 OA
ATOM     12  H   UNL     1      28.050 -16.070  28.317  1.00  0.00     0.293 HD
ENDBRANCH   9  11
TORSDOF 1
ENDMDL
MODEL 4
REMARK VINA RESULT:    -5.273      1.366      2.107
REMARK INTER + INTRA:          -5.427
REMARK INTER:                  -5.427
REMARK INTRA:                   0.000
REMARK UNBOUND:                 0.000
REMARK SMILES Oc1ccc2[nH]ccc2c1
REMARK SMILES IDX 3 1 4 2 5 3 9 4 8 5 7 6 6 7 10 8 2 9 1 11
REMARK H PARENT 6 10 1 12
REMARK Flexibility Score: inf
ROOT
ATOM      1  C   UNL     1      31.075 -10.453  14.772  1.00  0.00     0.048 A 
ATOM      2  C   UNL     1      31.057 -10.332  13.369  1.00  0.00     0.030 A 
ATOM      3  C   UNL     1      31.673 -11.335  12.623  1.00  0.00     0.046 A 
ATOM      4  C   UNL     1      32.278 -12.409  13.220  1.00  0.00     0.003 A 
ATOM      5  C   UNL     1      32.783 -13.208  12.218  1.00  0.00     0.028 A 
ATOM      6  C   UNL     1      32.449 -12.559  11.034  1.00  0.00     0.083 A 
ATOM      7  N   UNL     1      31.771 -11.416  11.287  1.00  0.00    -0.361 N 
ATOM      8  C   UNL     1      32.313 -12.558  14.605  1.00  0.00     0.056 A 
ATOM      9  C   UNL     1      31.698 -11.560  15.392  1.00  0.00     0.116 A 
ATOM     10  H   UNL     1      31.401 -10.739  10.583  1.00  0.00     0.166 HD
ENDROOT
BRANCH   9  11
ATOM     11  O   UNL     1      31.701 -11.654  16.781  1.00  0.00    -0.508 OA
ATOM     12  H   UNL     1      32.522 -11.417  17.325  1.00  0.00     0.293 HD
ENDBRANCH   9  11
TORSDOF 1
ENDMDL
MODEL 5
REMARK VINA RESULT:    -5.191      2.426      3.669
REMARK INTER + INTRA:          -5.343
REMARK INTER:                  -5.343
REMARK INTRA:                   0.000
REMARK UNBOUND:                 0.000
REMARK SMILES Oc1ccc2[nH]ccc2c1
REMARK SMILES IDX 3 1 4 2 5 3 9 4 8 5 7 6 6 7 10 8 2 9 1 11
REMARK H PARENT 6 10 1 12
REMARK Flexibility Score: inf
ROOT
ATOM      1  C   UNL     1      31.795 -10.089  12.445  1.00  0.00     0.048 A 
ATOM      2  C   UNL     1      31.347 -10.038  13.779  1.00  0.00     0.030 A 
ATOM      3  C   UNL     1      31.578 -11.152  14.584  1.00  0.00     0.046 A 
ATOM      4  C   UNL     1      32.219 -12.265  14.108  1.00  0.00     0.003 A 
ATOM      5  C   UNL     1      32.288 -13.174  15.141  1.00  0.00     0.028 A 
ATOM      6  C   UNL     1      31.670 -12.548  16.218  1.00  0.00     0.083 A 
ATOM      7  N   UNL     1      31.238 -11.313  15.873  1.00  0.00    -0.361 N 
ATOM      8  C   UNL     1      32.674 -12.347  12.794  1.00  0.00     0.056 A 
ATOM      9  C   UNL     1      32.456 -11.237  11.950  1.00  0.00     0.116 A 
ATOM     10  H   UNL     1      30.743 -10.629  16.487  1.00  0.00     0.166 HD
ENDROOT
BRANCH   9  11
ATOM     11  O   UNL     1      32.888 -11.260  10.627  1.00  0.00    -0.508 OA
ATOM     12  H   UNL     1      32.736 -12.068  10.035  1.00  0.00     0.293 HD
ENDBRANCH   9  11
TORSDOF 1
ENDMDL
MODEL 6
REMARK VINA RESULT:    -5.138     19.379     19.739
REMARK INTER + INTRA:          -5.289
REMARK INTER:                  -5.289
REMARK INTRA:                   0.000
REMARK UNBOUND:                 0.000
REMARK SMILES Oc1ccc2[nH]ccc2c1
REMARK SMILES IDX 3 1 4 2 5 3 9 4 8 5 7 6 6 7 10 8 2 9 1 11
REMARK H PARENT 6 10 1 12
REMARK Flexibility Score: inf
ROOT
ATOM      1  C   UNL     1      14.823 -19.737  16.650  1.00  0.00     0.048 A 
ATOM      2  C   UNL     1      15.397 -20.127  17.874  1.00  0.00     0.030 A 
ATOM      3  C   UNL     1      15.658 -21.482  18.067  1.00  0.00     0.046 A 
ATOM      4  C   UNL     1      15.372 -22.415  17.106  1.00  0.00     0.003 A 
ATOM      5  C   UNL     1      15.746 -23.645  17.600  1.00  0.00     0.028 A 
ATOM      6  C   UNL     1      16.253 -23.387  18.870  1.00  0.00     0.083 A 
ATOM      7  N   UNL     1      16.196 -22.064  19.150  1.00  0.00    -0.361 N 
ATOM      8  C   UNL     1      14.804 -22.062  15.883  1.00  0.00     0.056 A 
ATOM      9  C   UNL     1      14.526 -20.697  15.655  1.00  0.00     0.116 A 
ATOM     10  H   UNL     1      16.510 -21.597  20.030  1.00  0.00     0.166 HD
ENDROOT
BRANCH   9  11
ATOM     11  O   UNL     1      13.959 -20.284  14.453  1.00  0.00    -0.508 OA
ATOM     12  H   UNL     1      13.727 -20.947  13.721  1.00  0.00     0.293 HD
ENDBRANCH   9  11
TORSDOF 1
ENDMDL
MODEL 7
REMARK VINA RESULT:    -5.126     11.783     12.418
REMARK INTER + INTRA:          -5.276
REMARK INTER:                  -5.276
REMARK INTRA:                   0.000
REMARK UNBOUND:                 0.000
REMARK SMILES Oc1ccc2[nH]ccc2c1
REMARK SMILES IDX 3 1 4 2 5 3 9 4 8 5 7 6 6 7 10 8 2 9 1 11
REMARK H PARENT 6 10 1 12
REMARK Flexibility Score: inf
ROOT
ATOM      1  C   UNL     1      20.938 -16.122  14.256  1.00  0.00     0.048 A 
ATOM      2  C   UNL     1      20.209 -16.887  15.186  1.00  0.00     0.030 A 
ATOM      3  C   UNL     1      20.219 -16.474  16.517  1.00  0.00     0.046 A 
ATOM      4  C   UNL     1      20.910 -15.362  16.921  1.00  0.00     0.003 A 
ATOM      5  C   UNL     1      20.718 -15.229  18.279  1.00  0.00     0.028 A 
ATOM      6  C   UNL     1      19.900 -16.295  18.636  1.00  0.00     0.083 A 
ATOM      7  N   UNL     1      19.598 -17.052  17.557  1.00  0.00    -0.361 N 
ATOM      8  C   UNL     1      21.641 -14.584  16.026  1.00  0.00     0.056 A 
ATOM      9  C   UNL     1      21.652 -14.973  14.670  1.00  0.00     0.116 A 
ATOM     10  H   UNL     1      19.002 -17.910  17.540  1.00  0.00     0.166 HD
ENDROOT
BRANCH   9  11
ATOM     11  O   UNL     1      22.364 -14.235  13.729  1.00  0.00    -0.508 OA
ATOM     12  H   UNL     1      23.201 -13.721  13.982  1.00  0.00     0.293 HD
ENDBRANCH   9  11
TORSDOF 1
ENDMDL
MODEL 8
REMARK VINA RESULT:    -5.099      2.587      3.649
REMARK INTER + INTRA:          -5.248
REMARK INTER:                  -5.248
REMARK INTRA:                   0.000
REMARK UNBOUND:                 0.000
REMARK SMILES Oc1ccc2[nH]ccc2c1
REMARK SMILES IDX 3 1 4 2 5 3 9 4 8 5 7 6 6 7 10 8 2 9 1 11
REMARK H PARENT 6 10 1 12
REMARK Flexibility Score: inf
ROOT
ATOM      1  C   UNL     1      32.991 -12.747  12.889  1.00  0.00     0.048 A 
ATOM      2  C   UNL     1      32.263 -12.623  14.087  1.00  0.00     0.030 A 
ATOM      3  C   UNL     1      31.558 -11.440  14.299  1.00  0.00     0.046 A 
ATOM      4  C   UNL     1      31.563 -10.423  13.381  1.00  0.00     0.003 A 
ATOM      5  C   UNL     1      30.779  -9.409  13.885  1.00  0.00     0.028 A 
ATOM      6  C   UNL     1      30.328  -9.876  15.115  1.00  0.00     0.083 A 
ATOM      7  N   UNL     1      30.806 -11.116  15.363  1.00  0.00    -0.361 N 
ATOM      8  C   UNL     1      32.273 -10.515  12.186  1.00  0.00     0.056 A 
ATOM      9  C   UNL     1      32.998 -11.700  11.938  1.00  0.00     0.116 A 
ATOM     10  H   UNL     1      30.625 -11.700  16.211  1.00  0.00     0.166 HD
ENDROOT
BRANCH   9  11
ATOM     11  O   UNL     1      33.727 -11.850  10.761  1.00  0.00    -0.508 OA
ATOM     12  H   UNL     1      33.280 -11.795   9.852  1.00  0.00     0.293 HD
ENDBRANCH   9  11
TORSDOF 1
ENDMDL
MODEL 9
REMARK VINA RESULT:    -5.097      2.855      4.222
REMARK INTER + INTRA:          -5.246
REMARK INTER:                  -5.246
REMARK INTRA:                   0.000
REMARK UNBOUND:                 0.000
REMARK SMILES Oc1ccc2[nH]ccc2c1
REMARK SMILES IDX 3 1 4 2 5 3 9 4 8 5 7 6 6 7 10 8 2 9 1 11
REMARK H PARENT 6 10 1 12
REMARK Flexibility Score: inf
ROOT
ATOM      1  C   UNL     1      32.919 -13.309  10.837  1.00  0.00     0.048 A 
ATOM      2  C   UNL     1      32.596 -11.942  10.748  1.00  0.00     0.030 A 
ATOM      3  C   UNL     1      32.256 -11.277  11.925  1.00  0.00     0.046 A 
ATOM      4  C   UNL     1      32.233 -11.919  13.135  1.00  0.00     0.003 A 
ATOM      5  C   UNL     1      31.864 -10.994  14.085  1.00  0.00     0.028 A 
ATOM      6  C   UNL     1      31.677  -9.807  13.384  1.00  0.00     0.083 A 
ATOM      7  N   UNL     1      31.917  -9.986  12.065  1.00  0.00    -0.361 N 
ATOM      8  C   UNL     1      32.547 -13.271  13.256  1.00  0.00     0.056 A 
ATOM      9  C   UNL     1      32.897 -13.975  12.084  1.00  0.00     0.116 A 
ATOM     10  H   UNL     1      31.852  -9.263  11.313  1.00  0.00     0.166 HD
ENDROOT
BRANCH   9  11
ATOM     11  O   UNL     1      33.221 -15.328  12.143  1.00  0.00    -0.508 OA
ATOM     12  H   UNL     1      32.569 -16.012  12.510  1.00  0.00     0.293 HD
ENDBRANCH   9  11
TORSDOF 1
ENDMDL
