MODEL 1
REMARK VINA RESULT:    -3.361      0.000      0.000
REMARK INTER + INTRA:          -8.747
REMARK INTER:                  -6.308
REMARK INTRA:                  -2.439
REMARK UNBOUND:                -2.439
REMARK SMILES O=C([O-])CCCCCCCCCCCCCCC(=O)[O-]
REMARK SMILES IDX 10 1 9 2 8 3 7 4 6 5 5 6 4 7 2 8 1 9 3 10 11 11 12 12 13 13
REMARK SMILES IDX 14 14 15 15 16 16 17 17 18 18 19 19 20 20
REMARK H PARENT
REMARK Flexibility Score: inf
ROOT
ATOM      1  C   UNL     1       5.360   9.569   9.083  1.00  0.00     0.000 C 
ENDROOT
BRANCH   1   2
ATOM      2  C   UNL     1       5.426  10.342   7.755  1.00  0.00     0.000 C 
BRANCH   2   3
ATOM      3  C   UNL     1       4.260  11.331   7.587  1.00  0.00     0.000 C 
BRANCH   3   4
ATOM      4  C   UNL     1       4.644  12.766   7.978  1.00  0.00     0.000 C 
BRANCH   4   5
ATOM      5  C   UNL     1       6.105  13.102   7.628  1.00  0.00     0.000 C 
BRANCH   5   6
ATOM      6  C   UNL     1       6.858  13.752   8.799  1.00  0.00     0.006 C 
BRANCH   6   7
ATOM      7  C   UNL     1       6.577  13.061  10.139  1.00  0.00     0.053 C 
BRANCH   7   8
ATOM      8  C   UNL     1       7.571  13.496  11.169  1.00  0.00     0.041 C 
ATOM      9  O   UNL     1       7.287  14.424  11.971  1.00  0.00    -0.550 OA
ATOM     10  O   UNL     1       8.830  12.912  11.210  1.00  0.00    -0.550 OA
ENDBRANCH   7   8
ENDBRANCH   6   7
ENDBRANCH   5   6
ENDBRANCH   4   5
ENDBRANCH   3   4
ENDBRANCH   2   3
ENDBRANCH   1   2
BRANCH   1  11
ATOM     11  C   UNL     1       6.594   8.683   9.311  1.00  0.00     0.000 C 
BRANCH  11  12
ATOM     12  C   UNL     1       7.731   9.482   9.959  1.00  0.00     0.000 C 
BRANCH  12  13
ATOM     13  C   UNL     1       8.950   9.558   9.027  1.00  0.00     0.000 C 
BRANCH  13  14
ATOM     14  C   UNL     1       9.140  10.956   8.417  1.00  0.00     0.000 C 
BRANCH  14  15
ATOM     15  C   UNL     1       9.159  10.934   6.879  1.00  0.00     0.000 C 
BRANCH  15  16
ATOM     16  C   UNL     1       8.674   9.597   6.289  1.00  0.00     0.006 C 
BRANCH  16  17
ATOM     17  C   UNL     1       9.550   9.068   5.141  1.00  0.00     0.053 C 
BRANCH  17  18
ATOM     18  C   UNL     1      10.948   8.756   5.581  1.00  0.00     0.041 C 
ATOM     19  O   UNL     1      11.147   8.034   6.594  1.00  0.00    -0.550 OA
ATOM     20  O   UNL     1      12.032   9.235   4.855  1.00  0.00    -0.550 OA
ENDBRANCH  17  18
ENDBRANCH  16  17
ENDBRANCH  15  16
ENDBRANCH  14  15
ENDBRANCH  13  14
ENDBRANCH  12  13
ENDBRANCH  11  12
ENDBRANCH   1  11
TORSDOF 15
ENDMDL
MODEL 2
REMARK VINA RESULT:    -3.161      1.248      2.252
REMARK INTER + INTRA:          -8.372
REMARK INTER:                  -6.194
REMARK INTRA:                  -2.178
REMARK UNBOUND:                -2.439
REMARK SMILES O=C([O-])CCCCCCCCCCCCCCC(=O)[O-]
REMARK SMILES IDX 10 1 9 2 8 3 7 4 6 5 5 6 4 7 2 8 1 9 3 10 11 11 12 12 13 13
REMARK SMILES IDX 14 14 15 15 16 16 17 17 18 18 19 19 20 20
REMARK H PARENT
REMARK Flexibility Score: inf
ROOT
ATOM      1  C   UNL     1       4.503  11.294   7.562  1.00  0.00     0.000 C 
ENDROOT
BRANCH   1   2
ATOM      2  C   UNL     1       4.793  12.722   8.054  1.00  0.00     0.000 C 
BRANCH   2   3
ATOM      3  C   UNL     1       6.182  13.225   7.627  1.00  0.00     0.000 C 
BRANCH   3   4
ATOM      4  C   UNL     1       7.103  13.500   8.826  1.00  0.00     0.000 C 
BRANCH   4   5
ATOM      5  C   UNL     1       6.397  13.275  10.175  1.00  0.00     0.000 C 
BRANCH   5   6
ATOM      6  C   UNL     1       6.943  12.052  10.930  1.00  0.00     0.006 C 
BRANCH   6   7
ATOM      7  C   UNL     1       8.437  11.818  10.674  1.00  0.00     0.053 C 
BRANCH   7   8
ATOM      8  C   UNL     1       9.247  12.306  11.833  1.00  0.00     0.041 C 
ATOM      9  O   UNL     1       8.685  12.590  12.923  1.00  0.00    -0.550 OA
ATOM     10  O   UNL     1      10.616  12.495  11.694  1.00  0.00    -0.550 OA
ENDBRANCH   7   8
ENDBRANCH   6   7
ENDBRANCH   5   6
ENDBRANCH   4   5
ENDBRANCH   3   4
ENDBRANCH   2   3
ENDBRANCH   1   2
BRANCH   1  11
ATOM     11  C   UNL     1       4.410  10.281   8.714  1.00  0.00     0.000 C 
BRANCH  11  12
ATOM     12  C   UNL     1       5.656   9.390   8.762  1.00  0.00     0.000 C 
BRANCH  12  13
ATOM     13  C   UNL     1       5.907   8.722   7.401  1.00  0.00     0.000 C 
BRANCH  13  14
ATOM     14  C   UNL     1       7.346   8.927   6.899  1.00  0.00     0.000 C 
BRANCH  14  15
ATOM     15  C   UNL     1       7.970  10.236   7.412  1.00  0.00     0.000 C 
BRANCH  15  16
ATOM     16  C   UNL     1       9.468  10.360   7.079  1.00  0.00     0.006 C 
BRANCH  16  17
ATOM     17  C   UNL     1       9.832   9.891   5.660  1.00  0.00     0.053 C 
BRANCH  17  18
ATOM     18  C   UNL     1      11.010   8.965   5.644  1.00  0.00     0.041 C 
ATOM     19  O   UNL     1      11.045   7.973   6.418  1.00  0.00    -0.550 OA
ATOM     20  O   UNL     1      12.055   9.179   4.754  1.00  0.00    -0.550 OA
ENDBRANCH  17  18
ENDBRANCH  16  17
ENDBRANCH  15  16
ENDBRANCH  14  15
ENDBRANCH  13  14
ENDBRANCH  12  13
ENDBRANCH  11  12
ENDBRANCH   1  11
TORSDOF 15
ENDMDL
MODEL 3
REMARK VINA RESULT:    -3.034      2.840      5.602
REMARK INTER + INTRA:          -8.134
REMARK INTER:                  -6.218
REMARK INTRA:                  -1.915
REMARK UNBOUND:                -2.439
REMARK SMILES O=C([O-])CCCCCCCCCCCCCCC(=O)[O-]
REMARK SMILES IDX 10 1 9 2 8 3 7 4 6 5 5 6 4 7 2 8 1 9 3 10 11 11 12 12 13 13
REMARK SMILES IDX 14 14 15 15 16 16 17 17 18 18 19 19 20 20
REMARK H PARENT
REMARK Flexibility Score: inf
ROOT
ATOM      1  C   UNL     1       6.534   7.708   6.794  1.00  0.00     0.000 C 
ENDROOT
BRANCH   1   2
ATOM      2  C   UNL     1       7.886   8.274   6.328  1.00  0.00     0.000 C 
BRANCH   2   3
ATOM      3  C   UNL     1       8.652   8.981   7.459  1.00  0.00     0.000 C 
BRANCH   3   4
ATOM      4  C   UNL     1       9.176  10.364   7.039  1.00  0.00     0.000 C 
BRANCH   4   5
ATOM      5  C   UNL     1       8.959  11.431   8.126  1.00  0.00     0.000 C 
BRANCH   5   6
ATOM      6  C   UNL     1       8.551  10.823   9.478  1.00  0.00     0.006 C 
BRANCH   6   7
ATOM      7  C   UNL     1       8.458  11.871  10.594  1.00  0.00     0.053 C 
BRANCH   7   8
ATOM      8  C   UNL     1       9.615  11.739  11.532  1.00  0.00     0.041 C 
ATOM      9  O   UNL     1      10.277  12.756  11.868  1.00  0.00    -0.550 OA
ATOM     10  O   UNL     1       9.995  10.486  11.995  1.00  0.00    -0.550 OA
ENDBRANCH   7   8
ENDBRANCH   6   7
ENDBRANCH   5   6
ENDBRANCH   4   5
ENDBRANCH   3   4
ENDBRANCH   2   3
ENDBRANCH   1   2
BRANCH   1  11
ATOM     11  C   UNL     1       5.860   8.587   7.858  1.00  0.00     0.000 C 
BRANCH  11  12
ATOM     12  C   UNL     1       4.406   8.890   7.479  1.00  0.00     0.000 C 
BRANCH  12  13
ATOM     13  C   UNL     1       4.096  10.387   7.642  1.00  0.00     0.000 C 
BRANCH  13  14
ATOM     14  C   UNL     1       5.360  11.261   7.587  1.00  0.00     0.000 C 
BRANCH  14  15
ATOM     15  C   UNL     1       5.238  12.533   8.443  1.00  0.00     0.000 C 
BRANCH  15  16
ATOM     16  C   UNL     1       5.638  13.811   7.683  1.00  0.00     0.006 C 
BRANCH  16  17
ATOM     17  C   UNL     1       4.586  14.932   7.752  1.00  0.00     0.053 C 
BRANCH  17  18
ATOM     18  C   UNL     1       3.600  14.865   6.626  1.00  0.00     0.041 C 
ATOM     19  O   UNL     1       3.755  15.587   5.606  1.00  0.00    -0.550 OA
ATOM     20  O   UNL     1       2.528  13.983   6.687  1.00  0.00    -0.550 OA
ENDBRANCH  17  18
ENDBRANCH  16  17
ENDBRANCH  15  16
ENDBRANCH  14  15
ENDBRANCH  13  14
ENDBRANCH  12  13
ENDBRANCH  11  12
ENDBRANCH   1  11
TORSDOF 15
ENDMDL
MODEL 4
REMARK VINA RESULT:    -3.007      1.683      2.409
REMARK INTER + INTRA:          -8.084
REMARK INTER:                  -6.380
REMARK INTRA:                  -1.704
REMARK UNBOUND:                -2.439
REMARK SMILES O=C([O-])CCCCCCCCCCCCCCC(=O)[O-]
REMARK SMILES IDX 10 1 9 2 8 3 7 4 6 5 5 6 4 7 2 8 1 9 3 10 11 11 12 12 13 13
REMARK SMILES IDX 14 14 15 15 16 16 17 17 18 18 19 19 20 20
REMARK H PARENT
REMARK Flexibility Score: inf
ROOT
ATOM      1  C   UNL     1       3.877   9.637   8.019  1.00  0.00     0.000 C 
ENDROOT
BRANCH   1   2
ATOM      2  C   UNL     1       2.872  10.693   7.529  1.00  0.00     0.000 C 
BRANCH   2   3
ATOM      3  C   UNL     1       3.429  12.124   7.611  1.00  0.00     0.000 C 
BRANCH   3   4
ATOM      4  C   UNL     1       4.952  12.152   7.817  1.00  0.00     0.000 C 
BRANCH   4   5
ATOM      5  C   UNL     1       5.543  13.564   7.658  1.00  0.00     0.000 C 
BRANCH   5   6
ATOM      6  C   UNL     1       7.078  13.571   7.713  1.00  0.00     0.006 C 
BRANCH   6   7
ATOM      7  C   UNL     1       7.674  12.159   7.775  1.00  0.00     0.053 C 
BRANCH   7   8
ATOM      8  C   UNL     1       8.342  11.932   9.095  1.00  0.00     0.041 C 
ATOM      9  O   UNL     1       9.477  11.390   9.144  1.00  0.00    -0.550 OA
ATOM     10  O   UNL     1       7.689  12.273  10.272  1.00  0.00    -0.550 OA
ENDBRANCH   7   8
ENDBRANCH   6   7
ENDBRANCH   5   6
ENDBRANCH   4   5
ENDBRANCH   3   4
ENDBRANCH   2   3
ENDBRANCH   1   2
BRANCH   1  11
ATOM     11  C   UNL     1       3.884   8.377   7.140  1.00  0.00     0.000 C 
BRANCH  11  12
ATOM     12  C   UNL     1       5.308   7.836   6.969  1.00  0.00     0.000 C 
BRANCH  12  13
ATOM     13  C   UNL     1       6.318   8.689   7.754  1.00  0.00     0.000 C 
BRANCH  13  14
ATOM     14  C   UNL     1       7.761   8.502   7.256  1.00  0.00     0.000 C 
BRANCH  14  15
ATOM     15  C   UNL     1       7.826   8.034   5.792  1.00  0.00     0.000 C 
BRANCH  15  16
ATOM     16  C   UNL     1       8.757   8.900   4.924  1.00  0.00     0.006 C 
BRANCH  16  17
ATOM     17  C   UNL     1       9.887   9.584   5.712  1.00  0.00     0.053 C 
BRANCH  17  18
ATOM     18  C   UNL     1      11.171   8.815   5.661  1.00  0.00     0.041 C 
ATOM     19  O   UNL     1      11.347   7.826   6.422  1.00  0.00    -0.550 OA
ATOM     20  O   UNL     1      12.162   9.168   4.754  1.00  0.00    -0.550 OA
ENDBRANCH  17  18
ENDBRANCH  16  17
ENDBRANCH  15  16
ENDBRANCH  14  15
ENDBRANCH  13  14
ENDBRANCH  12  13
ENDBRANCH  11  12
ENDBRANCH   1  11
TORSDOF 15
ENDMDL
MODEL 5
REMARK VINA RESULT:    -2.990      1.651      2.526
REMARK INTER + INTRA:          -8.052
REMARK INTER:                  -5.591
REMARK INTRA:                  -2.460
REMARK UNBOUND:                -2.439
REMARK SMILES O=C([O-])CCCCCCCCCCCCCCC(=O)[O-]
REMARK SMILES IDX 10 1 9 2 8 3 7 4 6 5 5 6 4 7 2 8 1 9 3 10 11 11 12 12 13 13
REMARK SMILES IDX 14 14 15 15 16 16 17 17 18 18 19 19 20 20
REMARK H PARENT
REMARK Flexibility Score: inf
ROOT
ATOM      1  C   UNL     1       6.928   8.156   9.619  1.00  0.00     0.000 C 
ENDROOT
BRANCH   1   2
ATOM      2  C   UNL     1       6.827   7.907   8.106  1.00  0.00     0.000 C 
BRANCH   2   3
ATOM      3  C   UNL     1       6.082   9.032   7.368  1.00  0.00     0.000 C 
BRANCH   3   4
ATOM      4  C   UNL     1       4.668   9.264   7.923  1.00  0.00     0.000 C 
BRANCH   4   5
ATOM      5  C   UNL     1       4.441  10.719   8.371  1.00  0.00     0.000 C 
BRANCH   5   6
ATOM      6  C   UNL     1       5.358  11.712   7.638  1.00  0.00     0.006 C 
BRANCH   6   7
ATOM      7  C   UNL     1       4.946  13.172   7.863  1.00  0.00     0.053 C 
BRANCH   7   8
ATOM      8  C   UNL     1       6.150  14.017   8.136  1.00  0.00     0.041 C 
ATOM      9  O   UNL     1       7.197  13.867   7.453  1.00  0.00    -0.550 OA
ATOM     10  O   UNL     1       6.134  14.935   9.178  1.00  0.00    -0.550 OA
ENDBRANCH   7   8
ENDBRANCH   6   7
ENDBRANCH   5   6
ENDBRANCH   4   5
ENDBRANCH   3   4
ENDBRANCH   2   3
ENDBRANCH   1   2
BRANCH   1  11
ATOM     11  C   UNL     1       8.248   8.835  10.019  1.00  0.00     0.000 C 
BRANCH  11  12
ATOM     12  C   UNL     1       8.007  10.281  10.469  1.00  0.00     0.000 C 
BRANCH  12  13
ATOM     13  C   UNL     1       8.455  11.276   9.387  1.00  0.00     0.000 C 
BRANCH  13  14
ATOM     14  C   UNL     1       9.425  10.647   8.373  1.00  0.00     0.000 C 
BRANCH  14  15
ATOM     15  C   UNL     1       9.108  11.049   6.923  1.00  0.00     0.000 C 
BRANCH  15  16
ATOM     16  C   UNL     1       9.369   9.917   5.913  1.00  0.00     0.006 C 
BRANCH  16  17
ATOM     17  C   UNL     1      10.299   8.811   6.442  1.00  0.00     0.053 C 
BRANCH  17  18
ATOM     18  C   UNL     1      11.313   8.378   5.427  1.00  0.00     0.041 C 
ATOM     19  O   UNL     1      12.056   9.230   4.871  1.00  0.00    -0.550 OA
ATOM     20  O   UNL     1      11.460   7.032   5.117  1.00  0.00    -0.550 OA
ENDBRANCH  17  18
ENDBRANCH  16  17
ENDBRANCH  15  16
ENDBRANCH  14  15
ENDBRANCH  13  14
ENDBRANCH  12  13
ENDBRANCH  11  12
ENDBRANCH   1  11
TORSDOF 15
ENDMDL
MODEL 6
REMARK VINA RESULT:    -2.987      1.731      6.421
REMARK INTER + INTRA:          -8.045
REMARK INTER:                  -5.957
REMARK INTRA:                  -2.088
REMARK UNBOUND:                -2.439
REMARK SMILES O=C([O-])CCCCCCCCCCCCCCC(=O)[O-]
REMARK SMILES IDX 10 1 9 2 8 3 7 4 6 5 5 6 4 7 2 8 1 9 3 10 11 11 12 12 13 13
REMARK SMILES IDX 14 14 15 15 16 16 17 17 18 18 19 19 20 20
REMARK H PARENT
REMARK Flexibility Score: inf
ROOT
ATOM      1  C   UNL     1       4.735  11.330   7.562  1.00  0.00     0.000 C 
ENDROOT
BRANCH   1   2
ATOM      2  C   UNL     1       5.615  10.344   8.349  1.00  0.00     0.000 C 
BRANCH   2   3
ATOM      3  C   UNL     1       6.778   9.789   7.510  1.00  0.00     0.000 C 
BRANCH   3   4
ATOM      4  C   UNL     1       7.935  10.791   7.373  1.00  0.00     0.000 C 
BRANCH   4   5
ATOM      5  C   UNL     1       9.242  10.272   7.999  1.00  0.00     0.000 C 
BRANCH   5   6
ATOM      6  C   UNL     1       9.349   8.740   7.957  1.00  0.00     0.006 C 
BRANCH   6   7
ATOM      7  C   UNL     1      10.558   8.254   7.148  1.00  0.00     0.053 C 
BRANCH   7   8
ATOM      8  C   UNL     1      10.455   8.715   5.728  1.00  0.00     0.041 C 
ATOM      9  O   UNL     1       9.452   8.407   5.034  1.00  0.00    -0.550 OA
ATOM     10  O   UNL     1      11.490   9.444   5.157  1.00  0.00    -0.550 OA
ENDBRANCH   7   8
ENDBRANCH   6   7
ENDBRANCH   5   6
ENDBRANCH   4   5
ENDBRANCH   3   4
ENDBRANCH   2   3
ENDBRANCH   1   2
BRANCH   1  11
ATOM     11  C   UNL     1       4.679  12.720   8.214  1.00  0.00     0.000 C 
BRANCH  11  12
ATOM     12  C   UNL     1       5.619  13.698   7.501  1.00  0.00     0.000 C 
BRANCH  12  13
ATOM     13  C   UNL     1       6.852  14.005   8.366  1.00  0.00     0.000 C 
BRANCH  13  14
ATOM     14  C   UNL     1       6.628  13.672   9.850  1.00  0.00     0.000 C 
BRANCH  14  15
ATOM     15  C   UNL     1       7.752  12.801  10.438  1.00  0.00     0.000 C 
BRANCH  15  16
ATOM     16  C   UNL     1       7.226  11.603  11.247  1.00  0.00     0.006 C 
BRANCH  16  17
ATOM     17  C   UNL     1       6.641  11.984  12.617  1.00  0.00     0.053 C 
BRANCH  17  18
ATOM     18  C   UNL     1       7.615  11.779  13.737  1.00  0.00     0.041 C 
ATOM     19  O   UNL     1       8.075  10.630  13.972  1.00  0.00    -0.550 OA
ATOM     20  O   UNL     1       8.039  12.859  14.501  1.00  0.00    -0.550 OA
ENDBRANCH  17  18
ENDBRANCH  16  17
ENDBRANCH  15  16
ENDBRANCH  14  15
ENDBRANCH  13  14
ENDBRANCH  12  13
ENDBRANCH  11  12
ENDBRANCH   1  11
TORSDOF 15
ENDMDL
MODEL 7
REMARK VINA RESULT:    -2.961      1.746      6.517
REMARK INTER + INTRA:          -7.997
REMARK INTER:                  -5.853
REMARK INTRA:                  -2.145
REMARK UNBOUND:                -2.439
REMARK SMILES O=C([O-])CCCCCCCCCCCCCCC(=O)[O-]
REMARK SMILES IDX 10 1 9 2 8 3 7 4 6 5 5 6 4 7 2 8 1 9 3 10 11 11 12 12 13 13
REMARK SMILES IDX 14 14 15 15 16 16 17 17 18 18 19 19 20 20
REMARK H PARENT
REMARK Flexibility Score: inf
ROOT
ATOM      1  C   UNL     1       8.006  12.338   7.751  1.00  0.00     0.000 C 
ENDROOT
BRANCH   1   2
ATOM      2  C   UNL     1       6.982  11.205   7.934  1.00  0.00     0.000 C 
BRANCH   2   3
ATOM      3  C   UNL     1       7.496  10.085   8.854  1.00  0.00     0.000 C 
BRANCH   3   4
ATOM      4  C   UNL     1       9.025   9.938   8.804  1.00  0.00     0.000 C 
BRANCH   4   5
ATOM      5  C   UNL     1       9.471   8.652   8.088  1.00  0.00     0.000 C 
BRANCH   5   6
ATOM      6  C   UNL     1      10.209   8.936   6.770  1.00  0.00     0.006 C 
BRANCH   6   7
ATOM      7  C   UNL     1       9.260   9.351   5.639  1.00  0.00     0.053 C 
BRANCH   7   8
ATOM      8  C   UNL     1       9.442   8.460   4.451  1.00  0.00     0.041 C 
ATOM      9  O   UNL     1       8.640   8.523   3.483  1.00  0.00    -0.550 OA
ATOM     10  O   UNL     1      10.469   7.525   4.434  1.00  0.00    -0.550 OA
ENDBRANCH   7   8
ENDBRANCH   6   7
ENDBRANCH   5   6
ENDBRANCH   4   5
ENDBRANCH   3   4
ENDBRANCH   2   3
ENDBRANCH   1   2
BRANCH   1  11
ATOM     11  C   UNL     1       7.344  13.721   7.651  1.00  0.00     0.000 C 
BRANCH  11  12
ATOM     12  C   UNL     1       5.820  13.594   7.546  1.00  0.00     0.000 C 
BRANCH  12  13
ATOM     13  C   UNL     1       5.121  14.505   8.566  1.00  0.00     0.000 C 
BRANCH  13  14
ATOM     14  C   UNL     1       6.011  14.825   9.779  1.00  0.00     0.000 C 
BRANCH  14  15
ATOM     15  C   UNL     1       5.671  13.961  11.006  1.00  0.00     0.000 C 
BRANCH  15  16
ATOM     16  C   UNL     1       6.680  12.822  11.240  1.00  0.00     0.006 C 
BRANCH  16  17
ATOM     17  C   UNL     1       8.124  13.304  11.465  1.00  0.00     0.053 C 
BRANCH  17  18
ATOM     18  C   UNL     1       9.057  12.184  11.808  1.00  0.00     0.041 C 
ATOM     19  O   UNL     1       8.671  11.243  12.550  1.00  0.00    -0.550 OA
ATOM     20  O   UNL     1      10.344  12.161  11.282  1.00  0.00    -0.550 OA
ENDBRANCH  17  18
ENDBRANCH  16  17
ENDBRANCH  15  16
ENDBRANCH  14  15
ENDBRANCH  13  14
ENDBRANCH  12  13
ENDBRANCH  11  12
ENDBRANCH   1  11
TORSDOF 15
ENDMDL
MODEL 8
REMARK VINA RESULT:    -2.954      1.839      6.177
REMARK INTER + INTRA:          -7.984
REMARK INTER:                  -5.803
REMARK INTRA:                  -2.181
REMARK UNBOUND:                -2.439
REMARK SMILES O=C([O-])CCCCCCCCCCCCCCC(=O)[O-]
REMARK SMILES IDX 10 1 9 2 8 3 7 4 6 5 5 6 4 7 2 8 1 9 3 10 11 11 12 12 13 13
REMARK SMILES IDX 14 14 15 15 16 16 17 17 18 18 19 19 20 20
REMARK H PARENT
REMARK Flexibility Score: inf
ROOT
ATOM      1  C   UNL     1       8.247  10.025   7.830  1.00  0.00     0.000 C 
ENDROOT
BRANCH   1   2
ATOM      2  C   UNL     1       9.134  10.139   6.579  1.00  0.00     0.000 C 
BRANCH   2   3
ATOM      3  C   UNL     1       8.812   9.066   5.525  1.00  0.00     0.000 C 
BRANCH   3   4
ATOM      4  C   UNL     1      10.073   8.514   4.842  1.00  0.00     0.000 C 
BRANCH   4   5
ATOM      5  C   UNL     1      11.257   8.373   5.815  1.00  0.00     0.000 C 
BRANCH   5   6
ATOM      6  C   UNL     1      11.251   7.028   6.559  1.00  0.00     0.006 C 
BRANCH   6   7
ATOM      7  C   UNL     1      10.881   7.173   8.040  1.00  0.00     0.053 C 
BRANCH   7   8
ATOM      8  C   UNL     1       9.505   6.641   8.288  1.00  0.00     0.041 C 
ATOM      9  O   UNL     1       8.920   5.963   7.403  1.00  0.00    -0.550 OA
ATOM     10  O   UNL     1       8.850   6.934   9.476  1.00  0.00    -0.550 OA
ENDBRANCH   7   8
ENDBRANCH   6   7
ENDBRANCH   5   6
ENDBRANCH   4   5
ENDBRANCH   3   4
ENDBRANCH   2   3
ENDBRANCH   1   2
BRANCH   1  11
ATOM     11  C   UNL     1       6.877   9.398   7.527  1.00  0.00     0.000 C 
BRANCH  11  12
ATOM     12  C   UNL     1       5.780  10.038   8.385  1.00  0.00     0.000 C 
BRANCH  12  13
ATOM     13  C   UNL     1       4.967  11.055   7.568  1.00  0.00     0.000 C 
BRANCH  13  14
ATOM     14  C   UNL     1       5.053  12.478   8.146  1.00  0.00     0.000 C 
BRANCH  14  15
ATOM     15  C   UNL     1       6.203  13.296   7.535  1.00  0.00     0.000 C 
BRANCH  15  16
ATOM     16  C   UNL     1       7.451  13.347   8.434  1.00  0.00     0.006 C 
BRANCH  16  17
ATOM     17  C   UNL     1       7.136  13.334   9.940  1.00  0.00     0.053 C 
BRANCH  17  18
ATOM     18  C   UNL     1       7.911  12.288  10.681  1.00  0.00     0.041 C 
ATOM     19  O   UNL     1       7.309  11.342  11.254  1.00  0.00    -0.550 OA
ATOM     20  O   UNL     1       9.299  12.338  10.713  1.00  0.00    -0.550 OA
ENDBRANCH  17  18
ENDBRANCH  16  17
ENDBRANCH  15  16
ENDBRANCH  14  15
ENDBRANCH  13  14
ENDBRANCH  12  13
ENDBRANCH  11  12
ENDBRANCH   1  11
TORSDOF 15
ENDMDL
MODEL 9
REMARK VINA RESULT:    -2.913      1.640      2.172
REMARK INTER + INTRA:          -7.906
REMARK INTER:                  -5.653
REMARK INTRA:                  -2.253
REMARK UNBOUND:                -2.439
REMARK SMILES O=C([O-])CCCCCCCCCCCCCCC(=O)[O-]
REMARK SMILES IDX 10 1 9 2 8 3 7 4 6 5 5 6 4 7 2 8 1 9 3 10 11 11 12 12 13 13
REMARK SMILES IDX 14 14 15 15 16 16 17 17 18 18 19 19 20 20
REMARK H PARENT
REMARK Flexibility Score: inf
ROOT
ATOM      1  C   UNL     1       5.588  10.036   8.390  1.00  0.00     0.000 C 
ENDROOT
BRANCH   1   2
ATOM      2  C   UNL     1       5.079  11.306   7.689  1.00  0.00     0.000 C 
BRANCH   2   3
ATOM      3  C   UNL     1       6.053  12.489   7.827  1.00  0.00     0.000 C 
BRANCH   3   4
ATOM      4  C   UNL     1       5.741  13.369   9.047  1.00  0.00     0.000 C 
BRANCH   4   5
ATOM      5  C   UNL     1       6.967  13.576   9.954  1.00  0.00     0.000 C 
BRANCH   5   6
ATOM      6  C   UNL     1       7.978  12.422   9.852  1.00  0.00     0.006 C 
BRANCH   6   7
ATOM      7  C   UNL     1       8.047  11.582  11.133  1.00  0.00     0.053 C 
BRANCH   7   8
ATOM      8  C   UNL     1       9.471  11.314  11.504  1.00  0.00     0.041 C 
ATOM      9  O   UNL     1       9.839  10.146  11.799  1.00  0.00    -0.550 OA
ATOM     10  O   UNL     1      10.381  12.360  11.574  1.00  0.00    -0.550 OA
ENDBRANCH   7   8
ENDBRANCH   6   7
ENDBRANCH   5   6
ENDBRANCH   4   5
ENDBRANCH   3   4
ENDBRANCH   2   3
ENDBRANCH   1   2
BRANCH   1  11
ATOM     11  C   UNL     1       5.724   8.846   7.428  1.00  0.00     0.000 C 
BRANCH  11  12
ATOM     12  C   UNL     1       7.072   8.140   7.616  1.00  0.00     0.000 C 
BRANCH  12  13
ATOM     13  C   UNL     1       7.915   8.843   8.691  1.00  0.00     0.000 C 
BRANCH  13  14
ATOM     14  C   UNL     1       9.271   9.330   8.152  1.00  0.00     0.000 C 
BRANCH  14  15
ATOM     15  C   UNL     1       9.124  10.429   7.085  1.00  0.00     0.000 C 
BRANCH  15  16
ATOM     16  C   UNL     1       9.538   9.963   5.678  1.00  0.00     0.006 C 
BRANCH  16  17
ATOM     17  C   UNL     1      10.664   8.915   5.675  1.00  0.00     0.053 C 
BRANCH  17  18
ATOM     18  C   UNL     1      10.281   7.662   4.949  1.00  0.00     0.041 C 
ATOM     19  O   UNL     1       9.699   6.728   5.562  1.00  0.00    -0.550 OA
ATOM     20  O   UNL     1      10.538   7.535   3.589  1.00  0.00    -0.550 OA
ENDBRANCH  17  18
ENDBRANCH  16  17
ENDBRANCH  15  16
ENDBRANCH  14  15
ENDBRANCH  13  14
ENDBRANCH  12  13
ENDBRANCH  11  12
ENDBRANCH   1  11
TORSDOF 15
ENDMDL
