MODEL 1
REMARK VINA RESULT:    24.212      0.000      0.000
REMARK INTER + INTRA:          51.609
REMARK INTER:                  52.520
REMARK INTRA:                  -0.911
REMARK UNBOUND:                -0.911
REMARK SMILES CCCCCCCCCCCCCCCCCCCCCC(=O)[O-]
REMARK SMILES IDX 12 1 11 2 10 3 9 4 8 5 7 6 6 7 5 8 4 9 3 10 2 11 1 12 13 13
REMARK SMILES IDX 14 14 15 15 16 16 17 17 18 18 19 19 20 20 21 21 22 22 23 23
REMARK SMILES IDX 24 24
REMARK H PARENT
REMARK Flexibility Score: inf
ROOT
ATOM      1  C   UNL     1      11.364   5.014   7.103  1.00  0.00     0.000 C 
ENDROOT
BRANCH   1   2
ATOM      2  C   UNL     1      11.824   6.241   7.911  1.00  0.00     0.000 C 
BRANCH   2   3
ATOM      3  C   UNL     1      13.319   6.553   7.724  1.00  0.00     0.000 C 
BRANCH   3   4
ATOM      4  C   UNL     1      14.226   5.337   7.988  1.00  0.00    -0.000 C 
BRANCH   4   5
ATOM      5  C   UNL     1      15.407   5.168   7.013  1.00  0.00    -0.000 C 
BRANCH   5   6
ATOM      6  C   UNL     1      16.646   5.983   7.423  1.00  0.00    -0.000 C 
BRANCH   6   7
ATOM      7  C   UNL     1      16.302   7.135   8.380  1.00  0.00    -0.000 C 
BRANCH   7   8
ATOM      8  C   UNL     1      16.729   6.848   9.831  1.00  0.00    -0.000 C 
BRANCH   8   9
ATOM      9  C   UNL     1      17.137   8.122  10.592  1.00  0.00    -0.000 C 
BRANCH   9  10
ATOM     10  C   UNL     1      16.867   9.443   9.845  1.00  0.00    -0.000 C 
BRANCH  10  11
ATOM     11  C   UNL     1      18.125  10.190   9.369  1.00  0.00    -0.003 C 
ATOM     12  C   UNL     1      17.825  11.245   8.305  1.00  0.00     0.004 C 
ENDBRANCH  10  11
ENDBRANCH   9  10
ENDBRANCH   8   9
ENDBRANCH   7   8
ENDBRANCH   6   7
ENDBRANCH   5   6
ENDBRANCH   4   5
ENDBRANCH   3   4
ENDBRANCH   2   3
ENDBRANCH   1   2
BRANCH   1  13
ATOM     13  C   UNL     1      10.210   4.214   7.735  1.00  0.00     0.000 C 
BRANCH  13  14
ATOM     14  C   UNL     1      10.442   3.905   9.225  1.00  0.00     0.000 C 
BRANCH  14  15
ATOM     15  C   UNL     1      10.634   2.405   9.497  1.00  0.00     0.000 C 
BRANCH  15  16
ATOM     16  C   UNL     1      11.272   1.665   8.308  1.00  0.00     0.000 C 
BRANCH  16  17
ATOM     17  C   UNL     1      11.492   0.168   8.598  1.00  0.00     0.000 C 
BRANCH  17  18
ATOM     18  C   UNL     1      12.118  -0.613   7.427  1.00  0.00     0.000 C 
BRANCH  18  19
ATOM     19  C   UNL     1      12.396  -2.083   7.786  1.00  0.00     0.000 C 
BRANCH  19  20
ATOM     20  C   UNL     1      11.665  -2.531   9.062  1.00  0.00     0.006 C 
BRANCH  20  21
ATOM     21  C   UNL     1      10.653  -3.654   8.804  1.00  0.00     0.053 C 
BRANCH  21  22
ATOM     22  C   UNL     1      11.354  -4.899   8.361  1.00  0.00     0.041 C 
ATOM     23  O   UNL     1      12.232  -5.427   9.094  1.00  0.00    -0.550 OA
ATOM     24  O   UNL     1      11.010  -5.502   7.157  1.00  0.00    -0.550 OA
ENDBRANCH  21  22
ENDBRANCH  20  21
ENDBRANCH  19  20
ENDBRANCH  18  19
ENDBRANCH  17  18
ENDBRANCH  16  17
ENDBRANCH  15  16
ENDBRANCH  14  15
ENDBRANCH  13  14
ENDBRANCH   1  13
TORSDOF 20
ENDMDL
MODEL 2
REMARK VINA RESULT:    24.649      4.707      9.991
REMARK INTER + INTRA:          52.557
REMARK INTER:                  53.057
REMARK INTRA:                  -0.500
REMARK UNBOUND:                -0.911
REMARK SMILES CCCCCCCCCCCCCCCCCCCCCC(=O)[O-]
REMARK SMILES IDX 12 1 11 2 10 3 9 4 8 5 7 6 6 7 5 8 4 9 3 10 2 11 1 12 13 13
REMARK SMILES IDX 14 14 15 15 16 16 17 17 18 18 19 19 20 20 21 21 22 22 23 23
REMARK SMILES IDX 24 24
REMARK H PARENT
REMARK Flexibility Score: inf
ROOT
ATOM      1  C   UNL     1      10.679   4.123   8.787  1.00  0.00     0.000 C 
ENDROOT
BRANCH   1   2
ATOM      2  C   UNL     1      10.699   3.215   7.544  1.00  0.00     0.000 C 
BRANCH   2   3
ATOM      3  C   UNL     1      10.293   1.764   7.857  1.00  0.00     0.000 C 
BRANCH   3   4
ATOM      4  C   UNL     1      11.412   0.961   8.547  1.00  0.00    -0.000 C 
BRANCH   4   5
ATOM      5  C   UNL     1      11.407  -0.554   8.269  1.00  0.00    -0.000 C 
BRANCH   5   6
ATOM      6  C   UNL     1      12.732  -1.060   7.672  1.00  0.00    -0.000 C 
BRANCH   6   7
ATOM      7  C   UNL     1      12.773  -2.591   7.548  1.00  0.00    -0.000 C 
BRANCH   7   8
ATOM      8  C   UNL     1      13.474  -3.264   8.742  1.00  0.00    -0.000 C 
BRANCH   8   9
ATOM      9  C   UNL     1      15.007  -3.154   8.669  1.00  0.00    -0.000 C 
BRANCH   9  10
ATOM     10  C   UNL     1      15.771  -3.992   9.714  1.00  0.00    -0.000 C 
BRANCH  10  11
ATOM     11  C   UNL     1      17.157  -4.485   9.264  1.00  0.00    -0.003 C 
ATOM     12  C   UNL     1      17.123  -5.890   8.662  1.00  0.00     0.004 C 
ENDBRANCH  10  11
ENDBRANCH   9  10
ENDBRANCH   8   9
ENDBRANCH   7   8
ENDBRANCH   6   7
ENDBRANCH   5   6
ENDBRANCH   4   5
ENDBRANCH   3   4
ENDBRANCH   2   3
ENDBRANCH   1   2
BRANCH   1  13
ATOM     13  C   UNL     1      10.145   5.548   8.544  1.00  0.00     0.000 C 
BRANCH  13  14
ATOM     14  C   UNL     1      11.237   6.625   8.672  1.00  0.00     0.000 C 
BRANCH  14  15
ATOM     15  C   UNL     1      12.162   6.680   7.446  1.00  0.00     0.000 C 
BRANCH  15  16
ATOM     16  C   UNL     1      13.474   7.433   7.727  1.00  0.00     0.000 C 
BRANCH  16  17
ATOM     17  C   UNL     1      14.574   6.510   8.284  1.00  0.00     0.000 C 
BRANCH  17  18
ATOM     18  C   UNL     1      15.368   5.755   7.201  1.00  0.00     0.000 C 
BRANCH  18  19
ATOM     19  C   UNL     1      16.690   5.180   7.738  1.00  0.00     0.000 C 
BRANCH  19  20
ATOM     20  C   UNL     1      17.773   6.256   7.922  1.00  0.00     0.006 C 
BRANCH  20  21
ATOM     21  C   UNL     1      18.056   6.568   9.397  1.00  0.00     0.053 C 
BRANCH  21  22
ATOM     22  C   UNL     1      17.176   7.679   9.876  1.00  0.00     0.041 C 
ATOM     23  O   UNL     1      16.196   7.433  10.629  1.00  0.00    -0.550 OA
ATOM     24  O   UNL     1      17.460   8.993   9.526  1.00  0.00    -0.550 OA
ENDBRANCH  21  22
ENDBRANCH  20  21
ENDBRANCH  19  20
ENDBRANCH  18  19
ENDBRANCH  17  18
ENDBRANCH  16  17
ENDBRANCH  15  16
ENDBRANCH  14  15
ENDBRANCH  13  14
ENDBRANCH   1  13
TORSDOF 20
ENDMDL
MODEL 3
REMARK VINA RESULT:    24.786      1.210      1.986
REMARK INTER + INTRA:          52.855
REMARK INTER:                  51.463
REMARK INTRA:                   1.392
REMARK UNBOUND:                -0.911
REMARK SMILES CCCCCCCCCCCCCCCCCCCCCC(=O)[O-]
REMARK SMILES IDX 12 1 11 2 10 3 9 4 8 5 7 6 6 7 5 8 4 9 3 10 2 11 1 12 13 13
REMARK SMILES IDX 14 14 15 15 16 16 17 17 18 18 19 19 20 20 21 21 22 22 23 23
REMARK SMILES IDX 24 24
REMARK H PARENT
REMARK Flexibility Score: inf
ROOT
ATOM      1  C   UNL     1      10.775   6.300   9.163  1.00  0.00     0.000 C 
ENDROOT
BRANCH   1   2
ATOM      2  C   UNL     1      11.459   7.142   8.071  1.00  0.00     0.000 C 
BRANCH   2   3
ATOM      3  C   UNL     1      12.702   6.456   7.477  1.00  0.00     0.000 C 
BRANCH   3   4
ATOM      4  C   UNL     1      13.970   6.669   8.325  1.00  0.00    -0.000 C 
BRANCH   4   5
ATOM      5  C   UNL     1      15.299   6.643   7.546  1.00  0.00    -0.000 C 
BRANCH   5   6
ATOM      6  C   UNL     1      15.580   5.283   6.882  1.00  0.00    -0.000 C 
BRANCH   6   7
ATOM      7  C   UNL     1      17.079   5.042   6.649  1.00  0.00    -0.000 C 
BRANCH   7   8
ATOM      8  C   UNL     1      17.936   5.400   7.876  1.00  0.00    -0.000 C 
BRANCH   8   9
ATOM      9  C   UNL     1      17.212   6.347   8.849  1.00  0.00    -0.000 C 
BRANCH   9  10
ATOM     10  C   UNL     1      18.125   7.051   9.873  1.00  0.00    -0.000 C 
BRANCH  10  11
ATOM     11  C   UNL     1      17.555   8.352  10.466  1.00  0.00    -0.003 C 
ATOM     12  C   UNL     1      17.644   9.535   9.501  1.00  0.00     0.004 C 
ENDBRANCH  10  11
ENDBRANCH   9  10
ENDBRANCH   8   9
ENDBRANCH   7   8
ENDBRANCH   6   7
ENDBRANCH   5   6
ENDBRANCH   4   5
ENDBRANCH   3   4
ENDBRANCH   2   3
ENDBRANCH   1   2
BRANCH   1  13
ATOM     13  C   UNL     1       9.924   5.127   8.643  1.00  0.00     0.000 C 
BRANCH  13  14
ATOM     14  C   UNL     1      10.431   4.568   7.302  1.00  0.00     0.000 C 
BRANCH  14  15
ATOM     15  C   UNL     1      11.253   3.279   7.470  1.00  0.00     0.000 C 
BRANCH  15  16
ATOM     16  C   UNL     1      10.911   2.524   8.766  1.00  0.00     0.000 C 
BRANCH  16  17
ATOM     17  C   UNL     1      10.171   1.201   8.498  1.00  0.00     0.000 C 
BRANCH  17  18
ATOM     18  C   UNL     1      10.948   0.216   7.604  1.00  0.00     0.000 C 
BRANCH  18  19
ATOM     19  C   UNL     1      11.919  -0.665   8.409  1.00  0.00     0.000 C 
BRANCH  19  20
ATOM     20  C   UNL     1      12.656  -1.690   7.531  1.00  0.00     0.006 C 
BRANCH  20  21
ATOM     21  C   UNL     1      11.800  -2.921   7.208  1.00  0.00     0.053 C 
BRANCH  21  22
ATOM     22  C   UNL     1      11.351  -3.592   8.468  1.00  0.00     0.041 C 
ATOM     23  O   UNL     1      10.496  -3.039   9.210  1.00  0.00    -0.550 OA
ATOM     24  O   UNL     1      11.845  -4.847   8.802  1.00  0.00    -0.550 OA
ENDBRANCH  21  22
ENDBRANCH  20  21
ENDBRANCH  19  20
ENDBRANCH  18  19
ENDBRANCH  17  18
ENDBRANCH  16  17
ENDBRANCH  15  16
ENDBRANCH  14  15
ENDBRANCH  13  14
ENDBRANCH   1  13
TORSDOF 20
ENDMDL
MODEL 4
REMARK VINA RESULT:    25.028      4.860     11.243
REMARK INTER + INTRA:          53.380
REMARK INTER:                  53.933
REMARK INTRA:                  -0.553
REMARK UNBOUND:                -0.911
REMARK SMILES CCCCCCCCCCCCCCCCCCCCCC(=O)[O-]
REMARK SMILES IDX 12 1 11 2 10 3 9 4 8 5 7 6 6 7 5 8 4 9 3 10 2 11 1 12 13 13
REMARK SMILES IDX 14 14 15 15 16 16 17 17 18 18 19 19 20 20 21 21 22 22 23 23
REMARK SMILES IDX 24 24
REMARK H PARENT
REMARK Flexibility Score: inf
ROOT
ATOM      1  C   UNL     1      10.189   4.507   9.141  1.00  0.00     0.000 C 
ENDROOT
BRANCH   1   2
ATOM      2  C   UNL     1      11.034   3.401   8.482  1.00  0.00     0.000 C 
BRANCH   2   3
ATOM      3  C   UNL     1      10.782   2.012   9.094  1.00  0.00     0.000 C 
BRANCH   3   4
ATOM      4  C   UNL     1      11.151   0.859   8.143  1.00  0.00    -0.000 C 
BRANCH   4   5
ATOM      5  C   UNL     1      12.016  -0.257   8.759  1.00  0.00    -0.000 C 
BRANCH   5   6
ATOM      6  C   UNL     1      12.139  -1.493   7.851  1.00  0.00    -0.000 C 
BRANCH   6   7
ATOM      7  C   UNL     1      12.201  -2.805   8.650  1.00  0.00    -0.000 C 
BRANCH   7   8
ATOM      8  C   UNL     1      10.893  -3.611   8.569  1.00  0.00    -0.000 C 
BRANCH   8   9
ATOM      9  C   UNL     1      11.136  -5.120   8.384  1.00  0.00    -0.000 C 
BRANCH   9  10
ATOM     10  C   UNL     1      12.109  -5.752   9.399  1.00  0.00    -0.000 C 
BRANCH  10  11
ATOM     11  C   UNL     1      11.625  -7.069  10.031  1.00  0.00    -0.003 C 
ATOM     12  C   UNL     1      11.599  -7.022  11.559  1.00  0.00     0.004 C 
ENDBRANCH  10  11
ENDBRANCH   9  10
ENDBRANCH   8   9
ENDBRANCH   7   8
ENDBRANCH   6   7
ENDBRANCH   5   6
ENDBRANCH   4   5
ENDBRANCH   3   4
ENDBRANCH   2   3
ENDBRANCH   1   2
BRANCH   1  13
ATOM     13  C   UNL     1      10.728   5.937   8.952  1.00  0.00     0.000 C 
BRANCH  13  14
ATOM     14  C   UNL     1      11.819   6.027   7.870  1.00  0.00     0.000 C 
BRANCH  14  15
ATOM     15  C   UNL     1      13.214   6.299   8.455  1.00  0.00     0.000 C 
BRANCH  15  16
ATOM     16  C   UNL     1      14.182   6.900   7.422  1.00  0.00     0.000 C 
BRANCH  16  17
ATOM     17  C   UNL     1      15.388   5.983   7.144  1.00  0.00     0.000 C 
BRANCH  17  18
ATOM     18  C   UNL     1      16.574   6.196   8.103  1.00  0.00     0.000 C 
BRANCH  18  19
ATOM     19  C   UNL     1      16.121   6.408   9.558  1.00  0.00     0.000 C 
BRANCH  19  20
ATOM     20  C   UNL     1      17.209   7.055  10.430  1.00  0.00     0.006 C 
BRANCH  20  21
ATOM     21  C   UNL     1      18.124   7.997   9.637  1.00  0.00     0.053 C 
BRANCH  21  22
ATOM     22  C   UNL     1      17.555   9.381   9.611  1.00  0.00     0.041 C 
ATOM     23  O   UNL     1      18.060  10.287  10.327  1.00  0.00    -0.550 OA
ATOM     24  O   UNL     1      16.494   9.683   8.767  1.00  0.00    -0.550 OA
ENDBRANCH  21  22
ENDBRANCH  20  21
ENDBRANCH  19  20
ENDBRANCH  18  19
ENDBRANCH  17  18
ENDBRANCH  16  17
ENDBRANCH  15  16
ENDBRANCH  14  15
ENDBRANCH  13  14
ENDBRANCH   1  13
TORSDOF 20
ENDMDL
MODEL 5
REMARK VINA RESULT:    25.339      2.453      4.086
REMARK INTER + INTRA:          54.054
REMARK INTER:                  52.839
REMARK INTRA:                   1.214
REMARK UNBOUND:                -0.911
REMARK SMILES CCCCCCCCCCCCCCCCCCCCCC(=O)[O-]
REMARK SMILES IDX 12 1 11 2 10 3 9 4 8 5 7 6 6 7 5 8 4 9 3 10 2 11 1 12 13 13
REMARK SMILES IDX 14 14 15 15 16 16 17 17 18 18 19 19 20 20 21 21 22 22 23 23
REMARK SMILES IDX 24 24
REMARK H PARENT
REMARK Flexibility Score: inf
ROOT
ATOM      1  C   UNL     1      15.237   6.433   7.145  1.00  0.00     0.000 C 
ENDROOT
BRANCH   1   2
ATOM      2  C   UNL     1      14.850   4.954   6.963  1.00  0.00     0.000 C 
BRANCH   2   3
ATOM      3  C   UNL     1      15.819   4.191   6.043  1.00  0.00     0.000 C 
BRANCH   3   4
ATOM      4  C   UNL     1      17.269   4.190   6.563  1.00  0.00    -0.000 C 
BRANCH   4   5
ATOM      5  C   UNL     1      17.869   5.579   6.854  1.00  0.00    -0.000 C 
BRANCH   5   6
ATOM      6  C   UNL     1      18.125   5.822   8.352  1.00  0.00    -0.000 C 
BRANCH   6   7
ATOM      7  C   UNL     1      16.823   5.956   9.157  1.00  0.00    -0.000 C 
BRANCH   7   8
ATOM      8  C   UNL     1      16.734   7.288   9.923  1.00  0.00    -0.000 C 
BRANCH   8   9
ATOM      9  C   UNL     1      18.057   8.074   9.904  1.00  0.00    -0.000 C 
BRANCH   9  10
ATOM     10  C   UNL     1      17.904   9.608   9.907  1.00  0.00    -0.000 C 
BRANCH  10  11
ATOM     11  C   UNL     1      17.771  10.251   8.516  1.00  0.00    -0.003 C 
ATOM     12  C   UNL     1      18.110  11.742   8.514  1.00  0.00     0.004 C 
ENDBRANCH  10  11
ENDBRANCH   9  10
ENDBRANCH   8   9
ENDBRANCH   7   8
ENDBRANCH   6   7
ENDBRANCH   5   6
ENDBRANCH   4   5
ENDBRANCH   3   4
ENDBRANCH   2   3
ENDBRANCH   1   2
BRANCH   1  13
ATOM     13  C   UNL     1      14.163   7.308   7.817  1.00  0.00     0.000 C 
BRANCH  13  14
ATOM     14  C   UNL     1      12.767   7.128   7.192  1.00  0.00     0.000 C 
BRANCH  14  15
ATOM     15  C   UNL     1      11.632   7.351   8.203  1.00  0.00     0.000 C 
BRANCH  15  16
ATOM     16  C   UNL     1      10.690   6.139   8.313  1.00  0.00     0.000 C 
BRANCH  16  17
ATOM     17  C   UNL     1      10.731   5.248   7.057  1.00  0.00     0.000 C 
BRANCH  17  18
ATOM     18  C   UNL     1      10.908   3.747   7.357  1.00  0.00     0.000 C 
BRANCH  18  19
ATOM     19  C   UNL     1      10.796   3.432   8.859  1.00  0.00     0.000 C 
BRANCH  19  20
ATOM     20  C   UNL     1      10.372   1.979   9.130  1.00  0.00     0.006 C 
BRANCH  20  21
ATOM     21  C   UNL     1      10.956   0.991   8.113  1.00  0.00     0.053 C 
BRANCH  21  22
ATOM     22  C   UNL     1       9.860   0.319   7.347  1.00  0.00     0.041 C 
ATOM     23  O   UNL     1       9.058   1.002   6.656  1.00  0.00    -0.550 OA
ATOM     24  O   UNL     1       9.746  -1.066   7.362  1.00  0.00    -0.550 OA
ENDBRANCH  21  22
ENDBRANCH  20  21
ENDBRANCH  19  20
ENDBRANCH  18  19
ENDBRANCH  17  18
ENDBRANCH  16  17
ENDBRANCH  15  16
ENDBRANCH  14  15
ENDBRANCH  13  14
ENDBRANCH   1  13
TORSDOF 20
ENDMDL
MODEL 6
REMARK VINA RESULT:    25.359      1.649      2.965
REMARK INTER + INTRA:          54.099
REMARK INTER:                  54.928
REMARK INTRA:                  -0.829
REMARK UNBOUND:                -0.911
REMARK SMILES CCCCCCCCCCCCCCCCCCCCCC(=O)[O-]
REMARK SMILES IDX 12 1 11 2 10 3 9 4 8 5 7 6 6 7 5 8 4 9 3 10 2 11 1 12 13 13
REMARK SMILES IDX 14 14 15 15 16 16 17 17 18 18 19 19 20 20 21 21 22 22 23 23
REMARK SMILES IDX 24 24
REMARK H PARENT
REMARK Flexibility Score: inf
ROOT
ATOM      1  C   UNL     1      11.610   6.362   8.342  1.00  0.00     0.000 C 
ENDROOT
BRANCH   1   2
ATOM      2  C   UNL     1      11.784   7.548   7.375  1.00  0.00     0.000 C 
BRANCH   2   3
ATOM      3  C   UNL     1      13.244   7.753   6.937  1.00  0.00     0.000 C 
BRANCH   3   4
ATOM      4  C   UNL     1      14.237   6.873   7.719  1.00  0.00    -0.000 C 
BRANCH   4   5
ATOM      5  C   UNL     1      14.801   7.497   9.009  1.00  0.00    -0.000 C 
BRANCH   5   6
ATOM      6  C   UNL     1      15.724   6.541   9.786  1.00  0.00    -0.000 C 
BRANCH   6   7
ATOM      7  C   UNL     1      17.156   7.083   9.915  1.00  0.00    -0.000 C 
BRANCH   7   8
ATOM      8  C   UNL     1      18.124   6.448   8.901  1.00  0.00    -0.000 C 
BRANCH   8   9
ATOM      9  C   UNL     1      17.419   5.995   7.610  1.00  0.00    -0.000 C 
BRANCH   9  10
ATOM     10  C   UNL     1      18.092   4.816   6.880  1.00  0.00    -0.000 C 
BRANCH  10  11
ATOM     11  C   UNL     1      17.170   4.025   5.936  1.00  0.00    -0.003 C 
ATOM     12  C   UNL     1      15.752   4.591   5.875  1.00  0.00     0.004 C 
ENDBRANCH  10  11
ENDBRANCH   9  10
ENDBRANCH   8   9
ENDBRANCH   7   8
ENDBRANCH   6   7
ENDBRANCH   5   6
ENDBRANCH   4   5
ENDBRANCH   3   4
ENDBRANCH   2   3
ENDBRANCH   1   2
BRANCH   1  13
ATOM     13  C   UNL     1      10.152   6.024   8.703  1.00  0.00     0.000 C 
BRANCH  13  14
ATOM     14  C   UNL     1       9.800   4.547   8.451  1.00  0.00     0.000 C 
BRANCH  14  15
ATOM     15  C   UNL     1      10.977   3.748   7.868  1.00  0.00     0.000 C 
BRANCH  15  16
ATOM     16  C   UNL     1      10.597   2.296   7.531  1.00  0.00     0.000 C 
BRANCH  16  17
ATOM     17  C   UNL     1      11.324   1.276   8.428  1.00  0.00     0.000 C 
BRANCH  17  18
ATOM     18  C   UNL     1      11.037  -0.194   8.068  1.00  0.00     0.000 C 
BRANCH  18  19
ATOM     19  C   UNL     1      12.201  -1.127   8.443  1.00  0.00     0.000 C 
BRANCH  19  20
ATOM     20  C   UNL     1      12.168  -2.456   7.671  1.00  0.00     0.006 C 
BRANCH  20  21
ATOM     21  C   UNL     1      12.563  -3.658   8.539  1.00  0.00     0.053 C 
BRANCH  21  22
ATOM     22  C   UNL     1      11.390  -4.563   8.746  1.00  0.00     0.041 C 
ATOM     23  O   UNL     1      11.568  -5.785   8.995  1.00  0.00    -0.550 OA
ATOM     24  O   UNL     1      10.099  -4.052   8.704  1.00  0.00    -0.550 OA
ENDBRANCH  21  22
ENDBRANCH  20  21
ENDBRANCH  19  20
ENDBRANCH  18  19
ENDBRANCH  17  18
ENDBRANCH  16  17
ENDBRANCH  15  16
ENDBRANCH  14  15
ENDBRANCH  13  14
ENDBRANCH   1  13
TORSDOF 20
ENDMDL
MODEL 7
REMARK VINA RESULT:    26.256      2.661      4.168
REMARK INTER + INTRA:          56.043
REMARK INTER:                  56.320
REMARK INTRA:                  -0.277
REMARK UNBOUND:                -0.911
REMARK SMILES CCCCCCCCCCCCCCCCCCCCCC(=O)[O-]
REMARK SMILES IDX 12 1 11 2 10 3 9 4 8 5 7 6 6 7 5 8 4 9 3 10 2 11 1 12 13 13
REMARK SMILES IDX 14 14 15 15 16 16 17 17 18 18 19 19 20 20 21 21 22 22 23 23
REMARK SMILES IDX 24 24
REMARK H PARENT
REMARK Flexibility Score: inf
ROOT
ATOM      1  C   UNL     1      11.140   2.710   9.682  1.00  0.00     0.000 C 
ENDROOT
BRANCH   1   2
ATOM      2  C   UNL     1      10.183   3.778   9.122  1.00  0.00     0.000 C 
BRANCH   2   3
ATOM      3  C   UNL     1      10.271   3.915   7.592  1.00  0.00     0.000 C 
BRANCH   3   4
ATOM      4  C   UNL     1      11.354   4.909   7.137  1.00  0.00    -0.000 C 
BRANCH   4   5
ATOM      5  C   UNL     1      11.343   6.274   7.852  1.00  0.00    -0.000 C 
BRANCH   5   6
ATOM      6  C   UNL     1      12.563   7.145   7.505  1.00  0.00    -0.000 C 
BRANCH   6   7
ATOM      7  C   UNL     1      13.810   6.759   8.315  1.00  0.00    -0.000 C 
BRANCH   7   8
ATOM      8  C   UNL     1      15.092   6.747   7.463  1.00  0.00    -0.000 C 
BRANCH   8   9
ATOM      9  C   UNL     1      16.049   5.604   7.847  1.00  0.00    -0.000 C 
BRANCH   9  10
ATOM     10  C   UNL     1      17.432   6.056   8.356  1.00  0.00    -0.000 C 
BRANCH  10  11
ATOM     11  C   UNL     1      17.412   7.268   9.303  1.00  0.00    -0.003 C 
ATOM     12  C   UNL     1      16.231   7.246  10.274  1.00  0.00     0.004 C 
ENDBRANCH  10  11
ENDBRANCH   9  10
ENDBRANCH   8   9
ENDBRANCH   7   8
ENDBRANCH   6   7
ENDBRANCH   5   6
ENDBRANCH   4   5
ENDBRANCH   3   4
ENDBRANCH   2   3
ENDBRANCH   1   2
BRANCH   1  13
ATOM     13  C   UNL     1      10.754   1.255   9.359  1.00  0.00     0.000 C 
BRANCH  13  14
ATOM     14  C   UNL     1      11.384   0.746   8.050  1.00  0.00     0.000 C 
BRANCH  14  15
ATOM     15  C   UNL     1      10.880  -0.651   7.652  1.00  0.00     0.000 C 
BRANCH  15  16
ATOM     16  C   UNL     1      12.020  -1.674   7.511  1.00  0.00     0.000 C 
BRANCH  16  17
ATOM     17  C   UNL     1      12.776  -1.899   8.834  1.00  0.00     0.000 C 
BRANCH  17  18
ATOM     18  C   UNL     1      13.885  -2.964   8.751  1.00  0.00     0.000 C 
BRANCH  18  19
ATOM     19  C   UNL     1      15.188  -2.407   8.151  1.00  0.00     0.000 C 
BRANCH  19  20
ATOM     20  C   UNL     1      16.339  -3.426   8.184  1.00  0.00     0.006 C 
BRANCH  20  21
ATOM     21  C   UNL     1      16.195  -4.448   9.318  1.00  0.00     0.053 C 
BRANCH  21  22
ATOM     22  C   UNL     1      17.354  -5.395   9.320  1.00  0.00     0.041 C 
ATOM     23  O   UNL     1      17.674  -6.007   8.266  1.00  0.00    -0.550 OA
ATOM     24  O   UNL     1      18.108  -5.571  10.474  1.00  0.00    -0.550 OA
ENDBRANCH  21  22
ENDBRANCH  20  21
ENDBRANCH  19  20
ENDBRANCH  18  19
ENDBRANCH  17  18
ENDBRANCH  16  17
ENDBRANCH  15  16
ENDBRANCH  14  15
ENDBRANCH  13  14
ENDBRANCH   1  13
TORSDOF 20
ENDMDL
MODEL 8
REMARK VINA RESULT:    26.290      4.258     10.315
REMARK INTER + INTRA:          56.116
REMARK INTER:                  57.374
REMARK INTRA:                  -1.258
REMARK UNBOUND:                -0.911
REMARK SMILES CCCCCCCCCCCCCCCCCCCCCC(=O)[O-]
REMARK SMILES IDX 12 1 11 2 10 3 9 4 8 5 7 6 6 7 5 8 4 9 3 10 2 11 1 12 13 13
REMARK SMILES IDX 14 14 15 15 16 16 17 17 18 18 19 19 20 20 21 21 22 22 23 23
REMARK SMILES IDX 24 24
REMARK H PARENT
REMARK Flexibility Score: inf
ROOT
ATOM      1  C   UNL     1      10.114   5.401   8.637  1.00  0.00     0.000 C 
ENDROOT
BRANCH   1   2
ATOM      2  C   UNL     1      10.052   4.760   7.238  1.00  0.00     0.000 C 
BRANCH   2   3
ATOM      3  C   UNL     1      11.223   3.799   6.969  1.00  0.00     0.000 C 
BRANCH   3   4
ATOM      4  C   UNL     1      11.361   2.702   8.041  1.00  0.00    -0.000 C 
BRANCH   4   5
ATOM      5  C   UNL     1      10.697   1.355   7.697  1.00  0.00    -0.000 C 
BRANCH   5   6
ATOM      6  C   UNL     1      11.233   0.187   8.545  1.00  0.00    -0.000 C 
BRANCH   6   7
ATOM      7  C   UNL     1      11.884  -0.910   7.689  1.00  0.00    -0.000 C 
BRANCH   7   8
ATOM      8  C   UNL     1      10.988  -2.153   7.538  1.00  0.00    -0.000 C 
BRANCH   8   9
ATOM      9  C   UNL     1      11.637  -3.426   8.109  1.00  0.00    -0.000 C 
BRANCH   9  10
ATOM     10  C   UNL     1      10.985  -4.749   7.660  1.00  0.00    -0.000 C 
BRANCH  10  11
ATOM     11  C   UNL     1      11.265  -5.955   8.573  1.00  0.00    -0.003 C 
ATOM     12  C   UNL     1      12.057  -5.582   9.826  1.00  0.00     0.004 C 
ENDBRANCH  10  11
ENDBRANCH   9  10
ENDBRANCH   8   9
ENDBRANCH   7   8
ENDBRANCH   6   7
ENDBRANCH   5   6
ENDBRANCH   4   5
ENDBRANCH   3   4
ENDBRANCH   2   3
ENDBRANCH   1   2
BRANCH   1  13
ATOM     13  C   UNL     1      11.339   6.300   8.887  1.00  0.00     0.000 C 
BRANCH  13  14
ATOM     14  C   UNL     1      11.595   7.295   7.741  1.00  0.00     0.000 C 
BRANCH  14  15
ATOM     15  C   UNL     1      12.974   7.106   7.088  1.00  0.00     0.000 C 
BRANCH  15  16
ATOM     16  C   UNL     1      14.078   6.797   8.115  1.00  0.00     0.000 C 
BRANCH  16  17
ATOM     17  C   UNL     1      14.914   5.564   7.726  1.00  0.00     0.000 C 
BRANCH  17  18
ATOM     18  C   UNL     1      16.219   5.898   6.981  1.00  0.00     0.000 C 
BRANCH  18  19
ATOM     19  C   UNL     1      17.416   5.083   7.501  1.00  0.00     0.000 C 
BRANCH  19  20
ATOM     20  C   UNL     1      18.016   5.668   8.790  1.00  0.00     0.006 C 
BRANCH  20  21
ATOM     21  C   UNL     1      18.114   7.199   8.759  1.00  0.00     0.053 C 
BRANCH  21  22
ATOM     22  C   UNL     1      17.128   7.805   9.708  1.00  0.00     0.041 C 
ATOM     23  O   UNL     1      17.036   9.057   9.811  1.00  0.00    -0.550 OA
ATOM     24  O   UNL     1      16.282   6.990  10.449  1.00  0.00    -0.550 OA
ENDBRANCH  21  22
ENDBRANCH  20  21
ENDBRANCH  19  20
ENDBRANCH  18  19
ENDBRANCH  17  18
ENDBRANCH  16  17
ENDBRANCH  15  16
ENDBRANCH  14  15
ENDBRANCH  13  14
ENDBRANCH   1  13
TORSDOF 20
ENDMDL
