MODEL 1
REMARK VINA RESULT:    -4.870      0.000      0.000
REMARK INTER + INTRA:          -6.184
REMARK INTER:                  -6.008
REMARK INTRA:                  -0.176
REMARK UNBOUND:                -0.176
REMARK SMILES C=CC[C@H](C)C(=O)CC
REMARK SMILES IDX 4 1 5 2 6 3 7 4 8 5 9 6 3 7 2 8 1 9
REMARK H PARENT
REMARK Flexibility Score: inf
ROOT
ATOM      1  C   UNL     1      16.609  24.616 -25.073  1.00  0.00     0.057 C 
ATOM      2  C   UNL     1      16.362  26.124 -24.957  1.00  0.00     0.016 C 
ENDROOT
BRANCH   1   3
ATOM      3  C   UNL     1      15.338  23.921 -25.516  1.00  0.00     0.135 C 
ATOM      4  O   UNL     1      15.299  22.699 -25.564  1.00  0.00    -0.299 OA
BRANCH   3   5
ATOM      5  C   UNL     1      14.117  24.710 -25.913  1.00  0.00     0.072 C 
ATOM      6  C   UNL     1      12.966  23.778 -26.275  1.00  0.00     0.012 C 
ENDBRANCH   3   5
ENDBRANCH   1   3
BRANCH   1   7
ATOM      7  C   UNL     1      17.129  24.046 -23.738  1.00  0.00     0.038 C 
BRANCH   7   8
ATOM      8  C   UNL     1      18.622  23.841 -23.755  1.00  0.00    -0.034 C 
ATOM      9  C   UNL     1      19.419  24.360 -22.818  1.00  0.00     0.004 C 
ENDBRANCH   7   8
ENDBRANCH   1   7
TORSDOF 4
ENDMDL
MODEL 2
REMARK VINA RESULT:    -4.627      1.093      4.269
REMARK INTER + INTRA:          -5.884
REMARK INTER:                  -5.638
REMARK INTRA:                  -0.246
REMARK UNBOUND:                -0.176
REMARK SMILES C=CC[C@H](C)C(=O)CC
REMARK SMILES IDX 4 1 5 2 6 3 7 4 8 5 9 6 3 7 2 8 1 9
REMARK H PARENT
REMARK Flexibility Score: inf
ROOT
ATOM      1  C   UNL     1      16.429  25.519 -24.504  1.00  0.00     0.057 C 
ATOM      2  C   UNL     1      17.036  25.860 -25.869  1.00  0.00     0.016 C 
ENDROOT
BRANCH   1   3
ATOM      3  C   UNL     1      17.020  24.222 -23.989  1.00  0.00     0.135 C 
ATOM      4  O   UNL     1      16.714  23.164 -24.521  1.00  0.00    -0.299 OA
BRANCH   3   5
ATOM      5  C   UNL     1      17.971  24.209 -22.821  1.00  0.00     0.072 C 
ATOM      6  C   UNL     1      19.417  24.165 -23.302  1.00  0.00     0.012 C 
ENDBRANCH   3   5
ENDBRANCH   1   3
BRANCH   1   7
ATOM      7  C   UNL     1      14.892  25.443 -24.596  1.00  0.00     0.038 C 
BRANCH   7   8
ATOM      8  C   UNL     1      14.423  25.187 -26.005  1.00  0.00    -0.034 C 
ATOM      9  C   UNL     1      13.657  24.138 -26.316  1.00  0.00     0.004 C 
ENDBRANCH   7   8
ENDBRANCH   1   7
TORSDOF 4
ENDMDL
MODEL 3
REMARK VINA RESULT:    -4.193     13.815     14.948
REMARK INTER + INTRA:          -5.349
REMARK INTER:                  -4.946
REMARK INTRA:                  -0.403
REMARK UNBOUND:                -0.176
REMARK SMILES C=CC[C@H](C)C(=O)CC
REMARK SMILES IDX 4 1 5 2 6 3 7 4 8 5 9 6 3 7 2 8 1 9
REMARK H PARENT
REMARK Flexibility Score: inf
ROOT
ATOM      1  C   UNL     1      19.694  10.094 -26.048  1.00  0.00     0.057 C 
ATOM      2  C   UNL     1      18.630   9.177 -26.661  1.00  0.00     0.016 C 
ENDROOT
BRANCH   1   3
ATOM      3  C   UNL     1      20.386   9.382 -24.904  1.00  0.00     0.135 C 
ATOM      4  O   UNL     1      19.744   8.638 -24.175  1.00  0.00    -0.299 OA
BRANCH   3   5
ATOM      5  C   UNL     1      21.855   9.582 -24.636  1.00  0.00     0.072 C 
ATOM      6  C   UNL     1      22.671   9.358 -25.904  1.00  0.00     0.012 C 
ENDBRANCH   3   5
ENDBRANCH   1   3
BRANCH   1   7
ATOM      7  C   UNL     1      19.065  11.425 -25.588  1.00  0.00     0.038 C 
BRANCH   7   8
ATOM      8  C   UNL     1      20.050  12.564 -25.647  1.00  0.00    -0.034 C 
ATOM      9  C   UNL     1      20.542  13.015 -26.804  1.00  0.00     0.004 C 
ENDBRANCH   7   8
ENDBRANCH   1   7
TORSDOF 4
ENDMDL
MODEL 4
REMARK VINA RESULT:    -4.176     13.942     14.932
REMARK INTER + INTRA:          -5.328
REMARK INTER:                  -5.082
REMARK INTRA:                  -0.246
REMARK UNBOUND:                -0.176
REMARK SMILES C=CC[C@H](C)C(=O)CC
REMARK SMILES IDX 4 1 5 2 6 3 7 4 8 5 9 6 3 7 2 8 1 9
REMARK H PARENT
REMARK Flexibility Score: inf
ROOT
ATOM      1  C   UNL     1      20.050   9.830 -25.647  1.00  0.00     0.057 C 
ATOM      2  C   UNL     1      20.531   9.176 -26.947  1.00  0.00     0.016 C 
ENDROOT
BRANCH   1   3
ATOM      3  C   UNL     1      20.755  11.157 -25.450  1.00  0.00     0.135 C 
ATOM      4  O   UNL     1      21.938  11.174 -25.138  1.00  0.00    -0.299 OA
BRANCH   3   5
ATOM      5  C   UNL     1      20.021  12.462 -25.617  1.00  0.00     0.072 C 
ATOM      6  C   UNL     1      20.393  13.125 -26.939  1.00  0.00     0.012 C 
ENDBRANCH   3   5
ENDBRANCH   1   3
BRANCH   1   7
ATOM      7  C   UNL     1      20.275   8.887 -24.449  1.00  0.00     0.038 C 
BRANCH   7   8
ATOM      8  C   UNL     1      19.035   8.101 -24.108  1.00  0.00    -0.034 C 
ATOM      9  C   UNL     1      17.813   8.531 -24.434  1.00  0.00     0.004 C 
ENDBRANCH   7   8
ENDBRANCH   1   7
TORSDOF 4
ENDMDL
MODEL 5
REMARK VINA RESULT:    -4.168     12.926     14.110
REMARK INTER + INTRA:          -5.319
REMARK INTER:                  -4.841
REMARK INTRA:                  -0.477
REMARK UNBOUND:                -0.176
REMARK SMILES C=CC[C@H](C)C(=O)CC
REMARK SMILES IDX 4 1 5 2 6 3 7 4 8 5 9 6 3 7 2 8 1 9
REMARK H PARENT
REMARK Flexibility Score: inf
ROOT
ATOM      1  C   UNL     1      20.732  12.777 -26.472  1.00  0.00     0.057 C 
ATOM      2  C   UNL     1      20.082  12.677 -27.857  1.00  0.00     0.016 C 
ENDROOT
BRANCH   1   3
ATOM      3  C   UNL     1      22.031  11.996 -26.457  1.00  0.00     0.135 C 
ATOM      4  O   UNL     1      22.805  12.088 -27.400  1.00  0.00    -0.299 OA
BRANCH   3   5
ATOM      5  C   UNL     1      22.383  11.092 -25.304  1.00  0.00     0.072 C 
ATOM      6  C   UNL     1      22.511   9.647 -25.770  1.00  0.00     0.012 C 
ENDBRANCH   3   5
ENDBRANCH   1   3
BRANCH   1   7
ATOM      7  C   UNL     1      19.763  12.284 -25.379  1.00  0.00     0.038 C 
BRANCH   7   8
ATOM      8  C   UNL     1      18.778  11.276 -25.912  1.00  0.00    -0.034 C 
ATOM      9  C   UNL     1      18.780  10.002 -25.510  1.00  0.00     0.004 C 
ENDBRANCH   7   8
ENDBRANCH   1   7
TORSDOF 4
ENDMDL
MODEL 6
REMARK VINA RESULT:    -4.055     13.394     14.462
REMARK INTER + INTRA:          -5.178
REMARK INTER:                  -4.904
REMARK INTRA:                  -0.275
REMARK UNBOUND:                -0.176
REMARK SMILES C=CC[C@H](C)C(=O)CC
REMARK SMILES IDX 4 1 5 2 6 3 7 4 8 5 9 6 3 7 2 8 1 9
REMARK H PARENT
REMARK Flexibility Score: inf
ROOT
ATOM      1  C   UNL     1      21.537  11.499 -25.316  1.00  0.00     0.057 C 
ATOM      2  C   UNL     1      22.733  11.742 -26.244  1.00  0.00     0.016 C 
ENDROOT
BRANCH   1   3
ATOM      3  C   UNL     1      21.081  10.059 -25.433  1.00  0.00     0.135 C 
ATOM      4  O   UNL     1      21.894   9.186 -25.702  1.00  0.00    -0.299 OA
BRANCH   3   5
ATOM      5  C   UNL     1      19.636   9.681 -25.236  1.00  0.00     0.072 C 
ATOM      6  C   UNL     1      19.516   8.450 -24.346  1.00  0.00     0.012 C 
ENDBRANCH   3   5
ENDBRANCH   1   3
BRANCH   1   7
ATOM      7  C   UNL     1      20.393  12.482 -25.637  1.00  0.00     0.038 C 
BRANCH   7   8
ATOM      8  C   UNL     1      20.478  13.007 -27.046  1.00  0.00    -0.034 C 
ATOM      9  C   UNL     1      19.728  12.511 -28.034  1.00  0.00     0.004 C 
ENDBRANCH   7   8
ENDBRANCH   1   7
TORSDOF 4
ENDMDL
MODEL 7
REMARK VINA RESULT:    -4.051     14.194     14.971
REMARK INTER + INTRA:          -5.174
REMARK INTER:                  -4.976
REMARK INTRA:                  -0.197
REMARK UNBOUND:                -0.176
REMARK SMILES C=CC[C@H](C)C(=O)CC
REMARK SMILES IDX 4 1 5 2 6 3 7 4 8 5 9 6 3 7 2 8 1 9
REMARK H PARENT
REMARK Flexibility Score: inf
ROOT
ATOM      1  C   UNL     1      19.884   9.857 -25.572  1.00  0.00     0.057 C 
ATOM      2  C   UNL     1      20.025   9.256 -26.975  1.00  0.00     0.016 C 
ENDROOT
BRANCH   1   3
ATOM      3  C   UNL     1      19.138   8.892 -24.673  1.00  0.00     0.135 C 
ATOM      4  O   UNL     1      19.757   8.220 -23.860  1.00  0.00    -0.299 OA
BRANCH   3   5
ATOM      5  C   UNL     1      17.643   8.732 -24.771  1.00  0.00     0.072 C 
ATOM      6  C   UNL     1      17.188   7.462 -24.063  1.00  0.00     0.012 C 
ENDBRANCH   3   5
ENDBRANCH   1   3
BRANCH   1   7
ATOM      7  C   UNL     1      19.180  11.228 -25.637  1.00  0.00     0.038 C 
BRANCH   7   8
ATOM      8  C   UNL     1      20.164  12.368 -25.654  1.00  0.00    -0.034 C 
ATOM      9  C   UNL     1      20.469  13.024 -26.777  1.00  0.00     0.004 C 
ENDBRANCH   7   8
ENDBRANCH   1   7
TORSDOF 4
ENDMDL
MODEL 8
REMARK VINA RESULT:    -4.030     13.790     14.973
REMARK INTER + INTRA:          -5.147
REMARK INTER:                  -4.662
REMARK INTRA:                  -0.485
REMARK UNBOUND:                -0.176
REMARK SMILES C=CC[C@H](C)C(=O)CC
REMARK SMILES IDX 4 1 5 2 6 3 7 4 8 5 9 6 3 7 2 8 1 9
REMARK H PARENT
REMARK Flexibility Score: inf
ROOT
ATOM      1  C   UNL     1      22.591  10.990 -27.515  1.00  0.00     0.057 C 
ATOM      2  C   UNL     1      21.782  11.032 -28.816  1.00  0.00     0.016 C 
ENDROOT
BRANCH   1   3
ATOM      3  C   UNL     1      22.222   9.752 -26.722  1.00  0.00     0.135 C 
ATOM      4  O   UNL     1      21.742   8.785 -27.297  1.00  0.00    -0.299 OA
BRANCH   3   5
ATOM      5  C   UNL     1      22.425   9.694 -25.230  1.00  0.00     0.072 C 
ATOM      6  C   UNL     1      21.134   9.292 -24.525  1.00  0.00     0.012 C 
ENDBRANCH   3   5
ENDBRANCH   1   3
BRANCH   1   7
ATOM      7  C   UNL     1      22.365  12.275 -26.693  1.00  0.00     0.038 C 
BRANCH   7   8
ATOM      8  C   UNL     1      20.935  12.745 -26.761  1.00  0.00    -0.034 C 
ATOM      9  C   UNL     1      20.138  12.744 -25.689  1.00  0.00     0.004 C 
ENDBRANCH   7   8
ENDBRANCH   1   7
TORSDOF 4
ENDMDL
MODEL 9
REMARK VINA RESULT:    -3.993     14.000     15.107
REMARK INTER + INTRA:          -5.102
REMARK INTER:                  -4.746
REMARK INTRA:                  -0.356
REMARK UNBOUND:                -0.176
REMARK SMILES C=CC[C@H](C)C(=O)CC
REMARK SMILES IDX 4 1 5 2 6 3 7 4 8 5 9 6 3 7 2 8 1 9
REMARK H PARENT
REMARK Flexibility Score: inf
ROOT
ATOM      1  C   UNL     1      22.127  10.221 -25.052  1.00  0.00     0.057 C 
ATOM      2  C   UNL     1      20.753   9.568 -24.861  1.00  0.00     0.016 C 
ENDROOT
BRANCH   1   3
ATOM      3  C   UNL     1      21.965  11.570 -25.723  1.00  0.00     0.135 C 
ATOM      4  O   UNL     1      22.919  12.083 -26.291  1.00  0.00    -0.299 OA
BRANCH   3   5
ATOM      5  C   UNL     1      20.648  12.301 -25.695  1.00  0.00     0.072 C 
ATOM      6  C   UNL     1      20.395  13.011 -27.019  1.00  0.00     0.012 C 
ENDBRANCH   3   5
ENDBRANCH   1   3
BRANCH   1   7
ATOM      7  C   UNL     1      23.061   9.296 -25.858  1.00  0.00     0.038 C 
BRANCH   7   8
ATOM      8  C   UNL     1      22.386   8.748 -27.089  1.00  0.00    -0.034 C 
ATOM      9  C   UNL     1      22.812   9.043 -28.321  1.00  0.00     0.004 C 
ENDBRANCH   7   8
ENDBRANCH   1   7
TORSDOF 4
ENDMDL
