MODEL 1
REMARK VINA RESULT:    -2.980      0.000      0.000
REMARK INTER + INTRA:          -4.793
REMARK INTER:                  -4.547
REMARK INTRA:                  -0.246
REMARK UNBOUND:                -0.246
REMARK SMILES CC1=CCC[C@H](C)C(=O)C[C@@H](C(C)C)C(=O)C1
REMARK SMILES IDX 8 1 9 2 6 3 7 4 5 5 4 6 3 7 2 8 1 9 10 11 11 12 15 13 16 14
REMARK SMILES IDX 17 15 12 17 13 18 14 19
REMARK H PARENT
REMARK Flexibility Score: 70.00
ROOT
ATOM      1  C   UNL     1     -28.502 -17.828  20.128  1.00  0.00     0.136 C 
ATOM      2  O   UNL     1     -28.782 -17.730  18.942  1.00  0.00    -0.299 OA
ENDROOT
BRANCH   1   3
ATOM      3  C   UNL     1     -27.185 -17.281  20.641  1.00  0.00     0.053 C 
ATOM      4  C   UNL     1     -27.222 -15.750  20.600  1.00  0.00     0.016 C 
BRANCH   3   5
ATOM      5  C   UNL     1     -26.875 -17.770  22.074  1.00  0.00     0.015 C 
BRANCH   5   6
ATOM      6  C   UNL     1     -26.977 -16.660  23.131  1.00  0.00     0.028 C 
BRANCH   6   7
ATOM      7  C   UNL     1     -27.489 -17.198  24.445  1.00  0.00    -0.028 C 
ATOM      8  C   UNL     1     -28.778 -17.185  24.857  1.00  0.00    -0.070 CG0
ATOM      9  C   UNL     1     -29.094 -17.780  26.206  1.00  0.00     0.039 C 
ATOM     10  G   UNL     1     -29.918 -16.641  24.017  1.00  0.00     0.000 G0
ENDBRANCH   6   7
ENDBRANCH   5   6
ENDBRANCH   3   5
ENDBRANCH   1   3
BRANCH   1  11
ATOM     11  C   UNL     1     -29.464 -18.531  21.049  1.00  0.00     0.087 C 
BRANCH  11  12
ATOM     12  C   UNL     1     -30.531 -17.562  21.620  1.00  0.00     0.066 C 
BRANCH  12  13
ATOM     13  C   UNL     1     -30.554 -17.679  23.136  1.00  0.00     0.140 C 
ATOM     14  O   UNL     1     -31.152 -18.611  23.656  1.00  0.00    -0.299 OA
BRANCH  13  15
ATOM     15  C   UNL     1     -29.935 -16.625  24.017  1.00  0.00     0.106 CG0
ATOM     16  G   UNL     1     -28.802 -17.201  24.845  1.00  0.00     0.000 G0
ENDBRANCH  13  15
ENDBRANCH  12  13
BRANCH  12  17
ATOM     17  C   UNL     1     -31.955 -17.831  21.031  1.00  0.00    -0.006 C 
ATOM     18  C   UNL     1     -32.414 -16.679  20.115  1.00  0.00     0.008 C 
ATOM     19  C   UNL     1     -32.013 -19.146  20.227  1.00  0.00     0.008 C 
ENDBRANCH  12  17
ENDBRANCH  11  12
ENDBRANCH   1  11
TORSDOF 1
ENDMDL
MODEL 2
REMARK VINA RESULT:    -2.924      2.427      3.409
REMARK INTER + INTRA:          -4.708
REMARK INTER:                  -4.532
REMARK INTRA:                  -0.176
REMARK UNBOUND:                -0.246
REMARK SMILES CC1=CCC[C@H](C)C(=O)C[C@@H](C(C)C)C(=O)C1
REMARK SMILES IDX 8 1 9 2 6 3 7 4 5 5 4 6 3 7 2 8 1 9 10 11 11 12 15 13 16 14
REMARK SMILES IDX 17 15 12 17 13 18 14 19
REMARK H PARENT
REMARK Flexibility Score: 70.00
ROOT
ATOM      1  C   UNL     1     -29.208 -17.526  23.651  1.00  0.00     0.136 C 
ATOM      2  O   UNL     1     -28.997 -17.380  22.455  1.00  0.00    -0.299 OA
ENDROOT
BRANCH   1   3
ATOM      3  C   UNL     1     -28.102 -17.260  24.651  1.00  0.00     0.053 C 
ATOM      4  C   UNL     1     -26.744 -17.465  23.972  1.00  0.00     0.016 C 
BRANCH   3   5
ATOM      5  C   UNL     1     -28.192 -15.836  25.246  1.00  0.00     0.015 C 
BRANCH   5   6
ATOM      6  C   UNL     1     -28.974 -15.777  26.567  1.00  0.00     0.028 C 
BRANCH   6   7
ATOM      7  C   UNL     1     -30.074 -14.745  26.509  1.00  0.00    -0.028 C 
ATOM      8  C   UNL     1     -31.381 -14.996  26.270  1.00  0.00    -0.070 CG0
ATOM      9  C   UNL     1     -32.334 -13.828  26.259  1.00  0.00     0.039 C 
ATOM     10  G   UNL     1     -31.939 -16.391  26.054  1.00  0.00     0.000 G0
ENDBRANCH   6   7
ENDBRANCH   5   6
ENDBRANCH   3   5
ENDBRANCH   1   3
BRANCH   1  11
ATOM     11  C   UNL     1     -30.562 -18.010  24.099  1.00  0.00     0.087 C 
BRANCH  11  12
ATOM     12  C   UNL     1     -31.706 -17.130  23.533  1.00  0.00     0.066 C 
BRANCH  12  13
ATOM     13  C   UNL     1     -32.540 -16.591  24.685  1.00  0.00     0.140 C 
ATOM     14  O   UNL     1     -33.688 -16.225  24.475  1.00  0.00    -0.299 OA
BRANCH  13  15
ATOM     15  C   UNL     1     -31.955 -16.410  26.062  1.00  0.00     0.106 CG0
ATOM     16  G   UNL     1     -31.397 -15.010  26.238  1.00  0.00     0.000 G0
ENDBRANCH  13  15
ENDBRANCH  12  13
BRANCH  12  17
ATOM     17  C   UNL     1     -32.612 -17.910  22.523  1.00  0.00    -0.006 C 
ATOM     18  C   UNL     1     -32.620 -17.237  21.136  1.00  0.00     0.008 C 
ATOM     19  C   UNL     1     -32.166 -19.375  22.352  1.00  0.00     0.008 C 
ENDBRANCH  12  17
ENDBRANCH  11  12
ENDBRANCH   1  11
TORSDOF 1
ENDMDL
MODEL 3
REMARK VINA RESULT:    -2.790      1.533      3.804
REMARK INTER + INTRA:          -4.504
REMARK INTER:                  -4.300
REMARK INTRA:                  -0.203
REMARK UNBOUND:                -0.246
REMARK SMILES CC1=CCC[C@H](C)C(=O)C[C@@H](C(C)C)C(=O)C1
REMARK SMILES IDX 8 1 9 2 6 3 7 4 5 5 4 6 3 7 2 8 1 9 10 11 11 12 15 13 16 14
REMARK SMILES IDX 17 15 12 17 13 18 14 19
REMARK H PARENT
REMARK Flexibility Score: 70.00
ROOT
ATOM      1  C   UNL     1     -30.271 -17.356  23.659  1.00  0.00     0.136 C 
ATOM      2  O   UNL     1     -31.215 -18.039  24.032  1.00  0.00    -0.299 OA
ENDROOT
BRANCH   1   3
ATOM      3  C   UNL     1     -29.279 -16.820  24.672  1.00  0.00     0.053 C 
ATOM      4  C   UNL     1     -30.039 -16.145  25.817  1.00  0.00     0.016 C 
BRANCH   3   5
ATOM      5  C   UNL     1     -28.360 -17.934  25.223  1.00  0.00     0.015 C 
BRANCH   5   6
ATOM      6  C   UNL     1     -27.107 -18.169  24.366  1.00  0.00     0.028 C 
BRANCH   6   7
ATOM      7  C   UNL     1     -26.744 -16.935  23.575  1.00  0.00    -0.028 C 
ATOM      8  C   UNL     1     -26.686 -16.849  22.226  1.00  0.00    -0.070 CG0
ATOM      9  C   UNL     1     -26.309 -15.521  21.619  1.00  0.00     0.039 C 
ATOM     10  G   UNL     1     -27.018 -18.004  21.300  1.00  0.00     0.000 G0
ENDBRANCH   6   7
ENDBRANCH   5   6
ENDBRANCH   3   5
ENDBRANCH   1   3
BRANCH   1  11
ATOM     11  C   UNL     1     -30.141 -17.030  22.194  1.00  0.00     0.087 C 
BRANCH  11  12
ATOM     12  C   UNL     1     -29.634 -18.244  21.375  1.00  0.00     0.066 C 
BRANCH  12  13
ATOM     13  C   UNL     1     -28.362 -17.855  20.639  1.00  0.00     0.140 C 
ATOM     14  O   UNL     1     -28.432 -17.484  19.476  1.00  0.00    -0.299 OA
BRANCH  13  15
ATOM     15  C   UNL     1     -27.005 -18.004  21.278  1.00  0.00     0.106 CG0
ATOM     16  G   UNL     1     -26.710 -16.844  22.209  1.00  0.00     0.000 G0
ENDBRANCH  13  15
ENDBRANCH  12  13
BRANCH  12  17
ATOM     17  C   UNL     1     -30.708 -18.770  20.366  1.00  0.00    -0.006 C 
ATOM     18  C   UNL     1     -31.196 -20.183  20.747  1.00  0.00     0.008 C 
ATOM     19  C   UNL     1     -31.932 -17.837  20.281  1.00  0.00     0.008 C 
ENDBRANCH  12  17
ENDBRANCH  11  12
ENDBRANCH   1  11
TORSDOF 1
ENDMDL
MODEL 4
REMARK VINA RESULT:    -2.767      2.966      5.505
REMARK INTER + INTRA:          -4.468
REMARK INTER:                  -4.250
REMARK INTRA:                  -0.218
REMARK UNBOUND:                -0.246
REMARK SMILES CC1=CCC[C@H](C)C(=O)C[C@@H](C(C)C)C(=O)C1
REMARK SMILES IDX 8 1 9 2 6 3 7 4 5 5 4 6 3 7 2 8 1 9 10 11 11 12 15 13 16 14
REMARK SMILES IDX 17 15 12 17 13 18 14 19
REMARK H PARENT
REMARK Flexibility Score: 70.00
ROOT
ATOM      1  C   UNL     1     -29.713 -16.911  24.506  1.00  0.00     0.136 C 
ATOM      2  O   UNL     1     -28.985 -17.770  24.983  1.00  0.00    -0.299 OA
ENDROOT
BRANCH   1   3
ATOM      3  C   UNL     1     -30.050 -16.942  23.029  1.00  0.00     0.053 C 
ATOM      4  C   UNL     1     -28.764 -16.788  22.213  1.00  0.00     0.016 C 
BRANCH   3   5
ATOM      5  C   UNL     1     -30.783 -18.244  22.632  1.00  0.00     0.015 C 
BRANCH   5   6
ATOM      6  C   UNL     1     -32.313 -18.132  22.721  1.00  0.00     0.028 C 
BRANCH   6   7
ATOM      7  C   UNL     1     -32.773 -16.710  22.506  1.00  0.00    -0.028 C 
ATOM      8  C   UNL     1     -33.361 -15.920  23.434  1.00  0.00    -0.070 CG0
ATOM      9  C   UNL     1     -33.744 -14.519  23.028  1.00  0.00     0.039 C 
ATOM     10  G   UNL     1     -33.615 -16.358  24.864  1.00  0.00     0.000 G0
ENDBRANCH   6   7
ENDBRANCH   5   6
ENDBRANCH   3   5
ENDBRANCH   1   3
BRANCH   1  11
ATOM     11  C   UNL     1     -30.229 -15.813  25.399  1.00  0.00     0.087 C 
BRANCH  11  12
ATOM     12  C   UNL     1     -31.384 -16.304  26.309  1.00  0.00     0.066 C 
BRANCH  12  13
ATOM     13  C   UNL     1     -32.687 -15.668  25.851  1.00  0.00     0.140 C 
ATOM     14  O   UNL     1     -33.033 -14.598  26.332  1.00  0.00    -0.299 OA
BRANCH  13  15
ATOM     15  C   UNL     1     -33.609 -16.368  24.886  1.00  0.00     0.106 CG0
ATOM     16  G   UNL     1     -33.352 -15.916  23.461  1.00  0.00     0.000 G0
ENDBRANCH  13  15
ENDBRANCH  12  13
BRANCH  12  17
ATOM     17  C   UNL     1     -31.125 -15.988  27.820  1.00  0.00    -0.006 C 
ATOM     18  C   UNL     1     -31.515 -17.178  28.720  1.00  0.00     0.008 C 
ATOM     19  C   UNL     1     -29.651 -15.631  28.096  1.00  0.00     0.008 C 
ENDBRANCH  12  17
ENDBRANCH  11  12
ENDBRANCH   1  11
TORSDOF 1
ENDMDL
MODEL 5
REMARK VINA RESULT:    -2.711      1.939      2.096
REMARK INTER + INTRA:          -4.383
REMARK INTER:                  -4.207
REMARK INTRA:                  -0.176
REMARK UNBOUND:                -0.246
REMARK SMILES CC1=CCC[C@H](C)C(=O)C[C@@H](C(C)C)C(=O)C1
REMARK SMILES IDX 8 1 9 2 6 3 7 4 5 5 4 6 3 7 2 8 1 9 10 11 11 12 15 13 16 14
REMARK SMILES IDX 17 15 12 17 13 18 14 19
REMARK H PARENT
REMARK Flexibility Score: 70.00
ROOT
ATOM      1  C   UNL     1     -29.326 -18.194  20.482  1.00  0.00     0.136 C 
ATOM      2  O   UNL     1     -30.059 -18.682  19.633  1.00  0.00    -0.299 OA
ENDROOT
BRANCH   1   3
ATOM      3  C   UNL     1     -27.858 -17.976  20.176  1.00  0.00     0.053 C 
ATOM      4  C   UNL     1     -27.712 -16.805  19.200  1.00  0.00     0.016 C 
BRANCH   3   5
ATOM      5  C   UNL     1     -27.035 -17.710  21.457  1.00  0.00     0.015 C 
BRANCH   5   6
ATOM      6  C   UNL     1     -26.604 -16.243  21.610  1.00  0.00     0.028 C 
BRANCH   6   7
ATOM      7  C   UNL     1     -26.889 -15.729  23.000  1.00  0.00    -0.028 C 
ATOM      8  C   UNL     1     -27.999 -15.057  23.383  1.00  0.00    -0.070 CG0
ATOM      9  C   UNL     1     -28.104 -14.630  24.825  1.00  0.00     0.039 C 
ATOM     10  G   UNL     1     -29.154 -14.750  22.448  1.00  0.00     0.000 G0
ENDBRANCH   6   7
ENDBRANCH   5   6
ENDBRANCH   3   5
ENDBRANCH   1   3
BRANCH   1  11
ATOM     11  C   UNL     1     -29.899 -17.855  21.833  1.00  0.00     0.087 C 
BRANCH  11  12
ATOM     12  C   UNL     1     -30.852 -16.634  21.767  1.00  0.00     0.066 C 
BRANCH  12  13
ATOM     13  C   UNL     1     -30.368 -15.568  22.737  1.00  0.00     0.140 C 
ATOM     14  O   UNL     1     -31.017 -15.339  23.748  1.00  0.00    -0.299 OA
BRANCH  13  15
ATOM     15  C   UNL     1     -29.158 -14.722  22.437  1.00  0.00     0.106 CG0
ATOM     16  G   UNL     1     -28.012 -15.058  23.374  1.00  0.00     0.000 G0
ENDBRANCH  13  15
ENDBRANCH  12  13
BRANCH  12  17
ATOM     17  C   UNL     1     -32.336 -17.022  22.078  1.00  0.00    -0.006 C 
ATOM     18  C   UNL     1     -33.251 -16.773  20.862  1.00  0.00     0.008 C 
ATOM     19  C   UNL     1     -32.476 -18.497  22.501  1.00  0.00     0.008 C 
ENDBRANCH  12  17
ENDBRANCH  11  12
ENDBRANCH   1  11
TORSDOF 1
ENDMDL
MODEL 6
REMARK VINA RESULT:    -2.633      2.197      4.028
REMARK INTER + INTRA:          -4.263
REMARK INTER:                  -4.039
REMARK INTRA:                  -0.225
REMARK UNBOUND:                -0.246
REMARK SMILES CC1=CCC[C@H](C)C(=O)C[C@@H](C(C)C)C(=O)C1
REMARK SMILES IDX 8 1 9 2 6 3 7 4 5 5 4 6 3 7 2 8 1 9 10 11 11 12 15 13 16 14
REMARK SMILES IDX 17 15 12 17 13 18 14 19
REMARK H PARENT
REMARK Flexibility Score: 70.00
ROOT
ATOM      1  C   UNL     1     -31.908 -18.244  21.972  1.00  0.00     0.136 C 
ATOM      2  O   UNL     1     -32.904 -17.839  21.389  1.00  0.00    -0.299 OA
ENDROOT
BRANCH   1   3
ATOM      3  C   UNL     1     -31.111 -19.395  21.394  1.00  0.00     0.053 C 
ATOM      4  C   UNL     1     -32.018 -20.622  21.258  1.00  0.00     0.016 C 
BRANCH   3   5
ATOM      5  C   UNL     1     -30.488 -19.036  20.026  1.00  0.00     0.015 C 
BRANCH   5   6
ATOM      6  C   UNL     1     -29.727 -17.702  20.035  1.00  0.00     0.028 C 
BRANCH   6   7
ATOM      7  C   UNL     1     -28.448 -17.805  20.831  1.00  0.00    -0.028 C 
ATOM      8  C   UNL     1     -28.010 -16.908  21.744  1.00  0.00    -0.070 CG0
ATOM      9  C   UNL     1     -26.704 -17.192  22.443  1.00  0.00     0.039 C 
ATOM     10  G   UNL     1     -28.783 -15.660  22.126  1.00  0.00     0.000 G0
ENDBRANCH   6   7
ENDBRANCH   5   6
ENDBRANCH   3   5
ENDBRANCH   1   3
BRANCH   1  11
ATOM     11  C   UNL     1     -31.520 -17.608  23.281  1.00  0.00     0.087 C 
BRANCH  11  12
ATOM     12  C   UNL     1     -31.179 -16.105  23.114  1.00  0.00     0.066 C 
BRANCH  12  13
ATOM     13  C   UNL     1     -29.684 -15.906  23.309  1.00  0.00     0.140 C 
ATOM     14  O   UNL     1     -29.226 -15.875  24.443  1.00  0.00    -0.299 OA
BRANCH  13  15
ATOM     15  C   UNL     1     -28.765 -15.653  22.142  1.00  0.00     0.106 CG0
ATOM     16  G   UNL     1     -28.027 -16.918  21.745  1.00  0.00     0.000 G0
ENDBRANCH  13  15
ENDBRANCH  12  13
BRANCH  12  17
ATOM     17  C   UNL     1     -31.983 -15.200  24.105  1.00  0.00    -0.006 C 
ATOM     18  C   UNL     1     -33.095 -14.416  23.379  1.00  0.00     0.008 C 
ATOM     19  C   UNL     1     -32.625 -16.013  25.247  1.00  0.00     0.008 C 
ENDBRANCH  12  17
ENDBRANCH  11  12
ENDBRANCH   1  11
TORSDOF 1
ENDMDL
MODEL 7
REMARK VINA RESULT:    -2.622      2.120      4.382
REMARK INTER + INTRA:          -4.246
REMARK INTER:                  -4.087
REMARK INTRA:                  -0.159
REMARK UNBOUND:                -0.246
REMARK SMILES CC1=CCC[C@H](C)C(=O)C[C@@H](C(C)C)C(=O)C1
REMARK SMILES IDX 8 1 9 2 6 3 7 4 5 5 4 6 3 7 2 8 1 9 10 11 11 12 15 13 16 14
REMARK SMILES IDX 17 15 12 17 13 18 14 19
REMARK H PARENT
REMARK Flexibility Score: 70.00
ROOT
ATOM      1  C   UNL     1     -28.478 -16.850  22.976  1.00  0.00     0.136 C 
ATOM      2  O   UNL     1     -27.763 -15.917  23.314  1.00  0.00    -0.299 OA
ENDROOT
BRANCH   1   3
ATOM      3  C   UNL     1     -29.414 -17.486  23.984  1.00  0.00     0.053 C 
ATOM      4  C   UNL     1     -28.625 -17.864  25.241  1.00  0.00     0.016 C 
BRANCH   3   5
ATOM      5  C   UNL     1     -30.589 -16.551  24.351  1.00  0.00     0.015 C 
BRANCH   5   6
ATOM      6  C   UNL     1     -31.799 -16.698  23.416  1.00  0.00     0.028 C 
BRANCH   6   7
ATOM      7  C   UNL     1     -31.989 -18.132  22.985  1.00  0.00    -0.028 C 
ATOM      8  C   UNL     1     -32.011 -18.578  21.708  1.00  0.00    -0.070 CG0
ATOM      9  C   UNL     1     -32.206 -20.056  21.479  1.00  0.00     0.039 C 
ATOM     10  G   UNL     1     -31.810 -17.676  20.504  1.00  0.00     0.000 G0
ENDBRANCH   6   7
ENDBRANCH   5   6
ENDBRANCH   3   5
ENDBRANCH   1   3
BRANCH   1  11
ATOM     11  C   UNL     1     -28.382 -17.371  21.566  1.00  0.00     0.087 C 
BRANCH  11  12
ATOM     12  C   UNL     1     -29.373 -16.652  20.616  1.00  0.00     0.066 C 
BRANCH  12  13
ATOM     13  C   UNL     1     -30.360 -17.667  20.062  1.00  0.00     0.140 C 
ATOM     14  O   UNL     1     -29.997 -18.442  19.188  1.00  0.00    -0.299 OA
BRANCH  13  15
ATOM     15  C   UNL     1     -31.803 -17.681  20.497  1.00  0.00     0.106 CG0
ATOM     16  G   UNL     1     -32.005 -18.598  21.689  1.00  0.00     0.000 G0
ENDBRANCH  13  15
ENDBRANCH  12  13
BRANCH  12  17
ATOM     17  C   UNL     1     -28.643 -15.909  19.448  1.00  0.00    -0.006 C 
ATOM     18  C   UNL     1     -28.255 -14.472  19.849  1.00  0.00     0.008 C 
ATOM     19  C   UNL     1     -27.370 -16.649  18.992  1.00  0.00     0.008 C 
ENDBRANCH  12  17
ENDBRANCH  11  12
ENDBRANCH   1  11
TORSDOF 1
ENDMDL
MODEL 8
REMARK VINA RESULT:    -2.599      3.015      4.723
REMARK INTER + INTRA:          -4.212
REMARK INTER:                  -4.720
REMARK INTRA:                   0.508
REMARK UNBOUND:                -0.246
REMARK SMILES CC1=CCC[C@H](C)C(=O)C[C@@H](C(C)C)C(=O)C1
REMARK SMILES IDX 8 1 9 2 6 3 7 4 5 5 4 6 3 7 2 8 1 9 10 11 11 12 15 13 16 14
REMARK SMILES IDX 17 15 12 17 13 18 14 19
REMARK H PARENT
REMARK Flexibility Score: 70.00
ROOT
ATOM      1  C   UNL     1     -30.387 -17.829  24.291  1.00  0.00     0.136 C 
ATOM      2  O   UNL     1     -29.329 -17.463  23.799  1.00  0.00    -0.299 OA
ENDROOT
BRANCH   1   3
ATOM      3  C   UNL     1     -30.679 -17.545  25.751  1.00  0.00     0.053 C 
ATOM      4  C   UNL     1     -29.401 -17.745  26.571  1.00  0.00     0.016 C 
BRANCH   3   5
ATOM      5  C   UNL     1     -31.232 -16.117  25.962  1.00  0.00     0.015 C 
BRANCH   5   6
ATOM      6  C   UNL     1     -32.767 -16.055  25.977  1.00  0.00     0.028 C 
BRANCH   6   7
ATOM      7  C   UNL     1     -33.286 -15.062  24.965  1.00  0.00    -0.028 C 
ATOM      8  C   UNL     1     -33.614 -15.338  23.682  1.00  0.00    -0.070 CG0
ATOM      9  C   UNL     1     -34.125 -14.207  22.825  1.00  0.00     0.039 C 
ATOM     10  G   UNL     1     -33.533 -16.728  23.080  1.00  0.00     0.000 G0
ENDBRANCH   6   7
ENDBRANCH   5   6
ENDBRANCH   3   5
ENDBRANCH   1   3
BRANCH   1  11
ATOM     11  C   UNL     1     -31.365 -18.591  23.436  1.00  0.00     0.087 C 
BRANCH  11  12
ATOM     12  C   UNL     1     -31.475 -17.992  22.011  1.00  0.00     0.066 C 
BRANCH  12  13
ATOM     13  C   UNL     1     -32.456 -16.830  22.031  1.00  0.00     0.140 C 
ATOM     14  O   UNL     1     -32.318 -15.916  21.231  1.00  0.00    -0.299 OA
BRANCH  13  15
ATOM     15  C   UNL     1     -33.540 -16.733  23.074  1.00  0.00     0.106 CG0
ATOM     16  G   UNL     1     -33.589 -15.343  23.680  1.00  0.00     0.000 G0
ENDBRANCH  13  15
ENDBRANCH  12  13
BRANCH  12  17
ATOM     17  C   UNL     1     -31.913 -19.057  20.951  1.00  0.00    -0.006 C 
ATOM     18  C   UNL     1     -30.769 -19.380  19.969  1.00  0.00     0.008 C 
ATOM     19  C   UNL     1     -32.381 -20.372  21.606  1.00  0.00     0.008 C 
ENDBRANCH  12  17
ENDBRANCH  11  12
ENDBRANCH   1  11
TORSDOF 1
ENDMDL
MODEL 9
REMARK VINA RESULT:    -2.552      2.330      4.562
REMARK INTER + INTRA:          -4.140
REMARK INTER:                  -3.859
REMARK INTRA:                  -0.280
REMARK UNBOUND:                -0.246
REMARK SMILES CC1=CCC[C@H](C)C(=O)C[C@@H](C(C)C)C(=O)C1
REMARK SMILES IDX 8 1 9 2 6 3 7 4 5 5 4 6 3 7 2 8 1 9 10 11 11 12 15 13 16 14
REMARK SMILES IDX 17 15 12 17 13 18 14 19
REMARK H PARENT
REMARK Flexibility Score: 70.00
ROOT
ATOM      1  C   UNL     1     -28.102 -17.517  24.038  1.00  0.00     0.136 C 
ATOM      2  O   UNL     1     -26.891 -17.680  24.101  1.00  0.00    -0.299 OA
ENDROOT
BRANCH   1   3
ATOM      3  C   UNL     1     -28.931 -17.527  25.306  1.00  0.00     0.053 C 
ATOM      4  C   UNL     1     -28.839 -16.156  25.983  1.00  0.00     0.016 C 
BRANCH   3   5
ATOM      5  C   UNL     1     -30.408 -17.888  25.027  1.00  0.00     0.015 C 
BRANCH   5   6
ATOM      6  C   UNL     1     -31.344 -16.670  25.036  1.00  0.00     0.028 C 
BRANCH   6   7
ATOM      7  C   UNL     1     -32.419 -16.797  23.984  1.00  0.00    -0.028 C 
ATOM      8  C   UNL     1     -32.492 -16.081  22.838  1.00  0.00    -0.070 CG0
ATOM      9  C   UNL     1     -33.644 -16.358  21.905  1.00  0.00     0.039 C 
ATOM     10  G   UNL     1     -31.458 -15.049  22.430  1.00  0.00     0.000 G0
ENDBRANCH   6   7
ENDBRANCH   5   6
ENDBRANCH   3   5
ENDBRANCH   1   3
BRANCH   1  11
ATOM     11  C   UNL     1     -28.747 -17.347  22.688  1.00  0.00     0.087 C 
BRANCH  11  12
ATOM     12  C   UNL     1     -28.942 -15.853  22.324  1.00  0.00     0.066 C 
BRANCH  12  13
ATOM     13  C   UNL     1     -30.305 -15.669  21.676  1.00  0.00     0.140 C 
ATOM     14  O   UNL     1     -30.453 -15.965  20.499  1.00  0.00    -0.299 OA
BRANCH  13  15
ATOM     15  C   UNL     1     -31.455 -15.045  22.424  1.00  0.00     0.106 CG0
ATOM     16  G   UNL     1     -32.471 -16.093  22.837  1.00  0.00     0.000 G0
ENDBRANCH  13  15
ENDBRANCH  12  13
BRANCH  12  17
ATOM     17  C   UNL     1     -27.813 -15.318  21.381  1.00  0.00    -0.006 C 
ATOM     18  C   UNL     1     -26.813 -14.429  22.146  1.00  0.00     0.008 C 
ATOM     19  C   UNL     1     -27.032 -16.461  20.703  1.00  0.00     0.008 C 
ENDBRANCH  12  17
ENDBRANCH  11  12
ENDBRANCH   1  11
TORSDOF 1
ENDMDL
