MODEL 1
REMARK VINA RESULT:    -4.495      0.000      0.000
REMARK INTER + INTRA:         -13.723
REMARK INTER:                  -9.750
REMARK INTRA:                  -3.973
REMARK UNBOUND:                -3.973
REMARK SMILES CCCCCCCCCCCCCCCCCCCCCC(=O)[O-]
REMARK SMILES IDX 12 1 11 2 10 3 9 4 8 5 7 6 6 7 5 8 4 9 3 10 2 11 1 12 13 13
REMARK SMILES IDX 14 14 15 15 16 16 17 17 18 18 19 19 20 20 21 21 22 22 23 23
REMARK SMILES IDX 24 24
REMARK H PARENT
REMARK Flexibility Score: inf
ROOT
ATOM      1  C   UNL     1      17.516  18.758  33.568  1.00  0.00     0.000 C 
ENDROOT
BRANCH   1   2
ATOM      2  C   UNL     1      18.575  18.769  32.454  1.00  0.00     0.000 C 
BRANCH   2   3
ATOM      3  C   UNL     1      19.396  17.468  32.394  1.00  0.00     0.000 C 
BRANCH   3   4
ATOM      4  C   UNL     1      18.986  16.480  31.281  1.00  0.00    -0.000 C 
BRANCH   4   5
ATOM      5  C   UNL     1      18.727  15.031  31.743  1.00  0.00    -0.000 C 
BRANCH   5   6
ATOM      6  C   UNL     1      17.247  14.591  31.672  1.00  0.00    -0.000 C 
BRANCH   6   7
ATOM      7  C   UNL     1      16.270  15.589  32.323  1.00  0.00    -0.000 C 
BRANCH   7   8
ATOM      8  C   UNL     1      15.147  16.106  31.399  1.00  0.00    -0.000 C 
BRANCH   8   9
ATOM      9  C   UNL     1      14.748  17.575  31.625  1.00  0.00    -0.000 C 
BRANCH   9  10
ATOM     10  C   UNL     1      14.824  18.423  30.344  1.00  0.00    -0.000 C 
BRANCH  10  11
ATOM     11  C   UNL     1      15.986  17.996  29.433  1.00  0.00    -0.003 C 
ATOM     12  C   UNL     1      17.045  19.091  29.286  1.00  0.00     0.004 C 
ENDBRANCH  10  11
ENDBRANCH   9  10
ENDBRANCH   8   9
ENDBRANCH   7   8
ENDBRANCH   6   7
ENDBRANCH   5   6
ENDBRANCH   4   5
ENDBRANCH   3   4
ENDBRANCH   2   3
ENDBRANCH   1   2
BRANCH   1  13
ATOM     13  C   UNL     1      17.748  19.904  34.560  1.00  0.00     0.000 C 
BRANCH  13  14
ATOM     14  C   UNL     1      19.196  20.407  34.490  1.00  0.00     0.000 C 
BRANCH  14  15
ATOM     15  C   UNL     1      20.010  19.932  35.704  1.00  0.00     0.000 C 
BRANCH  15  16
ATOM     16  C   UNL     1      21.098  18.907  35.314  1.00  0.00     0.000 C 
BRANCH  16  17
ATOM     17  C   UNL     1      20.852  17.496  35.879  1.00  0.00     0.000 C 
BRANCH  17  18
ATOM     18  C   UNL     1      19.383  17.186  36.223  1.00  0.00     0.000 C 
BRANCH  18  19
ATOM     19  C   UNL     1      18.841  15.865  35.642  1.00  0.00     0.000 C 
BRANCH  19  20
ATOM     20  C   UNL     1      17.307  15.711  35.679  1.00  0.00     0.006 C 
BRANCH  20  21
ATOM     21  C   UNL     1      16.601  16.612  36.706  1.00  0.00     0.053 C 
BRANCH  21  22
ATOM     22  C   UNL     1      15.437  15.925  37.352  1.00  0.00     0.041 C 
ATOM     23  O   UNL     1      14.410  16.580  37.668  1.00  0.00    -0.550 OA
ATOM     24  O   UNL     1      15.482  14.558  37.595  1.00  0.00    -0.550 OA
ENDBRANCH  21  22
ENDBRANCH  20  21
ENDBRANCH  19  20
ENDBRANCH  18  19
ENDBRANCH  17  18
ENDBRANCH  16  17
ENDBRANCH  15  16
ENDBRANCH  14  15
ENDBRANCH  13  14
ENDBRANCH   1  13
TORSDOF 20
ENDMDL
MODEL 2
REMARK VINA RESULT:    -4.439      1.461      2.133
REMARK INTER + INTRA:         -13.602
REMARK INTER:                 -10.208
REMARK INTRA:                  -3.394
REMARK UNBOUND:                -3.973
REMARK SMILES CCCCCCCCCCCCCCCCCCCCCC(=O)[O-]
REMARK SMILES IDX 12 1 11 2 10 3 9 4 8 5 7 6 6 7 5 8 4 9 3 10 2 11 1 12 13 13
REMARK SMILES IDX 14 14 15 15 16 16 17 17 18 18 19 19 20 20 21 21 22 22 23 23
REMARK SMILES IDX 24 24
REMARK H PARENT
REMARK Flexibility Score: inf
ROOT
ATOM      1  C   UNL     1      17.831  19.673  34.135  1.00  0.00     0.000 C 
ENDROOT
BRANCH   1   2
ATOM      2  C   UNL     1      18.758  19.560  32.914  1.00  0.00     0.000 C 
BRANCH   2   3
ATOM      3  C   UNL     1      18.799  18.140  32.320  1.00  0.00     0.000 C 
BRANCH   3   4
ATOM      4  C   UNL     1      17.686  17.820  31.300  1.00  0.00    -0.000 C 
BRANCH   4   5
ATOM      5  C   UNL     1      16.620  16.813  31.775  1.00  0.00    -0.000 C 
BRANCH   5   6
ATOM      6  C   UNL     1      15.543  17.412  32.709  1.00  0.00    -0.000 C 
BRANCH   6   7
ATOM      7  C   UNL     1      14.828  18.646  32.123  1.00  0.00    -0.000 C 
BRANCH   7   8
ATOM      8  C   UNL     1      13.944  18.367  30.890  1.00  0.00    -0.000 C 
BRANCH   8   9
ATOM      9  C   UNL     1      12.828  17.331  31.115  1.00  0.00    -0.000 C 
BRANCH   9  10
ATOM     10  C   UNL     1      12.830  16.206  30.066  1.00  0.00    -0.000 C 
BRANCH  10  11
ATOM     11  C   UNL     1      13.985  16.351  29.063  1.00  0.00    -0.003 C 
ATOM     12  C   UNL     1      14.855  15.095  28.990  1.00  0.00     0.004 C 
ENDBRANCH  10  11
ENDBRANCH   9  10
ENDBRANCH   8   9
ENDBRANCH   7   8
ENDBRANCH   6   7
ENDBRANCH   5   6
ENDBRANCH   4   5
ENDBRANCH   3   4
ENDBRANCH   2   3
ENDBRANCH   1   2
BRANCH   1  13
ATOM     13  C   UNL     1      18.637  19.876  35.423  1.00  0.00     0.000 C 
BRANCH  13  14
ATOM     14  C   UNL     1      20.059  20.362  35.111  1.00  0.00     0.000 C 
BRANCH  14  15
ATOM     15  C   UNL     1      21.112  19.495  35.820  1.00  0.00     0.000 C 
BRANCH  15  16
ATOM     16  C   UNL     1      20.472  18.410  36.713  1.00  0.00     0.000 C 
BRANCH  16  17
ATOM     17  C   UNL     1      20.885  16.974  36.337  1.00  0.00     0.000 C 
BRANCH  17  18
ATOM     18  C   UNL     1      20.130  16.381  35.132  1.00  0.00     0.000 C 
BRANCH  18  19
ATOM     19  C   UNL     1      18.880  15.551  35.489  1.00  0.00     0.000 C 
BRANCH  19  20
ATOM     20  C   UNL     1      17.549  16.330  35.475  1.00  0.00     0.006 C 
BRANCH  20  21
ATOM     21  C   UNL     1      16.447  15.723  36.359  1.00  0.00     0.053 C 
BRANCH  21  22
ATOM     22  C   UNL     1      15.756  16.761  37.189  1.00  0.00     0.041 C 
ATOM     23  O   UNL     1      14.582  16.567  37.599  1.00  0.00    -0.550 OA
ATOM     24  O   UNL     1      16.414  17.940  37.520  1.00  0.00    -0.550 OA
ENDBRANCH  21  22
ENDBRANCH  20  21
ENDBRANCH  19  20
ENDBRANCH  18  19
ENDBRANCH  17  18
ENDBRANCH  16  17
ENDBRANCH  15  16
ENDBRANCH  14  15
ENDBRANCH  13  14
ENDBRANCH   1  13
TORSDOF 20
ENDMDL
MODEL 3
REMARK VINA RESULT:    -4.304      1.022      2.098
REMARK INTER + INTRA:         -13.309
REMARK INTER:                 -10.066
REMARK INTRA:                  -3.242
REMARK UNBOUND:                -3.973
REMARK SMILES CCCCCCCCCCCCCCCCCCCCCC(=O)[O-]
REMARK SMILES IDX 12 1 11 2 10 3 9 4 8 5 7 6 6 7 5 8 4 9 3 10 2 11 1 12 13 13
REMARK SMILES IDX 14 14 15 15 16 16 17 17 18 18 19 19 20 20 21 21 22 22 23 23
REMARK SMILES IDX 24 24
REMARK H PARENT
REMARK Flexibility Score: inf
ROOT
ATOM      1  C   UNL     1      17.692  19.647  34.466  1.00  0.00     0.000 C 
ENDROOT
BRANCH   1   2
ATOM      2  C   UNL     1      17.524  18.741  33.236  1.00  0.00     0.000 C 
BRANCH   2   3
ATOM      3  C   UNL     1      18.838  18.529  32.462  1.00  0.00     0.000 C 
BRANCH   3   4
ATOM      4  C   UNL     1      18.863  17.300  31.530  1.00  0.00    -0.000 C 
BRANCH   4   5
ATOM      5  C   UNL     1      17.507  16.596  31.324  1.00  0.00    -0.000 C 
BRANCH   5   6
ATOM      6  C   UNL     1      17.099  16.411  29.843  1.00  0.00    -0.000 C 
BRANCH   6   7
ATOM      7  C   UNL     1      16.479  17.671  29.208  1.00  0.00    -0.000 C 
BRANCH   7   8
ATOM      8  C   UNL     1      15.009  17.942  29.590  1.00  0.00    -0.000 C 
BRANCH   8   9
ATOM      9  C   UNL     1      14.816  18.808  30.848  1.00  0.00    -0.000 C 
BRANCH   9  10
ATOM     10  C   UNL     1      13.591  18.395  31.681  1.00  0.00    -0.000 C 
BRANCH  10  11
ATOM     11  C   UNL     1      12.930  17.114  31.146  1.00  0.00    -0.003 C 
ATOM     12  C   UNL     1      13.559  15.847  31.728  1.00  0.00     0.004 C 
ENDBRANCH  10  11
ENDBRANCH   9  10
ENDBRANCH   8   9
ENDBRANCH   7   8
ENDBRANCH   6   7
ENDBRANCH   5   6
ENDBRANCH   4   5
ENDBRANCH   3   4
ENDBRANCH   2   3
ENDBRANCH   1   2
BRANCH   1  13
ATOM     13  C   UNL     1      19.041  20.374  34.437  1.00  0.00     0.000 C 
BRANCH  13  14
ATOM     14  C   UNL     1      19.777  20.222  35.775  1.00  0.00     0.000 C 
BRANCH  14  15
ATOM     15  C   UNL     1      21.074  19.415  35.609  1.00  0.00     0.000 C 
BRANCH  15  16
ATOM     16  C   UNL     1      20.975  18.011  36.243  1.00  0.00     0.000 C 
BRANCH  16  17
ATOM     17  C   UNL     1      20.434  16.933  35.284  1.00  0.00     0.000 C 
BRANCH  17  18
ATOM     18  C   UNL     1      19.283  16.082  35.854  1.00  0.00     0.000 C 
BRANCH  18  19
ATOM     19  C   UNL     1      18.272  15.569  34.810  1.00  0.00     0.000 C 
BRANCH  19  20
ATOM     20  C   UNL     1      16.788  15.761  35.183  1.00  0.00     0.006 C 
BRANCH  20  21
ATOM     21  C   UNL     1      16.556  16.465  36.530  1.00  0.00     0.053 C 
BRANCH  21  22
ATOM     22  C   UNL     1      15.397  15.880  37.279  1.00  0.00     0.041 C 
ATOM     23  O   UNL     1      15.336  14.640  37.484  1.00  0.00    -0.550 OA
ATOM     24  O   UNL     1      14.389  16.707  37.759  1.00  0.00    -0.550 OA
ENDBRANCH  21  22
ENDBRANCH  20  21
ENDBRANCH  19  20
ENDBRANCH  18  19
ENDBRANCH  17  18
ENDBRANCH  16  17
ENDBRANCH  15  16
ENDBRANCH  14  15
ENDBRANCH  13  14
ENDBRANCH   1  13
TORSDOF 20
ENDMDL
MODEL 4
REMARK VINA RESULT:    -4.291      1.636      3.010
REMARK INTER + INTRA:         -13.281
REMARK INTER:                 -10.177
REMARK INTRA:                  -3.103
REMARK UNBOUND:                -3.973
REMARK SMILES CCCCCCCCCCCCCCCCCCCCCC(=O)[O-]
REMARK SMILES IDX 12 1 11 2 10 3 9 4 8 5 7 6 6 7 5 8 4 9 3 10 2 11 1 12 13 13
REMARK SMILES IDX 14 14 15 15 16 16 17 17 18 18 19 19 20 20 21 21 22 22 23 23
REMARK SMILES IDX 24 24
REMARK H PARENT
REMARK Flexibility Score: inf
ROOT
ATOM      1  C   UNL     1      16.934  18.673  33.293  1.00  0.00     0.000 C 
ENDROOT
BRANCH   1   2
ATOM      2  C   UNL     1      15.889  17.903  32.470  1.00  0.00     0.000 C 
BRANCH   2   3
ATOM      3  C   UNL     1      14.688  18.775  32.057  1.00  0.00     0.000 C 
BRANCH   3   4
ATOM      4  C   UNL     1      13.631  18.068  31.182  1.00  0.00    -0.000 C 
BRANCH   4   5
ATOM      5  C   UNL     1      13.583  16.533  31.310  1.00  0.00    -0.000 C 
BRANCH   5   6
ATOM      6  C   UNL     1      13.535  15.778  29.961  1.00  0.00    -0.000 C 
BRANCH   6   7
ATOM      7  C   UNL     1      12.449  16.296  28.997  1.00  0.00    -0.000 C 
BRANCH   7   8
ATOM      8  C   UNL     1      12.973  16.859  27.660  1.00  0.00    -0.000 C 
BRANCH   8   9
ATOM      9  C   UNL     1      14.497  16.760  27.469  1.00  0.00    -0.000 C 
BRANCH   9  10
ATOM     10  C   UNL     1      15.219  18.100  27.687  1.00  0.00    -0.000 C 
BRANCH  10  11
ATOM     11  C   UNL     1      16.559  17.924  28.421  1.00  0.00    -0.003 C 
ATOM     12  C   UNL     1      16.971  19.180  29.190  1.00  0.00     0.004 C 
ENDBRANCH  10  11
ENDBRANCH   9  10
ENDBRANCH   8   9
ENDBRANCH   7   8
ENDBRANCH   6   7
ENDBRANCH   5   6
ENDBRANCH   4   5
ENDBRANCH   3   4
ENDBRANCH   2   3
ENDBRANCH   1   2
BRANCH   1  13
ATOM     13  C   UNL     1      18.309  18.630  32.617  1.00  0.00     0.000 C 
BRANCH  13  14
ATOM     14  C   UNL     1      19.217  19.749  33.145  1.00  0.00     0.000 C 
BRANCH  14  15
ATOM     15  C   UNL     1      18.757  20.234  34.528  1.00  0.00     0.000 C 
BRANCH  15  16
ATOM     16  C   UNL     1      19.878  20.138  35.586  1.00  0.00     0.000 C 
BRANCH  16  17
ATOM     17  C   UNL     1      20.874  18.991  35.333  1.00  0.00     0.000 C 
BRANCH  17  18
ATOM     18  C   UNL     1      20.561  17.686  36.090  1.00  0.00     0.000 C 
BRANCH  18  19
ATOM     19  C   UNL     1      19.749  16.646  35.292  1.00  0.00     0.000 C 
BRANCH  19  20
ATOM     20  C   UNL     1      18.473  16.133  35.990  1.00  0.00     0.006 C 
BRANCH  20  21
ATOM     21  C   UNL     1      17.496  17.238  36.423  1.00  0.00     0.053 C 
BRANCH  21  22
ATOM     22  C   UNL     1      16.126  16.700  36.701  1.00  0.00     0.041 C 
ATOM     23  O   UNL     1      15.505  16.057  35.815  1.00  0.00    -0.550 OA
ATOM     24  O   UNL     1      15.538  16.900  37.945  1.00  0.00    -0.550 OA
ENDBRANCH  21  22
ENDBRANCH  20  21
ENDBRANCH  19  20
ENDBRANCH  18  19
ENDBRANCH  17  18
ENDBRANCH  16  17
ENDBRANCH  15  16
ENDBRANCH  14  15
ENDBRANCH  13  14
ENDBRANCH   1  13
TORSDOF 20
ENDMDL
MODEL 5
REMARK VINA RESULT:    -4.291      1.102      2.219
REMARK INTER + INTRA:         -13.280
REMARK INTER:                  -9.560
REMARK INTRA:                  -3.720
REMARK UNBOUND:                -3.973
REMARK SMILES CCCCCCCCCCCCCCCCCCCCCC(=O)[O-]
REMARK SMILES IDX 12 1 11 2 10 3 9 4 8 5 7 6 6 7 5 8 4 9 3 10 2 11 1 12 13 13
REMARK SMILES IDX 14 14 15 15 16 16 17 17 18 18 19 19 20 20 21 21 22 22 23 23
REMARK SMILES IDX 24 24
REMARK H PARENT
REMARK Flexibility Score: inf
ROOT
ATOM      1  C   UNL     1      16.581  18.075  33.398  1.00  0.00     0.000 C 
ENDROOT
BRANCH   1   2
ATOM      2  C   UNL     1      17.128  16.823  32.694  1.00  0.00     0.000 C 
BRANCH   2   3
ATOM      3  C   UNL     1      18.517  17.044  32.068  1.00  0.00     0.000 C 
BRANCH   3   4
ATOM      4  C   UNL     1      18.746  16.351  30.708  1.00  0.00    -0.000 C 
BRANCH   4   5
ATOM      5  C   UNL     1      17.539  15.569  30.151  1.00  0.00    -0.000 C 
BRANCH   5   6
ATOM      6  C   UNL     1      16.754  16.307  29.042  1.00  0.00    -0.000 C 
BRANCH   6   7
ATOM      7  C   UNL     1      17.151  17.787  28.879  1.00  0.00    -0.000 C 
BRANCH   7   8
ATOM      8  C   UNL     1      16.215  18.798  29.572  1.00  0.00    -0.000 C 
BRANCH   8   9
ATOM      9  C   UNL     1      14.717  18.454  29.492  1.00  0.00    -0.000 C 
BRANCH   9  10
ATOM     10  C   UNL     1      14.064  18.283  30.873  1.00  0.00    -0.000 C 
BRANCH  10  11
ATOM     11  C   UNL     1      13.122  17.069  30.924  1.00  0.00    -0.003 C 
ATOM     12  C   UNL     1      13.737  15.884  31.671  1.00  0.00     0.004 C 
ENDBRANCH  10  11
ENDBRANCH   9  10
ENDBRANCH   8   9
ENDBRANCH   7   8
ENDBRANCH   6   7
ENDBRANCH   5   6
ENDBRANCH   4   5
ENDBRANCH   3   4
ENDBRANCH   2   3
ENDBRANCH   1   2
BRANCH   1  13
ATOM     13  C   UNL     1      17.597  19.222  33.352  1.00  0.00     0.000 C 
BRANCH  13  14
ATOM     14  C   UNL     1      17.950  19.702  34.766  1.00  0.00     0.000 C 
BRANCH  14  15
ATOM     15  C   UNL     1      19.454  19.986  34.899  1.00  0.00     0.000 C 
BRANCH  15  16
ATOM     16  C   UNL     1      20.294  18.691  34.946  1.00  0.00     0.000 C 
BRANCH  16  17
ATOM     17  C   UNL     1      19.996  17.803  36.168  1.00  0.00     0.000 C 
BRANCH  17  18
ATOM     18  C   UNL     1      19.967  16.290  35.875  1.00  0.00     0.000 C 
BRANCH  18  19
ATOM     19  C   UNL     1      18.574  15.715  35.549  1.00  0.00     0.000 C 
BRANCH  19  20
ATOM     20  C   UNL     1      17.438  16.176  36.484  1.00  0.00     0.006 C 
BRANCH  20  21
ATOM     21  C   UNL     1      16.117  15.410  36.307  1.00  0.00     0.053 C 
BRANCH  21  22
ATOM     22  C   UNL     1      15.215  15.561  37.493  1.00  0.00     0.041 C 
ATOM     23  O   UNL     1      15.189  14.675  38.387  1.00  0.00    -0.550 OA
ATOM     24  O   UNL     1      14.410  16.687  37.618  1.00  0.00    -0.550 OA
ENDBRANCH  21  22
ENDBRANCH  20  21
ENDBRANCH  19  20
ENDBRANCH  18  19
ENDBRANCH  17  18
ENDBRANCH  16  17
ENDBRANCH  15  16
ENDBRANCH  14  15
ENDBRANCH  13  14
ENDBRANCH   1  13
TORSDOF 20
ENDMDL
MODEL 6
REMARK VINA RESULT:    -4.280      1.139      3.154
REMARK INTER + INTRA:         -13.256
REMARK INTER:                  -9.491
REMARK INTRA:                  -3.764
REMARK UNBOUND:                -3.973
REMARK SMILES CCCCCCCCCCCCCCCCCCCCCC(=O)[O-]
REMARK SMILES IDX 12 1 11 2 10 3 9 4 8 5 7 6 6 7 5 8 4 9 3 10 2 11 1 12 13 13
REMARK SMILES IDX 14 14 15 15 16 16 17 17 18 18 19 19 20 20 21 21 22 22 23 23
REMARK SMILES IDX 24 24
REMARK H PARENT
REMARK Flexibility Score: inf
ROOT
ATOM      1  C   UNL     1      16.983  19.087  33.282  1.00  0.00     0.000 C 
ENDROOT
BRANCH   1   2
ATOM      2  C   UNL     1      15.932  18.129  32.699  1.00  0.00     0.000 C 
BRANCH   2   3
ATOM      3  C   UNL     1      14.685  18.858  32.166  1.00  0.00     0.000 C 
BRANCH   3   4
ATOM      4  C   UNL     1      13.814  18.044  31.185  1.00  0.00    -0.000 C 
BRANCH   4   5
ATOM      5  C   UNL     1      13.923  16.511  31.317  1.00  0.00    -0.000 C 
BRANCH   5   6
ATOM      6  C   UNL     1      14.629  15.814  30.131  1.00  0.00    -0.000 C 
BRANCH   6   7
ATOM      7  C   UNL     1      15.426  16.778  29.229  1.00  0.00    -0.000 C 
BRANCH   7   8
ATOM      8  C   UNL     1      16.960  16.628  29.303  1.00  0.00    -0.000 C 
BRANCH   8   9
ATOM      9  C   UNL     1      17.453  15.389  30.073  1.00  0.00    -0.000 C 
BRANCH   9  10
ATOM     10  C   UNL     1      18.708  15.666  30.917  1.00  0.00    -0.000 C 
BRANCH  10  11
ATOM     11  C   UNL     1      18.601  15.069  32.329  1.00  0.00    -0.003 C 
ATOM     12  C   UNL     1      17.158  14.742  32.717  1.00  0.00     0.004 C 
ENDBRANCH  10  11
ENDBRANCH   9  10
ENDBRANCH   8   9
ENDBRANCH   7   8
ENDBRANCH   6   7
ENDBRANCH   5   6
ENDBRANCH   4   5
ENDBRANCH   3   4
ENDBRANCH   2   3
ENDBRANCH   1   2
BRANCH   1  13
ATOM     13  C   UNL     1      18.328  18.933  32.563  1.00  0.00     0.000 C 
BRANCH  13  14
ATOM     14  C   UNL     1      19.433  19.711  33.290  1.00  0.00     0.000 C 
BRANCH  14  15
ATOM     15  C   UNL     1      18.940  20.244  34.644  1.00  0.00     0.000 C 
BRANCH  15  16
ATOM     16  C   UNL     1      19.986  20.055  35.764  1.00  0.00     0.000 C 
BRANCH  16  17
ATOM     17  C   UNL     1      20.930  18.860  35.537  1.00  0.00     0.000 C 
BRANCH  17  18
ATOM     18  C   UNL     1      20.459  17.537  36.171  1.00  0.00     0.000 C 
BRANCH  18  19
ATOM     19  C   UNL     1      19.486  16.709  35.308  1.00  0.00     0.000 C 
BRANCH  19  20
ATOM     20  C   UNL     1      18.281  16.114  36.065  1.00  0.00     0.006 C 
BRANCH  20  21
ATOM     21  C   UNL     1      17.214  17.142  36.474  1.00  0.00     0.053 C 
BRANCH  21  22
ATOM     22  C   UNL     1      15.917  16.491  36.845  1.00  0.00     0.041 C 
ATOM     23  O   UNL     1      15.416  15.607  36.103  1.00  0.00    -0.550 OA
ATOM     24  O   UNL     1      15.267  16.853  38.019  1.00  0.00    -0.550 OA
ENDBRANCH  21  22
ENDBRANCH  20  21
ENDBRANCH  19  20
ENDBRANCH  18  19
ENDBRANCH  17  18
ENDBRANCH  16  17
ENDBRANCH  15  16
ENDBRANCH  14  15
ENDBRANCH  13  14
ENDBRANCH   1  13
TORSDOF 20
ENDMDL
MODEL 7
REMARK VINA RESULT:    -4.219      2.315      6.368
REMARK INTER + INTRA:         -13.123
REMARK INTER:                  -8.945
REMARK INTRA:                  -4.179
REMARK UNBOUND:                -3.973
REMARK SMILES CCCCCCCCCCCCCCCCCCCCCC(=O)[O-]
REMARK SMILES IDX 12 1 11 2 10 3 9 4 8 5 7 6 6 7 5 8 4 9 3 10 2 11 1 12 13 13
REMARK SMILES IDX 14 14 15 15 16 16 17 17 18 18 19 19 20 20 21 21 22 22 23 23
REMARK SMILES IDX 24 24
REMARK H PARENT
REMARK Flexibility Score: inf
ROOT
ATOM      1  C   UNL     1      17.029  18.477  33.111  1.00  0.00     0.000 C 
ENDROOT
BRANCH   1   2
ATOM      2  C   UNL     1      18.469  18.544  32.579  1.00  0.00     0.000 C 
BRANCH   2   3
ATOM      3  C   UNL     1      19.258  19.747  33.129  1.00  0.00     0.000 C 
BRANCH   3   4
ATOM      4  C   UNL     1      18.769  20.289  34.489  1.00  0.00    -0.000 C 
BRANCH   4   5
ATOM      5  C   UNL     1      19.813  20.274  35.624  1.00  0.00    -0.000 C 
BRANCH   5   6
ATOM      6  C   UNL     1      20.927  19.215  35.456  1.00  0.00    -0.000 C 
BRANCH   6   7
ATOM      7  C   UNL     1      20.664  17.908  36.229  1.00  0.00    -0.000 C 
BRANCH   7   8
ATOM      8  C   UNL     1      20.202  16.716  35.366  1.00  0.00    -0.000 C 
BRANCH   8   9
ATOM      9  C   UNL     1      18.774  16.221  35.656  1.00  0.00    -0.000 C 
BRANCH   9  10
ATOM     10  C   UNL     1      17.911  17.265  36.385  1.00  0.00    -0.000 C 
BRANCH  10  11
ATOM     11  C   UNL     1      16.478  16.767  36.628  1.00  0.00    -0.003 C 
ATOM     12  C   UNL     1      16.278  15.319  36.176  1.00  0.00     0.004 C 
ENDBRANCH  10  11
ENDBRANCH   9  10
ENDBRANCH   8   9
ENDBRANCH   7   8
ENDBRANCH   6   7
ENDBRANCH   5   6
ENDBRANCH   4   5
ENDBRANCH   3   4
ENDBRANCH   2   3
ENDBRANCH   1   2
BRANCH   1  13
ATOM     13  C   UNL     1      16.426  17.084  32.896  1.00  0.00     0.000 C 
BRANCH  13  14
ATOM     14  C   UNL     1      17.393  16.180  32.120  1.00  0.00     0.000 C 
BRANCH  14  15
ATOM     15  C   UNL     1      16.634  15.230  31.180  1.00  0.00     0.000 C 
BRANCH  15  16
ATOM     16  C   UNL     1      16.866  15.570  29.692  1.00  0.00     0.000 C 
BRANCH  16  17
ATOM     17  C   UNL     1      17.843  16.739  29.467  1.00  0.00     0.000 C 
BRANCH  17  18
ATOM     18  C   UNL     1      17.244  17.944  28.716  1.00  0.00     0.000 C 
BRANCH  18  19
ATOM     19  C   UNL     1      16.284  18.819  29.546  1.00  0.00     0.000 C 
BRANCH  19  20
ATOM     20  C   UNL     1      14.788  18.472  29.402  1.00  0.00     0.006 C 
BRANCH  20  21
ATOM     21  C   UNL     1      13.991  18.531  30.715  1.00  0.00     0.053 C 
BRANCH  21  22
ATOM     22  C   UNL     1      13.150  17.308  30.919  1.00  0.00     0.041 C 
ATOM     23  O   UNL     1      12.374  17.230  31.907  1.00  0.00    -0.550 OA
ATOM     24  O   UNL     1      13.216  16.258  30.011  1.00  0.00    -0.550 OA
ENDBRANCH  21  22
ENDBRANCH  20  21
ENDBRANCH  19  20
ENDBRANCH  18  19
ENDBRANCH  17  18
ENDBRANCH  16  17
ENDBRANCH  15  16
ENDBRANCH  14  15
ENDBRANCH  13  14
ENDBRANCH   1  13
TORSDOF 20
ENDMDL
MODEL 8
REMARK VINA RESULT:    -4.184      1.277      2.634
REMARK INTER + INTRA:         -13.049
REMARK INTER:                  -9.783
REMARK INTRA:                  -3.266
REMARK UNBOUND:                -3.973
REMARK SMILES CCCCCCCCCCCCCCCCCCCCCC(=O)[O-]
REMARK SMILES IDX 12 1 11 2 10 3 9 4 8 5 7 6 6 7 5 8 4 9 3 10 2 11 1 12 13 13
REMARK SMILES IDX 14 14 15 15 16 16 17 17 18 18 19 19 20 20 21 21 22 22 23 23
REMARK SMILES IDX 24 24
REMARK H PARENT
REMARK Flexibility Score: inf
ROOT
ATOM      1  C   UNL     1      17.717  19.225  33.663  1.00  0.00     0.000 C 
ENDROOT
BRANCH   1   2
ATOM      2  C   UNL     1      18.146  18.783  32.255  1.00  0.00     0.000 C 
BRANCH   2   3
ATOM      3  C   UNL     1      16.955  18.407  31.355  1.00  0.00     0.000 C 
BRANCH   3   4
ATOM      4  C   UNL     1      15.666  18.002  32.101  1.00  0.00    -0.000 C 
BRANCH   4   5
ATOM      5  C   UNL     1      14.406  18.814  31.739  1.00  0.00    -0.000 C 
BRANCH   5   6
ATOM      6  C   UNL     1      13.130  17.963  31.543  1.00  0.00    -0.000 C 
BRANCH   6   7
ATOM      7  C   UNL     1      13.320  16.768  30.589  1.00  0.00    -0.000 C 
BRANCH   7   8
ATOM      8  C   UNL     1      13.683  17.140  29.136  1.00  0.00    -0.000 C 
BRANCH   8   9
ATOM      9  C   UNL     1      14.945  16.449  28.587  1.00  0.00    -0.000 C 
BRANCH   9  10
ATOM     10  C   UNL     1      15.391  15.248  29.437  1.00  0.00    -0.000 C 
BRANCH  10  11
ATOM     11  C   UNL     1      16.916  15.208  29.629  1.00  0.00    -0.003 C 
ATOM     12  C   UNL     1      17.315  14.797  31.048  1.00  0.00     0.004 C 
ENDBRANCH  10  11
ENDBRANCH   9  10
ENDBRANCH   8   9
ENDBRANCH   7   8
ENDBRANCH   6   7
ENDBRANCH   5   6
ENDBRANCH   4   5
ENDBRANCH   3   4
ENDBRANCH   2   3
ENDBRANCH   1   2
BRANCH   1  13
ATOM     13  C   UNL     1      18.677  20.279  34.227  1.00  0.00     0.000 C 
BRANCH  13  14
ATOM     14  C   UNL     1      19.091  19.934  35.664  1.00  0.00     0.000 C 
BRANCH  14  15
ATOM     15  C   UNL     1      20.598  19.653  35.758  1.00  0.00     0.000 C 
BRANCH  15  16
ATOM     16  C   UNL     1      20.899  18.199  36.185  1.00  0.00     0.000 C 
BRANCH  16  17
ATOM     17  C   UNL     1      20.377  17.141  35.194  1.00  0.00     0.000 C 
BRANCH  17  18
ATOM     18  C   UNL     1      19.259  16.237  35.746  1.00  0.00     0.000 C 
BRANCH  18  19
ATOM     19  C   UNL     1      18.259  15.718  34.693  1.00  0.00     0.000 C 
BRANCH  19  20
ATOM     20  C   UNL     1      16.771  15.866  35.072  1.00  0.00     0.006 C 
BRANCH  20  21
ATOM     21  C   UNL     1      16.524  16.485  36.457  1.00  0.00     0.053 C 
BRANCH  21  22
ATOM     22  C   UNL     1      15.283  15.948  37.101  1.00  0.00     0.041 C 
ATOM     23  O   UNL     1      14.526  16.712  37.754  1.00  0.00    -0.550 OA
ATOM     24  O   UNL     1      14.955  14.603  36.969  1.00  0.00    -0.550 OA
ENDBRANCH  21  22
ENDBRANCH  20  21
ENDBRANCH  19  20
ENDBRANCH  18  19
ENDBRANCH  17  18
ENDBRANCH  16  17
ENDBRANCH  15  16
ENDBRANCH  14  15
ENDBRANCH  13  14
ENDBRANCH   1  13
TORSDOF 20
ENDMDL
MODEL 9
REMARK VINA RESULT:    -4.183      1.400      2.871
REMARK INTER + INTRA:         -13.047
REMARK INTER:                  -9.610
REMARK INTRA:                  -3.437
REMARK UNBOUND:                -3.973
REMARK SMILES CCCCCCCCCCCCCCCCCCCCCC(=O)[O-]
REMARK SMILES IDX 12 1 11 2 10 3 9 4 8 5 7 6 6 7 5 8 4 9 3 10 2 11 1 12 13 13
REMARK SMILES IDX 14 14 15 15 16 16 17 17 18 18 19 19 20 20 21 21 22 22 23 23
REMARK SMILES IDX 24 24
REMARK H PARENT
REMARK Flexibility Score: inf
ROOT
ATOM      1  C   UNL     1      20.454  16.442  34.574  1.00  0.00     0.000 C 
ENDROOT
BRANCH   1   2
ATOM      2  C   UNL     1      19.770  15.074  34.430  1.00  0.00     0.000 C 
BRANCH   2   3
ATOM      3  C   UNL     1      18.946  14.946  33.136  1.00  0.00     0.000 C 
BRANCH   3   4
ATOM      4  C   UNL     1      18.931  16.201  32.238  1.00  0.00    -0.000 C 
BRANCH   4   5
ATOM      5  C   UNL     1      17.584  16.512  31.555  1.00  0.00    -0.000 C 
BRANCH   5   6
ATOM      6  C   UNL     1      17.460  17.954  31.010  1.00  0.00    -0.000 C 
BRANCH   6   7
ATOM      7  C   UNL     1      16.072  18.280  30.426  1.00  0.00    -0.000 C 
BRANCH   7   8
ATOM      8  C   UNL     1      15.046  18.828  31.439  1.00  0.00    -0.000 C 
BRANCH   8   9
ATOM      9  C   UNL     1      13.770  17.980  31.593  1.00  0.00    -0.000 C 
BRANCH   9  10
ATOM     10  C   UNL     1      13.912  16.568  31.000  1.00  0.00    -0.000 C 
BRANCH  10  11
ATOM     11  C   UNL     1      12.771  16.229  30.027  1.00  0.00    -0.003 C 
ATOM     12  C   UNL     1      13.000  16.815  28.633  1.00  0.00     0.004 C 
ENDBRANCH  10  11
ENDBRANCH   9  10
ENDBRANCH   8   9
ENDBRANCH   7   8
ENDBRANCH   6   7
ENDBRANCH   5   6
ENDBRANCH   4   5
ENDBRANCH   3   4
ENDBRANCH   2   3
ENDBRANCH   1   2
BRANCH   1  13
ATOM     13  C   UNL     1      20.836  16.717  36.033  1.00  0.00     0.000 C 
BRANCH  13  14
ATOM     14  C   UNL     1      21.030  18.220  36.277  1.00  0.00     0.000 C 
BRANCH  14  15
ATOM     15  C   UNL     1      20.601  19.043  35.053  1.00  0.00     0.000 C 
BRANCH  15  16
ATOM     16  C   UNL     1      19.680  20.223  35.432  1.00  0.00     0.000 C 
BRANCH  16  17
ATOM     17  C   UNL     1      18.195  19.834  35.559  1.00  0.00     0.000 C 
BRANCH  17  18
ATOM     18  C   UNL     1      17.663  18.937  34.425  1.00  0.00     0.000 C 
BRANCH  18  19
ATOM     19  C   UNL     1      17.011  17.619  34.885  1.00  0.00     0.000 C 
BRANCH  19  20
ATOM     20  C   UNL     1      17.315  17.209  36.341  1.00  0.00     0.006 C 
BRANCH  20  21
ATOM     21  C   UNL     1      16.917  15.766  36.693  1.00  0.00     0.053 C 
BRANCH  21  22
ATOM     22  C   UNL     1      15.597  15.702  37.398  1.00  0.00     0.041 C 
ATOM     23  O   UNL     1      14.921  14.641  37.382  1.00  0.00    -0.550 OA
ATOM     24  O   UNL     1      15.119  16.812  38.083  1.00  0.00    -0.550 OA
ENDBRANCH  21  22
ENDBRANCH  20  21
ENDBRANCH  19  20
ENDBRANCH  18  19
ENDBRANCH  17  18
ENDBRANCH  16  17
ENDBRANCH  15  16
ENDBRANCH  14  15
ENDBRANCH  13  14
ENDBRANCH   1  13
TORSDOF 20
ENDMDL
