MODEL 1
REMARK VINA RESULT:    -4.966      0.000      0.000
REMARK INTER + INTRA:          -6.327
REMARK INTER:                  -6.128
REMARK INTRA:                  -0.199
REMARK UNBOUND:                -0.199
REMARK SMILES C=CC[C@H](C)C(=O)CC
REMARK SMILES IDX 4 1 5 2 6 3 7 4 8 5 9 6 3 7 2 8 1 9
REMARK H PARENT
REMARK Flexibility Score: inf
ROOT
ATOM      1  C   UNL     1      -4.626 -13.274  29.179  1.00  0.00     0.057 C 
ATOM      2  C   UNL     1      -5.823 -14.009  28.557  1.00  0.00     0.016 C 
ENDROOT
BRANCH   1   3
ATOM      3  C   UNL     1      -3.402 -13.404  28.295  1.00  0.00     0.135 C 
ATOM      4  O   UNL     1      -2.327 -13.679  28.807  1.00  0.00    -0.299 OA
BRANCH   3   5
ATOM      5  C   UNL     1      -3.474 -13.229  26.798  1.00  0.00     0.072 C 
ATOM      6  C   UNL     1      -3.067 -11.816  26.393  1.00  0.00     0.012 C 
ENDBRANCH   3   5
ENDBRANCH   1   3
BRANCH   1   7
ATOM      7  C   UNL     1      -4.322 -13.769  30.606  1.00  0.00     0.038 C 
BRANCH   7   8
ATOM      8  C   UNL     1      -5.407 -14.681  31.117  1.00  0.00    -0.034 C 
ATOM      9  C   UNL     1      -5.426 -15.119  32.379  1.00  0.00     0.004 C 
ENDBRANCH   7   8
ENDBRANCH   1   7
TORSDOF 4
ENDMDL
MODEL 2
REMARK VINA RESULT:    -4.958      1.479      2.060
REMARK INTER + INTRA:          -6.317
REMARK INTER:                  -6.070
REMARK INTRA:                  -0.248
REMARK UNBOUND:                -0.199
REMARK SMILES C=CC[C@H](C)C(=O)CC
REMARK SMILES IDX 4 1 5 2 6 3 7 4 8 5 9 6 3 7 2 8 1 9
REMARK H PARENT
REMARK Flexibility Score: inf
ROOT
ATOM      1  C   UNL     1      -4.120 -13.528  29.085  1.00  0.00     0.057 C 
ATOM      2  C   UNL     1      -3.913 -12.265  29.935  1.00  0.00     0.016 C 
ENDROOT
BRANCH   1   3
ATOM      3  C   UNL     1      -3.118 -13.578  27.950  1.00  0.00     0.135 C 
ATOM      4  O   UNL     1      -1.994 -14.005  28.169  1.00  0.00    -0.299 OA
BRANCH   3   5
ATOM      5  C   UNL     1      -3.473 -13.141  26.550  1.00  0.00     0.072 C 
ATOM      6  C   UNL     1      -2.981 -11.723  26.280  1.00  0.00     0.012 C 
ENDBRANCH   3   5
ENDBRANCH   1   3
BRANCH   1   7
ATOM      7  C   UNL     1      -5.560 -13.631  28.545  1.00  0.00     0.038 C 
BRANCH   7   8
ATOM      8  C   UNL     1      -6.302 -14.785  29.169  1.00  0.00    -0.034 C 
ATOM      9  C   UNL     1      -7.458 -15.233  28.670  1.00  0.00     0.004 C 
ENDBRANCH   7   8
ENDBRANCH   1   7
TORSDOF 4
ENDMDL
MODEL 3
REMARK VINA RESULT:    -4.805      1.615      3.293
REMARK INTER + INTRA:          -6.128
REMARK INTER:                  -5.726
REMARK INTRA:                  -0.401
REMARK UNBOUND:                -0.199
REMARK SMILES C=CC[C@H](C)C(=O)CC
REMARK SMILES IDX 4 1 5 2 6 3 7 4 8 5 9 6 3 7 2 8 1 9
REMARK H PARENT
REMARK Flexibility Score: inf
ROOT
ATOM      1  C   UNL     1      -4.548 -12.837  29.333  1.00  0.00     0.057 C 
ATOM      2  C   UNL     1      -4.438 -11.361  28.923  1.00  0.00     0.016 C 
ENDROOT
BRANCH   1   3
ATOM      3  C   UNL     1      -3.248 -13.318  29.948  1.00  0.00     0.135 C 
ATOM      4  O   UNL     1      -2.333 -13.655  29.211  1.00  0.00    -0.299 OA
BRANCH   3   5
ATOM      5  C   UNL     1      -3.041 -13.370  31.442  1.00  0.00     0.072 C 
ATOM      6  C   UNL     1      -4.249 -13.987  32.139  1.00  0.00     0.012 C 
ENDBRANCH   3   5
ENDBRANCH   1   3
BRANCH   1   7
ATOM      7  C   UNL     1      -4.956 -13.737  28.150  1.00  0.00     0.038 C 
BRANCH   7   8
ATOM      8  C   UNL     1      -6.294 -14.387  28.388  1.00  0.00    -0.034 C 
ATOM      9  C   UNL     1      -6.529 -15.147  29.462  1.00  0.00     0.004 C 
ENDBRANCH   7   8
ENDBRANCH   1   7
TORSDOF 4
ENDMDL
MODEL 4
REMARK VINA RESULT:    -4.729      1.155      4.298
REMARK INTER + INTRA:          -6.034
REMARK INTER:                  -5.820
REMARK INTRA:                  -0.214
REMARK UNBOUND:                -0.199
REMARK SMILES C=CC[C@H](C)C(=O)CC
REMARK SMILES IDX 4 1 5 2 6 3 7 4 8 5 9 6 3 7 2 8 1 9
REMARK H PARENT
REMARK Flexibility Score: inf
ROOT
ATOM      1  C   UNL     1      -4.693 -13.582  28.996  1.00  0.00     0.057 C 
ATOM      2  C   UNL     1      -5.974 -14.194  28.410  1.00  0.00     0.016 C 
ENDROOT
BRANCH   1   3
ATOM      3  C   UNL     1      -4.548 -13.947  30.460  1.00  0.00     0.135 C 
ATOM      4  O   UNL     1      -3.590 -13.518  31.087  1.00  0.00    -0.299 OA
BRANCH   3   5
ATOM      5  C   UNL     1      -5.564 -14.804  31.175  1.00  0.00     0.072 C 
ATOM      6  C   UNL     1      -5.141 -15.064  32.617  1.00  0.00     0.012 C 
ENDBRANCH   3   5
ENDBRANCH   1   3
BRANCH   1   7
ATOM      7  C   UNL     1      -4.646 -12.052  28.810  1.00  0.00     0.038 C 
BRANCH   7   8
ATOM      8  C   UNL     1      -3.474 -11.636  27.960  1.00  0.00    -0.034 C 
ATOM      9  C   UNL     1      -3.164 -12.271  26.826  1.00  0.00     0.004 C 
ENDBRANCH   7   8
ENDBRANCH   1   7
TORSDOF 4
ENDMDL
MODEL 5
REMARK VINA RESULT:    -4.677      1.871      4.270
REMARK INTER + INTRA:          -5.970
REMARK INTER:                  -5.735
REMARK INTRA:                  -0.235
REMARK UNBOUND:                -0.199
REMARK SMILES C=CC[C@H](C)C(=O)CC
REMARK SMILES IDX 4 1 5 2 6 3 7 4 8 5 9 6 3 7 2 8 1 9
REMARK H PARENT
REMARK Flexibility Score: inf
ROOT
ATOM      1  C   UNL     1      -4.013 -12.751  29.608  1.00  0.00     0.057 C 
ATOM      2  C   UNL     1      -2.592 -13.313  29.775  1.00  0.00     0.016 C 
ENDROOT
BRANCH   1   3
ATOM      3  C   UNL     1      -5.034 -13.872  29.622  1.00  0.00     0.135 C 
ATOM      4  O   UNL     1      -5.221 -14.491  30.659  1.00  0.00    -0.299 OA
BRANCH   3   5
ATOM      5  C   UNL     1      -5.845 -14.229  28.401  1.00  0.00     0.072 C 
ATOM      6  C   UNL     1      -7.047 -15.089  28.777  1.00  0.00     0.012 C 
ENDBRANCH   3   5
ENDBRANCH   1   3
BRANCH   1   7
ATOM      7  C   UNL     1      -4.152 -11.904  28.328  1.00  0.00     0.038 C 
BRANCH   7   8
ATOM      8  C   UNL     1      -3.007 -12.145  27.379  1.00  0.00    -0.034 C 
ATOM      9  C   UNL     1      -2.897 -11.485  26.223  1.00  0.00     0.004 C 
ENDBRANCH   7   8
ENDBRANCH   1   7
TORSDOF 4
ENDMDL
MODEL 6
REMARK VINA RESULT:    -4.674      1.613      2.635
REMARK INTER + INTRA:          -5.967
REMARK INTER:                  -5.553
REMARK INTRA:                  -0.414
REMARK UNBOUND:                -0.199
REMARK SMILES C=CC[C@H](C)C(=O)CC
REMARK SMILES IDX 4 1 5 2 6 3 7 4 8 5 9 6 3 7 2 8 1 9
REMARK H PARENT
REMARK Flexibility Score: inf
ROOT
ATOM      1  C   UNL     1      -2.962 -13.486  31.068  1.00  0.00     0.057 C 
ATOM      2  C   UNL     1      -1.701 -12.674  31.402  1.00  0.00     0.016 C 
ENDROOT
BRANCH   1   3
ATOM      3  C   UNL     1      -3.306 -13.357  29.598  1.00  0.00     0.135 C 
ATOM      4  O   UNL     1      -2.504 -13.752  28.764  1.00  0.00    -0.299 OA
BRANCH   3   5
ATOM      5  C   UNL     1      -4.620 -12.779  29.131  1.00  0.00     0.072 C 
ATOM      6  C   UNL     1      -5.522 -13.867  28.558  1.00  0.00     0.012 C 
ENDBRANCH   3   5
ENDBRANCH   1   3
BRANCH   1   7
ATOM      7  C   UNL     1      -4.161 -13.076  31.946  1.00  0.00     0.038 C 
BRANCH   7   8
ATOM      8  C   UNL     1      -4.707 -14.250  32.717  1.00  0.00    -0.034 C 
ATOM      9  C   UNL     1      -5.522 -15.147  32.154  1.00  0.00     0.004 C 
ENDBRANCH   7   8
ENDBRANCH   1   7
TORSDOF 4
ENDMDL
MODEL 7
REMARK VINA RESULT:    -4.620      1.858      2.605
REMARK INTER + INTRA:          -5.900
REMARK INTER:                  -5.666
REMARK INTRA:                  -0.234
REMARK UNBOUND:                -0.199
REMARK SMILES C=CC[C@H](C)C(=O)CC
REMARK SMILES IDX 4 1 5 2 6 3 7 4 8 5 9 6 3 7 2 8 1 9
REMARK H PARENT
REMARK Flexibility Score: inf
ROOT
ATOM      1  C   UNL     1      -4.053 -12.827  29.900  1.00  0.00     0.057 C 
ATOM      2  C   UNL     1      -4.395 -11.832  28.781  1.00  0.00     0.016 C 
ENDROOT
BRANCH   1   3
ATOM      3  C   UNL     1      -2.604 -13.259  29.805  1.00  0.00     0.135 C 
ATOM      4  O   UNL     1      -1.915 -13.253  30.815  1.00  0.00    -0.299 OA
BRANCH   3   5
ATOM      5  C   UNL     1      -1.991 -13.722  28.506  1.00  0.00     0.072 C 
ATOM      6  C   UNL     1      -0.473 -13.824  28.625  1.00  0.00     0.012 C 
ENDBRANCH   3   5
ENDBRANCH   1   3
BRANCH   1   7
ATOM      7  C   UNL     1      -4.988 -14.052  29.890  1.00  0.00     0.038 C 
BRANCH   7   8
ATOM      8  C   UNL     1      -5.817 -14.103  28.632  1.00  0.00    -0.034 C 
ATOM      9  C   UNL     1      -6.906 -14.871  28.535  1.00  0.00     0.004 C 
ENDBRANCH   7   8
ENDBRANCH   1   7
TORSDOF 4
ENDMDL
MODEL 8
REMARK VINA RESULT:    -4.610      1.957      3.239
REMARK INTER + INTRA:          -5.888
REMARK INTER:                  -5.715
REMARK INTRA:                  -0.173
REMARK UNBOUND:                -0.199
REMARK SMILES C=CC[C@H](C)C(=O)CC
REMARK SMILES IDX 4 1 5 2 6 3 7 4 8 5 9 6 3 7 2 8 1 9
REMARK H PARENT
REMARK Flexibility Score: inf
ROOT
ATOM      1  C   UNL     1      -4.024 -12.721  29.998  1.00  0.00     0.057 C 
ATOM      2  C   UNL     1      -4.243 -11.803  28.786  1.00  0.00     0.016 C 
ENDROOT
BRANCH   1   3
ATOM      3  C   UNL     1      -2.561 -13.094  30.127  1.00  0.00     0.135 C 
ATOM      4  O   UNL     1      -1.921 -13.342  29.115  1.00  0.00    -0.299 OA
BRANCH   3   5
ATOM      5  C   UNL     1      -1.862 -13.144  31.463  1.00  0.00     0.072 C 
ATOM      6  C   UNL     1      -0.365 -12.900  31.306  1.00  0.00     0.012 C 
ENDBRANCH   3   5
ENDBRANCH   1   3
BRANCH   1   7
ATOM      7  C   UNL     1      -4.905 -13.984  29.934  1.00  0.00     0.038 C 
BRANCH   7   8
ATOM      8  C   UNL     1      -5.704 -14.034  28.658  1.00  0.00    -0.034 C 
ATOM      9  C   UNL     1      -6.807 -14.779  28.544  1.00  0.00     0.004 C 
ENDBRANCH   7   8
ENDBRANCH   1   7
TORSDOF 4
ENDMDL
MODEL 9
REMARK VINA RESULT:    -4.605      1.899      2.926
REMARK INTER + INTRA:          -5.881
REMARK INTER:                  -5.662
REMARK INTRA:                  -0.220
REMARK UNBOUND:                -0.199
REMARK SMILES C=CC[C@H](C)C(=O)CC
REMARK SMILES IDX 4 1 5 2 6 3 7 4 8 5 9 6 3 7 2 8 1 9
REMARK H PARENT
REMARK Flexibility Score: inf
ROOT
ATOM      1  C   UNL     1      -4.487 -13.607  29.169  1.00  0.00     0.057 C 
ATOM      2  C   UNL     1      -4.610 -13.847  30.682  1.00  0.00     0.016 C 
ENDROOT
BRANCH   1   3
ATOM      3  C   UNL     1      -4.027 -12.190  28.889  1.00  0.00     0.135 C 
ATOM      4  O   UNL     1      -3.624 -11.907  27.770  1.00  0.00    -0.299 OA
BRANCH   3   5
ATOM      5  C   UNL     1      -4.074 -11.111  29.943  1.00  0.00     0.072 C 
ATOM      6  C   UNL     1      -4.865  -9.903  29.451  1.00  0.00     0.012 C 
ENDBRANCH   3   5
ENDBRANCH   1   3
BRANCH   1   7
ATOM      7  C   UNL     1      -5.805 -13.907  28.428  1.00  0.00     0.038 C 
BRANCH   7   8
ATOM      8  C   UNL     1      -6.600 -14.977  29.129  1.00  0.00    -0.034 C 
ATOM      9  C   UNL     1      -7.787 -15.388  28.673  1.00  0.00     0.004 C 
ENDBRANCH   7   8
ENDBRANCH   1   7
TORSDOF 4
ENDMDL
