MODEL 1
REMARK VINA RESULT:    -2.849      0.000      0.000
REMARK INTER + INTRA:          -3.437
REMARK INTER:                  -4.015
REMARK INTRA:                   0.578
REMARK UNBOUND:                 0.578
REMARK SMILES CC1=CCC(=C(C)C)C(=O)CC(C)=CCC1
REMARK SMILES IDX 12 1 14 2 13 3 15 4 16 5 2 6 1 7 3 8 11 10 9 11 10 12 5 13
REMARK SMILES IDX 6 14 7 15 8 16 4 17
REMARK H PARENT
REMARK Flexibility Score: 60.00
ROOT
ATOM      1  C   UNL     1     -10.076 -13.139  -7.270  1.00  0.00    -0.070 C 
ATOM      2  C   UNL     1     -10.602 -12.979  -6.033  1.00  0.00    -0.027 C 
ATOM      3  C   UNL     1     -10.116 -14.524  -7.867  1.00  0.00     0.039 C 
ENDROOT
BRANCH   2   4
ATOM      4  C   UNL     1     -10.763 -11.673  -5.293  1.00  0.00     0.032 C 
BRANCH   4   5
ATOM      5  C   UNL     1      -9.991 -11.648  -3.960  1.00  0.00     0.034 C 
BRANCH   5   6
ATOM      6  C   UNL     1      -8.541 -12.058  -4.130  1.00  0.00    -0.077 C 
ATOM      7  C   UNL     1      -8.049 -13.275  -3.389  1.00  0.00     0.039 C 
ATOM      8  C   UNL     1      -7.654 -11.378  -4.891  1.00  0.00    -0.023 CG0
ATOM      9  G   UNL     1      -7.946 -10.122  -5.677  1.00  0.00     0.000 G0
ENDBRANCH   5   6
ENDBRANCH   4   5
ENDBRANCH   2   4
BRANCH   1  10
ATOM     10  C   UNL     1      -9.512 -11.999  -8.102  1.00  0.00     0.111 C 
BRANCH  10  11
ATOM     11  C   UNL     1      -8.084 -11.692  -7.729  1.00  0.00     0.163 C 
ATOM     12  O   UNL     1      -7.228 -12.611  -7.845  1.00  0.00    -0.294 OA
BRANCH  11  13
ATOM     13  C   UNL     1      -7.677 -10.359  -7.183  1.00  0.00    -0.002 C 
ATOM     14  C   UNL     1      -7.158  -9.381  -7.985  1.00  0.00    -0.069 C 
ATOM     15  C   UNL     1      -7.034  -9.566  -9.481  1.00  0.00     0.039 C 
ATOM     16  C   UNL     1      -6.714  -8.050  -7.418  1.00  0.00     0.039 C 
BRANCH  13  17
ATOM     17  C   UNL     1      -7.935 -10.110  -5.708  1.00  0.00     0.066 CG0
ATOM     18  G   UNL     1      -7.659 -11.368  -4.919  1.00  0.00     0.000 G0
ENDBRANCH  13  17
ENDBRANCH  11  13
ENDBRANCH  10  11
ENDBRANCH   1  10
TORSDOF 0
ENDMDL
MODEL 2
REMARK VINA RESULT:    -2.653      2.673      5.119
REMARK INTER + INTRA:          -3.161
REMARK INTER:                  -3.531
REMARK INTRA:                   0.370
REMARK UNBOUND:                 0.578
REMARK SMILES CC1=CCC(=C(C)C)C(=O)CC(C)=CCC1
REMARK SMILES IDX 12 1 14 2 13 3 15 4 16 5 2 6 1 7 3 8 11 10 9 11 10 12 5 13
REMARK SMILES IDX 6 14 7 15 8 16 4 17
REMARK H PARENT
REMARK Flexibility Score: 60.00
ROOT
ATOM      1  C   UNL     1      -9.351 -12.226  -5.763  1.00  0.00    -0.070 C 
ATOM      2  C   UNL     1      -8.932 -11.802  -4.547  1.00  0.00    -0.027 C 
ATOM      3  C   UNL     1      -9.197 -11.272  -6.921  1.00  0.00     0.039 C 
ENDROOT
BRANCH   2   4
ATOM      4  C   UNL     1      -8.894 -12.623  -3.280  1.00  0.00     0.032 C 
BRANCH   4   5
ATOM      5  C   UNL     1      -7.642 -13.515  -3.189  1.00  0.00     0.034 C 
BRANCH   5   6
ATOM      6  C   UNL     1      -7.985 -14.948  -2.832  1.00  0.00    -0.077 C 
ATOM      7  C   UNL     1      -8.471 -15.241  -1.435  1.00  0.00     0.039 C 
ATOM      8  C   UNL     1      -7.856 -15.986  -3.689  1.00  0.00    -0.023 CG0
ATOM      9  G   UNL     1      -7.355 -15.900  -5.111  1.00  0.00     0.000 G0
ENDBRANCH   5   6
ENDBRANCH   4   5
ENDBRANCH   2   4
BRANCH   1  10
ATOM     10  C   UNL     1      -9.902 -13.617  -6.030  1.00  0.00     0.111 C 
BRANCH  10  11
ATOM     11  C   UNL     1      -8.862 -14.517  -6.648  1.00  0.00     0.163 C 
ATOM     12  O   UNL     1      -8.296 -14.131  -7.707  1.00  0.00    -0.294 OA
BRANCH  11  13
ATOM     13  C   UNL     1      -8.531 -15.858  -6.072  1.00  0.00    -0.002 C 
ATOM     14  C   UNL     1      -9.210 -16.986  -6.440  1.00  0.00    -0.069 C 
ATOM     15  C   UNL     1     -10.285 -16.953  -7.503  1.00  0.00     0.039 C 
ATOM     16  C   UNL     1      -8.894 -18.332  -5.824  1.00  0.00     0.039 C 
BRANCH  13  17
ATOM     17  C   UNL     1      -7.354 -15.927  -5.115  1.00  0.00     0.066 CG0
ATOM     18  G   UNL     1      -7.855 -15.987  -3.691  1.00  0.00     0.000 G0
ENDBRANCH  13  17
ENDBRANCH  11  13
ENDBRANCH  10  11
ENDBRANCH   1  10
TORSDOF 0
ENDMDL
MODEL 3
REMARK VINA RESULT:    -2.610      2.958      4.911
REMARK INTER + INTRA:          -3.100
REMARK INTER:                  -3.406
REMARK INTRA:                   0.305
REMARK UNBOUND:                 0.578
REMARK SMILES CC1=CCC(=C(C)C)C(=O)CC(C)=CCC1
REMARK SMILES IDX 12 1 14 2 13 3 15 4 16 5 2 6 1 7 3 8 11 10 9 11 10 12 5 13
REMARK SMILES IDX 6 14 7 15 8 16 4 17
REMARK H PARENT
REMARK Flexibility Score: 60.00
ROOT
ATOM      1  C   UNL     1      -9.023 -12.317  -4.014  1.00  0.00    -0.070 C 
ATOM      2  C   UNL     1      -8.482 -12.883  -2.909  1.00  0.00    -0.027 C 
ATOM      3  C   UNL     1      -8.873 -10.824  -4.173  1.00  0.00     0.039 C 
ENDROOT
BRANCH   2   4
ATOM      4  C   UNL     1      -8.423 -14.360  -2.601  1.00  0.00     0.032 C 
BRANCH   4   5
ATOM      5  C   UNL     1      -7.263 -15.070  -3.326  1.00  0.00     0.034 C 
BRANCH   5   6
ATOM      6  C   UNL     1      -7.715 -16.339  -4.021  1.00  0.00    -0.077 C 
ATOM      7  C   UNL     1      -8.108 -17.521  -3.171  1.00  0.00     0.039 C 
ATOM      8  C   UNL     1      -7.761 -16.483  -5.365  1.00  0.00    -0.023 CG0
ATOM      9  G   UNL     1      -7.376 -15.432  -6.379  1.00  0.00     0.000 G0
ENDBRANCH   5   6
ENDBRANCH   4   5
ENDBRANCH   2   4
BRANCH   1  10
ATOM     10  C   UNL     1      -9.709 -13.105  -5.118  1.00  0.00     0.111 C 
BRANCH  10  11
ATOM     11  C   UNL     1      -8.792 -13.323  -6.296  1.00  0.00     0.163 C 
ATOM     12  O   UNL     1      -8.237 -12.314  -6.812  1.00  0.00    -0.294 OA
BRANCH  11  13
ATOM     13  C   UNL     1      -8.572 -14.679  -6.889  1.00  0.00    -0.002 C 
ATOM     14  C   UNL     1      -9.384 -15.175  -7.871  1.00  0.00    -0.069 C 
ATOM     15  C   UNL     1     -10.505 -14.351  -8.464  1.00  0.00     0.039 C 
ATOM     16  C   UNL     1      -9.177 -16.563  -8.439  1.00  0.00     0.039 C 
BRANCH  13  17
ATOM     17  C   UNL     1      -7.359 -15.455  -6.406  1.00  0.00     0.066 CG0
ATOM     18  G   UNL     1      -7.778 -16.460  -5.360  1.00  0.00     0.000 G0
ENDBRANCH  13  17
ENDBRANCH  11  13
ENDBRANCH  10  11
ENDBRANCH   1  10
TORSDOF 0
ENDMDL
MODEL 4
REMARK VINA RESULT:    -2.604      3.101      5.410
REMARK INTER + INTRA:          -3.091
REMARK INTER:                  -3.521
REMARK INTRA:                   0.430
REMARK UNBOUND:                 0.578
REMARK SMILES CC1=CCC(=C(C)C)C(=O)CC(C)=CCC1
REMARK SMILES IDX 12 1 14 2 13 3 15 4 16 5 2 6 1 7 3 8 11 10 9 11 10 12 5 13
REMARK SMILES IDX 6 14 7 15 8 16 4 17
REMARK H PARENT
REMARK Flexibility Score: 60.00
ROOT
ATOM      1  C   UNL     1      -9.509 -12.148  -4.441  1.00  0.00    -0.070 C 
ATOM      2  C   UNL     1     -10.391 -12.021  -5.460  1.00  0.00    -0.027 C 
ATOM      3  C   UNL     1      -9.181 -10.907  -3.648  1.00  0.00     0.039 C 
ENDROOT
BRANCH   2   4
ATOM      4  C   UNL     1     -10.939 -13.141  -6.312  1.00  0.00     0.032 C 
BRANCH   4   5
ATOM      5  C   UNL     1      -9.970 -13.562  -7.433  1.00  0.00     0.034 C 
BRANCH   5   6
ATOM      6  C   UNL     1      -9.839 -15.068  -7.540  1.00  0.00    -0.077 C 
ATOM      7  C   UNL     1     -11.062 -15.869  -7.911  1.00  0.00     0.039 C 
ATOM      8  C   UNL     1      -8.692 -15.741  -7.296  1.00  0.00    -0.023 CG0
ATOM      9  G   UNL     1      -7.378 -15.123  -6.881  1.00  0.00     0.000 G0
ENDBRANCH   5   6
ENDBRANCH   4   5
ENDBRANCH   2   4
BRANCH   1  10
ATOM     10  C   UNL     1      -8.889 -13.470  -4.019  1.00  0.00     0.111 C 
BRANCH  10  11
ATOM     11  C   UNL     1      -7.586 -13.726  -4.734  1.00  0.00     0.163 C 
ATOM     12  O   UNL     1      -6.765 -12.773  -4.832  1.00  0.00    -0.294 OA
BRANCH  11  13
ATOM     13  C   UNL     1      -7.273 -15.047  -5.364  1.00  0.00    -0.002 C 
ATOM     14  C   UNL     1      -6.987 -16.152  -4.612  1.00  0.00    -0.069 C 
ATOM     15  C   UNL     1      -7.041 -16.119  -3.101  1.00  0.00     0.039 C 
ATOM     16  C   UNL     1      -6.635 -17.475  -5.259  1.00  0.00     0.039 C 
BRANCH  13  17
ATOM     17  C   UNL     1      -7.362 -15.128  -6.877  1.00  0.00     0.066 CG0
ATOM     18  G   UNL     1      -8.688 -15.730  -7.281  1.00  0.00     0.000 G0
ENDBRANCH  13  17
ENDBRANCH  11  13
ENDBRANCH  10  11
ENDBRANCH   1  10
TORSDOF 0
ENDMDL
MODEL 5
REMARK VINA RESULT:    -2.591      2.590      4.431
REMARK INTER + INTRA:          -3.073
REMARK INTER:                  -3.467
REMARK INTRA:                   0.393
REMARK UNBOUND:                 0.578
REMARK SMILES CC1=CCC(=C(C)C)C(=O)CC(C)=CCC1
REMARK SMILES IDX 12 1 14 2 13 3 15 4 16 5 2 6 1 7 3 8 11 10 9 11 10 12 5 13
REMARK SMILES IDX 6 14 7 15 8 16 4 17
REMARK H PARENT
REMARK Flexibility Score: 60.00
ROOT
ATOM      1  C   UNL     1      -8.775 -12.256  -3.820  1.00  0.00    -0.070 C 
ATOM      2  C   UNL     1      -8.254 -13.294  -3.123  1.00  0.00    -0.027 C 
ATOM      3  C   UNL     1      -9.610 -11.257  -3.058  1.00  0.00     0.039 C 
ENDROOT
BRANCH   2   4
ATOM      4  C   UNL     1      -7.310 -14.344  -3.657  1.00  0.00     0.032 C 
BRANCH   4   5
ATOM      5  C   UNL     1      -8.049 -15.532  -4.302  1.00  0.00     0.034 C 
BRANCH   5   6
ATOM      6  C   UNL     1      -7.473 -15.899  -5.655  1.00  0.00    -0.077 C 
ATOM      7  C   UNL     1      -6.107 -16.537  -5.702  1.00  0.00     0.039 C 
ATOM      8  C   UNL     1      -8.102 -15.662  -6.828  1.00  0.00    -0.023 CG0
ATOM      9  G   UNL     1      -9.452 -15.004  -6.989  1.00  0.00     0.000 G0
ENDBRANCH   5   6
ENDBRANCH   4   5
ENDBRANCH   2   4
BRANCH   1  10
ATOM     10  C   UNL     1      -8.511 -12.014  -5.297  1.00  0.00     0.111 C 
BRANCH  10  11
ATOM     11  C   UNL     1      -9.599 -12.603  -6.160  1.00  0.00     0.163 C 
ATOM     12  O   UNL     1     -10.797 -12.326  -5.877  1.00  0.00    -0.294 OA
BRANCH  11  13
ATOM     13  C   UNL     1      -9.296 -13.534  -7.291  1.00  0.00    -0.002 C 
ATOM     14  C   UNL     1      -8.828 -13.079  -8.492  1.00  0.00    -0.069 C 
ATOM     15  C   UNL     1      -8.521 -11.616  -8.720  1.00  0.00     0.039 C 
ATOM     16  C   UNL     1      -8.560 -14.025  -9.643  1.00  0.00     0.039 C 
BRANCH  13  17
ATOM     17  C   UNL     1      -9.459 -15.020  -7.024  1.00  0.00     0.066 CG0
ATOM     18  G   UNL     1      -8.103 -15.658  -6.833  1.00  0.00     0.000 G0
ENDBRANCH  13  17
ENDBRANCH  11  13
ENDBRANCH  10  11
ENDBRANCH   1  10
TORSDOF 0
ENDMDL
MODEL 6
REMARK VINA RESULT:    -2.582     15.011     16.676
REMARK INTER + INTRA:          -3.061
REMARK INTER:                  -3.841
REMARK INTRA:                   0.780
REMARK UNBOUND:                 0.578
REMARK SMILES CC1=CCC(=C(C)C)C(=O)CC(C)=CCC1
REMARK SMILES IDX 12 1 14 2 13 3 15 4 16 5 2 6 1 7 3 8 11 10 9 11 10 12 5 13
REMARK SMILES IDX 6 14 7 15 8 16 4 17
REMARK H PARENT
REMARK Flexibility Score: 60.00
ROOT
ATOM      1  C   UNL     1     -25.228  -9.600  -5.145  1.00  0.00    -0.070 C 
ATOM      2  C   UNL     1     -25.149 -10.716  -5.909  1.00  0.00    -0.027 C 
ATOM      3  C   UNL     1     -24.615  -9.658  -3.768  1.00  0.00     0.039 C 
ENDROOT
BRANCH   2   4
ATOM      4  C   UNL     1     -25.597 -10.848  -7.345  1.00  0.00     0.032 C 
BRANCH   4   5
ATOM      5  C   UNL     1     -24.446 -11.244  -8.290  1.00  0.00     0.034 C 
BRANCH   5   6
ATOM      6  C   UNL     1     -23.293 -10.263  -8.230  1.00  0.00    -0.077 C 
ATOM      7  C   UNL     1     -21.922 -10.788  -7.883  1.00  0.00     0.039 C 
ATOM      8  C   UNL     1     -23.425  -8.934  -8.445  1.00  0.00    -0.023 CG0
ATOM      9  G   UNL     1     -24.714  -8.217  -8.768  1.00  0.00     0.000 G0
ENDBRANCH   5   6
ENDBRANCH   4   5
ENDBRANCH   2   4
BRANCH   1  10
ATOM     10  C   UNL     1     -25.836  -8.291  -5.621  1.00  0.00     0.111 C 
BRANCH  10  11
ATOM     11  C   UNL     1     -24.814  -7.422  -6.311  1.00  0.00     0.163 C 
ATOM     12  O   UNL     1     -23.874  -6.947  -5.617  1.00  0.00    -0.294 OA
BRANCH  11  13
ATOM     13  C   UNL     1     -24.919  -7.075  -7.762  1.00  0.00    -0.002 C 
ATOM     14  C   UNL     1     -25.123  -5.789  -8.181  1.00  0.00    -0.069 C 
ATOM     15  C   UNL     1     -25.181  -4.637  -7.203  1.00  0.00     0.039 C 
ATOM     16  C   UNL     1     -25.265  -5.452  -9.650  1.00  0.00     0.039 C 
BRANCH  13  17
ATOM     17  C   UNL     1     -24.714  -8.202  -8.759  1.00  0.00     0.066 CG0
ATOM     18  G   UNL     1     -23.423  -8.926  -8.454  1.00  0.00     0.000 G0
ENDBRANCH  13  17
ENDBRANCH  11  13
ENDBRANCH  10  11
ENDBRANCH   1  10
TORSDOF 0
ENDMDL
MODEL 7
REMARK VINA RESULT:    -2.567      2.100      4.856
REMARK INTER + INTRA:          -3.039
REMARK INTER:                  -3.447
REMARK INTRA:                   0.408
REMARK UNBOUND:                 0.578
REMARK SMILES CC1=CCC(=C(C)C)C(=O)CC(C)=CCC1
REMARK SMILES IDX 12 1 14 2 13 3 15 4 16 5 2 6 1 7 3 8 11 10 9 11 10 12 5 13
REMARK SMILES IDX 6 14 7 15 8 16 4 17
REMARK H PARENT
REMARK Flexibility Score: 60.00
ROOT
ATOM      1  C   UNL     1      -8.821 -11.597  -4.644  1.00  0.00    -0.070 C 
ATOM      2  C   UNL     1      -8.066 -10.533  -5.008  1.00  0.00    -0.027 C 
ATOM      3  C   UNL     1      -9.802 -11.399  -3.514  1.00  0.00     0.039 C 
ENDROOT
BRANCH   2   4
ATOM      4  C   UNL     1      -7.105 -10.477  -6.170  1.00  0.00     0.032 C 
BRANCH   4   5
ATOM      5  C   UNL     1      -7.816 -10.242  -7.516  1.00  0.00     0.034 C 
BRANCH   5   6
ATOM      6  C   UNL     1      -7.316 -11.177  -8.599  1.00  0.00    -0.077 C 
ATOM      7  C   UNL     1      -5.892 -11.025  -9.075  1.00  0.00     0.039 C 
ATOM      8  C   UNL     1      -8.081 -12.126  -9.184  1.00  0.00    -0.023 CG0
ATOM      9  G   UNL     1      -9.531 -12.407  -8.871  1.00  0.00     0.000 G0
ENDBRANCH   5   6
ENDBRANCH   4   5
ENDBRANCH   2   4
BRANCH   1  10
ATOM     10  C   UNL     1      -8.778 -12.944  -5.347  1.00  0.00     0.111 C 
BRANCH  10  11
ATOM     11  C   UNL     1      -9.869 -13.066  -6.380  1.00  0.00     0.163 C 
ATOM     12  O   UNL     1     -11.055 -12.827  -6.023  1.00  0.00    -0.294 OA
BRANCH  11  13
ATOM     13  C   UNL     1      -9.588 -13.509  -7.782  1.00  0.00    -0.002 C 
ATOM     14  C   UNL     1      -9.452 -14.831  -8.105  1.00  0.00    -0.069 C 
ATOM     15  C   UNL     1      -9.651 -15.922  -7.077  1.00  0.00     0.039 C 
ATOM     16  C   UNL     1      -9.130 -15.267  -9.518  1.00  0.00     0.039 C 
BRANCH  13  17
ATOM     17  C   UNL     1      -9.534 -12.430  -8.848  1.00  0.00     0.066 CG0
ATOM     18  G   UNL     1      -8.096 -12.116  -9.187  1.00  0.00     0.000 G0
ENDBRANCH  13  17
ENDBRANCH  11  13
ENDBRANCH  10  11
ENDBRANCH   1  10
TORSDOF 0
ENDMDL
MODEL 8
REMARK VINA RESULT:    -2.378      1.868      2.928
REMARK INTER + INTRA:          -2.774
REMARK INTER:                  -3.698
REMARK INTRA:                   0.925
REMARK UNBOUND:                 0.578
REMARK SMILES CC1=CCC(=C(C)C)C(=O)CC(C)=CCC1
REMARK SMILES IDX 12 1 14 2 13 3 15 4 16 5 2 6 1 7 3 8 11 10 9 11 10 12 5 13
REMARK SMILES IDX 6 14 7 15 8 16 4 17
REMARK H PARENT
REMARK Flexibility Score: 60.00
ROOT
ATOM      1  C   UNL     1      -9.548 -11.970  -4.872  1.00  0.00    -0.070 C 
ATOM      2  C   UNL     1      -9.535 -13.244  -5.330  1.00  0.00    -0.027 C 
ATOM      3  C   UNL     1      -9.482 -11.768  -3.378  1.00  0.00     0.039 C 
ENDROOT
BRANCH   2   4
ATOM      4  C   UNL     1      -9.487 -13.673  -6.777  1.00  0.00     0.032 C 
BRANCH   4   5
ATOM      5  C   UNL     1      -8.141 -14.317  -7.159  1.00  0.00     0.034 C 
BRANCH   5   6
ATOM      6  C   UNL     1      -6.967 -13.626  -6.495  1.00  0.00    -0.077 C 
ATOM      7  C   UNL     1      -6.269 -14.333  -5.360  1.00  0.00     0.039 C 
ATOM      8  C   UNL     1      -6.522 -12.398  -6.845  1.00  0.00    -0.023 CG0
ATOM      9  G   UNL     1      -7.109 -11.523  -7.928  1.00  0.00     0.000 G0
ENDBRANCH   5   6
ENDBRANCH   4   5
ENDBRANCH   2   4
BRANCH   1  10
ATOM     10  C   UNL     1      -9.559 -10.747  -5.776  1.00  0.00     0.111 C 
BRANCH  10  11
ATOM     11  C   UNL     1      -8.170 -10.200  -5.987  1.00  0.00     0.163 C 
ATOM     12  O   UNL     1      -7.566  -9.712  -4.994  1.00  0.00    -0.294 OA
BRANCH  11  13
ATOM     13  C   UNL     1      -7.525 -10.176  -7.338  1.00  0.00    -0.002 C 
ATOM     14  C   UNL     1      -7.256  -9.002  -7.985  1.00  0.00    -0.069 C 
ATOM     15  C   UNL     1      -7.529  -7.662  -7.342  1.00  0.00     0.039 C 
ATOM     16  C   UNL     1      -6.638  -8.989  -9.367  1.00  0.00     0.039 C 
BRANCH  13  17
ATOM     17  C   UNL     1      -7.111 -11.512  -7.928  1.00  0.00     0.066 CG0
ATOM     18  G   UNL     1      -6.528 -12.392  -6.847  1.00  0.00     0.000 G0
ENDBRANCH  13  17
ENDBRANCH  11  13
ENDBRANCH  10  11
ENDBRANCH   1  10
TORSDOF 0
ENDMDL
MODEL 9
REMARK VINA RESULT:    -2.371      1.793      3.077
REMARK INTER + INTRA:          -2.763
REMARK INTER:                  -3.486
REMARK INTRA:                   0.723
REMARK UNBOUND:                 0.578
REMARK SMILES CC1=CCC(=C(C)C)C(=O)CC(C)=CCC1
REMARK SMILES IDX 12 1 14 2 13 3 15 4 16 5 2 6 1 7 3 8 11 10 9 11 10 12 5 13
REMARK SMILES IDX 6 14 7 15 8 16 4 17
REMARK H PARENT
REMARK Flexibility Score: 60.00
ROOT
ATOM      1  C   UNL     1     -10.187 -13.266  -7.059  1.00  0.00    -0.070 C 
ATOM      2  C   UNL     1     -10.479 -12.711  -5.859  1.00  0.00    -0.027 C 
ATOM      3  C   UNL     1     -10.526 -14.724  -7.251  1.00  0.00     0.039 C 
ENDROOT
BRANCH   2   4
ATOM      4  C   UNL     1     -10.324 -11.256  -5.488  1.00  0.00     0.032 C 
BRANCH   4   5
ATOM      5  C   UNL     1      -9.117 -11.005  -4.564  1.00  0.00     0.034 C 
BRANCH   5   6
ATOM      6  C   UNL     1      -7.940 -10.409  -5.311  1.00  0.00    -0.077 C 
ATOM      7  C   UNL     1      -7.874  -8.910  -5.462  1.00  0.00     0.039 C 
ATOM      8  C   UNL     1      -6.956 -11.146  -5.873  1.00  0.00    -0.023 CG0
ATOM      9  G   UNL     1      -6.865 -12.653  -5.858  1.00  0.00     0.000 G0
ENDBRANCH   5   6
ENDBRANCH   4   5
ENDBRANCH   2   4
BRANCH   1  10
ATOM     10  C   UNL     1      -9.603 -12.491  -8.229  1.00  0.00     0.111 C 
BRANCH  10  11
ATOM     11  C   UNL     1      -8.109 -12.333  -8.100  1.00  0.00     0.163 C 
ATOM     12  O   UNL     1      -7.543 -11.445  -8.795  1.00  0.00    -0.294 OA
BRANCH  11  13
ATOM     13  C   UNL     1      -7.290 -13.225  -7.220  1.00  0.00    -0.002 C 
ATOM     14  C   UNL     1      -6.884 -14.464  -7.631  1.00  0.00    -0.069 C 
ATOM     15  C   UNL     1      -7.177 -14.972  -9.025  1.00  0.00     0.039 C 
ATOM     16  C   UNL     1      -6.088 -15.375  -6.721  1.00  0.00     0.039 C 
BRANCH  13  17
ATOM     17  C   UNL     1      -6.864 -12.665  -5.874  1.00  0.00     0.066 CG0
ATOM     18  G   UNL     1      -6.965 -11.158  -5.892  1.00  0.00     0.000 G0
ENDBRANCH  13  17
ENDBRANCH  11  13
ENDBRANCH  10  11
ENDBRANCH   1  10
TORSDOF 0
ENDMDL
