MODEL 1
REMARK VINA RESULT:     8.007      0.000      0.000
REMARK INTER + INTRA:           8.007
REMARK INTER:                   8.007
REMARK INTRA:                   0.000
REMARK UNBOUND:                 0.000
REMARK SMILES C=C1CCC[C@]2(C)C=C3OC(=O)C(C)=C3C[C@H]12
REMARK SMILES IDX 14 1 13 2 15 3 16 4 17 5 2 6 1 7 3 8 4 9 5 10 6 11 8 12 9 13
REMARK SMILES IDX 10 14 11 15 12 16 7 17
REMARK H PARENT
REMARK Flexibility Score: inf
ROOT
ATOM      1  C   UNL     1      -5.509 -13.143 -17.688  1.00  0.00     0.053 C 
ATOM      2  C   UNL     1      -5.182 -13.730 -16.352  1.00  0.00     0.041 C 
ATOM      3  C   UNL     1      -4.046 -13.576 -15.675  1.00  0.00     0.005 C 
ATOM      4  C   UNL     1      -2.815 -12.825 -16.061  1.00  0.00     0.049 C 
ATOM      5  C   UNL     1      -1.961 -12.547 -14.796  1.00  0.00     0.029 C 
ATOM      6  C   UNL     1      -0.615 -11.981 -15.215  1.00  0.00    -0.073 C 
ATOM      7  C   UNL     1      -0.415 -10.655 -15.253  1.00  0.00     0.008 C 
ATOM      8  C   UNL     1       0.440 -12.927 -15.743  1.00  0.00     0.031 C 
ATOM      9  C   UNL     1       0.596 -14.146 -14.828  1.00  0.00     0.005 C 
ATOM     10  C   UNL     1      -0.756 -14.800 -14.502  1.00  0.00     0.012 C 
ATOM     11  C   UNL     1      -1.772 -13.810 -13.868  1.00  0.00    -0.004 C 
ATOM     12  C   UNL     1      -3.085 -14.556 -13.652  1.00  0.00     0.027 C 
ATOM     13  C   UNL     1      -4.088 -14.442 -14.517  1.00  0.00     0.131 C 
ATOM     14  O   UNL     1      -5.295 -15.125 -14.469  1.00  0.00    -0.423 OA
ATOM     15  C   UNL     1      -5.981 -14.701 -15.601  1.00  0.00     0.339 C 
ATOM     16  O   UNL     1      -7.123 -15.119 -15.925  1.00  0.00    -0.246 OA
ATOM     17  C   UNL     1      -1.280 -13.351 -12.474  1.00  0.00     0.016 C 
ENDROOT
TORSDOF 0
ENDMDL
MODEL 2
REMARK VINA RESULT:     9.692      7.854     10.646
REMARK INTER + INTRA:           9.692
REMARK INTER:                   9.692
REMARK INTRA:                   0.000
REMARK UNBOUND:                 0.000
REMARK SMILES C=C1CCC[C@]2(C)C=C3OC(=O)C(C)=C3C[C@H]12
REMARK SMILES IDX 14 1 13 2 15 3 16 4 17 5 2 6 1 7 3 8 4 9 5 10 6 11 8 12 9 13
REMARK SMILES IDX 10 14 11 15 12 16 7 17
REMARK H PARENT
REMARK Flexibility Score: inf
ROOT
ATOM      1  C   UNL     1       2.337 -14.763  -6.288  1.00  0.00     0.053 C 
ATOM      2  C   UNL     1       1.189 -14.872  -5.336  1.00  0.00     0.041 C 
ATOM      3  C   UNL     1      -0.102 -14.743  -5.633  1.00  0.00     0.005 C 
ATOM      4  C   UNL     1      -0.739 -14.436  -6.948  1.00  0.00     0.049 C 
ATOM      5  C   UNL     1      -2.237 -14.838  -6.903  1.00  0.00     0.029 C 
ATOM      6  C   UNL     1      -2.930 -14.328  -8.155  1.00  0.00    -0.073 C 
ATOM      7  C   UNL     1      -3.077 -15.124  -9.225  1.00  0.00     0.008 C 
ATOM      8  C   UNL     1      -3.305 -12.865  -8.234  1.00  0.00     0.031 C 
ATOM      9  C   UNL     1      -4.024 -12.410  -6.960  1.00  0.00     0.005 C 
ATOM     10  C   UNL     1      -3.261 -12.815  -5.689  1.00  0.00     0.012 C 
ATOM     11  C   UNL     1      -2.989 -14.343  -5.606  1.00  0.00    -0.004 C 
ATOM     12  C   UNL     1      -2.175 -14.608  -4.343  1.00  0.00     0.027 C 
ATOM     13  C   UNL     1      -0.855 -14.758  -4.398  1.00  0.00     0.131 C 
ATOM     14  O   UNL     1      -0.003 -14.927  -3.316  1.00  0.00    -0.423 OA
ATOM     15  C   UNL     1       1.266 -14.992  -3.878  1.00  0.00     0.339 C 
ATOM     16  O   UNL     1       2.323 -15.122  -3.208  1.00  0.00    -0.246 OA
ATOM     17  C   UNL     1      -4.318 -15.121  -5.457  1.00  0.00     0.016 C 
ENDROOT
TORSDOF 0
ENDMDL
