MODEL 1
REMARK VINA RESULT:    -3.856      0.000      0.000
REMARK INTER + INTRA:          -4.860
REMARK INTER:                  -4.645
REMARK INTRA:                  -0.215
REMARK UNBOUND:                -0.215
REMARK SMILES C=CCc1ccc(O)c(OC)c1
REMARK SMILES IDX 9 1 7 2 6 3 5 4 4 5 12 6 10 7 11 8 8 9 3 11 2 12 1 13
REMARK H PARENT 8 10
REMARK Flexibility Score: inf
ROOT
ATOM      1  C   UNL     1      12.028  -4.145  -1.785  1.00  0.00     0.160 A 
ATOM      2  C   UNL     1      11.644  -3.781  -3.084  1.00  0.00     0.157 A 
ATOM      3  C   UNL     1      10.334  -4.012  -3.521  1.00  0.00     0.050 A 
ATOM      4  C   UNL     1       9.400  -4.602  -2.667  1.00  0.00     0.008 A 
ATOM      5  C   UNL     1       9.764  -4.961  -1.361  1.00  0.00    -0.040 A 
ATOM      6  C   UNL     1      11.080  -4.738  -0.926  1.00  0.00     0.054 A 
ENDROOT
BRANCH   1   7
ATOM      7  O   UNL     1      13.351  -3.904  -1.386  1.00  0.00    -0.493 OA
ATOM      8  C   UNL     1      13.917  -4.349  -0.157  1.00  0.00     0.278 C 
ENDBRANCH   1   7
BRANCH   2   9
ATOM      9  O   UNL     1      12.575  -3.193  -3.938  1.00  0.00    -0.504 OA
ATOM     10  H   UNL     1      13.216  -3.751  -4.490  1.00  0.00     0.293 HD
ENDBRANCH   2   9
BRANCH   5  11
ATOM     11  C   UNL     1       8.763  -5.623  -0.453  1.00  0.00     0.062 C 
BRANCH  11  12
ATOM     12  C   UNL     1       7.361  -5.239  -0.835  1.00  0.00    -0.030 C 
ATOM     13  C   UNL     1       6.436  -4.948   0.085  1.00  0.00     0.004 C 
ENDBRANCH  11  12
ENDBRANCH   5  11
TORSDOF 4
ENDMDL
MODEL 2
REMARK VINA RESULT:    -3.452      1.723      3.283
REMARK INTER + INTRA:          -4.373
REMARK INTER:                  -4.168
REMARK INTRA:                  -0.205
REMARK UNBOUND:                -0.215
REMARK SMILES C=CCc1ccc(O)c(OC)c1
REMARK SMILES IDX 9 1 7 2 6 3 5 4 4 5 12 6 10 7 11 8 8 9 3 11 2 12 1 13
REMARK H PARENT 8 10
REMARK Flexibility Score: inf
ROOT
ATOM      1  C   UNL     1       9.174  -4.008  -3.096  1.00  0.00     0.160 A 
ATOM      2  C   UNL     1      10.559  -3.803  -3.012  1.00  0.00     0.157 A 
ATOM      3  C   UNL     1      11.288  -4.352  -1.949  1.00  0.00     0.050 A 
ATOM      4  C   UNL     1      10.642  -5.109  -0.970  1.00  0.00     0.008 A 
ATOM      5  C   UNL     1       9.260  -5.333  -1.046  1.00  0.00    -0.040 A 
ATOM      6  C   UNL     1       8.527  -4.774  -2.105  1.00  0.00     0.054 A 
ENDROOT
BRANCH   1   7
ATOM      7  O   UNL     1       8.478  -3.436  -4.172  1.00  0.00    -0.493 OA
ATOM      8  C   UNL     1       7.702  -4.172  -5.114  1.00  0.00     0.278 C 
ENDBRANCH   1   7
BRANCH   2   9
ATOM      9  O   UNL     1      11.204  -3.047  -3.989  1.00  0.00    -0.504 OA
ATOM     10  H   UNL     1      11.406  -2.063  -3.851  1.00  0.00     0.293 HD
ENDBRANCH   2   9
BRANCH   5  11
ATOM     11  C   UNL     1       8.563  -6.125   0.028  1.00  0.00     0.062 C 
BRANCH  11  12
ATOM     12  C   UNL     1       7.234  -5.509   0.367  1.00  0.00    -0.030 C 
ATOM     13  C   UNL     1       6.812  -5.401   1.631  1.00  0.00     0.004 C 
ENDBRANCH  11  12
ENDBRANCH   5  11
TORSDOF 4
ENDMDL
MODEL 3
REMARK VINA RESULT:    -3.444      1.917      4.686
REMARK INTER + INTRA:          -4.365
REMARK INTER:                  -4.122
REMARK INTRA:                  -0.243
REMARK UNBOUND:                -0.215
REMARK SMILES C=CCc1ccc(O)c(OC)c1
REMARK SMILES IDX 9 1 7 2 6 3 5 4 4 5 12 6 10 7 11 8 8 9 3 11 2 12 1 13
REMARK H PARENT 8 10
REMARK Flexibility Score: inf
ROOT
ATOM      1  C   UNL     1      10.370  -4.174  -2.155  1.00  0.00     0.160 A 
ATOM      2  C   UNL     1      10.927  -3.774  -3.379  1.00  0.00     0.157 A 
ATOM      3  C   UNL     1      12.302  -3.914  -3.605  1.00  0.00     0.050 A 
ATOM      4  C   UNL     1      13.128  -4.454  -2.616  1.00  0.00     0.008 A 
ATOM      5  C   UNL     1      12.585  -4.868  -1.391  1.00  0.00    -0.040 A 
ATOM      6  C   UNL     1      11.208  -4.719  -1.161  1.00  0.00     0.054 A 
ENDROOT
BRANCH   1   7
ATOM      7  O   UNL     1       8.990  -4.012  -1.964  1.00  0.00    -0.493 OA
ATOM      8  C   UNL     1       8.041  -5.074  -1.998  1.00  0.00     0.278 C 
ENDBRANCH   1   7
BRANCH   2   9
ATOM      9  O   UNL     1      10.105  -3.235  -4.367  1.00  0.00    -0.504 OA
ATOM     10  H   UNL     1       9.181  -2.879  -4.152  1.00  0.00     0.293 HD
ENDBRANCH   2   9
BRANCH   5  11
ATOM     11  C   UNL     1      13.482  -5.422  -0.316  1.00  0.00     0.062 C 
BRANCH  11  12
ATOM     12  C   UNL     1      14.922  -5.108  -0.611  1.00  0.00    -0.030 C 
ATOM     13  C   UNL     1      15.857  -6.063  -0.641  1.00  0.00     0.004 C 
ENDBRANCH  11  12
ENDBRANCH   5  11
TORSDOF 4
ENDMDL
MODEL 4
REMARK VINA RESULT:    -3.392      1.744      2.355
REMARK INTER + INTRA:          -4.302
REMARK INTER:                  -4.093
REMARK INTRA:                  -0.209
REMARK UNBOUND:                -0.215
REMARK SMILES C=CCc1ccc(O)c(OC)c1
REMARK SMILES IDX 9 1 7 2 6 3 5 4 4 5 12 6 10 7 11 8 8 9 3 11 2 12 1 13
REMARK H PARENT 8 10
REMARK Flexibility Score: inf
ROOT
ATOM      1  C   UNL     1      10.253  -3.874  -3.195  1.00  0.00     0.160 A 
ATOM      2  C   UNL     1       9.074  -3.702  -3.935  1.00  0.00     0.157 A 
ATOM      3  C   UNL     1       7.863  -4.217  -3.458  1.00  0.00     0.050 A 
ATOM      4  C   UNL     1       7.818  -4.903  -2.243  1.00  0.00     0.008 A 
ATOM      5  C   UNL     1       8.986  -5.075  -1.485  1.00  0.00    -0.040 A 
ATOM      6  C   UNL     1      10.203  -4.566  -1.967  1.00  0.00     0.054 A 
ENDROOT
BRANCH   1   7
ATOM      7  O   UNL     1      11.448  -3.349  -3.708  1.00  0.00    -0.493 OA
ATOM      8  C   UNL     1      12.731  -3.943  -3.534  1.00  0.00     0.278 C 
ENDBRANCH   1   7
BRANCH   2   9
ATOM      9  O   UNL     1       9.117  -3.018  -5.149  1.00  0.00    -0.504 OA
ATOM     10  H   UNL     1       9.749  -3.293  -5.891  1.00  0.00     0.293 HD
ENDBRANCH   2   9
BRANCH   5  11
ATOM     11  C   UNL     1       8.940  -5.840  -0.190  1.00  0.00     0.062 C 
BRANCH  11  12
ATOM     12  C   UNL     1       7.566  -5.780   0.417  1.00  0.00    -0.030 C 
ATOM     13  C   UNL     1       7.346  -6.108   1.694  1.00  0.00     0.004 C 
ENDBRANCH  11  12
ENDBRANCH   5  11
TORSDOF 4
ENDMDL
MODEL 5
REMARK VINA RESULT:    -3.309     16.536     18.387
REMARK INTER + INTRA:          -4.202
REMARK INTER:                  -3.939
REMARK INTRA:                  -0.263
REMARK UNBOUND:                -0.215
REMARK SMILES C=CCc1ccc(O)c(OC)c1
REMARK SMILES IDX 9 1 7 2 6 3 5 4 4 5 12 6 10 7 11 8 8 9 3 11 2 12 1 13
REMARK H PARENT 8 10
REMARK Flexibility Score: inf
ROOT
ATOM      1  C   UNL     1      18.441  10.966  -2.990  1.00  0.00     0.160 A 
ATOM      2  C   UNL     1      17.643  10.161  -2.164  1.00  0.00     0.157 A 
ATOM      3  C   UNL     1      17.655  10.347  -0.776  1.00  0.00     0.050 A 
ATOM      4  C   UNL     1      18.459  11.336  -0.205  1.00  0.00     0.008 A 
ATOM      5  C   UNL     1      19.254  12.158  -1.017  1.00  0.00    -0.040 A 
ATOM      6  C   UNL     1      19.249  11.964  -2.408  1.00  0.00     0.054 A 
ENDROOT
BRANCH   1   7
ATOM      7  O   UNL     1      18.406  10.745  -4.375  1.00  0.00    -0.493 OA
ATOM      8  C   UNL     1      19.548  10.441  -5.172  1.00  0.00     0.278 C 
ENDBRANCH   1   7
BRANCH   2   9
ATOM      9  O   UNL     1      16.841   9.173  -2.732  1.00  0.00    -0.504 OA
ATOM     10  H   UNL     1      15.996   8.848  -2.277  1.00  0.00     0.293 HD
ENDBRANCH   2   9
BRANCH   5  11
ATOM     11  C   UNL     1      20.141  13.203  -0.396  1.00  0.00     0.062 C 
BRANCH  11  12
ATOM     12  C   UNL     1      20.655  12.740   0.939  1.00  0.00    -0.030 C 
ATOM     13  C   UNL     1      21.841  12.138   1.065  1.00  0.00     0.004 C 
ENDBRANCH  11  12
ENDBRANCH   5  11
TORSDOF 4
ENDMDL
MODEL 6
REMARK VINA RESULT:    -3.305      9.628     11.830
REMARK INTER + INTRA:          -4.196
REMARK INTER:                  -3.960
REMARK INTRA:                  -0.236
REMARK UNBOUND:                -0.215
REMARK SMILES C=CCc1ccc(O)c(OC)c1
REMARK SMILES IDX 9 1 7 2 6 3 5 4 4 5 12 6 10 7 11 8 8 9 3 11 2 12 1 13
REMARK H PARENT 8 10
REMARK Flexibility Score: inf
ROOT
ATOM      1  C   UNL     1      15.789  -1.834   6.430  1.00  0.00     0.160 A 
ATOM      2  C   UNL     1      17.028  -2.124   5.842  1.00  0.00     0.157 A 
ATOM      3  C   UNL     1      18.143  -1.322   6.119  1.00  0.00     0.050 A 
ATOM      4  C   UNL     1      18.029  -0.231   6.984  1.00  0.00     0.008 A 
ATOM      5  C   UNL     1      16.799   0.066   7.589  1.00  0.00    -0.040 A 
ATOM      6  C   UNL     1      15.679  -0.733   7.304  1.00  0.00     0.054 A 
ENDROOT
BRANCH   1   7
ATOM      7  O   UNL     1      14.694  -2.656   6.123  1.00  0.00    -0.493 OA
ATOM      8  C   UNL     1      14.104  -3.585   7.028  1.00  0.00     0.278 C 
ENDBRANCH   1   7
BRANCH   2   9
ATOM      9  O   UNL     1      17.144  -3.211   4.978  1.00  0.00    -0.504 OA
ATOM     10  H   UNL     1      16.605  -3.269   4.123  1.00  0.00     0.293 HD
ENDBRANCH   2   9
BRANCH   5  11
ATOM     11  C   UNL     1      16.673   1.259   8.497  1.00  0.00     0.062 C 
BRANCH  11  12
ATOM     12  C   UNL     1      16.611   2.532   7.699  1.00  0.00    -0.030 C 
ATOM     13  C   UNL     1      17.638   3.386   7.658  1.00  0.00     0.004 C 
ENDBRANCH  11  12
ENDBRANCH   5  11
TORSDOF 4
ENDMDL
MODEL 7
REMARK VINA RESULT:    -3.278     10.417     12.423
REMARK INTER + INTRA:          -4.165
REMARK INTER:                  -3.912
REMARK INTRA:                  -0.252
REMARK UNBOUND:                -0.215
REMARK SMILES C=CCc1ccc(O)c(OC)c1
REMARK SMILES IDX 9 1 7 2 6 3 5 4 4 5 12 6 10 7 11 8 8 9 3 11 2 12 1 13
REMARK H PARENT 8 10
REMARK Flexibility Score: inf
ROOT
ATOM      1  C   UNL     1       8.737   3.347  -9.536  1.00  0.00     0.160 A 
ATOM      2  C   UNL     1       9.135   2.791  -8.312  1.00  0.00     0.157 A 
ATOM      3  C   UNL     1       9.480   3.623  -7.240  1.00  0.00     0.050 A 
ATOM      4  C   UNL     1       9.427   5.011  -7.380  1.00  0.00     0.008 A 
ATOM      5  C   UNL     1       9.020   5.584  -8.595  1.00  0.00    -0.040 A 
ATOM      6  C   UNL     1       8.683   4.749  -9.673  1.00  0.00     0.054 A 
ENDROOT
BRANCH   1   7
ATOM      7  O   UNL     1       8.405   2.480 -10.588  1.00  0.00    -0.493 OA
ATOM      8  C   UNL     1       7.075   2.116 -10.945  1.00  0.00     0.278 C 
ENDBRANCH   1   7
BRANCH   2   9
ATOM      9  O   UNL     1       9.189   1.405  -8.170  1.00  0.00    -0.504 OA
ATOM     10  H   UNL     1       9.238   0.791  -8.974  1.00  0.00     0.293 HD
ENDBRANCH   2   9
BRANCH   5  11
ATOM     11  C   UNL     1       8.992   7.081  -8.752  1.00  0.00     0.062 C 
BRANCH  11  12
ATOM     12  C   UNL     1       9.846   7.742  -7.707  1.00  0.00    -0.030 C 
ATOM     13  C   UNL     1      10.897   8.500  -8.034  1.00  0.00     0.004 C 
ENDBRANCH  11  12
ENDBRANCH   5  11
TORSDOF 4
ENDMDL
MODEL 8
REMARK VINA RESULT:    -3.201      2.101      2.632
REMARK INTER + INTRA:          -4.072
REMARK INTER:                  -3.810
REMARK INTRA:                  -0.261
REMARK UNBOUND:                -0.215
REMARK SMILES C=CCc1ccc(O)c(OC)c1
REMARK SMILES IDX 9 1 7 2 6 3 5 4 4 5 12 6 10 7 11 8 8 9 3 11 2 12 1 13
REMARK H PARENT 8 10
REMARK Flexibility Score: inf
ROOT
ATOM      1  C   UNL     1       9.764  -4.011  -2.188  1.00  0.00     0.160 A 
ATOM      2  C   UNL     1       9.914  -3.442  -3.462  1.00  0.00     0.157 A 
ATOM      3  C   UNL     1       8.827  -3.395  -4.343  1.00  0.00     0.050 A 
ATOM      4  C   UNL     1       7.587  -3.911  -3.961  1.00  0.00     0.008 A 
ATOM      5  C   UNL     1       7.417  -4.472  -2.687  1.00  0.00    -0.040 A 
ATOM      6  C   UNL     1       8.509  -4.528  -1.806  1.00  0.00     0.054 A 
ENDROOT
BRANCH   1   7
ATOM      7  O   UNL     1      10.878  -4.045  -1.336  1.00  0.00    -0.493 OA
ATOM      8  C   UNL     1      11.618  -5.222  -1.023  1.00  0.00     0.278 C 
ENDBRANCH   1   7
BRANCH   2   9
ATOM      9  O   UNL     1      11.151  -2.928  -3.845  1.00  0.00    -0.504 OA
ATOM     10  H   UNL     1      12.020  -3.341  -3.526  1.00  0.00     0.293 HD
ENDBRANCH   2   9
BRANCH   5  11
ATOM     11  C   UNL     1       6.087  -5.053  -2.289  1.00  0.00     0.062 C 
BRANCH  11  12
ATOM     12  C   UNL     1       4.967  -4.383  -3.036  1.00  0.00    -0.030 C 
ATOM     13  C   UNL     1       4.141  -3.520  -2.438  1.00  0.00     0.004 C 
ENDBRANCH  11  12
ENDBRANCH   5  11
TORSDOF 4
ENDMDL
MODEL 9
REMARK VINA RESULT:    -3.120     11.119     12.531
REMARK INTER + INTRA:          -3.974
REMARK INTER:                  -3.695
REMARK INTRA:                  -0.279
REMARK UNBOUND:                -0.215
REMARK SMILES C=CCc1ccc(O)c(OC)c1
REMARK SMILES IDX 9 1 7 2 6 3 5 4 4 5 12 6 10 7 11 8 8 9 3 11 2 12 1 13
REMARK H PARENT 8 10
REMARK Flexibility Score: inf
ROOT
ATOM      1  C   UNL     1       9.710   6.984  -7.893  1.00  0.00     0.160 A 
ATOM      2  C   UNL     1       9.802   7.186  -9.277  1.00  0.00     0.157 A 
ATOM      3  C   UNL     1       9.755   6.093 -10.152  1.00  0.00     0.050 A 
ATOM      4  C   UNL     1       9.615   4.797  -9.653  1.00  0.00     0.008 A 
ATOM      5  C   UNL     1       9.510   4.579  -8.271  1.00  0.00    -0.040 A 
ATOM      6  C   UNL     1       9.567   5.674  -7.394  1.00  0.00     0.054 A 
ENDROOT
BRANCH   1   7
ATOM      7  O   UNL     1       9.768   8.104  -7.049  1.00  0.00    -0.493 OA
ATOM      8  C   UNL     1       8.627   8.804  -6.559  1.00  0.00     0.278 C 
ENDBRANCH   1   7
BRANCH   2   9
ATOM      9  O   UNL     1       9.943   8.479  -9.778  1.00  0.00    -0.504 OA
ATOM     10  H   UNL     1       9.711   9.292  -9.219  1.00  0.00     0.293 HD
ENDBRANCH   2   9
BRANCH   5  11
ATOM     11  C   UNL     1       9.389   3.178  -7.735  1.00  0.00     0.062 C 
BRANCH  11  12
ATOM     12  C   UNL     1       8.237   2.458  -8.379  1.00  0.00    -0.030 C 
ATOM     13  C   UNL     1       6.970   2.707  -8.031  1.00  0.00     0.004 C 
ENDBRANCH  11  12
ENDBRANCH   5  11
TORSDOF 4
ENDMDL
