MODEL 1
REMARK VINA RESULT:    -3.907      0.000      0.000
REMARK INTER + INTRA:          -6.086
REMARK INTER:                  -5.505
REMARK INTRA:                  -0.580
REMARK UNBOUND:                -0.580
REMARK SMILES C=CCCCCCCC(=O)[O-]
REMARK SMILES IDX 6 1 7 2 8 3 9 4 10 5 11 6 5 7 4 8 3 9 2 10 1 11
REMARK H PARENT
REMARK Flexibility Score: inf
ROOT
ATOM      1  C   UNL     1     -53.578 120.835  -9.041  1.00  0.00     0.000 C 
ENDROOT
BRANCH   1   2
ATOM      2  C   UNL     1     -54.270 120.174 -10.245  1.00  0.00     0.006 C 
BRANCH   2   3
ATOM      3  C   UNL     1     -55.799 120.253 -10.164  1.00  0.00     0.053 C 
BRANCH   3   4
ATOM      4  C   UNL     1     -56.243 121.677 -10.047  1.00  0.00     0.041 C 
ATOM      5  O   UNL     1     -56.839 122.072  -9.011  1.00  0.00    -0.550 OA
ATOM      6  O   UNL     1     -56.044 122.556 -11.104  1.00  0.00    -0.550 OA
ENDBRANCH   3   4
ENDBRANCH   2   3
ENDBRANCH   1   2
BRANCH   1   7
ATOM      7  C   UNL     1     -52.629 121.969  -9.454  1.00  0.00     0.000 C 
BRANCH   7   8
ATOM      8  C   UNL     1     -52.400 121.970 -10.972  1.00  0.00     0.004 C 
BRANCH   8   9
ATOM      9  C   UNL     1     -50.967 121.559 -11.342  1.00  0.00     0.027 C 
BRANCH   9  10
ATOM     10  C   UNL     1     -49.987 121.829 -10.232  1.00  0.00    -0.035 C 
ATOM     11  C   UNL     1     -48.971 121.001  -9.972  1.00  0.00     0.004 C 
ENDBRANCH   9  10
ENDBRANCH   8   9
ENDBRANCH   7   8
ENDBRANCH   1   7
TORSDOF 7
ENDMDL
MODEL 2
REMARK VINA RESULT:    -3.890      0.861      1.968
REMARK INTER + INTRA:          -6.062
REMARK INTER:                  -5.564
REMARK INTRA:                  -0.498
REMARK UNBOUND:                -0.580
REMARK SMILES C=CCCCCCCC(=O)[O-]
REMARK SMILES IDX 6 1 7 2 8 3 9 4 10 5 11 6 5 7 4 8 3 9 2 10 1 11
REMARK H PARENT
REMARK Flexibility Score: inf
ROOT
ATOM      1  C   UNL     1     -54.133 120.228 -11.218  1.00  0.00     0.000 C 
ENDROOT
BRANCH   1   2
ATOM      2  C   UNL     1     -55.615 119.926 -11.494  1.00  0.00     0.006 C 
BRANCH   2   3
ATOM      3  C   UNL     1     -56.503 120.146 -10.263  1.00  0.00     0.053 C 
BRANCH   3   4
ATOM      4  C   UNL     1     -56.475 121.584  -9.849  1.00  0.00     0.041 C 
ATOM      5  O   UNL     1     -56.408 122.492 -10.717  1.00  0.00    -0.550 OA
ATOM      6  O   UNL     1     -56.470 121.917  -8.500  1.00  0.00    -0.550 OA
ENDBRANCH   3   4
ENDBRANCH   2   3
ENDBRANCH   1   2
BRANCH   1   7
ATOM      7  C   UNL     1     -53.638 119.607  -9.903  1.00  0.00     0.000 C 
BRANCH   7   8
ATOM      8  C   UNL     1     -52.958 120.662  -9.020  1.00  0.00     0.004 C 
BRANCH   8   9
ATOM      9  C   UNL     1     -52.703 121.975  -9.777  1.00  0.00     0.027 C 
BRANCH   9  10
ATOM     10  C   UNL     1     -51.235 122.271  -9.934  1.00  0.00    -0.035 C 
ATOM     11  C   UNL     1     -50.390 121.384 -10.467  1.00  0.00     0.004 C 
ENDBRANCH   9  10
ENDBRANCH   8   9
ENDBRANCH   7   8
ENDBRANCH   1   7
TORSDOF 7
ENDMDL
MODEL 3
REMARK VINA RESULT:    -3.794      1.637      1.876
REMARK INTER + INTRA:          -5.926
REMARK INTER:                  -5.420
REMARK INTRA:                  -0.507
REMARK UNBOUND:                -0.580
REMARK SMILES C=CCCCCCCC(=O)[O-]
REMARK SMILES IDX 6 1 7 2 8 3 9 4 10 5 11 6 5 7 4 8 3 9 2 10 1 11
REMARK H PARENT
REMARK Flexibility Score: inf
ROOT
ATOM      1  C   UNL     1     -54.015 121.289  -8.826  1.00  0.00     0.000 C 
ENDROOT
BRANCH   1   2
ATOM      2  C   UNL     1     -55.178 121.669  -9.756  1.00  0.00     0.006 C 
BRANCH   2   3
ATOM      3  C   UNL     1     -56.494 120.983  -9.367  1.00  0.00     0.053 C 
BRANCH   3   4
ATOM      4  C   UNL     1     -56.976 120.108 -10.480  1.00  0.00     0.041 C 
ATOM      5  O   UNL     1     -56.399 119.017 -10.724  1.00  0.00    -0.550 OA
ATOM      6  O   UNL     1     -58.032 120.523 -11.282  1.00  0.00    -0.550 OA
ENDBRANCH   3   4
ENDBRANCH   2   3
ENDBRANCH   1   2
BRANCH   1   7
ATOM      7  C   UNL     1     -53.067 120.257  -9.455  1.00  0.00     0.000 C 
BRANCH   7   8
ATOM      8  C   UNL     1     -52.886 120.522 -10.956  1.00  0.00     0.004 C 
BRANCH   8   9
ATOM      9  C   UNL     1     -51.814 121.587 -11.233  1.00  0.00     0.027 C 
BRANCH   9  10
ATOM     10  C   UNL     1     -50.663 121.506 -10.266  1.00  0.00    -0.035 C 
ATOM     11  C   UNL     1     -49.739 122.468 -10.189  1.00  0.00     0.004 C 
ENDBRANCH   9  10
ENDBRANCH   8   9
ENDBRANCH   7   8
ENDBRANCH   1   7
TORSDOF 7
ENDMDL
MODEL 4
REMARK VINA RESULT:    -3.788      1.770      2.339
REMARK INTER + INTRA:          -5.918
REMARK INTER:                  -5.189
REMARK INTRA:                  -0.728
REMARK UNBOUND:                -0.580
REMARK SMILES C=CCCCCCCC(=O)[O-]
REMARK SMILES IDX 6 1 7 2 8 3 9 4 10 5 11 6 5 7 4 8 3 9 2 10 1 11
REMARK H PARENT
REMARK Flexibility Score: inf
ROOT
ATOM      1  C   UNL     1     -54.958 121.438  -9.206  1.00  0.00     0.000 C 
ENDROOT
BRANCH   1   2
ATOM      2  C   UNL     1     -55.213 121.851 -10.664  1.00  0.00     0.006 C 
BRANCH   2   3
ATOM      3  C   UNL     1     -55.501 120.652 -11.577  1.00  0.00     0.053 C 
BRANCH   3   4
ATOM      4  C   UNL     1     -56.731 119.933 -11.121  1.00  0.00     0.041 C 
ATOM      5  O   UNL     1     -57.846 120.517 -11.126  1.00  0.00    -0.550 OA
ATOM      6  O   UNL     1     -56.637 118.632 -10.641  1.00  0.00    -0.550 OA
ENDBRANCH   3   4
ENDBRANCH   2   3
ENDBRANCH   1   2
BRANCH   1   7
ATOM      7  C   UNL     1     -53.475 121.159  -8.920  1.00  0.00     0.000 C 
BRANCH   7   8
ATOM      8  C   UNL     1     -52.611 122.381  -9.261  1.00  0.00     0.004 C 
BRANCH   8   9
ATOM      9  C   UNL     1     -51.331 121.993 -10.018  1.00  0.00     0.027 C 
BRANCH   9  10
ATOM     10  C   UNL     1     -51.546 121.912 -11.505  1.00  0.00    -0.035 C 
ATOM     11  C   UNL     1     -51.770 120.748 -12.122  1.00  0.00     0.004 C 
ENDBRANCH   9  10
ENDBRANCH   8   9
ENDBRANCH   7   8
ENDBRANCH   1   7
TORSDOF 7
ENDMDL
MODEL 5
REMARK VINA RESULT:    -3.759      1.430      2.411
REMARK INTER + INTRA:          -5.877
REMARK INTER:                  -5.270
REMARK INTRA:                  -0.607
REMARK UNBOUND:                -0.580
REMARK SMILES C=CCCCCCCC(=O)[O-]
REMARK SMILES IDX 6 1 7 2 8 3 9 4 10 5 11 6 5 7 4 8 3 9 2 10 1 11
REMARK H PARENT
REMARK Flexibility Score: inf
ROOT
ATOM      1  C   UNL     1     -53.744 120.226 -11.979  1.00  0.00     0.000 C 
ENDROOT
BRANCH   1   2
ATOM      2  C   UNL     1     -55.274 120.246 -12.125  1.00  0.00     0.006 C 
BRANCH   2   3
ATOM      3  C   UNL     1     -55.997 120.260 -10.772  1.00  0.00     0.053 C 
BRANCH   3   4
ATOM      4  C   UNL     1     -56.392 121.656 -10.405  1.00  0.00     0.041 C 
ATOM      5  O   UNL     1     -56.793 121.916  -9.241  1.00  0.00    -0.550 OA
ATOM      6  O   UNL     1     -56.366 122.660 -11.365  1.00  0.00    -0.550 OA
ENDBRANCH   3   4
ENDBRANCH   2   3
ENDBRANCH   1   2
BRANCH   1   7
ATOM      7  C   UNL     1     -53.138 121.635 -11.901  1.00  0.00     0.000 C 
BRANCH   7   8
ATOM      8  C   UNL     1     -51.983 121.680 -10.889  1.00  0.00     0.004 C 
BRANCH   8   9
ATOM      9  C   UNL     1     -52.341 120.978  -9.571  1.00  0.00     0.027 C 
BRANCH   9  10
ATOM     10  C   UNL     1     -53.304 121.779  -8.736  1.00  0.00    -0.035 C 
ATOM     11  C   UNL     1     -53.225 123.110  -8.652  1.00  0.00     0.004 C 
ENDBRANCH   9  10
ENDBRANCH   8   9
ENDBRANCH   7   8
ENDBRANCH   1   7
TORSDOF 7
ENDMDL
MODEL 6
REMARK VINA RESULT:    -3.692      1.537      2.176
REMARK INTER + INTRA:          -5.783
REMARK INTER:                  -4.994
REMARK INTRA:                  -0.790
REMARK UNBOUND:                -0.580
REMARK SMILES C=CCCCCCCC(=O)[O-]
REMARK SMILES IDX 6 1 7 2 8 3 9 4 10 5 11 6 5 7 4 8 3 9 2 10 1 11
REMARK H PARENT
REMARK Flexibility Score: inf
ROOT
ATOM      1  C   UNL     1     -54.944 120.617  -9.713  1.00  0.00     0.000 C 
ENDROOT
BRANCH   1   2
ATOM      2  C   UNL     1     -54.988 120.208 -11.194  1.00  0.00     0.006 C 
BRANCH   2   3
ATOM      3  C   UNL     1     -54.438 121.296 -12.125  1.00  0.00     0.053 C 
BRANCH   3   4
ATOM      4  C   UNL     1     -55.203 122.570 -11.949  1.00  0.00     0.041 C 
ATOM      5  O   UNL     1     -54.609 123.623 -11.599  1.00  0.00    -0.550 OA
ATOM      6  O   UNL     1     -56.582 122.582 -12.124  1.00  0.00    -0.550 OA
ENDBRANCH   3   4
ENDBRANCH   2   3
ENDBRANCH   1   2
BRANCH   1   7
ATOM      7  C   UNL     1     -53.513 120.676  -9.158  1.00  0.00     0.000 C 
BRANCH   7   8
ATOM      8  C   UNL     1     -53.102 122.124  -8.854  1.00  0.00     0.004 C 
BRANCH   8   9
ATOM      9  C   UNL     1     -51.720 122.468  -9.430  1.00  0.00     0.027 C 
BRANCH   9  10
ATOM     10  C   UNL     1     -51.157 121.356 -10.275  1.00  0.00    -0.035 C 
ATOM     11  C   UNL     1     -50.867 121.531 -11.567  1.00  0.00     0.004 C 
ENDBRANCH   9  10
ENDBRANCH   8   9
ENDBRANCH   7   8
ENDBRANCH   1   7
TORSDOF 7
ENDMDL
MODEL 7
REMARK VINA RESULT:    -3.328      3.138      5.704
REMARK INTER + INTRA:          -5.270
REMARK INTER:                  -4.932
REMARK INTRA:                  -0.338
REMARK UNBOUND:                -0.580
REMARK SMILES C=CCCCCCCC(=O)[O-]
REMARK SMILES IDX 6 1 7 2 8 3 9 4 10 5 11 6 5 7 4 8 3 9 2 10 1 11
REMARK H PARENT
REMARK Flexibility Score: inf
ROOT
ATOM      1  C   UNL     1     -52.820 120.471  -9.285  1.00  0.00     0.000 C 
ENDROOT
BRANCH   1   2
ATOM      2  C   UNL     1     -52.406 121.928  -9.547  1.00  0.00     0.006 C 
BRANCH   2   3
ATOM      3  C   UNL     1     -51.310 122.049 -10.614  1.00  0.00     0.053 C 
BRANCH   3   4
ATOM      4  C   UNL     1     -49.957 122.049  -9.975  1.00  0.00     0.041 C 
ATOM      5  O   UNL     1     -49.216 121.035 -10.060  1.00  0.00    -0.550 OA
ATOM      6  O   UNL     1     -49.535 123.152  -9.243  1.00  0.00    -0.550 OA
ENDBRANCH   3   4
ENDBRANCH   2   3
ENDBRANCH   1   2
BRANCH   1   7
ATOM      7  C   UNL     1     -54.090 120.070 -10.050  1.00  0.00     0.000 C 
BRANCH   7   8
ATOM      8  C   UNL     1     -55.034 121.269 -10.212  1.00  0.00     0.004 C 
BRANCH   8   9
ATOM      9  C   UNL     1     -56.458 120.956  -9.725  1.00  0.00     0.027 C 
BRANCH   9  10
ATOM     10  C   UNL     1     -57.134 119.905 -10.564  1.00  0.00    -0.035 C 
ATOM     11  C   UNL     1     -57.588 120.168 -11.792  1.00  0.00     0.004 C 
ENDBRANCH   9  10
ENDBRANCH   8   9
ENDBRANCH   7   8
ENDBRANCH   1   7
TORSDOF 7
ENDMDL
MODEL 8
REMARK VINA RESULT:    -3.277      2.157      4.439
REMARK INTER + INTRA:          -5.198
REMARK INTER:                  -4.445
REMARK INTRA:                  -0.753
REMARK UNBOUND:                -0.580
REMARK SMILES C=CCCCCCCC(=O)[O-]
REMARK SMILES IDX 6 1 7 2 8 3 9 4 10 5 11 6 5 7 4 8 3 9 2 10 1 11
REMARK H PARENT
REMARK Flexibility Score: inf
ROOT
ATOM      1  C   UNL     1     -53.166 120.452 -11.455  1.00  0.00     0.000 C 
ENDROOT
BRANCH   1   2
ATOM      2  C   UNL     1     -52.270 120.877 -10.280  1.00  0.00     0.006 C 
BRANCH   2   3
ATOM      3  C   UNL     1     -53.065 121.129  -8.992  1.00  0.00     0.053 C 
BRANCH   3   4
ATOM      4  C   UNL     1     -53.138 122.595  -8.702  1.00  0.00     0.041 C 
ATOM      5  O   UNL     1     -54.228 123.212  -8.826  1.00  0.00    -0.550 OA
ATOM      6  O   UNL     1     -51.989 123.290  -8.344  1.00  0.00    -0.550 OA
ENDBRANCH   3   4
ENDBRANCH   2   3
ENDBRANCH   1   2
BRANCH   1   7
ATOM      7  C   UNL     1     -53.870 121.642 -12.123  1.00  0.00     0.000 C 
BRANCH   7   8
ATOM      8  C   UNL     1     -55.395 121.503 -12.023  1.00  0.00     0.004 C 
BRANCH   8   9
ATOM      9  C   UNL     1     -55.829 120.055 -11.750  1.00  0.00     0.027 C 
BRANCH   9  10
ATOM     10  C   UNL     1     -56.472 119.894 -10.398  1.00  0.00    -0.035 C 
ATOM     11  C   UNL     1     -56.738 120.942  -9.615  1.00  0.00     0.004 C 
ENDBRANCH   9  10
ENDBRANCH   8   9
ENDBRANCH   7   8
ENDBRANCH   1   7
TORSDOF 7
ENDMDL
MODEL 9
REMARK VINA RESULT:    -2.729      2.020      2.955
REMARK INTER + INTRA:          -4.426
REMARK INTER:                  -3.827
REMARK INTRA:                  -0.599
REMARK UNBOUND:                -0.580
REMARK SMILES C=CCCCCCCC(=O)[O-]
REMARK SMILES IDX 6 1 7 2 8 3 9 4 10 5 11 6 5 7 4 8 3 9 2 10 1 11
REMARK H PARENT
REMARK Flexibility Score: inf
ROOT
ATOM      1  C   UNL     1     -54.447 122.849 -11.527  1.00  0.00     0.000 C 
ENDROOT
BRANCH   1   2
ATOM      2  C   UNL     1     -55.675 122.145 -12.125  1.00  0.00     0.006 C 
BRANCH   2   3
ATOM      3  C   UNL     1     -55.565 120.615 -12.071  1.00  0.00     0.053 C 
BRANCH   3   4
ATOM      4  C   UNL     1     -56.715 120.035 -11.311  1.00  0.00     0.041 C 
ATOM      5  O   UNL     1     -56.557 118.997 -10.617  1.00  0.00    -0.550 OA
ATOM      6  O   UNL     1     -57.975 120.612 -11.411  1.00  0.00    -0.550 OA
ENDBRANCH   3   4
ENDBRANCH   2   3
ENDBRANCH   1   2
BRANCH   1   7
ATOM      7  C   UNL     1     -53.125 122.343 -12.123  1.00  0.00     0.000 C 
BRANCH   7   8
ATOM      8  C   UNL     1     -52.179 121.849 -11.019  1.00  0.00     0.004 C 
BRANCH   8   9
ATOM      9  C   UNL     1     -52.714 122.163  -9.614  1.00  0.00     0.027 C 
BRANCH   9  10
ATOM     10  C   UNL     1     -53.381 120.974  -8.974  1.00  0.00    -0.035 C 
ATOM     11  C   UNL     1     -53.203 119.734  -9.437  1.00  0.00     0.004 C 
ENDBRANCH   9  10
ENDBRANCH   8   9
ENDBRANCH   7   8
ENDBRANCH   1   7
TORSDOF 7
ENDMDL
