MODEL 1
REMARK VINA RESULT:    -3.946      0.000      0.000
REMARK INTER + INTRA:          -8.332
REMARK INTER:                  -6.022
REMARK INTRA:                  -2.310
REMARK UNBOUND:                -2.310
REMARK SMILES CC(=O)CCC=C(C)CCC=C(C)CCC=C(C)C
REMARK SMILES IDX 10 1 11 2 12 3 13 4 14 5 15 6 16 7 18 8 17 9 19 10 9 11 7 12
REMARK SMILES IDX 6 13 8 14 5 15 4 16 2 17 3 18 1 19
REMARK H PARENT
REMARK Flexibility Score: inf
ROOT
ATOM      1  C   UNL     1       8.300 -33.681  14.342  1.00  0.00     0.032 C 
ENDROOT
BRANCH   1   2
ATOM      2  C   UNL     1       9.093 -34.443  13.308  1.00  0.00    -0.028 C 
ATOM      3  C   UNL     1      10.388 -34.210  12.995  1.00  0.00    -0.077 C 
ATOM      4  C   UNL     1      11.005 -35.007  11.875  1.00  0.00     0.039 C 
BRANCH   3   5
ATOM      5  C   UNL     1      11.252 -33.210  13.744  1.00  0.00     0.034 C 
BRANCH   5   6
ATOM      6  C   UNL     1      11.767 -32.094  12.822  1.00  0.00     0.032 C 
BRANCH   6   7
ATOM      7  C   UNL     1      10.640 -31.266  12.255  1.00  0.00    -0.028 C 
ATOM      8  C   UNL     1       9.131 -29.339  12.040  1.00  0.00     0.039 C 
ATOM      9  C   UNL     1      10.318 -30.021  12.670  1.00  0.00    -0.080 C 
ATOM     10  C   UNL     1      11.121 -29.294  13.724  1.00  0.00     0.039 C 
ENDBRANCH   6   7
ENDBRANCH   5   6
ENDBRANCH   3   5
ENDBRANCH   1   2
BRANCH   1  11
ATOM     11  C   UNL     1       7.022 -33.071  13.748  1.00  0.00     0.034 C 
BRANCH  11  12
ATOM     12  C   UNL     1       6.888 -31.603  14.094  1.00  0.00    -0.077 C 
ATOM     13  C   UNL     1       7.635 -31.090  15.099  1.00  0.00    -0.028 C 
ATOM     14  C   UNL     1       5.977 -30.741  13.253  1.00  0.00     0.039 C 
BRANCH  13  15
ATOM     15  C   UNL     1       7.587 -29.651  15.554  1.00  0.00     0.035 C 
BRANCH  15  16
ATOM     16  C   UNL     1       8.739 -29.320  16.512  1.00  0.00     0.079 C 
BRANCH  16  17
ATOM     17  C   UNL     1       8.290 -29.348  17.951  1.00  0.00     0.130 C 
ATOM     18  O   UNL     1       7.116 -29.562  18.212  1.00  0.00    -0.300 OA
ATOM     19  C   UNL     1       9.259 -29.118  19.073  1.00  0.00     0.087 C 
ENDBRANCH  16  17
ENDBRANCH  15  16
ENDBRANCH  13  15
ENDBRANCH  11  12
ENDBRANCH   1  11
TORSDOF 9
ENDMDL
MODEL 2
REMARK VINA RESULT:    -3.942      1.250      3.260
REMARK INTER + INTRA:          -8.326
REMARK INTER:                  -5.675
REMARK INTRA:                  -2.652
REMARK UNBOUND:                -2.310
REMARK SMILES CC(=O)CCC=C(C)CCC=C(C)CCC=C(C)C
REMARK SMILES IDX 10 1 11 2 12 3 13 4 14 5 15 6 16 7 18 8 17 9 19 10 9 11 7 12
REMARK SMILES IDX 6 13 8 14 5 15 4 16 2 17 3 18 1 19
REMARK H PARENT
REMARK Flexibility Score: inf
ROOT
ATOM      1  C   UNL     1      11.338 -30.653  12.944  1.00  0.00     0.032 C 
ENDROOT
BRANCH   1   2
ATOM      2  C   UNL     1      11.809 -32.012  12.483  1.00  0.00    -0.028 C 
ATOM      3  C   UNL     1      11.443 -33.190  13.039  1.00  0.00    -0.077 C 
ATOM      4  C   UNL     1      12.073 -34.453  12.512  1.00  0.00     0.039 C 
BRANCH   3   5
ATOM      5  C   UNL     1      10.403 -33.296  14.141  1.00  0.00     0.034 C 
BRANCH   5   6
ATOM      6  C   UNL     1       9.182 -34.118  13.700  1.00  0.00     0.032 C 
BRANCH   6   7
ATOM      7  C   UNL     1       7.954 -33.257  13.530  1.00  0.00    -0.028 C 
ATOM      8  C   UNL     1       5.875 -32.123  14.184  1.00  0.00     0.039 C 
ATOM      9  C   UNL     1       7.086 -32.955  14.520  1.00  0.00    -0.080 C 
ATOM     10  C   UNL     1       7.306 -33.407  15.945  1.00  0.00     0.039 C 
ENDBRANCH   6   7
ENDBRANCH   5   6
ENDBRANCH   3   5
ENDBRANCH   1   2
BRANCH   1  11
ATOM     11  C   UNL     1      10.117 -30.170  12.147  1.00  0.00     0.034 C 
BRANCH  11  12
ATOM     12  C   UNL     1       8.951 -29.839  13.054  1.00  0.00    -0.077 C 
ATOM     13  C   UNL     1       9.149 -29.785  14.392  1.00  0.00    -0.028 C 
ATOM     14  C   UNL     1       7.619 -29.505  12.429  1.00  0.00     0.039 C 
BRANCH  13  15
ATOM     15  C   UNL     1       8.072 -29.482  15.406  1.00  0.00     0.035 C 
BRANCH  15  16
ATOM     16  C   UNL     1       8.487 -29.911  16.820  1.00  0.00     0.079 C 
BRANCH  16  17
ATOM     17  C   UNL     1       7.288 -30.152  17.702  1.00  0.00     0.130 C 
ATOM     18  O   UNL     1       7.382 -30.913  18.652  1.00  0.00    -0.300 OA
ATOM     19  C   UNL     1       5.977 -29.474  17.434  1.00  0.00     0.087 C 
ENDBRANCH  16  17
ENDBRANCH  15  16
ENDBRANCH  13  15
ENDBRANCH  11  12
ENDBRANCH   1  11
TORSDOF 9
ENDMDL
MODEL 3
REMARK VINA RESULT:    -3.852      1.470      3.350
REMARK INTER + INTRA:          -8.188
REMARK INTER:                  -6.004
REMARK INTRA:                  -2.184
REMARK UNBOUND:                -2.310
REMARK SMILES CC(=O)CCC=C(C)CCC=C(C)CCC=C(C)C
REMARK SMILES IDX 10 1 11 2 12 3 13 4 14 5 15 6 16 7 18 8 17 9 19 10 9 11 7 12
REMARK SMILES IDX 6 13 8 14 5 15 4 16 2 17 3 18 1 19
REMARK H PARENT
REMARK Flexibility Score: inf
ROOT
ATOM      1  C   UNL     1       9.674 -29.874  14.230  1.00  0.00     0.032 C 
ENDROOT
BRANCH   1   2
ATOM      2  C   UNL     1      10.721 -30.479  13.326  1.00  0.00    -0.028 C 
ATOM      3  C   UNL     1      10.600 -31.661  12.680  1.00  0.00    -0.077 C 
ATOM      4  C   UNL     1      11.778 -32.161  11.883  1.00  0.00     0.039 C 
BRANCH   3   5
ATOM      5  C   UNL     1       9.323 -32.484  12.693  1.00  0.00     0.034 C 
BRANCH   5   6
ATOM      6  C   UNL     1       9.343 -33.554  13.794  1.00  0.00     0.032 C 
BRANCH   6   7
ATOM      7  C   UNL     1       7.990 -33.724  14.441  1.00  0.00    -0.028 C 
ATOM      8  C   UNL     1       6.298 -33.601  16.219  1.00  0.00     0.039 C 
ATOM      9  C   UNL     1       7.681 -33.316  15.692  1.00  0.00    -0.080 C 
ATOM     10  C   UNL     1       8.669 -32.571  16.560  1.00  0.00     0.039 C 
ENDBRANCH   6   7
ENDBRANCH   5   6
ENDBRANCH   3   5
ENDBRANCH   1   2
BRANCH   1  11
ATOM     11  C   UNL     1       8.347 -29.640  13.492  1.00  0.00     0.034 C 
BRANCH  11  12
ATOM     12  C   UNL     1       7.155 -29.986  14.359  1.00  0.00    -0.077 C 
ATOM     13  C   UNL     1       7.154 -29.615  15.660  1.00  0.00    -0.028 C 
ATOM     14  C   UNL     1       5.971 -30.672  13.721  1.00  0.00     0.039 C 
BRANCH  13  15
ATOM     15  C   UNL     1       6.039 -29.911  16.635  1.00  0.00     0.035 C 
BRANCH  15  16
ATOM     16  C   UNL     1       6.279 -29.237  17.992  1.00  0.00     0.079 C 
BRANCH  16  17
ATOM     17  C   UNL     1       7.541 -29.740  18.647  1.00  0.00     0.130 C 
ATOM     18  O   UNL     1       7.520 -30.792  19.266  1.00  0.00    -0.300 OA
ATOM     19  C   UNL     1       8.826 -28.970  18.552  1.00  0.00     0.087 C 
ENDBRANCH  16  17
ENDBRANCH  15  16
ENDBRANCH  13  15
ENDBRANCH  11  12
ENDBRANCH   1  11
TORSDOF 9
ENDMDL
MODEL 4
REMARK VINA RESULT:    -3.714      1.450      3.576
REMARK INTER + INTRA:          -7.978
REMARK INTER:                  -6.183
REMARK INTRA:                  -1.795
REMARK UNBOUND:                -2.310
REMARK SMILES CC(=O)CCC=C(C)CCC=C(C)CCC=C(C)C
REMARK SMILES IDX 10 1 11 2 12 3 13 4 14 5 15 6 16 7 18 8 17 9 19 10 9 11 7 12
REMARK SMILES IDX 6 13 8 14 5 15 4 16 2 17 3 18 1 19
REMARK H PARENT
REMARK Flexibility Score: inf
ROOT
ATOM      1  C   UNL     1       7.945 -30.113  14.117  1.00  0.00     0.032 C 
ENDROOT
BRANCH   1   2
ATOM      2  C   UNL     1       9.299 -29.518  14.422  1.00  0.00    -0.028 C 
ATOM      3  C   UNL     1      10.340 -29.474  13.560  1.00  0.00    -0.077 C 
ATOM      4  C   UNL     1      11.651 -28.921  14.055  1.00  0.00     0.039 C 
BRANCH   3   5
ATOM      5  C   UNL     1      10.234 -29.922  12.113  1.00  0.00     0.034 C 
BRANCH   5   6
ATOM      6  C   UNL     1      10.930 -31.271  11.878  1.00  0.00     0.032 C 
BRANCH   6   7
ATOM      7  C   UNL     1      10.012 -32.436  12.156  1.00  0.00    -0.028 C 
ATOM      8  C   UNL     1       9.274 -34.545  13.177  1.00  0.00     0.039 C 
ATOM      9  C   UNL     1      10.267 -33.418  13.048  1.00  0.00    -0.080 C 
ATOM     10  C   UNL     1      11.498 -33.407  13.924  1.00  0.00     0.039 C 
ENDBRANCH   6   7
ENDBRANCH   5   6
ENDBRANCH   3   5
ENDBRANCH   1   2
BRANCH   1  11
ATOM     11  C   UNL     1       7.739 -31.461  14.824  1.00  0.00     0.034 C 
BRANCH  11  12
ATOM     12  C   UNL     1       7.532 -31.286  16.314  1.00  0.00    -0.077 C 
ATOM     13  C   UNL     1       7.087 -30.098  16.784  1.00  0.00    -0.028 C 
ATOM     14  C   UNL     1       7.759 -32.471  17.221  1.00  0.00     0.039 C 
BRANCH  13  15
ATOM     15  C   UNL     1       6.854 -29.786  18.243  1.00  0.00     0.035 C 
BRANCH  15  16
ATOM     16  C   UNL     1       7.570 -28.498  18.670  1.00  0.00     0.079 C 
BRANCH  16  17
ATOM     17  C   UNL     1       9.064 -28.693  18.746  1.00  0.00     0.130 C 
ATOM     18  O   UNL     1       9.562 -29.139  19.768  1.00  0.00    -0.300 OA
ATOM     19  C   UNL     1       9.953 -28.348  17.587  1.00  0.00     0.087 C 
ENDBRANCH  16  17
ENDBRANCH  15  16
ENDBRANCH  13  15
ENDBRANCH  11  12
ENDBRANCH   1  11
TORSDOF 9
ENDMDL
MODEL 5
REMARK VINA RESULT:    -3.578      2.597      5.381
REMARK INTER + INTRA:          -7.770
REMARK INTER:                  -5.435
REMARK INTRA:                  -2.336
REMARK UNBOUND:                -2.310
REMARK SMILES CC(=O)CCC=C(C)CCC=C(C)CCC=C(C)C
REMARK SMILES IDX 10 1 11 2 12 3 13 4 14 5 15 6 16 7 18 8 17 9 19 10 9 11 7 12
REMARK SMILES IDX 6 13 8 14 5 15 4 16 2 17 3 18 1 19
REMARK H PARENT
REMARK Flexibility Score: inf
ROOT
ATOM      1  C   UNL     1       7.336 -33.059  16.821  1.00  0.00     0.032 C 
ENDROOT
BRANCH   1   2
ATOM      2  C   UNL     1       6.700 -31.798  17.356  1.00  0.00    -0.028 C 
ATOM      3  C   UNL     1       7.310 -30.594  17.435  1.00  0.00    -0.077 C 
ATOM      4  C   UNL     1       6.560 -29.455  18.076  1.00  0.00     0.039 C 
BRANCH   3   5
ATOM      5  C   UNL     1       8.699 -30.333  16.877  1.00  0.00     0.034 C 
BRANCH   5   6
ATOM      6  C   UNL     1       8.654 -29.462  15.613  1.00  0.00     0.032 C 
BRANCH   6   7
ATOM      7  C   UNL     1       7.587 -29.922  14.649  1.00  0.00    -0.028 C 
ATOM      8  C   UNL     1       6.546 -30.373  12.469  1.00  0.00     0.039 C 
ATOM      9  C   UNL     1       7.721 -29.932  13.304  1.00  0.00    -0.080 C 
ATOM     10  C   UNL     1       9.010 -29.537  12.623  1.00  0.00     0.039 C 
ENDBRANCH   6   7
ENDBRANCH   5   6
ENDBRANCH   3   5
ENDBRANCH   1   2
BRANCH   1  11
ATOM     11  C   UNL     1       6.475 -33.717  15.733  1.00  0.00     0.034 C 
BRANCH  11  12
ATOM     12  C   UNL     1       7.157 -33.682  14.381  1.00  0.00    -0.077 C 
ATOM     13  C   UNL     1       8.487 -33.440  14.319  1.00  0.00    -0.028 C 
ATOM     14  C   UNL     1       6.341 -33.993  13.150  1.00  0.00     0.039 C 
BRANCH  13  15
ATOM     15  C   UNL     1       9.285 -33.363  13.039  1.00  0.00     0.035 C 
BRANCH  15  16
ATOM     16  C   UNL     1      10.552 -34.224  13.107  1.00  0.00     0.079 C 
BRANCH  16  17
ATOM     17  C   UNL     1      11.740 -33.513  12.509  1.00  0.00     0.130 C 
ATOM     18  O   UNL     1      12.624 -34.163  11.973  1.00  0.00    -0.300 OA
ATOM     19  C   UNL     1      11.857 -32.018  12.558  1.00  0.00     0.087 C 
ENDBRANCH  16  17
ENDBRANCH  15  16
ENDBRANCH  13  15
ENDBRANCH  11  12
ENDBRANCH   1  11
TORSDOF 9
ENDMDL
MODEL 6
REMARK VINA RESULT:    -3.529      1.622      5.549
REMARK INTER + INTRA:          -7.695
REMARK INTER:                  -5.593
REMARK INTRA:                  -2.102
REMARK UNBOUND:                -2.310
REMARK SMILES CC(=O)CCC=C(C)CCC=C(C)CCC=C(C)C
REMARK SMILES IDX 10 1 11 2 12 3 13 4 14 5 15 6 16 7 18 8 17 9 19 10 9 11 7 12
REMARK SMILES IDX 6 13 8 14 5 15 4 16 2 17 3 18 1 19
REMARK H PARENT
REMARK Flexibility Score: inf
ROOT
ATOM      1  C   UNL     1      10.719 -30.387  12.527  1.00  0.00     0.032 C 
ENDROOT
BRANCH   1   2
ATOM      2  C   UNL     1      11.101 -29.589  13.751  1.00  0.00    -0.028 C 
ATOM      3  C   UNL     1      10.237 -29.159  14.698  1.00  0.00    -0.077 C 
ATOM      4  C   UNL     1      10.773 -28.299  15.813  1.00  0.00     0.039 C 
BRANCH   3   5
ATOM      5  C   UNL     1       8.765 -29.534  14.706  1.00  0.00     0.034 C 
BRANCH   5   6
ATOM      6  C   UNL     1       8.419 -30.474  15.870  1.00  0.00     0.032 C 
BRANCH   6   7
ATOM      7  C   UNL     1       7.191 -30.016  16.619  1.00  0.00    -0.028 C 
ATOM      8  C   UNL     1       5.894 -29.085  18.486  1.00  0.00     0.039 C 
ATOM      9  C   UNL     1       7.209 -29.443  17.843  1.00  0.00    -0.080 C 
ATOM     10  C   UNL     1       8.499 -29.136  18.567  1.00  0.00     0.039 C 
ENDBRANCH   6   7
ENDBRANCH   5   6
ENDBRANCH   3   5
ENDBRANCH   1   2
BRANCH   1  11
ATOM     11  C   UNL     1      11.492 -31.711  12.443  1.00  0.00     0.034 C 
BRANCH  11  12
ATOM     12  C   UNL     1      10.758 -32.834  13.145  1.00  0.00    -0.077 C 
ATOM     13  C   UNL     1       9.405 -32.838  13.150  1.00  0.00    -0.028 C 
ATOM     14  C   UNL     1      11.563 -33.956  13.756  1.00  0.00     0.039 C 
BRANCH  13  15
ATOM     15  C   UNL     1       8.552 -33.886  13.825  1.00  0.00     0.035 C 
BRANCH  15  16
ATOM     16  C   UNL     1       7.109 -33.865  13.305  1.00  0.00     0.079 C 
BRANCH  16  17
ATOM     17  C   UNL     1       6.280 -32.820  14.009  1.00  0.00     0.130 C 
ATOM     18  O   UNL     1       5.931 -33.007  15.165  1.00  0.00    -0.300 OA
ATOM     19  C   UNL     1       5.875 -31.552  13.318  1.00  0.00     0.087 C 
ENDBRANCH  16  17
ENDBRANCH  15  16
ENDBRANCH  13  15
ENDBRANCH  11  12
ENDBRANCH   1  11
TORSDOF 9
ENDMDL
MODEL 7
REMARK VINA RESULT:    -3.526      1.476      2.246
REMARK INTER + INTRA:          -7.692
REMARK INTER:                  -6.225
REMARK INTRA:                  -1.467
REMARK UNBOUND:                -2.310
REMARK SMILES CC(=O)CCC=C(C)CCC=C(C)CCC=C(C)C
REMARK SMILES IDX 10 1 11 2 12 3 13 4 14 5 15 6 16 7 18 8 17 9 19 10 9 11 7 12
REMARK SMILES IDX 6 13 8 14 5 15 4 16 2 17 3 18 1 19
REMARK H PARENT
REMARK Flexibility Score: inf
ROOT
ATOM      1  C   UNL     1       7.550 -33.532  13.946  1.00  0.00     0.032 C 
ENDROOT
BRANCH   1   2
ATOM      2  C   UNL     1       9.041 -33.487  14.179  1.00  0.00    -0.028 C 
ATOM      3  C   UNL     1       9.961 -33.129  13.254  1.00  0.00    -0.077 C 
ATOM      4  C   UNL     1      11.418 -33.222  13.626  1.00  0.00     0.039 C 
BRANCH   3   5
ATOM      5  C   UNL     1       9.588 -32.607  11.877  1.00  0.00     0.034 C 
BRANCH   5   6
ATOM      6  C   UNL     1       9.255 -31.108  11.903  1.00  0.00     0.032 C 
BRANCH   6   7
ATOM      7  C   UNL     1      10.396 -30.285  12.449  1.00  0.00    -0.028 C 
ATOM      8  C   UNL     1      11.543 -28.726  13.962  1.00  0.00     0.039 C 
ATOM      9  C   UNL     1      10.333 -29.535  13.571  1.00  0.00    -0.080 C 
ATOM     10  C   UNL     1       9.101 -29.500  14.445  1.00  0.00     0.039 C 
ENDBRANCH   6   7
ENDBRANCH   5   6
ENDBRANCH   3   5
ENDBRANCH   1   2
BRANCH   1  11
ATOM     11  C   UNL     1       6.842 -32.300  14.531  1.00  0.00     0.034 C 
BRANCH  11  12
ATOM     12  C   UNL     1       7.049 -32.193  16.027  1.00  0.00    -0.077 C 
ATOM     13  C   UNL     1       7.216 -30.972  16.586  1.00  0.00    -0.028 C 
ATOM     14  C   UNL     1       6.989 -33.452  16.859  1.00  0.00     0.039 C 
BRANCH  13  15
ATOM     15  C   UNL     1       7.446 -30.727  18.058  1.00  0.00     0.035 C 
BRANCH  15  16
ATOM     16  C   UNL     1       7.644 -29.236  18.361  1.00  0.00     0.079 C 
BRANCH  16  17
ATOM     17  C   UNL     1       9.085 -28.919  18.673  1.00  0.00     0.130 C 
ATOM     18  O   UNL     1       9.530 -29.169  19.782  1.00  0.00    -0.300 OA
ATOM     19  C   UNL     1       9.985 -28.299  17.645  1.00  0.00     0.087 C 
ENDBRANCH  16  17
ENDBRANCH  15  16
ENDBRANCH  13  15
ENDBRANCH  11  12
ENDBRANCH   1  11
TORSDOF 9
ENDMDL
MODEL 8
REMARK VINA RESULT:    -3.520      2.151      6.186
REMARK INTER + INTRA:          -7.681
REMARK INTER:                  -5.633
REMARK INTRA:                  -2.048
REMARK UNBOUND:                -2.310
REMARK SMILES CC(=O)CCC=C(C)CCC=C(C)CCC=C(C)C
REMARK SMILES IDX 10 1 11 2 12 3 13 4 14 5 15 6 16 7 18 8 17 9 19 10 9 11 7 12
REMARK SMILES IDX 6 13 8 14 5 15 4 16 2 17 3 18 1 19
REMARK H PARENT
REMARK Flexibility Score: inf
ROOT
ATOM      1  C   UNL     1       9.277 -29.159  15.319  1.00  0.00     0.032 C 
ENDROOT
BRANCH   1   2
ATOM      2  C   UNL     1       9.608 -29.049  16.788  1.00  0.00    -0.028 C 
ATOM      3  C   UNL     1       8.721 -29.203  17.798  1.00  0.00    -0.077 C 
ATOM      4  C   UNL     1       9.200 -28.975  19.208  1.00  0.00     0.039 C 
BRANCH   3   5
ATOM      5  C   UNL     1       7.280 -29.630  17.574  1.00  0.00     0.034 C 
BRANCH   5   6
ATOM      6  C   UNL     1       7.132 -31.158  17.555  1.00  0.00     0.032 C 
BRANCH   6   7
ATOM      7  C   UNL     1       6.660 -31.662  16.212  1.00  0.00    -0.028 C 
ATOM      8  C   UNL     1       6.842 -32.683  13.985  1.00  0.00     0.039 C 
ATOM      9  C   UNL     1       7.447 -32.281  15.305  1.00  0.00    -0.080 C 
ATOM     10  C   UNL     1       8.899 -32.596  15.584  1.00  0.00     0.039 C 
ENDBRANCH   6   7
ENDBRANCH   5   6
ENDBRANCH   3   5
ENDBRANCH   1   2
BRANCH   1  11
ATOM     11  C   UNL     1      10.539 -29.122  14.444  1.00  0.00     0.034 C 
BRANCH  11  12
ATOM     12  C   UNL     1      10.379 -29.961  13.194  1.00  0.00    -0.077 C 
ATOM     13  C   UNL     1      11.086 -31.108  13.073  1.00  0.00    -0.028 C 
ATOM     14  C   UNL     1       9.377 -29.526  12.153  1.00  0.00     0.039 C 
BRANCH  13  15
ATOM     15  C   UNL     1      11.032 -32.027  11.876  1.00  0.00     0.035 C 
BRANCH  15  16
ATOM     16  C   UNL     1       9.984 -33.133  12.056  1.00  0.00     0.079 C 
BRANCH  16  17
ATOM     17  C   UNL     1      10.568 -34.345  12.737  1.00  0.00     0.130 C 
ATOM     18  O   UNL     1       9.829 -35.120  13.324  1.00  0.00    -0.300 OA
ATOM     19  C   UNL     1      12.043 -34.619  12.708  1.00  0.00     0.087 C 
ENDBRANCH  16  17
ENDBRANCH  15  16
ENDBRANCH  13  15
ENDBRANCH  11  12
ENDBRANCH   1  11
TORSDOF 9
ENDMDL
MODEL 9
REMARK VINA RESULT:    -3.387      1.750      3.667
REMARK INTER + INTRA:          -7.478
REMARK INTER:                  -5.407
REMARK INTRA:                  -2.071
REMARK UNBOUND:                -2.310
REMARK SMILES CC(=O)CCC=C(C)CCC=C(C)CCC=C(C)C
REMARK SMILES IDX 10 1 11 2 12 3 13 4 14 5 15 6 16 7 18 8 17 9 19 10 9 11 7 12
REMARK SMILES IDX 6 13 8 14 5 15 4 16 2 17 3 18 1 19
REMARK H PARENT
REMARK Flexibility Score: inf
ROOT
ATOM      1  C   UNL     1       7.576 -32.274  15.561  1.00  0.00     0.032 C 
ENDROOT
BRANCH   1   2
ATOM      2  C   UNL     1       6.873 -32.154  14.230  1.00  0.00    -0.028 C 
ATOM      3  C   UNL     1       7.085 -31.170  13.326  1.00  0.00    -0.077 C 
ATOM      4  C   UNL     1       6.236 -31.151  12.082  1.00  0.00     0.039 C 
BRANCH   3   5
ATOM      5  C   UNL     1       8.161 -30.111  13.494  1.00  0.00     0.034 C 
BRANCH   5   6
ATOM      6  C   UNL     1       9.371 -30.375  12.587  1.00  0.00     0.032 C 
BRANCH   6   7
ATOM      7  C   UNL     1      10.380 -31.286  13.243  1.00  0.00    -0.028 C 
ATOM      8  C   UNL     1      11.532 -33.395  13.753  1.00  0.00     0.039 C 
ATOM      9  C   UNL     1      10.510 -32.604  12.978  1.00  0.00    -0.080 C 
ATOM     10  C   UNL     1       9.680 -33.296  11.922  1.00  0.00     0.039 C 
ENDBRANCH   6   7
ENDBRANCH   5   6
ENDBRANCH   3   5
ENDBRANCH   1   2
BRANCH   1  11
ATOM     11  C   UNL     1       6.636 -31.960  16.735  1.00  0.00     0.034 C 
BRANCH  11  12
ATOM     12  C   UNL     1       6.901 -30.586  17.314  1.00  0.00    -0.077 C 
ATOM     13  C   UNL     1       8.074 -30.351  17.945  1.00  0.00    -0.028 C 
ATOM     14  C   UNL     1       5.875 -29.500  17.101  1.00  0.00     0.039 C 
BRANCH  13  15
ATOM     15  C   UNL     1       8.458 -29.035  18.580  1.00  0.00     0.035 C 
BRANCH  15  16
ATOM     16  C   UNL     1       9.958 -28.750  18.432  1.00  0.00     0.079 C 
BRANCH  16  17
ATOM     17  C   UNL     1      10.260 -28.015  17.149  1.00  0.00     0.130 C 
ATOM     18  O   UNL     1      10.373 -26.799  17.164  1.00  0.00    -0.300 OA
ATOM     19  C   UNL     1      10.425 -28.751  15.852  1.00  0.00     0.087 C 
ENDBRANCH  16  17
ENDBRANCH  15  16
ENDBRANCH  13  15
ENDBRANCH  11  12
ENDBRANCH   1  11
TORSDOF 9
ENDMDL
