MODEL 1
REMARK VINA RESULT:    -0.559      0.000      0.000
REMARK INTER + INTRA:          -0.317
REMARK INTER:                  -0.657
REMARK INTRA:                   0.340
REMARK UNBOUND:                 0.340
REMARK SMILES COc1cc2ccc(=O)oc2c(OC)c1OC
REMARK SMILES IDX 3 1 15 2 12 3 11 4 5 5 4 6 6 7 7 8 8 9 9 10 10 11 2 12 1 13
REMARK SMILES IDX 16 14 17 15 13 16 14 17
REMARK H PARENT
REMARK Flexibility Score: inf
ROOT
ATOM      1  C   UNL     1       5.092   3.346 -15.324  1.00  0.00     0.165 A 
ATOM      2  C   UNL     1       4.853   1.964 -15.274  1.00  0.00     0.207 A 
ATOM      3  C   UNL     1       4.341   1.285 -16.414  1.00  0.00     0.208 A 
ATOM      4  C   UNL     1       4.075   2.025 -17.594  1.00  0.00     0.184 A 
ATOM      5  C   UNL     1       4.322   3.416 -17.625  1.00  0.00     0.025 A 
ATOM      6  C   UNL     1       4.826   4.066 -16.498  1.00  0.00     0.062 A 
ATOM      7  C   UNL     1       4.053   4.125 -18.801  1.00  0.00     0.020 A 
ATOM      8  C   UNL     1       3.551   3.451 -19.909  1.00  0.00     0.094 A 
ATOM      9  C   UNL     1       3.329   2.077 -19.815  1.00  0.00     0.336 A 
ATOM     10  O   UNL     1       2.875   1.443 -20.804  1.00  0.00    -0.246 OA
ATOM     11  O   UNL     1       3.594   1.430 -18.685  1.00  0.00    -0.419 OA
ENDROOT
BRANCH   1  12
ATOM     12  O   UNL     1       5.600   3.973 -14.173  1.00  0.00    -0.493 OA
ATOM     13  C   UNL     1       6.984   4.124 -13.876  1.00  0.00     0.278 C 
ENDBRANCH   1  12
BRANCH   2  14
ATOM     14  O   UNL     1       5.152   1.326 -14.052  1.00  0.00    -0.490 OA
ATOM     15  C   UNL     1       5.693   0.022 -13.875  1.00  0.00     0.278 C 
ENDBRANCH   2  14
BRANCH   3  16
ATOM     16  O   UNL     1       4.113  -0.102 -16.327  1.00  0.00    -0.490 OA
ATOM     17  C   UNL     1       2.875  -0.782 -16.512  1.00  0.00     0.278 C 
ENDBRANCH   3  16
TORSDOF 3
ENDMDL
MODEL 2
REMARK VINA RESULT:    -0.087      2.682      5.683
REMARK INTER + INTRA:           0.238
REMARK INTER:                  -0.465
REMARK INTRA:                   0.703
REMARK UNBOUND:                 0.340
REMARK SMILES COc1cc2ccc(=O)oc2c(OC)c1OC
REMARK SMILES IDX 3 1 15 2 12 3 11 4 5 5 4 6 6 7 7 8 8 9 9 10 10 11 2 12 1 13
REMARK SMILES IDX 16 14 17 15 13 16 14 17
REMARK H PARENT
REMARK Flexibility Score: inf
ROOT
ATOM      1  C   UNL     1       2.881   0.632 -21.606  1.00  0.00     0.165 A 
ATOM      2  C   UNL     1       2.887  -0.341 -20.593  1.00  0.00     0.207 A 
ATOM      3  C   UNL     1       2.890   0.051 -19.226  1.00  0.00     0.208 A 
ATOM      4  C   UNL     1       2.888   1.433 -18.905  1.00  0.00     0.184 A 
ATOM      5  C   UNL     1       2.883   2.396 -19.939  1.00  0.00     0.025 A 
ATOM      6  C   UNL     1       2.879   1.995 -21.275  1.00  0.00     0.062 A 
ATOM      7  C   UNL     1       2.881   3.753 -19.598  1.00  0.00     0.020 A 
ATOM      8  C   UNL     1       2.884   4.124 -18.257  1.00  0.00     0.094 A 
ATOM      9  C   UNL     1       2.890   3.125 -17.284  1.00  0.00     0.336 A 
ATOM     10  O   UNL     1       2.893   3.434 -16.064  1.00  0.00    -0.246 OA
ATOM     11  O   UNL     1       2.892   1.843 -17.638  1.00  0.00    -0.419 OA
ENDROOT
BRANCH   1  12
ATOM     12  O   UNL     1       2.878   0.196 -22.942  1.00  0.00    -0.493 OA
ATOM     13  C   UNL     1       3.478   0.899 -24.026  1.00  0.00     0.278 C 
ENDBRANCH   1  12
BRANCH   2  14
ATOM     14  O   UNL     1       2.888  -1.684 -21.023  1.00  0.00    -0.490 OA
ATOM     15  C   UNL     1       3.911  -2.348 -21.756  1.00  0.00     0.278 C 
ENDBRANCH   2  14
BRANCH   3  16
ATOM     16  O   UNL     1       2.896  -0.953 -18.237  1.00  0.00    -0.490 OA
ATOM     17  C   UNL     1       2.889  -0.766 -16.825  1.00  0.00     0.278 C 
ENDBRANCH   3  16
TORSDOF 3
ENDMDL
