MODEL 1
REMARK VINA RESULT:    -3.266      0.000      0.000
REMARK INTER + INTRA:          -5.567
REMARK INTER:                  -4.985
REMARK INTRA:                  -0.582
REMARK UNBOUND:                -0.582
REMARK SMILES CC1=CCC[C@H](C)C(=O)C[C@H](C(C)C)C(=O)C1
REMARK SMILES IDX 8 1 9 2 6 3 7 4 5 5 4 6 3 7 2 8 1 9 10 11 11 12 15 13 16 14
REMARK SMILES IDX 17 15 12 17 13 18 14 19
REMARK H PARENT
REMARK Flexibility Score: 70.00
ROOT
ATOM      1  C   UNL     1    -115.479 -92.172   4.297  1.00  0.00     0.136 C 
ATOM      2  O   UNL     1    -116.110 -91.124   4.321  1.00  0.00    -0.299 OA
ENDROOT
BRANCH   1   3
ATOM      3  C   UNL     1    -113.991 -92.147   3.969  1.00  0.00     0.053 C 
ATOM      4  C   UNL     1    -113.692 -91.167   2.825  1.00  0.00     0.016 C 
BRANCH   3   5
ATOM      5  C   UNL     1    -113.101 -91.845   5.204  1.00  0.00     0.015 C 
BRANCH   5   6
ATOM      6  C   UNL     1    -112.147 -92.993   5.595  1.00  0.00     0.028 C 
BRANCH   6   7
ATOM      7  C   UNL     1    -112.381 -93.521   6.986  1.00  0.00    -0.028 C 
ATOM      8  C   UNL     1    -113.172 -94.571   7.330  1.00  0.00    -0.070 CG0
ATOM      9  C   UNL     1    -113.383 -94.803   8.807  1.00  0.00     0.039 C 
ATOM     10  G   UNL     1    -113.722 -95.626   6.368  1.00  0.00     0.000 G0
ENDBRANCH   6   7
ENDBRANCH   5   6
ENDBRANCH   3   5
ENDBRANCH   1   3
BRANCH   1  11
ATOM     11  C   UNL     1    -116.216 -93.458   4.585  1.00  0.00     0.087 C 
BRANCH  11  12
ATOM     12  C   UNL     1    -115.339 -94.733   4.489  1.00  0.00     0.066 C 
BRANCH  12  13
ATOM     13  C   UNL     1    -115.138 -95.432   5.833  1.00  0.00     0.140 C 
ATOM     14  O   UNL     1    -116.095 -95.914   6.424  1.00  0.00    -0.299 OA
BRANCH  13  15
ATOM     15  C   UNL     1    -113.743 -95.650   6.376  1.00  0.00     0.106 CG0
ATOM     16  G   UNL     1    -113.193 -94.588   7.330  1.00  0.00     0.000 G0
ENDBRANCH  13  15
ENDBRANCH  12  13
BRANCH  12  17
ATOM     17  C   UNL     1    -115.879 -95.702   3.389  1.00  0.00    -0.006 C 
ATOM     18  C   UNL     1    -114.813 -96.657   2.823  1.00  0.00     0.008 C 
ATOM     19  C   UNL     1    -116.555 -94.938   2.240  1.00  0.00     0.008 C 
ENDBRANCH  12  17
ENDBRANCH  11  12
ENDBRANCH   1  11
TORSDOF 1
ENDMDL
MODEL 2
REMARK VINA RESULT:    -3.122      8.869     11.197
REMARK INTER + INTRA:          -5.347
REMARK INTER:                  -5.229
REMARK INTRA:                  -0.118
REMARK UNBOUND:                -0.582
REMARK SMILES CC1=CCC[C@H](C)C(=O)C[C@H](C(C)C)C(=O)C1
REMARK SMILES IDX 8 1 9 2 6 3 7 4 5 5 4 6 3 7 2 8 1 9 10 11 11 12 15 13 16 14
REMARK SMILES IDX 17 15 12 17 13 18 14 19
REMARK H PARENT
REMARK Flexibility Score: 70.00
ROOT
ATOM      1  C   UNL     1    -120.425 -99.084   1.523  1.00  0.00     0.136 C 
ATOM      2  O   UNL     1    -120.750 -97.946   1.214  1.00  0.00    -0.299 OA
ENDROOT
BRANCH   1   3
ATOM      3  C   UNL     1    -119.428 -99.842   0.656  1.00  0.00     0.053 C 
ATOM      4  C   UNL     1    -118.177 -98.994   0.377  1.00  0.00     0.016 C 
BRANCH   3   5
ATOM      5  C   UNL     1    -119.040-101.226   1.242  1.00  0.00     0.015 C 
BRANCH   5   6
ATOM      6  C   UNL     1    -119.980-102.377   0.828  1.00  0.00     0.028 C 
BRANCH   6   7
ATOM      7  C   UNL     1    -120.908-102.017  -0.303  1.00  0.00    -0.028 C 
ATOM      8  C   UNL     1    -122.246-101.801  -0.214  1.00  0.00    -0.070 CG0
ATOM      9  C   UNL     1    -122.991-101.622  -1.516  1.00  0.00     0.039 C 
ATOM     10  G   UNL     1    -123.026-101.557   1.080  1.00  0.00     0.000 G0
ENDBRANCH   6   7
ENDBRANCH   5   6
ENDBRANCH   3   5
ENDBRANCH   1   3
BRANCH   1  11
ATOM     11  C   UNL     1    -121.043 -99.694   2.758  1.00  0.00     0.087 C 
BRANCH  11  12
ATOM     12  C   UNL     1    -122.590 -99.609   2.806  1.00  0.00     0.066 C 
BRANCH  12  13
ATOM     13  C   UNL     1    -123.265-100.136   1.540  1.00  0.00     0.140 C 
ATOM     14  O   UNL     1    -123.904 -99.378   0.823  1.00  0.00    -0.299 OA
BRANCH  13  15
ATOM     15  C   UNL     1    -123.039-101.564   1.096  1.00  0.00     0.106 CG0
ATOM     16  G   UNL     1    -122.239-101.775  -0.190  1.00  0.00     0.000 G0
ENDBRANCH  13  15
ENDBRANCH  12  13
BRANCH  12  17
ATOM     17  C   UNL     1    -123.148-100.281   4.101  1.00  0.00    -0.006 C 
ATOM     18  C   UNL     1    -124.337 -99.532   4.729  1.00  0.00     0.008 C 
ATOM     19  C   UNL     1    -122.048-100.485   5.155  1.00  0.00     0.008 C 
ENDBRANCH  12  17
ENDBRANCH  11  12
ENDBRANCH   1  11
TORSDOF 1
ENDMDL
MODEL 3
REMARK VINA RESULT:    -3.064      9.936     11.976
REMARK INTER + INTRA:          -5.258
REMARK INTER:                  -4.727
REMARK INTRA:                  -0.531
REMARK UNBOUND:                -0.582
REMARK SMILES CC1=CCC[C@H](C)C(=O)C[C@H](C(C)C)C(=O)C1
REMARK SMILES IDX 8 1 9 2 6 3 7 4 5 5 4 6 3 7 2 8 1 9 10 11 11 12 15 13 16 14
REMARK SMILES IDX 17 15 12 17 13 18 14 19
REMARK H PARENT
REMARK Flexibility Score: 70.00
ROOT
ATOM      1  C   UNL     1    -122.028 -99.209   3.906  1.00  0.00     0.136 C 
ATOM      2  O   UNL     1    -121.653 -98.260   4.581  1.00  0.00    -0.299 OA
ENDROOT
BRANCH   1   3
ATOM      3  C   UNL     1    -123.118-100.129   4.443  1.00  0.00     0.053 C 
ATOM      4  C   UNL     1    -122.674-100.813   5.744  1.00  0.00     0.016 C 
BRANCH   3   5
ATOM      5  C   UNL     1    -124.482 -99.413   4.630  1.00  0.00     0.015 C 
BRANCH   5   6
ATOM      6  C   UNL     1    -125.630-100.002   3.783  1.00  0.00     0.028 C 
BRANCH   6   7
ATOM      7  C   UNL     1    -126.081 -99.095   2.669  1.00  0.00    -0.028 C 
ATOM      8  C   UNL     1    -125.549 -99.021   1.420  1.00  0.00    -0.070 CG0
ATOM      9  C   UNL     1    -126.060 -97.911   0.532  1.00  0.00     0.039 C 
ATOM     10  G   UNL     1    -124.615-100.054   0.787  1.00  0.00     0.000 G0
ENDBRANCH   6   7
ENDBRANCH   5   6
ENDBRANCH   3   5
ENDBRANCH   1   3
BRANCH   1  11
ATOM     11  C   UNL     1    -121.377 -99.433   2.562  1.00  0.00     0.087 C 
BRANCH  11  12
ATOM     12  C   UNL     1    -122.144-100.411   1.636  1.00  0.00     0.066 C 
BRANCH  12  13
ATOM     13  C   UNL     1    -123.137 -99.713   0.707  1.00  0.00     0.140 C 
ATOM     14  O   UNL     1    -122.734 -98.955  -0.164  1.00  0.00    -0.299 OA
BRANCH  13  15
ATOM     15  C   UNL     1    -124.609-100.056   0.771  1.00  0.00     0.106 CG0
ATOM     16  G   UNL     1    -125.534 -99.033   1.432  1.00  0.00     0.000 G0
ENDBRANCH  13  15
ENDBRANCH  12  13
BRANCH  12  17
ATOM     17  C   UNL     1    -121.155-101.340   0.861  1.00  0.00    -0.006 C 
ATOM     18  C   UNL     1    -121.771-102.681   0.426  1.00  0.00     0.008 C 
ATOM     19  C   UNL     1    -119.868-101.594   1.661  1.00  0.00     0.008 C 
ENDBRANCH  12  17
ENDBRANCH  11  12
ENDBRANCH   1  11
TORSDOF 1
ENDMDL
MODEL 4
REMARK VINA RESULT:    -2.882      6.797      9.029
REMARK INTER + INTRA:          -4.981
REMARK INTER:                  -4.657
REMARK INTRA:                  -0.324
REMARK UNBOUND:                -0.582
REMARK SMILES CC1=CCC[C@H](C)C(=O)C[C@H](C(C)C)C(=O)C1
REMARK SMILES IDX 8 1 9 2 6 3 7 4 5 5 4 6 3 7 2 8 1 9 10 11 11 12 15 13 16 14
REMARK SMILES IDX 17 15 12 17 13 18 14 19
REMARK H PARENT
REMARK Flexibility Score: 70.00
ROOT
ATOM      1  C   UNL     1    -118.260-101.503   0.693  1.00  0.00     0.136 C 
ATOM      2  O   UNL     1    -118.233-102.373   1.553  1.00  0.00    -0.299 OA
ENDROOT
BRANCH   1   3
ATOM      3  C   UNL     1    -116.962-101.057   0.034  1.00  0.00     0.053 C 
ATOM      4  C   UNL     1    -116.682-101.863  -1.243  1.00  0.00     0.016 C 
BRANCH   3   5
ATOM      5  C   UNL     1    -116.917 -99.532  -0.253  1.00  0.00     0.015 C 
BRANCH   5   6
ATOM      6  C   UNL     1    -116.509 -98.670   0.960  1.00  0.00     0.028 C 
BRANCH   6   7
ATOM      7  C   UNL     1    -116.959 -97.236   0.856  1.00  0.00    -0.028 C 
ATOM      8  C   UNL     1    -118.212 -96.763   1.083  1.00  0.00    -0.070 CG0
ATOM      9  C   UNL     1    -118.459 -95.311   0.746  1.00  0.00     0.039 C 
ATOM     10  G   UNL     1    -119.333 -97.518   1.800  1.00  0.00     0.000 G0
ENDBRANCH   6   7
ENDBRANCH   5   6
ENDBRANCH   3   5
ENDBRANCH   1   3
BRANCH   1  11
ATOM     11  C   UNL     1    -119.595-100.897   0.331  1.00  0.00     0.087 C 
BRANCH  11  12
ATOM     12  C   UNL     1    -120.188 -99.964   1.417  1.00  0.00     0.066 C 
BRANCH  12  13
ATOM     13  C   UNL     1    -120.167 -98.486   1.024  1.00  0.00     0.140 C 
ATOM     14  O   UNL     1    -120.899 -98.077   0.135  1.00  0.00    -0.299 OA
BRANCH  13  15
ATOM     15  C   UNL     1    -119.339 -97.500   1.819  1.00  0.00     0.106 CG0
ATOM     16  G   UNL     1    -118.239 -96.749   1.067  1.00  0.00     0.000 G0
ENDBRANCH  13  15
ENDBRANCH  12  13
BRANCH  12  17
ATOM     17  C   UNL     1    -121.611-100.442   1.851  1.00  0.00    -0.006 C 
ATOM     18  C   UNL     1    -121.838-100.422   3.373  1.00  0.00     0.008 C 
ATOM     19  C   UNL     1    -121.935-101.838   1.296  1.00  0.00     0.008 C 
ENDBRANCH  12  17
ENDBRANCH  11  12
ENDBRANCH   1  11
TORSDOF 1
ENDMDL
MODEL 5
REMARK VINA RESULT:    -2.813      2.109      4.361
REMARK INTER + INTRA:          -4.875
REMARK INTER:                  -4.387
REMARK INTRA:                  -0.488
REMARK UNBOUND:                -0.582
REMARK SMILES CC1=CCC[C@H](C)C(=O)C[C@H](C(C)C)C(=O)C1
REMARK SMILES IDX 8 1 9 2 6 3 7 4 5 5 4 6 3 7 2 8 1 9 10 11 11 12 15 13 16 14
REMARK SMILES IDX 17 15 12 17 13 18 14 19
REMARK H PARENT
REMARK Flexibility Score: 70.00
ROOT
ATOM      1  C   UNL     1    -115.082 -95.258   5.962  1.00  0.00     0.136 C 
ATOM      2  O   UNL     1    -116.140 -95.637   6.448  1.00  0.00    -0.299 OA
ENDROOT
BRANCH   1   3
ATOM      3  C   UNL     1    -115.056 -94.740   4.530  1.00  0.00     0.053 C 
ATOM      4  C   UNL     1    -115.957 -95.585   3.617  1.00  0.00     0.016 C 
BRANCH   3   5
ATOM      5  C   UNL     1    -115.412 -93.234   4.420  1.00  0.00     0.015 C 
BRANCH   5   6
ATOM      6  C   UNL     1    -114.320 -92.370   3.756  1.00  0.00     0.028 C 
BRANCH   6   7
ATOM      7  C   UNL     1    -113.970 -91.134   4.543  1.00  0.00    -0.028 C 
ATOM      8  C   UNL     1    -113.066 -91.050   5.555  1.00  0.00    -0.070 CG0
ATOM      9  C   UNL     1    -113.015 -89.741   6.307  1.00  0.00     0.039 C 
ATOM     10  G   UNL     1    -111.996 -92.091   5.884  1.00  0.00     0.000 G0
ENDBRANCH   6   7
ENDBRANCH   5   6
ENDBRANCH   3   5
ENDBRANCH   1   3
BRANCH   1  11
ATOM     11  C   UNL     1    -113.837 -95.334   6.813  1.00  0.00     0.087 C 
BRANCH  11  12
ATOM     12  C   UNL     1    -112.601 -94.628   6.200  1.00  0.00     0.066 C 
BRANCH  12  13
ATOM     13  C   UNL     1    -112.339 -93.243   6.793  1.00  0.00     0.140 C 
ATOM     14  O   UNL     1    -112.314 -93.089   8.006  1.00  0.00    -0.299 OA
BRANCH  13  15
ATOM     15  C   UNL     1    -111.978 -92.085   5.889  1.00  0.00     0.106 CG0
ATOM     16  G   UNL     1    -113.082 -91.072   5.580  1.00  0.00     0.000 G0
ENDBRANCH  13  15
ENDBRANCH  12  13
BRANCH  12  17
ATOM     17  C   UNL     1    -111.341 -95.549   6.262  1.00  0.00    -0.006 C 
ATOM     18  C   UNL     1    -110.918 -96.119   4.897  1.00  0.00     0.008 C 
ATOM     19  C   UNL     1    -111.525 -96.696   7.269  1.00  0.00     0.008 C 
ENDBRANCH  12  17
ENDBRANCH  11  12
ENDBRANCH   1  11
TORSDOF 1
ENDMDL
MODEL 6
REMARK VINA RESULT:    -2.657      8.947     11.696
REMARK INTER + INTRA:          -4.638
REMARK INTER:                  -4.512
REMARK INTRA:                  -0.126
REMARK UNBOUND:                -0.582
REMARK SMILES CC1=CCC[C@H](C)C(=O)C[C@H](C(C)C)C(=O)C1
REMARK SMILES IDX 8 1 9 2 6 3 7 4 5 5 4 6 3 7 2 8 1 9 10 11 11 12 15 13 16 14
REMARK SMILES IDX 17 15 12 17 13 18 14 19
REMARK H PARENT
REMARK Flexibility Score: 70.00
ROOT
ATOM      1  C   UNL     1    -121.377-100.779   3.075  1.00  0.00     0.136 C 
ATOM      2  O   UNL     1    -120.669-101.584   3.665  1.00  0.00    -0.299 OA
ENDROOT
BRANCH   1   3
ATOM      3  C   UNL     1    -122.767-100.464   3.612  1.00  0.00     0.053 C 
ATOM      4  C   UNL     1    -122.731 -99.269   4.576  1.00  0.00     0.016 C 
BRANCH   3   5
ATOM      5  C   UNL     1    -123.818-100.241   2.492  1.00  0.00     0.015 C 
BRANCH   5   6
ATOM      6  C   UNL     1    -124.281-101.535   1.790  1.00  0.00     0.028 C 
BRANCH   6   7
ATOM      7  C   UNL     1    -124.057-101.522   0.300  1.00  0.00    -0.028 C 
ATOM      8  C   UNL     1    -122.899-101.820  -0.346  1.00  0.00    -0.070 CG0
ATOM      9  C   UNL     1    -122.872-101.569  -1.835  1.00  0.00     0.039 C 
ATOM     10  G   UNL     1    -121.695-102.537   0.268  1.00  0.00     0.000 G0
ENDBRANCH   6   7
ENDBRANCH   5   6
ENDBRANCH   3   5
ENDBRANCH   1   3
BRANCH   1  11
ATOM     11  C   UNL     1    -120.836-100.136   1.819  1.00  0.00     0.087 C 
BRANCH  11  12
ATOM     12  C   UNL     1    -119.751-100.970   1.092  1.00  0.00     0.066 C 
BRANCH  12  13
ATOM     13  C   UNL     1    -120.324-101.939   0.058  1.00  0.00     0.140 C 
ATOM     14  O   UNL     1    -119.640-102.304  -0.888  1.00  0.00    -0.299 OA
BRANCH  13  15
ATOM     15  C   UNL     1    -121.691-102.555   0.267  1.00  0.00     0.106 CG0
ATOM     16  G   UNL     1    -122.886-101.821  -0.344  1.00  0.00     0.000 G0
ENDBRANCH  13  15
ENDBRANCH  12  13
BRANCH  12  17
ATOM     17  C   UNL     1    -118.644-100.046   0.491  1.00  0.00    -0.006 C 
ATOM     18  C   UNL     1    -117.308-100.099   1.254  1.00  0.00     0.008 C 
ATOM     19  C   UNL     1    -119.120 -98.590   0.376  1.00  0.00     0.008 C 
ENDBRANCH  12  17
ENDBRANCH  11  12
ENDBRANCH   1  11
TORSDOF 1
ENDMDL
MODEL 7
REMARK VINA RESULT:    -2.650      7.222      9.747
REMARK INTER + INTRA:          -4.627
REMARK INTER:                  -3.985
REMARK INTRA:                  -0.642
REMARK UNBOUND:                -0.582
REMARK SMILES CC1=CCC[C@H](C)C(=O)C[C@H](C(C)C)C(=O)C1
REMARK SMILES IDX 8 1 9 2 6 3 7 4 5 5 4 6 3 7 2 8 1 9 10 11 11 12 15 13 16 14
REMARK SMILES IDX 17 15 12 17 13 18 14 19
REMARK H PARENT
REMARK Flexibility Score: 70.00
ROOT
ATOM      1  C   UNL     1    -117.231-100.267   0.684  1.00  0.00     0.136 C 
ATOM      2  O   UNL     1    -116.163-100.603   1.179  1.00  0.00    -0.299 OA
ENDROOT
BRANCH   1   3
ATOM      3  C   UNL     1    -117.974-101.234  -0.229  1.00  0.00     0.053 C 
ATOM      4  C   UNL     1    -117.037-101.821  -1.296  1.00  0.00     0.016 C 
BRANCH   3   5
ATOM      5  C   UNL     1    -118.708-102.361   0.546  1.00  0.00     0.015 C 
BRANCH   5   6
ATOM      6  C   UNL     1    -119.572-101.864   1.723  1.00  0.00     0.028 C 
BRANCH   6   7
ATOM      7  C   UNL     1    -120.946-101.406   1.307  1.00  0.00    -0.028 C 
ATOM      8  C   UNL     1    -121.456-100.154   1.440  1.00  0.00    -0.070 CG0
ATOM      9  C   UNL     1    -122.919 -99.981   1.108  1.00  0.00     0.039 C 
ATOM     10  G   UNL     1    -120.647 -98.888   1.730  1.00  0.00     0.000 G0
ENDBRANCH   6   7
ENDBRANCH   5   6
ENDBRANCH   3   5
ENDBRANCH   1   3
BRANCH   1  11
ATOM     11  C   UNL     1    -117.761 -98.888   0.997  1.00  0.00     0.087 C 
BRANCH  11  12
ATOM     12  C   UNL     1    -118.770 -98.341  -0.044  1.00  0.00     0.066 C 
BRANCH  12  13
ATOM     13  C   UNL     1    -120.156 -98.069   0.540  1.00  0.00     0.140 C 
ATOM     14  O   UNL     1    -120.912 -97.282  -0.012  1.00  0.00    -0.299 OA
BRANCH  13  15
ATOM     15  C   UNL     1    -120.651 -98.868   1.726  1.00  0.00     0.106 CG0
ATOM     16  G   UNL     1    -121.468-100.126   1.426  1.00  0.00     0.000 G0
ENDBRANCH  13  15
ENDBRANCH  12  13
BRANCH  12  17
ATOM     17  C   UNL     1    -118.186 -97.098  -0.791  1.00  0.00    -0.006 C 
ATOM     18  C   UNL     1    -117.464 -97.444  -2.105  1.00  0.00     0.008 C 
ATOM     19  C   UNL     1    -117.252 -96.279   0.114  1.00  0.00     0.008 C 
ENDBRANCH  12  17
ENDBRANCH  11  12
ENDBRANCH   1  11
TORSDOF 1
ENDMDL
MODEL 8
REMARK VINA RESULT:    -2.563      6.494      9.489
REMARK INTER + INTRA:          -4.494
REMARK INTER:                  -4.266
REMARK INTRA:                  -0.228
REMARK UNBOUND:                -0.582
REMARK SMILES CC1=CCC[C@H](C)C(=O)C[C@H](C(C)C)C(=O)C1
REMARK SMILES IDX 8 1 9 2 6 3 7 4 5 5 4 6 3 7 2 8 1 9 10 11 11 12 15 13 16 14
REMARK SMILES IDX 17 15 12 17 13 18 14 19
REMARK H PARENT
REMARK Flexibility Score: 70.00
ROOT
ATOM      1  C   UNL     1    -121.115 -99.033   0.852  1.00  0.00     0.136 C 
ATOM      2  O   UNL     1    -122.284 -98.992   0.494  1.00  0.00    -0.299 OA
ENDROOT
BRANCH   1   3
ATOM      3  C   UNL     1    -120.734 -99.845   2.083  1.00  0.00     0.053 C 
ATOM      4  C   UNL     1    -121.818 -99.750   3.168  1.00  0.00     0.016 C 
BRANCH   3   5
ATOM      5  C   UNL     1    -120.403-101.326   1.758  1.00  0.00     0.015 C 
BRANCH   5   6
ATOM      6  C   UNL     1    -120.040-101.586   0.281  1.00  0.00     0.028 C 
BRANCH   6   7
ATOM      7  C   UNL     1    -118.606-102.002   0.079  1.00  0.00    -0.028 C 
ATOM      8  C   UNL     1    -117.613-101.245  -0.457  1.00  0.00    -0.070 CG0
ATOM      9  C   UNL     1    -116.297-101.942  -0.714  1.00  0.00     0.039 C 
ATOM     10  G   UNL     1    -117.657 -99.730  -0.662  1.00  0.00     0.000 G0
ENDBRANCH   6   7
ENDBRANCH   5   6
ENDBRANCH   3   5
ENDBRANCH   1   3
BRANCH   1  11
ATOM     11  C   UNL     1    -120.095 -98.257   0.053  1.00  0.00     0.087 C 
BRANCH  11  12
ATOM     12  C   UNL     1    -118.810 -97.894   0.840  1.00  0.00     0.066 C 
BRANCH  12  13
ATOM     13  C   UNL     1    -117.639 -98.836   0.555  1.00  0.00     0.140 C 
ATOM     14  O   UNL     1    -116.739 -98.961   1.372  1.00  0.00    -0.299 OA
BRANCH  13  15
ATOM     15  C   UNL     1    -117.653 -99.715  -0.677  1.00  0.00     0.106 CG0
ATOM     16  G   UNL     1    -117.624-101.228  -0.453  1.00  0.00     0.000 G0
ENDBRANCH  13  15
ENDBRANCH  12  13
BRANCH  12  17
ATOM     17  C   UNL     1    -118.430 -96.393   0.630  1.00  0.00    -0.006 C 
ATOM     18  C   UNL     1    -118.058 -95.658   1.930  1.00  0.00     0.008 C 
ATOM     19  C   UNL     1    -119.539 -95.623  -0.103  1.00  0.00     0.008 C 
ENDBRANCH  12  17
ENDBRANCH  11  12
ENDBRANCH   1  11
TORSDOF 1
ENDMDL
MODEL 9
REMARK VINA RESULT:    -2.483      8.860     11.419
REMARK INTER + INTRA:          -4.371
REMARK INTER:                  -4.382
REMARK INTRA:                   0.011
REMARK UNBOUND:                -0.582
REMARK SMILES CC1=CCC[C@H](C)C(=O)C[C@H](C(C)C)C(=O)C1
REMARK SMILES IDX 8 1 9 2 6 3 7 4 5 5 4 6 3 7 2 8 1 9 10 11 11 12 15 13 16 14
REMARK SMILES IDX 17 15 12 17 13 18 14 19
REMARK H PARENT
REMARK Flexibility Score: 70.00
ROOT
ATOM      1  C   UNL     1    -121.421-100.409   3.100  1.00  0.00     0.136 C 
ATOM      2  O   UNL     1    -120.877-101.499   2.981  1.00  0.00    -0.299 OA
ENDROOT
BRANCH   1   3
ATOM      3  C   UNL     1    -122.414-100.184   4.232  1.00  0.00     0.053 C 
ATOM      4  C   UNL     1    -122.115 -98.877   4.981  1.00  0.00     0.016 C 
BRANCH   3   5
ATOM      5  C   UNL     1    -123.893-100.228   3.763  1.00  0.00     0.015 C 
BRANCH   5   6
ATOM      6  C   UNL     1    -124.100-100.868   2.374  1.00  0.00     0.028 C 
BRANCH   6   7
ATOM      7  C   UNL     1    -124.733 -99.937   1.373  1.00  0.00    -0.028 C 
ATOM      8  C   UNL     1    -124.196 -99.533   0.192  1.00  0.00    -0.070 CG0
ATOM      9  C   UNL     1    -124.948 -98.461  -0.561  1.00  0.00     0.039 C 
ATOM     10  G   UNL     1    -123.004-100.182  -0.513  1.00  0.00     0.000 G0
ENDBRANCH   6   7
ENDBRANCH   5   6
ENDBRANCH   3   5
ENDBRANCH   1   3
BRANCH   1  11
ATOM     11  C   UNL     1    -121.085 -99.330   2.099  1.00  0.00     0.087 C 
BRANCH  11  12
ATOM     12  C   UNL     1    -120.681 -99.861   0.700  1.00  0.00     0.066 C 
BRANCH  12  13
ATOM     13  C   UNL     1    -121.662 -99.466  -0.404  1.00  0.00     0.140 C 
ATOM     14  O   UNL     1    -121.332 -98.657  -1.259  1.00  0.00    -0.299 OA
BRANCH  13  15
ATOM     15  C   UNL     1    -122.996-100.171  -0.523  1.00  0.00     0.106 CG0
ATOM     16  G   UNL     1    -124.188 -99.529   0.189  1.00  0.00     0.000 G0
ENDBRANCH  13  15
ENDBRANCH  12  13
BRANCH  12  17
ATOM     17  C   UNL     1    -119.209 -99.466   0.355  1.00  0.00    -0.006 C 
ATOM     18  C   UNL     1    -118.151-100.261   1.140  1.00  0.00     0.008 C 
ATOM     19  C   UNL     1    -118.966 -97.960   0.536  1.00  0.00     0.008 C 
ENDBRANCH  12  17
ENDBRANCH  11  12
ENDBRANCH   1  11
TORSDOF 1
ENDMDL
