MODEL 1
REMARK VINA RESULT:    -4.831      0.000      0.000
REMARK INTER + INTRA:          -6.686
REMARK INTER:                  -6.102
REMARK INTRA:                  -0.584
REMARK UNBOUND:                -0.584
REMARK SMILES O=C(C=Cc1ccc(O)cc1)c1ccc(O)cc1O
REMARK SMILES IDX 4 1 3 2 5 3 6 4 7 5 8 6 11 7 10 8 9 9 2 11 1 12 12 13 18 14
REMARK SMILES IDX 13 15 17 16 14 17 15 18 19 19 16 21
REMARK H PARENT 9 10 19 20 16 22
REMARK Flexibility Score: inf
ROOT
ATOM      1  C   UNL     1      65.083  50.852  36.429  1.00  0.00     0.012 C 
ATOM      2  C   UNL     1      63.809  50.874  36.012  1.00  0.00     0.053 C 
ENDROOT
BRANCH   1   3
ATOM      3  C   UNL     1      65.506  50.337  37.755  1.00  0.00    -0.025 A 
ATOM      4  C   UNL     1      66.770  49.752  37.974  1.00  0.00     0.012 A 
ATOM      5  C   UNL     1      67.117  49.271  39.240  1.00  0.00     0.047 A 
ATOM      6  C   UNL     1      66.207  49.357  40.300  1.00  0.00     0.115 A 
ATOM      7  C   UNL     1      64.595  50.402  38.823  1.00  0.00     0.012 A 
ATOM      8  C   UNL     1      64.946  49.922  40.088  1.00  0.00     0.047 A 
BRANCH   6   9
ATOM      9  O   UNL     1      66.543  48.881  41.566  1.00  0.00    -0.508 OA
ATOM     10  H   UNL     1      66.165  48.012  41.923  1.00  0.00     0.293 HD
ENDBRANCH   6   9
ENDBRANCH   1   3
BRANCH   2  11
ATOM     11  C   UNL     1      63.424  51.382  34.677  1.00  0.00     0.189 C 
ATOM     12  O   UNL     1      63.936  50.883  33.638  1.00  0.00    -0.289 OA
BRANCH  11  13
ATOM     13  C   UNL     1      62.462  52.499  34.551  1.00  0.00     0.064 A 
ATOM     14  C   UNL     1      61.164  52.312  34.014  1.00  0.00     0.130 A 
ATOM     15  C   UNL     1      62.859  53.791  34.939  1.00  0.00     0.020 A 
ATOM     16  C   UNL     1      60.317  53.414  33.847  1.00  0.00     0.093 A 
ATOM     17  C   UNL     1      61.998  54.879  34.780  1.00  0.00     0.047 A 
ATOM     18  C   UNL     1      60.727  54.694  34.229  1.00  0.00     0.119 A 
BRANCH  14  19
ATOM     19  O   UNL     1      60.675  51.051  33.665  1.00  0.00    -0.507 OA
ATOM     20  H   UNL     1      60.552  50.750  32.707  1.00  0.00     0.293 HD
ENDBRANCH  14  19
BRANCH  18  21
ATOM     21  O   UNL     1      59.861  55.773  34.059  1.00  0.00    -0.508 OA
ATOM     22  H   UNL     1      59.843  56.306  33.198  1.00  0.00     0.293 HD
ENDBRANCH  18  21
ENDBRANCH  11  13
ENDBRANCH   2  11
TORSDOF 6
ENDMDL
MODEL 2
REMARK VINA RESULT:    -4.775      0.091      1.114
REMARK INTER + INTRA:          -6.615
REMARK INTER:                  -6.071
REMARK INTRA:                  -0.544
REMARK UNBOUND:                -0.584
REMARK SMILES O=C(C=Cc1ccc(O)cc1)c1ccc(O)cc1O
REMARK SMILES IDX 4 1 3 2 5 3 6 4 7 5 8 6 11 7 10 8 9 9 2 11 1 12 12 13 18 14
REMARK SMILES IDX 13 15 17 16 14 17 15 18 19 19 16 21
REMARK H PARENT 9 10 19 20 16 22
REMARK Flexibility Score: inf
ROOT
ATOM      1  C   UNL     1      65.038  50.876  36.488  1.00  0.00     0.012 C 
ATOM      2  C   UNL     1      63.779  50.879  36.029  1.00  0.00     0.053 C 
ENDROOT
BRANCH   1   3
ATOM      3  C   UNL     1      65.426  50.357  37.823  1.00  0.00    -0.025 A 
ATOM      4  C   UNL     1      64.584  50.452  38.948  1.00  0.00     0.012 A 
ATOM      5  C   UNL     1      65.000  49.956  40.188  1.00  0.00     0.047 A 
ATOM      6  C   UNL     1      66.265  49.371  40.324  1.00  0.00     0.115 A 
ATOM      7  C   UNL     1      66.699  49.781  37.976  1.00  0.00     0.012 A 
ATOM      8  C   UNL     1      67.112  49.286  39.217  1.00  0.00     0.047 A 
BRANCH   6   9
ATOM      9  O   UNL     1      66.688  48.874  41.555  1.00  0.00    -0.508 OA
ATOM     10  H   UNL     1      67.672  48.820  41.794  1.00  0.00     0.293 HD
ENDBRANCH   6   9
ENDBRANCH   1   3
BRANCH   2  11
ATOM     11  C   UNL     1      63.430  51.393  34.686  1.00  0.00     0.189 C 
ATOM     12  O   UNL     1      63.993  50.922  33.661  1.00  0.00    -0.289 OA
BRANCH  11  13
ATOM     13  C   UNL     1      62.442  52.485  34.538  1.00  0.00     0.064 A 
ATOM     14  C   UNL     1      61.149  52.256  34.004  1.00  0.00     0.130 A 
ATOM     15  C   UNL     1      62.809  53.793  34.899  1.00  0.00     0.020 A 
ATOM     16  C   UNL     1      60.276  53.335  33.814  1.00  0.00     0.093 A 
ATOM     17  C   UNL     1      61.923  54.857  34.718  1.00  0.00     0.047 A 
ATOM     18  C   UNL     1      60.656  54.631  34.171  1.00  0.00     0.119 A 
BRANCH  14  19
ATOM     19  O   UNL     1      60.690  50.977  33.680  1.00  0.00    -0.507 OA
ATOM     20  H   UNL     1      60.664  50.213  34.342  1.00  0.00     0.293 HD
ENDBRANCH  14  19
BRANCH  18  21
ATOM     21  O   UNL     1      59.766  55.686  33.978  1.00  0.00    -0.508 OA
ATOM     22  H   UNL     1      59.918  56.382  33.259  1.00  0.00     0.293 HD
ENDBRANCH  18  21
ENDBRANCH  11  13
ENDBRANCH   2  11
TORSDOF 6
ENDMDL
MODEL 3
REMARK VINA RESULT:    -4.750      1.932      7.381
REMARK INTER + INTRA:          -6.584
REMARK INTER:                  -6.285
REMARK INTRA:                  -0.298
REMARK UNBOUND:                -0.584
REMARK SMILES O=C(C=Cc1ccc(O)cc1)c1ccc(O)cc1O
REMARK SMILES IDX 4 1 3 2 5 3 6 4 7 5 8 6 11 7 10 8 9 9 2 11 1 12 12 13 18 14
REMARK SMILES IDX 13 15 17 16 14 17 15 18 19 19 16 21
REMARK H PARENT 9 10 19 20 16 22
REMARK Flexibility Score: inf
ROOT
ATOM      1  C   UNL     1      64.495  51.115  35.091  1.00  0.00     0.012 C 
ATOM      2  C   UNL     1      64.522  50.741  36.378  1.00  0.00     0.053 C 
ENDROOT
BRANCH   1   3
ATOM      3  C   UNL     1      63.245  51.299  34.313  1.00  0.00    -0.025 A 
ATOM      4  C   UNL     1      62.974  50.580  33.132  1.00  0.00     0.012 A 
ATOM      5  C   UNL     1      61.785  50.797  32.428  1.00  0.00     0.047 A 
ATOM      6  C   UNL     1      60.858  51.741  32.886  1.00  0.00     0.115 A 
ATOM      7  C   UNL     1      62.314  52.255  34.753  1.00  0.00     0.012 A 
ATOM      8  C   UNL     1      61.126  52.469  34.048  1.00  0.00     0.047 A 
BRANCH   6   9
ATOM      9  O   UNL     1      59.670  51.964  32.192  1.00  0.00    -0.508 OA
ATOM     10  H   UNL     1      59.533  51.615  31.251  1.00  0.00     0.293 HD
ENDBRANCH   6   9
ENDBRANCH   1   3
BRANCH   2  11
ATOM     11  C   UNL     1      65.788  50.581  37.127  1.00  0.00     0.189 C 
ATOM     12  O   UNL     1      66.885  50.513  36.509  1.00  0.00    -0.289 OA
BRANCH  11  13
ATOM     13  C   UNL     1      65.774  50.467  38.602  1.00  0.00     0.064 A 
ATOM     14  C   UNL     1      65.091  49.418  39.265  1.00  0.00     0.130 A 
ATOM     15  C   UNL     1      66.425  51.449  39.370  1.00  0.00     0.020 A 
ATOM     16  C   UNL     1      65.045  49.396  40.665  1.00  0.00     0.093 A 
ATOM     17  C   UNL     1      66.384  51.406  40.765  1.00  0.00     0.047 A 
ATOM     18  C   UNL     1      65.690  50.381  41.416  1.00  0.00     0.119 A 
BRANCH  14  19
ATOM     19  O   UNL     1      64.474  48.373  38.573  1.00  0.00    -0.507 OA
ATOM     20  H   UNL     1      64.345  47.449  38.963  1.00  0.00     0.293 HD
ENDBRANCH  14  19
BRANCH  18  21
ATOM     21  O   UNL     1      65.635  50.332  42.807  1.00  0.00    -0.508 OA
ATOM     22  H   UNL     1      65.909  49.502  43.318  1.00  0.00     0.293 HD
ENDBRANCH  18  21
ENDBRANCH  11  13
ENDBRANCH   2  11
TORSDOF 6
ENDMDL
MODEL 4
REMARK VINA RESULT:    -4.703      3.301      7.556
REMARK INTER + INTRA:          -6.524
REMARK INTER:                  -5.999
REMARK INTRA:                  -0.525
REMARK UNBOUND:                -0.584
REMARK SMILES O=C(C=Cc1ccc(O)cc1)c1ccc(O)cc1O
REMARK SMILES IDX 4 1 3 2 5 3 6 4 7 5 8 6 11 7 10 8 9 9 2 11 1 12 12 13 18 14
REMARK SMILES IDX 13 15 17 16 14 17 15 18 19 19 16 21
REMARK H PARENT 9 10 19 20 16 22
REMARK Flexibility Score: inf
ROOT
ATOM      1  C   UNL     1      63.400  50.433  33.345  1.00  0.00     0.012 C 
ATOM      2  C   UNL     1      64.587  50.995  33.615  1.00  0.00     0.053 C 
ENDROOT
BRANCH   1   3
ATOM      3  C   UNL     1      63.109  49.684  32.098  1.00  0.00    -0.025 A 
ATOM      4  C   UNL     1      61.912  48.965  31.907  1.00  0.00     0.012 A 
ATOM      5  C   UNL     1      61.690  48.264  30.716  1.00  0.00     0.047 A 
ATOM      6  C   UNL     1      62.662  48.262  29.709  1.00  0.00     0.115 A 
ATOM      7  C   UNL     1      64.083  49.660  31.086  1.00  0.00     0.012 A 
ATOM      8  C   UNL     1      63.858  48.960  29.897  1.00  0.00     0.047 A 
BRANCH   6   9
ATOM      9  O   UNL     1      62.450  47.567  28.520  1.00  0.00    -0.508 OA
ATOM     10  H   UNL     1      63.224  47.237  27.954  1.00  0.00     0.293 HD
ENDBRANCH   6   9
ENDBRANCH   1   3
BRANCH   2  11
ATOM     11  C   UNL     1      64.845  51.725  34.877  1.00  0.00     0.189 C 
ATOM     12  O   UNL     1      64.732  52.980  34.916  1.00  0.00    -0.289 OA
BRANCH  11  13
ATOM     13  C   UNL     1      65.268  50.992  36.090  1.00  0.00     0.064 A 
ATOM     14  C   UNL     1      64.330  50.434  36.993  1.00  0.00     0.130 A 
ATOM     15  C   UNL     1      66.640  50.881  36.379  1.00  0.00     0.020 A 
ATOM     16  C   UNL     1      64.778  49.814  38.166  1.00  0.00     0.093 A 
ATOM     17  C   UNL     1      67.074  50.247  37.545  1.00  0.00     0.047 A 
ATOM     18  C   UNL     1      66.143  49.717  38.444  1.00  0.00     0.119 A 
BRANCH  14  19
ATOM     19  O   UNL     1      62.955  50.450  36.744  1.00  0.00    -0.507 OA
ATOM     20  H   UNL     1      62.333  51.158  37.112  1.00  0.00     0.293 HD
ENDBRANCH  14  19
BRANCH  18  21
ATOM     21  O   UNL     1      66.564  49.089  39.615  1.00  0.00    -0.508 OA
ATOM     22  H   UNL     1      67.456  48.612  39.668  1.00  0.00     0.293 HD
ENDBRANCH  18  21
ENDBRANCH  11  13
ENDBRANCH   2  11
TORSDOF 6
ENDMDL
MODEL 5
REMARK VINA RESULT:    -4.691      2.310      3.837
REMARK INTER + INTRA:          -6.509
REMARK INTER:                  -5.984
REMARK INTRA:                  -0.525
REMARK UNBOUND:                -0.584
REMARK SMILES O=C(C=Cc1ccc(O)cc1)c1ccc(O)cc1O
REMARK SMILES IDX 4 1 3 2 5 3 6 4 7 5 8 6 11 7 10 8 9 9 2 11 1 12 12 13 18 14
REMARK SMILES IDX 13 15 17 16 14 17 15 18 19 19 16 21
REMARK H PARENT 9 10 19 20 16 22
REMARK Flexibility Score: inf
ROOT
ATOM      1  C   UNL     1      65.003  51.044  36.256  1.00  0.00     0.012 C 
ATOM      2  C   UNL     1      63.794  50.847  35.709  1.00  0.00     0.053 C 
ENDROOT
BRANCH   1   3
ATOM      3  C   UNL     1      65.412  50.485  37.568  1.00  0.00    -0.025 A 
ATOM      4  C   UNL     1      66.638  49.815  37.758  1.00  0.00     0.012 A 
ATOM      5  C   UNL     1      66.974  49.296  39.013  1.00  0.00     0.047 A 
ATOM      6  C   UNL     1      66.088  49.427  40.089  1.00  0.00     0.115 A 
ATOM      7  C   UNL     1      64.526  50.596  38.652  1.00  0.00     0.012 A 
ATOM      8  C   UNL     1      64.864  50.076  39.905  1.00  0.00     0.047 A 
BRANCH   6   9
ATOM      9  O   UNL     1      66.413  48.914  41.342  1.00  0.00    -0.508 OA
ATOM     10  H   UNL     1      65.740  48.394  41.893  1.00  0.00     0.293 HD
ENDBRANCH   6   9
ENDBRANCH   1   3
BRANCH   2  11
ATOM     11  C   UNL     1      63.424  51.409  34.391  1.00  0.00     0.189 C 
ATOM     12  O   UNL     1      62.667  52.416  34.322  1.00  0.00    -0.289 OA
BRANCH  11  13
ATOM     13  C   UNL     1      63.913  50.778  33.145  1.00  0.00     0.064 A 
ATOM     14  C   UNL     1      63.123  49.859  32.412  1.00  0.00     0.130 A 
ATOM     15  C   UNL     1      65.214  51.068  32.697  1.00  0.00     0.020 A 
ATOM     16  C   UNL     1      63.658  49.231  31.280  1.00  0.00     0.093 A 
ATOM     17  C   UNL     1      65.730  50.447  31.558  1.00  0.00     0.047 A 
ATOM     18  C   UNL     1      64.955  49.523  30.850  1.00  0.00     0.119 A 
BRANCH  14  19
ATOM     19  O   UNL     1      61.802  49.567  32.760  1.00  0.00    -0.507 OA
ATOM     20  H   UNL     1      61.541  49.137  33.637  1.00  0.00     0.293 HD
ENDBRANCH  14  19
BRANCH  18  21
ATOM     21  O   UNL     1      65.461  48.891  29.716  1.00  0.00    -0.508 OA
ATOM     22  H   UNL     1      65.994  49.399  29.020  1.00  0.00     0.293 HD
ENDBRANCH  18  21
ENDBRANCH  11  13
ENDBRANCH   2  11
TORSDOF 6
ENDMDL
MODEL 6
REMARK VINA RESULT:    -4.673      2.759      7.687
REMARK INTER + INTRA:          -6.487
REMARK INTER:                  -5.844
REMARK INTRA:                  -0.643
REMARK UNBOUND:                -0.584
REMARK SMILES O=C(C=Cc1ccc(O)cc1)c1ccc(O)cc1O
REMARK SMILES IDX 4 1 3 2 5 3 6 4 7 5 8 6 11 7 10 8 9 9 2 11 1 12 12 13 18 14
REMARK SMILES IDX 13 15 17 16 14 17 15 18 19 19 16 21
REMARK H PARENT 9 10 19 20 16 22
REMARK Flexibility Score: inf
ROOT
ATOM      1  C   UNL     1      63.629  50.839  33.366  1.00  0.00     0.012 C 
ATOM      2  C   UNL     1      63.367  51.118  34.651  1.00  0.00     0.053 C 
ENDROOT
BRANCH   1   3
ATOM      3  C   UNL     1      62.650  50.208  32.446  1.00  0.00    -0.025 A 
ATOM      4  C   UNL     1      62.855  48.936  31.876  1.00  0.00     0.012 A 
ATOM      5  C   UNL     1      61.907  48.389  31.005  1.00  0.00     0.047 A 
ATOM      6  C   UNL     1      60.750  49.108  30.683  1.00  0.00     0.115 A 
ATOM      7  C   UNL     1      61.492  50.926  32.102  1.00  0.00     0.012 A 
ATOM      8  C   UNL     1      60.546  50.377  31.232  1.00  0.00     0.047 A 
BRANCH   6   9
ATOM      9  O   UNL     1      59.799  48.573  29.816  1.00  0.00    -0.508 OA
ATOM     10  H   UNL     1      58.916  49.039  29.645  1.00  0.00     0.293 HD
ENDBRANCH   6   9
ENDBRANCH   1   3
BRANCH   2  11
ATOM     11  C   UNL     1      64.364  51.760  35.537  1.00  0.00     0.189 C 
ATOM     12  O   UNL     1      64.599  52.995  35.436  1.00  0.00    -0.289 OA
BRANCH  11  13
ATOM     13  C   UNL     1      65.115  50.954  36.525  1.00  0.00     0.064 A 
ATOM     14  C   UNL     1      66.520  50.793  36.447  1.00  0.00     0.130 A 
ATOM     15  C   UNL     1      64.409  50.296  37.548  1.00  0.00     0.020 A 
ATOM     16  C   UNL     1      67.175  49.960  37.362  1.00  0.00     0.093 A 
ATOM     17  C   UNL     1      65.078  49.480  38.464  1.00  0.00     0.047 A 
ATOM     18  C   UNL     1      66.462  49.306  38.369  1.00  0.00     0.119 A 
BRANCH  14  19
ATOM     19  O   UNL     1      67.297  51.462  35.497  1.00  0.00    -0.507 OA
ATOM     20  H   UNL     1      68.000  52.147  35.739  1.00  0.00     0.293 HD
ENDBRANCH  14  19
BRANCH  18  21
ATOM     21  O   UNL     1      67.139  48.489  39.272  1.00  0.00    -0.508 OA
ATOM     22  H   UNL     1      66.872  48.444  40.248  1.00  0.00     0.293 HD
ENDBRANCH  18  21
ENDBRANCH  11  13
ENDBRANCH   2  11
TORSDOF 6
ENDMDL
MODEL 7
REMARK VINA RESULT:    -4.662      4.060      7.688
REMARK INTER + INTRA:          -6.472
REMARK INTER:                  -5.764
REMARK INTRA:                  -0.709
REMARK UNBOUND:                -0.584
REMARK SMILES O=C(C=Cc1ccc(O)cc1)c1ccc(O)cc1O
REMARK SMILES IDX 4 1 3 2 5 3 6 4 7 5 8 6 11 7 10 8 9 9 2 11 1 12 12 13 18 14
REMARK SMILES IDX 13 15 17 16 14 17 15 18 19 19 16 21
REMARK H PARENT 9 10 19 20 16 22
REMARK Flexibility Score: inf
ROOT
ATOM      1  C   UNL     1      62.728  49.535  32.635  1.00  0.00     0.012 C 
ATOM      2  C   UNL     1      62.461  50.835  32.825  1.00  0.00     0.053 C 
ENDROOT
BRANCH   1   3
ATOM      3  C   UNL     1      62.403  48.803  31.386  1.00  0.00    -0.025 A 
ATOM      4  C   UNL     1      63.351  48.022  30.695  1.00  0.00     0.012 A 
ATOM      5  C   UNL     1      62.998  47.359  29.515  1.00  0.00     0.047 A 
ATOM      6  C   UNL     1      61.701  47.476  29.003  1.00  0.00     0.115 A 
ATOM      7  C   UNL     1      61.108  48.925  30.853  1.00  0.00     0.012 A 
ATOM      8  C   UNL     1      60.759  48.261  29.673  1.00  0.00     0.047 A 
BRANCH   6   9
ATOM      9  O   UNL     1      61.339  46.820  27.828  1.00  0.00    -0.508 OA
ATOM     10  H   UNL     1      60.640  46.086  27.824  1.00  0.00     0.293 HD
ENDBRANCH   6   9
ENDBRANCH   1   3
BRANCH   2  11
ATOM     11  C   UNL     1      62.812  51.537  34.080  1.00  0.00     0.189 C 
ATOM     12  O   UNL     1      62.001  52.352  34.597  1.00  0.00    -0.289 OA
BRANCH  11  13
ATOM     13  C   UNL     1      64.127  51.311  34.719  1.00  0.00     0.064 A 
ATOM     14  C   UNL     1      64.241  50.818  36.042  1.00  0.00     0.130 A 
ATOM     15  C   UNL     1      65.297  51.633  34.009  1.00  0.00     0.020 A 
ATOM     16  C   UNL     1      65.506  50.692  36.630  1.00  0.00     0.093 A 
ATOM     17  C   UNL     1      66.553  51.488  34.601  1.00  0.00     0.047 A 
ATOM     18  C   UNL     1      66.660  51.022  35.915  1.00  0.00     0.119 A 
BRANCH  14  19
ATOM     19  O   UNL     1      63.130  50.418  36.788  1.00  0.00    -0.507 OA
ATOM     20  H   UNL     1      63.200  49.909  37.659  1.00  0.00     0.293 HD
ENDBRANCH  14  19
BRANCH  18  21
ATOM     21  O   UNL     1      67.908  50.881  36.520  1.00  0.00    -0.508 OA
ATOM     22  H   UNL     1      68.766  50.979  35.992  1.00  0.00     0.293 HD
ENDBRANCH  18  21
ENDBRANCH  11  13
ENDBRANCH   2  11
TORSDOF 6
ENDMDL
MODEL 8
REMARK VINA RESULT:    -4.563      2.454      3.570
REMARK INTER + INTRA:          -6.348
REMARK INTER:                  -5.705
REMARK INTRA:                  -0.643
REMARK UNBOUND:                -0.584
REMARK SMILES O=C(C=Cc1ccc(O)cc1)c1ccc(O)cc1O
REMARK SMILES IDX 4 1 3 2 5 3 6 4 7 5 8 6 11 7 10 8 9 9 2 11 1 12 12 13 18 14
REMARK SMILES IDX 13 15 17 16 14 17 15 18 19 19 16 21
REMARK H PARENT 9 10 19 20 16 22
REMARK Flexibility Score: inf
ROOT
ATOM      1  C   UNL     1      64.870  51.328  35.291  1.00  0.00     0.012 C 
ATOM      2  C   UNL     1      63.739  50.947  34.678  1.00  0.00     0.053 C 
ENDROOT
BRANCH   1   3
ATOM      3  C   UNL     1      65.362  50.727  36.555  1.00  0.00    -0.025 A 
ATOM      4  C   UNL     1      66.730  50.496  36.804  1.00  0.00     0.012 A 
ATOM      5  C   UNL     1      67.142  49.917  38.009  1.00  0.00     0.047 A 
ATOM      6  C   UNL     1      66.197  49.551  38.974  1.00  0.00     0.115 A 
ATOM      7  C   UNL     1      64.422  50.341  37.526  1.00  0.00     0.012 A 
ATOM      8  C   UNL     1      64.837  49.763  38.729  1.00  0.00     0.047 A 
BRANCH   6   9
ATOM      9  O   UNL     1      66.597  48.974  40.177  1.00  0.00    -0.508 OA
ATOM     10  H   UNL     1      66.884  48.003  40.230  1.00  0.00     0.293 HD
ENDBRANCH   6   9
ENDBRANCH   1   3
BRANCH   2  11
ATOM     11  C   UNL     1      63.286  51.559  33.409  1.00  0.00     0.189 C 
ATOM     12  O   UNL     1      63.614  52.744  33.125  1.00  0.00    -0.289 OA
BRANCH  11  13
ATOM     13  C   UNL     1      62.420  50.800  32.480  1.00  0.00     0.064 A 
ATOM     14  C   UNL     1      61.282  51.384  31.872  1.00  0.00     0.130 A 
ATOM     15  C   UNL     1      62.711  49.448  32.225  1.00  0.00     0.020 A 
ATOM     16  C   UNL     1      60.452  50.602  31.059  1.00  0.00     0.093 A 
ATOM     17  C   UNL     1      61.883  48.684  31.400  1.00  0.00     0.047 A 
ATOM     18  C   UNL     1      60.748  49.259  30.819  1.00  0.00     0.119 A 
BRANCH  14  19
ATOM     19  O   UNL     1      60.962  52.735  32.028  1.00  0.00    -0.507 OA
ATOM     20  H   UNL     1      60.177  53.176  31.567  1.00  0.00     0.293 HD
ENDBRANCH  14  19
BRANCH  18  21
ATOM     21  O   UNL     1      59.910  48.505  30.000  1.00  0.00    -0.508 OA
ATOM     22  H   UNL     1      59.063  48.896  29.606  1.00  0.00     0.293 HD
ENDBRANCH  18  21
ENDBRANCH  11  13
ENDBRANCH   2  11
TORSDOF 6
ENDMDL
MODEL 9
REMARK VINA RESULT:    -4.545      2.413      7.713
REMARK INTER + INTRA:          -6.325
REMARK INTER:                  -5.732
REMARK INTRA:                  -0.592
REMARK UNBOUND:                -0.584
REMARK SMILES O=C(C=Cc1ccc(O)cc1)c1ccc(O)cc1O
REMARK SMILES IDX 4 1 3 2 5 3 6 4 7 5 8 6 11 7 10 8 9 9 2 11 1 12 12 13 18 14
REMARK SMILES IDX 13 15 17 16 14 17 15 18 19 19 16 21
REMARK H PARENT 9 10 19 20 16 22
REMARK Flexibility Score: inf
ROOT
ATOM      1  C   UNL     1      63.317  51.815  34.605  1.00  0.00     0.012 C 
ATOM      2  C   UNL     1      64.176  51.132  35.376  1.00  0.00     0.053 C 
ENDROOT
BRANCH   1   3
ATOM      3  C   UNL     1      62.593  51.220  33.455  1.00  0.00    -0.025 A 
ATOM      4  C   UNL     1      61.342  51.699  33.016  1.00  0.00     0.012 A 
ATOM      5  C   UNL     1      60.694  51.096  31.933  1.00  0.00     0.047 A 
ATOM      6  C   UNL     1      61.278  50.002  31.283  1.00  0.00     0.115 A 
ATOM      7  C   UNL     1      63.161  50.111  32.804  1.00  0.00     0.012 A 
ATOM      8  C   UNL     1      62.510  49.511  31.722  1.00  0.00     0.047 A 
BRANCH   6   9
ATOM      9  O   UNL     1      60.640  49.395  30.203  1.00  0.00    -0.508 OA
ATOM     10  H   UNL     1      59.630  49.364  30.133  1.00  0.00     0.293 HD
ENDBRANCH   6   9
ENDBRANCH   1   3
BRANCH   2  11
ATOM     11  C   UNL     1      64.871  51.755  36.525  1.00  0.00     0.189 C 
ATOM     12  O   UNL     1      64.916  53.011  36.632  1.00  0.00    -0.289 OA
BRANCH  11  13
ATOM     13  C   UNL     1      65.545  50.913  37.537  1.00  0.00     0.064 A 
ATOM     14  C   UNL     1      65.198  50.970  38.910  1.00  0.00     0.130 A 
ATOM     15  C   UNL     1      66.587  50.059  37.132  1.00  0.00     0.020 A 
ATOM     16  C   UNL     1      65.916  50.207  39.839  1.00  0.00     0.093 A 
ATOM     17  C   UNL     1      67.284  49.292  38.068  1.00  0.00     0.047 A 
ATOM     18  C   UNL     1      66.953  49.369  39.425  1.00  0.00     0.119 A 
BRANCH  14  19
ATOM     19  O   UNL     1      64.136  51.746  39.379  1.00  0.00    -0.507 OA
ATOM     20  H   UNL     1      63.197  51.389  39.497  1.00  0.00     0.293 HD
ENDBRANCH  14  19
BRANCH  18  21
ATOM     21  O   UNL     1      67.647  48.614  40.369  1.00  0.00    -0.508 OA
ATOM     22  H   UNL     1      67.447  48.692  41.359  1.00  0.00     0.293 HD
ENDBRANCH  18  21
ENDBRANCH  11  13
ENDBRANCH   2  11
TORSDOF 6
ENDMDL
