MODEL 1
REMARK VINA RESULT:    -2.672      0.000      0.000
REMARK INTER + INTRA:          -2.672
REMARK INTER:                  -2.672
REMARK INTRA:                   0.000
REMARK UNBOUND:                 0.000
REMARK SMILES CC(=O)[O-]
REMARK SMILES IDX 1 1 2 2 3 3 4 4
REMARK H PARENT
REMARK Flexibility Score: inf
ROOT
ATOM      1  C   UNL     1      42.095  63.568  25.086  1.00  0.00     0.063 C 
ATOM      2  C   UNL     1      41.618  64.904  24.626  1.00  0.00     0.038 C 
ATOM      3  O   UNL     1      41.257  65.770  25.465  1.00  0.00    -0.550 OA
ATOM      4  O   UNL     1      41.519  65.176  23.268  1.00  0.00    -0.550 OA
ENDROOT
TORSDOF 0
ENDMDL
MODEL 2
REMARK VINA RESULT:    -2.670      3.034      3.600
REMARK INTER + INTRA:          -2.670
REMARK INTER:                  -2.670
REMARK INTRA:                   0.000
REMARK UNBOUND:                 0.000
REMARK SMILES CC(=O)[O-]
REMARK SMILES IDX 1 1 2 2 3 3 4 4
REMARK H PARENT
REMARK Flexibility Score: inf
ROOT
ATOM      1  C   UNL     1      41.311  67.221  25.156  1.00  0.00     0.063 C 
ATOM      2  C   UNL     1      41.836  67.993  23.993  1.00  0.00     0.038 C 
ATOM      3  O   UNL     1      41.505  67.673  22.821  1.00  0.00    -0.550 OA
ATOM      4  O   UNL     1      42.733  69.032  24.197  1.00  0.00    -0.550 OA
ENDROOT
TORSDOF 0
ENDMDL
MODEL 3
REMARK VINA RESULT:    -2.669      3.008      3.248
REMARK INTER + INTRA:          -2.669
REMARK INTER:                  -2.669
REMARK INTRA:                   0.000
REMARK UNBOUND:                 0.000
REMARK SMILES CC(=O)[O-]
REMARK SMILES IDX 1 1 2 2 3 3 4 4
REMARK H PARENT
REMARK Flexibility Score: inf
ROOT
ATOM      1  C   UNL     1      41.221  67.144  25.047  1.00  0.00     0.063 C 
ATOM      2  C   UNL     1      41.772  67.881  23.873  1.00  0.00     0.038 C 
ATOM      3  O   UNL     1      42.534  68.868  24.048  1.00  0.00    -0.550 OA
ATOM      4  O   UNL     1      41.401  67.515  22.586  1.00  0.00    -0.550 OA
ENDROOT
TORSDOF 0
ENDMDL
MODEL 4
REMARK VINA RESULT:    -2.634      3.040      3.823
REMARK INTER + INTRA:          -2.634
REMARK INTER:                  -2.634
REMARK INTRA:                   0.000
REMARK UNBOUND:                 0.000
REMARK SMILES CC(=O)[O-]
REMARK SMILES IDX 1 1 2 2 3 3 4 4
REMARK H PARENT
REMARK Flexibility Score: inf
ROOT
ATOM      1  C   UNL     1      37.848  67.233  24.784  1.00  0.00     0.063 C 
ATOM      2  C   UNL     1      39.256  66.864  24.458  1.00  0.00     0.038 C 
ATOM      3  O   UNL     1      39.566  66.525  23.286  1.00  0.00    -0.550 OA
ATOM      4  O   UNL     1      40.218  66.842  25.459  1.00  0.00    -0.550 OA
ENDROOT
TORSDOF 0
ENDMDL
MODEL 5
REMARK VINA RESULT:    -2.631      2.897      3.491
REMARK INTER + INTRA:          -2.631
REMARK INTER:                  -2.631
REMARK INTRA:                   0.000
REMARK UNBOUND:                 0.000
REMARK SMILES CC(=O)[O-]
REMARK SMILES IDX 1 1 2 2 3 3 4 4
REMARK H PARENT
REMARK Flexibility Score: inf
ROOT
ATOM      1  C   UNL     1      40.456  66.782  25.157  1.00  0.00     0.063 C 
ATOM      2  C   UNL     1      39.347  66.762  24.160  1.00  0.00     0.038 C 
ATOM      3  O   UNL     1      39.593  66.541  22.946  1.00  0.00    -0.550 OA
ATOM      4  O   UNL     1      38.047  67.042  24.561  1.00  0.00    -0.550 OA
ENDROOT
TORSDOF 0
ENDMDL
MODEL 6
REMARK VINA RESULT:    -2.608      1.346      1.762
REMARK INTER + INTRA:          -2.608
REMARK INTER:                  -2.608
REMARK INTRA:                   0.000
REMARK UNBOUND:                 0.000
REMARK SMILES CC(=O)[O-]
REMARK SMILES IDX 1 1 2 2 3 3 4 4
REMARK H PARENT
REMARK Flexibility Score: inf
ROOT
ATOM      1  C   UNL     1      41.091  66.335  25.339  1.00  0.00     0.063 C 
ATOM      2  C   UNL     1      41.498  65.231  24.424  1.00  0.00     0.038 C 
ATOM      3  O   UNL     1      41.944  64.151  24.894  1.00  0.00    -0.550 OA
ATOM      4  O   UNL     1      41.437  65.411  23.048  1.00  0.00    -0.550 OA
ENDROOT
TORSDOF 0
ENDMDL
MODEL 7
REMARK VINA RESULT:    -2.522      2.075      2.274
REMARK INTER + INTRA:          -2.522
REMARK INTER:                  -2.522
REMARK INTRA:                   0.000
REMARK UNBOUND:                 0.000
REMARK SMILES CC(=O)[O-]
REMARK SMILES IDX 1 1 2 2 3 3 4 4
REMARK H PARENT
REMARK Flexibility Score: inf
ROOT
ATOM      1  C   UNL     1      41.381  65.590  24.155  1.00  0.00     0.063 C 
ATOM      2  C   UNL     1      41.371  66.930  24.809  1.00  0.00     0.038 C 
ATOM      3  O   UNL     1      40.990  67.049  26.003  1.00  0.00    -0.550 OA
ATOM      4  O   UNL     1      41.730  68.059  24.084  1.00  0.00    -0.550 OA
ENDROOT
TORSDOF 0
ENDMDL
MODEL 8
REMARK VINA RESULT:    -2.519      2.751      3.216
REMARK INTER + INTRA:          -2.519
REMARK INTER:                  -2.519
REMARK INTRA:                   0.000
REMARK UNBOUND:                 0.000
REMARK SMILES CC(=O)[O-]
REMARK SMILES IDX 1 1 2 2 3 3 4 4
REMARK H PARENT
REMARK Flexibility Score: inf
ROOT
ATOM      1  C   UNL     1      39.404  66.769  24.202  1.00  0.00     0.063 C 
ATOM      2  C   UNL     1      40.701  67.173  24.815  1.00  0.00     0.038 C 
ATOM      3  O   UNL     1      41.553  67.805  24.136  1.00  0.00    -0.550 OA
ATOM      4  O   UNL     1      40.997  66.806  26.122  1.00  0.00    -0.550 OA
ENDROOT
TORSDOF 0
ENDMDL
MODEL 9
REMARK VINA RESULT:    -2.519      2.690      2.923
REMARK INTER + INTRA:          -2.519
REMARK INTER:                  -2.519
REMARK INTRA:                   0.000
REMARK UNBOUND:                 0.000
REMARK SMILES CC(=O)[O-]
REMARK SMILES IDX 1 1 2 2 3 3 4 4
REMARK H PARENT
REMARK Flexibility Score: inf
ROOT
ATOM      1  C   UNL     1      41.753  67.872  24.079  1.00  0.00     0.063 C 
ATOM      2  C   UNL     1      40.755  67.117  24.889  1.00  0.00     0.038 C 
ATOM      3  O   UNL     1      41.016  66.799  26.079  1.00  0.00    -0.550 OA
ATOM      4  O   UNL     1      39.557  66.714  24.314  1.00  0.00    -0.550 OA
ENDROOT
TORSDOF 0
ENDMDL
