MODEL 1
REMARK VINA RESULT:    -4.473      0.000      0.000
REMARK INTER + INTRA:          -7.153
REMARK INTER:                  -6.042
REMARK INTRA:                  -1.111
REMARK UNBOUND:                -1.111
REMARK SMILES CC(=O)CCC=C(C)CCC=C(C)C
REMARK SMILES IDX 7 1 6 2 8 3 9 4 10 5 11 6 13 7 12 8 14 9 5 10 4 11 2 12 3 13
REMARK SMILES IDX 1 14
REMARK H PARENT
REMARK Flexibility Score: inf
ROOT
ATOM      1  C   UNL     1      18.171  26.257  28.152  1.00  0.00    -0.077 C 
ATOM      2  C   UNL     1      17.231  25.321  28.414  1.00  0.00    -0.028 C 
ATOM      3  C   UNL     1      17.911  27.378  27.174  1.00  0.00     0.039 C 
ENDROOT
BRANCH   1   4
ATOM      4  C   UNL     1      19.506  26.185  28.861  1.00  0.00     0.034 C 
BRANCH   4   5
ATOM      5  C   UNL     1      20.182  24.830  28.618  1.00  0.00     0.032 C 
BRANCH   5   6
ATOM      6  C   UNL     1      20.851  24.786  27.266  1.00  0.00    -0.028 C 
ATOM      7  C   UNL     1      19.235  23.080  26.421  1.00  0.00     0.039 C 
ATOM      8  C   UNL     1      20.428  23.993  26.259  1.00  0.00    -0.080 C 
ATOM      9  C   UNL     1      21.170  24.028  24.948  1.00  0.00     0.039 C 
ENDBRANCH   5   6
ENDBRANCH   4   5
ENDBRANCH   1   4
BRANCH   2  10
ATOM     10  C   UNL     1      15.872  25.311  27.758  1.00  0.00     0.035 C 
BRANCH  10  11
ATOM     11  C   UNL     1      15.083  24.054  28.136  1.00  0.00     0.079 C 
BRANCH  11  12
ATOM     12  C   UNL     1      15.336  22.946  27.150  1.00  0.00     0.130 C 
ATOM     13  O   UNL     1      15.358  21.786  27.534  1.00  0.00    -0.300 OA
ATOM     14  C   UNL     1      15.538  23.253  25.698  1.00  0.00     0.087 C 
ENDBRANCH  11  12
ENDBRANCH  10  11
ENDBRANCH   2  10
TORSDOF 6
ENDMDL
MODEL 2
REMARK VINA RESULT:    -4.408      2.448      5.251
REMARK INTER + INTRA:          -7.065
REMARK INTER:                  -6.298
REMARK INTRA:                  -0.768
REMARK UNBOUND:                -1.111
REMARK SMILES CC(=O)CCC=C(C)CCC=C(C)C
REMARK SMILES IDX 7 1 6 2 8 3 9 4 10 5 11 6 13 7 12 8 14 9 5 10 4 11 2 12 3 13
REMARK SMILES IDX 1 14
REMARK H PARENT
REMARK Flexibility Score: inf
ROOT
ATOM      1  C   UNL     1      19.474  25.300  28.348  1.00  0.00    -0.077 C 
ATOM      2  C   UNL     1      19.634  25.054  27.028  1.00  0.00    -0.028 C 
ATOM      3  C   UNL     1      20.647  25.280  29.298  1.00  0.00     0.039 C 
ENDROOT
BRANCH   1   4
ATOM      4  C   UNL     1      18.093  25.613  28.881  1.00  0.00     0.034 C 
BRANCH   4   5
ATOM      5  C   UNL     1      17.071  25.690  27.741  1.00  0.00     0.032 C 
BRANCH   5   6
ATOM      6  C   UNL     1      15.870  24.819  28.021  1.00  0.00    -0.028 C 
ATOM      7  C   UNL     1      16.645  23.078  26.407  1.00  0.00     0.039 C 
ATOM      8  C   UNL     1      15.667  23.628  27.419  1.00  0.00    -0.080 C 
ATOM      9  C   UNL     1      14.434  22.839  27.771  1.00  0.00     0.039 C 
ENDBRANCH   5   6
ENDBRANCH   4   5
ENDBRANCH   1   4
BRANCH   2  10
ATOM     10  C   UNL     1      20.970  24.734  26.405  1.00  0.00     0.035 C 
BRANCH  10  11
ATOM     11  C   UNL     1      20.841  23.628  25.354  1.00  0.00     0.079 C 
BRANCH  11  12
ATOM     12  C   UNL     1      21.589  23.990  24.101  1.00  0.00     0.130 C 
ATOM     13  O   UNL     1      21.824  25.164  23.852  1.00  0.00    -0.300 OA
ATOM     14  C   UNL     1      22.069  22.922  23.166  1.00  0.00     0.087 C 
ENDBRANCH  11  12
ENDBRANCH  10  11
ENDBRANCH   2  10
TORSDOF 6
ENDMDL
MODEL 3
REMARK VINA RESULT:    -4.357      4.721      6.910
REMARK INTER + INTRA:          -6.996
REMARK INTER:                  -6.459
REMARK INTRA:                  -0.537
REMARK UNBOUND:                -1.111
REMARK SMILES CC(=O)CCC=C(C)CCC=C(C)C
REMARK SMILES IDX 7 1 6 2 8 3 9 4 10 5 11 6 13 7 12 8 14 9 5 10 4 11 2 12 3 13
REMARK SMILES IDX 1 14
REMARK H PARENT
REMARK Flexibility Score: inf
ROOT
ATOM      1  C   UNL     1      21.113  26.984  28.910  1.00  0.00    -0.077 C 
ATOM      2  C   UNL     1      22.436  27.203  28.740  1.00  0.00    -0.028 C 
ATOM      3  C   UNL     1      20.098  28.074  28.665  1.00  0.00     0.039 C 
ENDROOT
BRANCH   1   4
ATOM      4  C   UNL     1      20.640  25.613  29.345  1.00  0.00     0.034 C 
BRANCH   4   5
ATOM      5  C   UNL     1      19.804  24.949  28.244  1.00  0.00     0.032 C 
BRANCH   5   6
ATOM      6  C   UNL     1      20.617  24.739  26.990  1.00  0.00    -0.028 C 
ATOM      7  C   UNL     1      19.125  22.888  26.226  1.00  0.00     0.039 C 
ATOM      8  C   UNL     1      20.317  23.803  26.065  1.00  0.00    -0.080 C 
ATOM      9  C   UNL     1      21.197  23.677  24.849  1.00  0.00     0.039 C 
ENDBRANCH   5   6
ENDBRANCH   4   5
ENDBRANCH   1   4
BRANCH   2  10
ATOM     10  C   UNL     1      23.002  28.534  28.309  1.00  0.00     0.035 C 
BRANCH  10  11
ATOM     11  C   UNL     1      24.148  28.352  27.309  1.00  0.00     0.079 C 
BRANCH  11  12
ATOM     12  C   UNL     1      25.465  28.731  27.929  1.00  0.00     0.130 C 
ATOM     13  O   UNL     1      26.492  28.190  27.549  1.00  0.00    -0.300 OA
ATOM     14  C   UNL     1      25.529  29.783  28.993  1.00  0.00     0.087 C 
ENDBRANCH  11  12
ENDBRANCH  10  11
ENDBRANCH   2  10
TORSDOF 6
ENDMDL
MODEL 4
REMARK VINA RESULT:    -4.304      1.353      3.634
REMARK INTER + INTRA:          -6.925
REMARK INTER:                  -6.066
REMARK INTRA:                  -0.859
REMARK UNBOUND:                -1.111
REMARK SMILES CC(=O)CCC=C(C)CCC=C(C)C
REMARK SMILES IDX 7 1 6 2 8 3 9 4 10 5 11 6 13 7 12 8 14 9 5 10 4 11 2 12 3 13
REMARK SMILES IDX 1 14
REMARK H PARENT
REMARK Flexibility Score: inf
ROOT
ATOM      1  C   UNL     1      20.337  24.060  26.465  1.00  0.00    -0.077 C 
ATOM      2  C   UNL     1      19.124  23.544  26.767  1.00  0.00    -0.028 C 
ATOM      3  C   UNL     1      21.040  23.711  25.175  1.00  0.00     0.039 C 
ENDROOT
BRANCH   1   4
ATOM      4  C   UNL     1      20.997  25.015  27.435  1.00  0.00     0.034 C 
BRANCH   4   5
ATOM      5  C   UNL     1      20.034  25.401  28.565  1.00  0.00     0.032 C 
BRANCH   5   6
ATOM      6  C   UNL     1      20.007  26.895  28.776  1.00  0.00    -0.028 C 
ATOM      7  C   UNL     1      17.917  27.137  27.431  1.00  0.00     0.039 C 
ATOM      8  C   UNL     1      19.047  27.694  28.264  1.00  0.00    -0.080 C 
ATOM      9  C   UNL     1      19.116  29.174  28.536  1.00  0.00     0.039 C 
ENDBRANCH   5   6
ENDBRANCH   4   5
ENDBRANCH   1   4
BRANCH   2  10
ATOM     10  C   UNL     1      18.389  22.585  25.864  1.00  0.00     0.035 C 
BRANCH  10  11
ATOM     11  C   UNL     1      17.054  22.155  26.480  1.00  0.00     0.079 C 
BRANCH  11  12
ATOM     12  C   UNL     1      15.983  23.174  26.201  1.00  0.00     0.130 C 
ATOM     13  O   UNL     1      15.415  23.176  25.119  1.00  0.00    -0.300 OA
ATOM     14  C   UNL     1      15.591  24.172  27.248  1.00  0.00     0.087 C 
ENDBRANCH  11  12
ENDBRANCH  10  11
ENDBRANCH   2  10
TORSDOF 6
ENDMDL
MODEL 5
REMARK VINA RESULT:    -4.294      3.294      5.708
REMARK INTER + INTRA:          -6.911
REMARK INTER:                  -6.315
REMARK INTRA:                  -0.597
REMARK UNBOUND:                -1.111
REMARK SMILES CC(=O)CCC=C(C)CCC=C(C)C
REMARK SMILES IDX 7 1 6 2 8 3 9 4 10 5 11 6 13 7 12 8 14 9 5 10 4 11 2 12 3 13
REMARK SMILES IDX 1 14
REMARK H PARENT
REMARK Flexibility Score: inf
ROOT
ATOM      1  C   UNL     1      20.069  24.828  27.713  1.00  0.00    -0.077 C 
ATOM      2  C   UNL     1      21.005  24.280  26.906  1.00  0.00    -0.028 C 
ATOM      3  C   UNL     1      18.609  24.840  27.327  1.00  0.00     0.039 C 
ENDROOT
BRANCH   1   4
ATOM      4  C   UNL     1      20.492  25.433  29.034  1.00  0.00     0.034 C 
BRANCH   4   5
ATOM      5  C   UNL     1      21.549  26.523  28.823  1.00  0.00     0.032 C 
BRANCH   5   6
ATOM      6  C   UNL     1      20.909  27.859  28.536  1.00  0.00    -0.028 C 
ATOM      7  C   UNL     1      21.214  28.614  30.896  1.00  0.00     0.039 C 
ATOM      8  C   UNL     1      20.752  28.818  29.473  1.00  0.00    -0.080 C 
ATOM      9  C   UNL     1      20.098  30.117  29.078  1.00  0.00     0.039 C 
ENDBRANCH   5   6
ENDBRANCH   4   5
ENDBRANCH   1   4
BRANCH   2  10
ATOM     10  C   UNL     1      20.680  23.655  25.572  1.00  0.00     0.035 C 
BRANCH  10  11
ATOM     11  C   UNL     1      21.412  24.368  24.432  1.00  0.00     0.079 C 
BRANCH  11  12
ATOM     12  C   UNL     1      21.998  23.374  23.467  1.00  0.00     0.130 C 
ATOM     13  O   UNL     1      23.212  23.279  23.356  1.00  0.00    -0.300 OA
ATOM     14  C   UNL     1      21.106  22.483  22.658  1.00  0.00     0.087 C 
ENDBRANCH  11  12
ENDBRANCH  10  11
ENDBRANCH   2  10
TORSDOF 6
ENDMDL
MODEL 6
REMARK VINA RESULT:    -4.284      2.191      5.173
REMARK INTER + INTRA:          -6.898
REMARK INTER:                  -5.921
REMARK INTRA:                  -0.977
REMARK UNBOUND:                -1.111
REMARK SMILES CC(=O)CCC=C(C)CCC=C(C)C
REMARK SMILES IDX 7 1 6 2 8 3 9 4 10 5 11 6 13 7 12 8 14 9 5 10 4 11 2 12 3 13
REMARK SMILES IDX 1 14
REMARK H PARENT
REMARK Flexibility Score: inf
ROOT
ATOM      1  C   UNL     1      17.559  26.060  27.769  1.00  0.00    -0.077 C 
ATOM      2  C   UNL     1      18.243  24.931  27.481  1.00  0.00    -0.028 C 
ATOM      3  C   UNL     1      18.122  27.424  27.444  1.00  0.00     0.039 C 
ENDROOT
BRANCH   1   4
ATOM      4  C   UNL     1      16.196  25.956  28.420  1.00  0.00     0.034 C 
BRANCH   4   5
ATOM      5  C   UNL     1      15.177  25.336  27.457  1.00  0.00     0.032 C 
BRANCH   5   6
ATOM      6  C   UNL     1      14.807  23.935  27.877  1.00  0.00    -0.028 C 
ATOM      7  C   UNL     1      15.563  22.985  25.695  1.00  0.00     0.039 C 
ATOM      8  C   UNL     1      14.980  22.857  27.082  1.00  0.00    -0.080 C 
ATOM      9  C   UNL     1      14.576  21.502  27.601  1.00  0.00     0.039 C 
ENDBRANCH   5   6
ENDBRANCH   4   5
ENDBRANCH   1   4
BRANCH   2  10
ATOM     10  C   UNL     1      19.605  24.934  26.833  1.00  0.00     0.035 C 
BRANCH  10  11
ATOM     11  C   UNL     1      20.665  24.343  27.767  1.00  0.00     0.079 C 
BRANCH  11  12
ATOM     12  C   UNL     1      21.099  25.353  28.793  1.00  0.00     0.130 C 
ATOM     13  O   UNL     1      20.804  25.190  29.968  1.00  0.00    -0.300 OA
ATOM     14  C   UNL     1      21.910  26.546  28.390  1.00  0.00     0.087 C 
ENDBRANCH  11  12
ENDBRANCH  10  11
ENDBRANCH   2  10
TORSDOF 6
ENDMDL
MODEL 7
REMARK VINA RESULT:    -4.270      3.098      5.646
REMARK INTER + INTRA:          -6.879
REMARK INTER:                  -6.285
REMARK INTRA:                  -0.594
REMARK UNBOUND:                -1.111
REMARK SMILES CC(=O)CCC=C(C)CCC=C(C)C
REMARK SMILES IDX 7 1 6 2 8 3 9 4 10 5 11 6 13 7 12 8 14 9 5 10 4 11 2 12 3 13
REMARK SMILES IDX 1 14
REMARK H PARENT
REMARK Flexibility Score: inf
ROOT
ATOM      1  C   UNL     1      19.470  25.321  28.191  1.00  0.00    -0.077 C 
ATOM      2  C   UNL     1      19.655  24.986  26.895  1.00  0.00    -0.028 C 
ATOM      3  C   UNL     1      20.602  25.260  29.189  1.00  0.00     0.039 C 
ENDROOT
BRANCH   1   4
ATOM      4  C   UNL     1      18.101  25.777  28.650  1.00  0.00     0.034 C 
BRANCH   4   5
ATOM      5  C   UNL     1      17.599  26.945  27.793  1.00  0.00     0.032 C 
BRANCH   5   6
ATOM      6  C   UNL     1      18.465  28.168  27.973  1.00  0.00    -0.028 C 
ATOM      7  C   UNL     1      16.812  29.220  29.521  1.00  0.00     0.039 C 
ATOM      8  C   UNL     1      18.116  29.209  28.757  1.00  0.00    -0.080 C 
ATOM      9  C   UNL     1      19.055  30.382  28.866  1.00  0.00     0.039 C 
ENDBRANCH   5   6
ENDBRANCH   4   5
ENDBRANCH   1   4
BRANCH   2  10
ATOM     10  C   UNL     1      20.981  24.521  26.346  1.00  0.00     0.035 C 
BRANCH  10  11
ATOM     11  C   UNL     1      20.788  23.503  25.218  1.00  0.00     0.079 C 
BRANCH  11  12
ATOM     12  C   UNL     1      21.564  23.906  23.994  1.00  0.00     0.130 C 
ATOM     13  O   UNL     1      21.871  25.077  23.828  1.00  0.00    -0.300 OA
ATOM     14  C   UNL     1      21.983  22.878  22.988  1.00  0.00     0.087 C 
ENDBRANCH  11  12
ENDBRANCH  10  11
ENDBRANCH   2  10
TORSDOF 6
ENDMDL
MODEL 8
REMARK VINA RESULT:    -4.171      3.565      6.263
REMARK INTER + INTRA:          -6.745
REMARK INTER:                  -6.158
REMARK INTRA:                  -0.587
REMARK UNBOUND:                -1.111
REMARK SMILES CC(=O)CCC=C(C)CCC=C(C)C
REMARK SMILES IDX 7 1 6 2 8 3 9 4 10 5 11 6 13 7 12 8 14 9 5 10 4 11 2 12 3 13
REMARK SMILES IDX 1 14
REMARK H PARENT
REMARK Flexibility Score: inf
ROOT
ATOM      1  C   UNL     1      19.032  27.700  28.346  1.00  0.00    -0.077 C 
ATOM      2  C   UNL     1      19.950  26.924  28.963  1.00  0.00    -0.028 C 
ATOM      3  C   UNL     1      17.941  27.097  27.492  1.00  0.00     0.039 C 
ENDROOT
BRANCH   1   4
ATOM      4  C   UNL     1      19.090  29.202  28.522  1.00  0.00     0.034 C 
BRANCH   4   5
ATOM      5  C   UNL     1      17.893  29.703  29.338  1.00  0.00     0.032 C 
BRANCH   5   6
ATOM      6  C   UNL     1      17.735  31.199  29.216  1.00  0.00    -0.028 C 
ATOM      7  C   UNL     1      15.275  31.063  29.626  1.00  0.00     0.039 C 
ATOM      8  C   UNL     1      16.547  31.828  29.346  1.00  0.00    -0.080 C 
ATOM      9  C   UNL     1      16.502  33.327  29.205  1.00  0.00     0.039 C 
ENDBRANCH   5   6
ENDBRANCH   4   5
ENDBRANCH   1   4
BRANCH   2  10
ATOM     10  C   UNL     1      19.972  25.420  28.847  1.00  0.00     0.035 C 
BRANCH  10  11
ATOM     11  C   UNL     1      21.063  24.955  27.877  1.00  0.00     0.079 C 
BRANCH  11  12
ATOM     12  C   UNL     1      20.458  24.324  26.654  1.00  0.00     0.130 C 
ATOM     13  O   UNL     1      21.040  24.399  25.581  1.00  0.00    -0.300 OA
ATOM     14  C   UNL     1      19.157  23.585  26.743  1.00  0.00     0.087 C 
ENDBRANCH  11  12
ENDBRANCH  10  11
ENDBRANCH   2  10
TORSDOF 6
ENDMDL
MODEL 9
REMARK VINA RESULT:    -4.125      4.721      6.434
REMARK INTER + INTRA:          -6.682
REMARK INTER:                  -6.050
REMARK INTRA:                  -0.632
REMARK UNBOUND:                -1.111
REMARK SMILES CC(=O)CCC=C(C)CCC=C(C)C
REMARK SMILES IDX 7 1 6 2 8 3 9 4 10 5 11 6 13 7 12 8 14 9 5 10 4 11 2 12 3 13
REMARK SMILES IDX 1 14
REMARK H PARENT
REMARK Flexibility Score: inf
ROOT
ATOM      1  C   UNL     1      19.118  28.784  28.377  1.00  0.00    -0.077 C 
ATOM      2  C   UNL     1      18.555  29.976  28.675  1.00  0.00    -0.028 C 
ATOM      3  C   UNL     1      20.558  28.487  28.722  1.00  0.00     0.039 C 
ENDROOT
BRANCH   1   4
ATOM      4  C   UNL     1      18.285  27.721  27.693  1.00  0.00     0.034 C 
BRANCH   4   5
ATOM      5  C   UNL     1      18.370  26.390  28.450  1.00  0.00     0.032 C 
BRANCH   5   6
ATOM      6  C   UNL     1      18.439  25.221  27.497  1.00  0.00    -0.028 C 
ATOM      7  C   UNL     1      20.812  24.745  28.111  1.00  0.00     0.039 C 
ATOM      8  C   UNL     1      19.546  24.466  27.335  1.00  0.00    -0.080 C 
ATOM      9  C   UNL     1      19.506  23.322  26.356  1.00  0.00     0.039 C 
ENDBRANCH   5   6
ENDBRANCH   4   5
ENDBRANCH   1   4
BRANCH   2  10
ATOM     10  C   UNL     1      19.304  31.095  29.354  1.00  0.00     0.035 C 
BRANCH  10  11
ATOM     11  C   UNL     1      18.367  31.949  30.214  1.00  0.00     0.079 C 
BRANCH  11  12
ATOM     12  C   UNL     1      17.752  33.053  29.400  1.00  0.00     0.130 C 
ATOM     13  O   UNL     1      18.438  34.000  29.044  1.00  0.00    -0.300 OA
ATOM     14  C   UNL     1      16.309  32.991  29.001  1.00  0.00     0.087 C 
ENDBRANCH  11  12
ENDBRANCH  10  11
ENDBRANCH   2  10
TORSDOF 6
ENDMDL
