MODEL 1
REMARK VINA RESULT:    -3.170      0.000      0.000
REMARK INTER + INTRA:         -10.933
REMARK INTER:                  -6.875
REMARK INTRA:                  -4.057
REMARK UNBOUND:                -4.057
REMARK SMILES CCCCCCCCCCCCCCCCCCCCCC(=O)[O-]
REMARK SMILES IDX 12 1 11 2 10 3 9 4 8 5 7 6 6 7 5 8 4 9 3 10 2 11 1 12 13 13
REMARK SMILES IDX 14 14 15 15 16 16 17 17 18 18 19 19 20 20 21 21 22 22 23 23
REMARK SMILES IDX 24 24
REMARK H PARENT
REMARK Flexibility Score: inf
ROOT
ATOM      1  C   UNL     1       9.986   8.383  32.708  1.00  0.00     0.000 C 
ENDROOT
BRANCH   1   2
ATOM      2  C   UNL     1      10.779   7.621  33.783  1.00  0.00     0.000 C 
BRANCH   2   3
ATOM      3  C   UNL     1      11.625   6.480  33.198  1.00  0.00     0.000 C 
BRANCH   3   4
ATOM      4  C   UNL     1      11.167   5.121  33.739  1.00  0.00    -0.000 C 
BRANCH   4   5
ATOM      5  C   UNL     1      10.164   5.300  34.890  1.00  0.00    -0.000 C 
BRANCH   5   6
ATOM      6  C   UNL     1       9.020   4.276  34.843  1.00  0.00    -0.000 C 
BRANCH   6   7
ATOM      7  C   UNL     1       9.298   3.119  33.867  1.00  0.00    -0.000 C 
BRANCH   7   8
ATOM      8  C   UNL     1       8.002   2.556  33.245  1.00  0.00    -0.000 C 
BRANCH   8   9
ATOM      9  C   UNL     1       8.244   1.431  32.220  1.00  0.00    -0.000 C 
BRANCH   9  10
ATOM     10  C   UNL     1       9.697   0.931  32.145  1.00  0.00    -0.000 C 
BRANCH  10  11
ATOM     11  C   UNL     1      10.096   0.471  30.736  1.00  0.00    -0.003 C 
ATOM     12  C   UNL     1       9.131   1.018  29.688  1.00  0.00     0.004 C 
ENDBRANCH  10  11
ENDBRANCH   9  10
ENDBRANCH   8   9
ENDBRANCH   7   8
ENDBRANCH   6   7
ENDBRANCH   5   6
ENDBRANCH   4   5
ENDBRANCH   3   4
ENDBRANCH   2   3
ENDBRANCH   1   2
BRANCH   1  13
ATOM     13  C   UNL     1      10.466   8.070  31.282  1.00  0.00     0.000 C 
BRANCH  13  14
ATOM     14  C   UNL     1       9.275   7.817  30.347  1.00  0.00     0.000 C 
BRANCH  14  15
ATOM     15  C   UNL     1       8.095   7.134  31.058  1.00  0.00     0.000 C 
BRANCH  15  16
ATOM     16  C   UNL     1       8.350   5.640  31.323  1.00  0.00     0.000 C 
BRANCH  16  17
ATOM     17  C   UNL     1       8.877   4.901  30.081  1.00  0.00     0.000 C 
BRANCH  17  18
ATOM     18  C   UNL     1      10.300   4.357  30.274  1.00  0.00     0.000 C 
BRANCH  18  19
ATOM     19  C   UNL     1      11.207   4.763  29.103  1.00  0.00     0.000 C 
BRANCH  19  20
ATOM     20  C   UNL     1      12.499   5.468  29.555  1.00  0.00     0.006 C 
BRANCH  20  21
ATOM     21  C   UNL     1      13.347   4.645  30.543  1.00  0.00     0.053 C 
BRANCH  21  22
ATOM     22  C   UNL     1      14.685   4.271  29.980  1.00  0.00     0.041 C 
ATOM     23  O   UNL     1      14.763   3.467  29.014  1.00  0.00    -0.550 OA
ATOM     24  O   UNL     1      15.845   4.837  30.497  1.00  0.00    -0.550 OA
ENDBRANCH  21  22
ENDBRANCH  20  21
ENDBRANCH  19  20
ENDBRANCH  18  19
ENDBRANCH  17  18
ENDBRANCH  16  17
ENDBRANCH  15  16
ENDBRANCH  14  15
ENDBRANCH  13  14
ENDBRANCH   1  13
TORSDOF 20
ENDMDL
MODEL 2
REMARK VINA RESULT:    -3.061      1.130      2.288
REMARK INTER + INTRA:         -10.698
REMARK INTER:                  -6.961
REMARK INTRA:                  -3.737
REMARK UNBOUND:                -4.057
REMARK SMILES CCCCCCCCCCCCCCCCCCCCCC(=O)[O-]
REMARK SMILES IDX 12 1 11 2 10 3 9 4 8 5 7 6 6 7 5 8 4 9 3 10 2 11 1 12 13 13
REMARK SMILES IDX 14 14 15 15 16 16 17 17 18 18 19 19 20 20 21 21 22 22 23 23
REMARK SMILES IDX 24 24
REMARK H PARENT
REMARK Flexibility Score: inf
ROOT
ATOM      1  C   UNL     1      11.910   6.325  33.099  1.00  0.00     0.000 C 
ENDROOT
BRANCH   1   2
ATOM      2  C   UNL     1      12.245   5.082  33.940  1.00  0.00     0.000 C 
BRANCH   2   3
ATOM      3  C   UNL     1      11.304   3.902  33.655  1.00  0.00     0.000 C 
BRANCH   3   4
ATOM      4  C   UNL     1      10.431   3.587  34.875  1.00  0.00    -0.000 C 
BRANCH   4   5
ATOM      5  C   UNL     1       9.041   4.226  34.733  1.00  0.00    -0.000 C 
BRANCH   5   6
ATOM      6  C   UNL     1       8.323   3.802  33.442  1.00  0.00    -0.000 C 
BRANCH   6   7
ATOM      7  C   UNL     1       7.882   2.328  33.464  1.00  0.00    -0.000 C 
BRANCH   7   8
ATOM      8  C   UNL     1       8.280   1.580  32.173  1.00  0.00    -0.000 C 
BRANCH   8   9
ATOM      9  C   UNL     1       9.629   0.844  32.275  1.00  0.00    -0.000 C 
BRANCH   9  10
ATOM     10  C   UNL     1      10.362   0.655  30.936  1.00  0.00    -0.000 C 
BRANCH  10  11
ATOM     11  C   UNL     1       9.426   0.766  29.724  1.00  0.00    -0.003 C 
ATOM     12  C   UNL     1      10.053   0.134  28.486  1.00  0.00     0.004 C 
ENDBRANCH  10  11
ENDBRANCH   9  10
ENDBRANCH   8   9
ENDBRANCH   7   8
ENDBRANCH   6   7
ENDBRANCH   5   6
ENDBRANCH   4   5
ENDBRANCH   3   4
ENDBRANCH   2   3
ENDBRANCH   1   2
BRANCH   1  13
ATOM     13  C   UNL     1      10.842   7.215  33.754  1.00  0.00     0.000 C 
BRANCH  13  14
ATOM     14  C   UNL     1      10.406   8.338  32.802  1.00  0.00     0.000 C 
BRANCH  14  15
ATOM     15  C   UNL     1      10.052   7.821  31.397  1.00  0.00     0.000 C 
BRANCH  15  16
ATOM     16  C   UNL     1       8.545   7.897  31.102  1.00  0.00     0.000 C 
BRANCH  16  17
ATOM     17  C   UNL     1       7.908   6.508  30.921  1.00  0.00     0.000 C 
BRANCH  17  18
ATOM     18  C   UNL     1       8.360   5.811  29.630  1.00  0.00     0.000 C 
BRANCH  18  19
ATOM     19  C   UNL     1       8.901   4.404  29.925  1.00  0.00     0.000 C 
BRANCH  19  20
ATOM     20  C   UNL     1      10.366   4.407  30.397  1.00  0.00     0.006 C 
BRANCH  20  21
ATOM     21  C   UNL     1      11.370   3.940  29.326  1.00  0.00     0.053 C 
BRANCH  21  22
ATOM     22  C   UNL     1      12.487   4.919  29.117  1.00  0.00     0.041 C 
ATOM     23  O   UNL     1      12.235   6.143  28.971  1.00  0.00    -0.550 OA
ATOM     24  O   UNL     1      13.807   4.484  29.121  1.00  0.00    -0.550 OA
ENDBRANCH  21  22
ENDBRANCH  20  21
ENDBRANCH  19  20
ENDBRANCH  18  19
ENDBRANCH  17  18
ENDBRANCH  16  17
ENDBRANCH  15  16
ENDBRANCH  14  15
ENDBRANCH  13  14
ENDBRANCH   1  13
TORSDOF 20
ENDMDL
MODEL 3
REMARK VINA RESULT:    -3.024      2.203      4.001
REMARK INTER + INTRA:         -10.617
REMARK INTER:                  -7.049
REMARK INTRA:                  -3.568
REMARK UNBOUND:                -4.057
REMARK SMILES CCCCCCCCCCCCCCCCCCCCCC(=O)[O-]
REMARK SMILES IDX 12 1 11 2 10 3 9 4 8 5 7 6 6 7 5 8 4 9 3 10 2 11 1 12 13 13
REMARK SMILES IDX 14 14 15 15 16 16 17 17 18 18 19 19 20 20 21 21 22 22 23 23
REMARK SMILES IDX 24 24
REMARK H PARENT
REMARK Flexibility Score: inf
ROOT
ATOM      1  C   UNL     1      10.335   7.550  30.071  1.00  0.00     0.000 C 
ENDROOT
BRANCH   1   2
ATOM      2  C   UNL     1       9.083   7.774  30.936  1.00  0.00     0.000 C 
BRANCH   2   3
ATOM      3  C   UNL     1       9.413   8.374  32.311  1.00  0.00     0.000 C 
BRANCH   3   4
ATOM      4  C   UNL     1      10.923   8.354  32.573  1.00  0.00    -0.000 C 
BRANCH   4   5
ATOM      5  C   UNL     1      11.279   7.317  33.650  1.00  0.00    -0.000 C 
BRANCH   5   6
ATOM      6  C   UNL     1      12.091   6.138  33.092  1.00  0.00    -0.000 C 
BRANCH   6   7
ATOM      7  C   UNL     1      11.272   4.837  33.014  1.00  0.00    -0.000 C 
BRANCH   7   8
ATOM      8  C   UNL     1       9.904   4.965  33.718  1.00  0.00    -0.000 C 
BRANCH   8   9
ATOM      9  C   UNL     1       8.750   4.287  32.956  1.00  0.00    -0.000 C 
BRANCH   9  10
ATOM     10  C   UNL     1       9.136   3.708  31.584  1.00  0.00    -0.000 C 
BRANCH  10  11
ATOM     11  C   UNL     1       8.987   2.181  31.520  1.00  0.00    -0.003 C 
ATOM     12  C   UNL     1       8.957   1.694  30.075  1.00  0.00     0.004 C 
ENDBRANCH  10  11
ENDBRANCH   9  10
ENDBRANCH   8   9
ENDBRANCH   7   8
ENDBRANCH   6   7
ENDBRANCH   5   6
ENDBRANCH   4   5
ENDBRANCH   3   4
ENDBRANCH   2   3
ENDBRANCH   1   2
BRANCH   1  13
ATOM     13  C   UNL     1      10.458   6.104  29.566  1.00  0.00     0.000 C 
BRANCH  13  14
ATOM     14  C   UNL     1      11.931   5.685  29.461  1.00  0.00     0.000 C 
BRANCH  14  15
ATOM     15  C   UNL     1      12.106   4.166  29.300  1.00  0.00     0.000 C 
BRANCH  15  16
ATOM     16  C   UNL     1      13.480   3.674  29.786  1.00  0.00     0.000 C 
BRANCH  16  17
ATOM     17  C   UNL     1      14.562   4.764  29.704  1.00  0.00     0.000 C 
BRANCH  17  18
ATOM     18  C   UNL     1      15.727   4.377  28.781  1.00  0.00     0.000 C 
BRANCH  18  19
ATOM     19  C   UNL     1      15.777   5.289  27.547  1.00  0.00     0.000 C 
BRANCH  19  20
ATOM     20  C   UNL     1      14.808   6.482  27.638  1.00  0.00     0.006 C 
BRANCH  20  21
ATOM     21  C   UNL     1      14.170   6.875  26.292  1.00  0.00     0.053 C 
BRANCH  21  22
ATOM     22  C   UNL     1      13.731   5.683  25.494  1.00  0.00     0.041 C 
ATOM     23  O   UNL     1      12.849   4.908  25.949  1.00  0.00    -0.550 OA
ATOM     24  O   UNL     1      14.268   5.448  24.235  1.00  0.00    -0.550 OA
ENDBRANCH  21  22
ENDBRANCH  20  21
ENDBRANCH  19  20
ENDBRANCH  18  19
ENDBRANCH  17  18
ENDBRANCH  16  17
ENDBRANCH  15  16
ENDBRANCH  14  15
ENDBRANCH  13  14
ENDBRANCH   1  13
TORSDOF 20
ENDMDL
MODEL 4
REMARK VINA RESULT:    -3.019     10.340     12.366
REMARK INTER + INTRA:         -10.607
REMARK INTER:                  -7.345
REMARK INTRA:                  -3.261
REMARK UNBOUND:                -4.057
REMARK SMILES CCCCCCCCCCCCCCCCCCCCCC(=O)[O-]
REMARK SMILES IDX 12 1 11 2 10 3 9 4 8 5 7 6 6 7 5 8 4 9 3 10 2 11 1 12 13 13
REMARK SMILES IDX 14 14 15 15 16 16 17 17 18 18 19 19 20 20 21 21 22 22 23 23
REMARK SMILES IDX 24 24
REMARK H PARENT
REMARK Flexibility Score: inf
ROOT
ATOM      1  C   UNL     1      22.940   8.619  38.232  1.00  0.00     0.000 C 
ENDROOT
BRANCH   1   2
ATOM      2  C   UNL     1      21.889   7.973  39.149  1.00  0.00     0.000 C 
BRANCH   2   3
ATOM      3  C   UNL     1      21.278   8.971  40.145  1.00  0.00     0.000 C 
BRANCH   3   4
ATOM      4  C   UNL     1      19.746   8.940  40.087  1.00  0.00    -0.000 C 
BRANCH   4   5
ATOM      5  C   UNL     1      19.256   7.795  39.187  1.00  0.00    -0.000 C 
BRANCH   5   6
ATOM      6  C   UNL     1      18.504   8.298  37.945  1.00  0.00    -0.000 C 
BRANCH   6   7
ATOM      7  C   UNL     1      18.300   7.198  36.888  1.00  0.00    -0.000 C 
BRANCH   7   8
ATOM      8  C   UNL     1      18.907   5.848  37.327  1.00  0.00    -0.000 C 
BRANCH   8   9
ATOM      9  C   UNL     1      19.213   4.897  36.154  1.00  0.00    -0.000 C 
BRANCH   9  10
ATOM     10  C   UNL     1      20.564   4.168  36.251  1.00  0.00    -0.000 C 
BRANCH  10  11
ATOM     11  C   UNL     1      21.664   5.037  36.877  1.00  0.00    -0.003 C 
ATOM     12  C   UNL     1      22.253   4.367  38.114  1.00  0.00     0.004 C 
ENDBRANCH  10  11
ENDBRANCH   9  10
ENDBRANCH   8   9
ENDBRANCH   7   8
ENDBRANCH   6   7
ENDBRANCH   5   6
ENDBRANCH   4   5
ENDBRANCH   3   4
ENDBRANCH   2   3
ENDBRANCH   1   2
BRANCH   1  13
ATOM     13  C   UNL     1      22.486   9.976  37.670  1.00  0.00     0.000 C 
BRANCH  13  14
ATOM     14  C   UNL     1      21.525   9.785  36.488  1.00  0.00     0.000 C 
BRANCH  14  15
ATOM     15  C   UNL     1      22.031   8.747  35.472  1.00  0.00     0.000 C 
BRANCH  15  16
ATOM     16  C   UNL     1      20.885   8.012  34.756  1.00  0.00     0.000 C 
BRANCH  16  17
ATOM     17  C   UNL     1      21.282   7.525  33.352  1.00  0.00     0.000 C 
BRANCH  17  18
ATOM     18  C   UNL     1      21.790   6.076  33.348  1.00  0.00     0.000 C 
BRANCH  18  19
ATOM     19  C   UNL     1      22.890   5.881  32.294  1.00  0.00     0.000 C 
BRANCH  19  20
ATOM     20  C   UNL     1      23.068   7.105  31.375  1.00  0.00     0.006 C 
BRANCH  20  21
ATOM     21  C   UNL     1      23.813   6.798  30.063  1.00  0.00     0.053 C 
BRANCH  21  22
ATOM     22  C   UNL     1      24.987   7.705  29.841  1.00  0.00     0.041 C 
ATOM     23  O   UNL     1      25.991   7.295  29.202  1.00  0.00    -0.550 OA
ATOM     24  O   UNL     1      24.958   9.013  30.309  1.00  0.00    -0.550 OA
ENDBRANCH  21  22
ENDBRANCH  20  21
ENDBRANCH  19  20
ENDBRANCH  18  19
ENDBRANCH  17  18
ENDBRANCH  16  17
ENDBRANCH  15  16
ENDBRANCH  14  15
ENDBRANCH  13  14
ENDBRANCH   1  13
TORSDOF 20
ENDMDL
MODEL 5
REMARK VINA RESULT:    -2.959      2.675      4.958
REMARK INTER + INTRA:         -10.476
REMARK INTER:                  -7.108
REMARK INTRA:                  -3.367
REMARK UNBOUND:                -4.057
REMARK SMILES CCCCCCCCCCCCCCCCCCCCCC(=O)[O-]
REMARK SMILES IDX 12 1 11 2 10 3 9 4 8 5 7 6 6 7 5 8 4 9 3 10 2 11 1 12 13 13
REMARK SMILES IDX 14 14 15 15 16 16 17 17 18 18 19 19 20 20 21 21 22 22 23 23
REMARK SMILES IDX 24 24
REMARK H PARENT
REMARK Flexibility Score: inf
ROOT
ATOM      1  C   UNL     1       8.840   4.338  31.540  1.00  0.00     0.000 C 
ENDROOT
BRANCH   1   2
ATOM      2  C   UNL     1       8.080   5.674  31.508  1.00  0.00     0.000 C 
BRANCH   2   3
ATOM      3  C   UNL     1       8.261   6.428  30.181  1.00  0.00     0.000 C 
BRANCH   3   4
ATOM      4  C   UNL     1       8.820   7.835  30.419  1.00  0.00    -0.000 C 
BRANCH   4   5
ATOM      5  C   UNL     1      10.237   7.769  31.011  1.00  0.00    -0.000 C 
BRANCH   5   6
ATOM      6  C   UNL     1      10.302   8.295  32.453  1.00  0.00    -0.000 C 
BRANCH   6   7
ATOM      7  C   UNL     1      10.978   7.304  33.417  1.00  0.00    -0.000 C 
BRANCH   7   8
ATOM      8  C   UNL     1      11.955   6.356  32.688  1.00  0.00    -0.000 C 
BRANCH   8   9
ATOM      9  C   UNL     1      11.961   4.922  33.252  1.00  0.00    -0.000 C 
BRANCH   9  10
ATOM     10  C   UNL     1      11.708   4.823  34.766  1.00  0.00    -0.000 C 
BRANCH  10  11
ATOM     11  C   UNL     1      11.507   3.378  35.242  1.00  0.00    -0.003 C 
ATOM     12  C   UNL     1      10.674   2.583  34.242  1.00  0.00     0.004 C 
ENDBRANCH  10  11
ENDBRANCH   9  10
ENDBRANCH   8   9
ENDBRANCH   7   8
ENDBRANCH   6   7
ENDBRANCH   5   6
ENDBRANCH   4   5
ENDBRANCH   3   4
ENDBRANCH   2   3
ENDBRANCH   1   2
BRANCH   1  13
ATOM     13  C   UNL     1       9.376   3.926  30.160  1.00  0.00     0.000 C 
BRANCH  13  14
ATOM     14  C   UNL     1      10.628   3.048  30.299  1.00  0.00     0.000 C 
BRANCH  14  15
ATOM     15  C   UNL     1      11.858   3.653  29.602  1.00  0.00     0.000 C 
BRANCH  15  16
ATOM     16  C   UNL     1      11.542   4.981  28.892  1.00  0.00     0.000 C 
BRANCH  16  17
ATOM     17  C   UNL     1      12.717   5.973  28.945  1.00  0.00     0.000 C 
BRANCH  17  18
ATOM     18  C   UNL     1      14.081   5.289  28.770  1.00  0.00     0.000 C 
BRANCH  18  19
ATOM     19  C   UNL     1      14.987   6.101  27.834  1.00  0.00     0.000 C 
BRANCH  19  20
ATOM     20  C   UNL     1      15.056   5.522  26.409  1.00  0.00     0.006 C 
BRANCH  20  21
ATOM     21  C   UNL     1      13.827   5.849  25.540  1.00  0.00     0.053 C 
BRANCH  21  22
ATOM     22  C   UNL     1      13.956   7.166  24.834  1.00  0.00     0.041 C 
ATOM     23  O   UNL     1      14.330   7.205  23.632  1.00  0.00    -0.550 OA
ATOM     24  O   UNL     1      13.629   8.346  25.490  1.00  0.00    -0.550 OA
ENDBRANCH  21  22
ENDBRANCH  20  21
ENDBRANCH  19  20
ENDBRANCH  18  19
ENDBRANCH  17  18
ENDBRANCH  16  17
ENDBRANCH  15  16
ENDBRANCH  14  15
ENDBRANCH  13  14
ENDBRANCH   1  13
TORSDOF 20
ENDMDL
MODEL 6
REMARK VINA RESULT:    -2.954      9.862     12.359
REMARK INTER + INTRA:         -10.465
REMARK INTER:                  -6.453
REMARK INTRA:                  -4.012
REMARK UNBOUND:                -4.057
REMARK SMILES CCCCCCCCCCCCCCCCCCCCCC(=O)[O-]
REMARK SMILES IDX 12 1 11 2 10 3 9 4 8 5 7 6 6 7 5 8 4 9 3 10 2 11 1 12 13 13
REMARK SMILES IDX 14 14 15 15 16 16 17 17 18 18 19 19 20 20 21 21 22 22 23 23
REMARK SMILES IDX 24 24
REMARK H PARENT
REMARK Flexibility Score: inf
ROOT
ATOM      1  C   UNL     1      19.436   5.755  36.417  1.00  0.00     0.000 C 
ENDROOT
BRANCH   1   2
ATOM      2  C   UNL     1      20.597   5.590  37.412  1.00  0.00     0.000 C 
BRANCH   2   3
ATOM      3  C   UNL     1      20.192   5.926  38.855  1.00  0.00     0.000 C 
BRANCH   3   4
ATOM      4  C   UNL     1      21.289   6.732  39.561  1.00  0.00    -0.000 C 
BRANCH   4   5
ATOM      5  C   UNL     1      22.561   6.796  38.700  1.00  0.00    -0.000 C 
BRANCH   5   6
ATOM      6  C   UNL     1      23.041   8.236  38.460  1.00  0.00    -0.000 C 
BRANCH   6   7
ATOM      7  C   UNL     1      21.932   9.278  38.689  1.00  0.00    -0.000 C 
BRANCH   7   8
ATOM      8  C   UNL     1      21.358   9.821  37.363  1.00  0.00    -0.000 C 
BRANCH   8   9
ATOM      9  C   UNL     1      19.822   9.744  37.276  1.00  0.00    -0.000 C 
BRANCH   9  10
ATOM     10  C   UNL     1      19.114   9.451  38.610  1.00  0.00    -0.000 C 
BRANCH  10  11
ATOM     11  C   UNL     1      17.613   9.179  38.440  1.00  0.00    -0.003 C 
ATOM     12  C   UNL     1      17.310   8.631  37.049  1.00  0.00     0.004 C 
ENDBRANCH  10  11
ENDBRANCH   9  10
ENDBRANCH   8   9
ENDBRANCH   7   8
ENDBRANCH   6   7
ENDBRANCH   5   6
ENDBRANCH   4   5
ENDBRANCH   3   4
ENDBRANCH   2   3
ENDBRANCH   1   2
BRANCH   1  13
ATOM     13  C   UNL     1      19.784   6.691  35.249  1.00  0.00     0.000 C 
BRANCH  13  14
ATOM     14  C   UNL     1      21.302   6.901  35.149  1.00  0.00     0.000 C 
BRANCH  14  15
ATOM     15  C   UNL     1      21.705   7.744  33.927  1.00  0.00     0.000 C 
BRANCH  15  16
ATOM     16  C   UNL     1      21.680   6.937  32.618  1.00  0.00     0.000 C 
BRANCH  16  17
ATOM     17  C   UNL     1      22.711   5.795  32.608  1.00  0.00     0.000 C 
BRANCH  17  18
ATOM     18  C   UNL     1      22.067   4.416  32.402  1.00  0.00     0.000 C 
BRANCH  18  19
ATOM     19  C   UNL     1      22.108   3.592  33.697  1.00  0.00     0.000 C 
BRANCH  19  20
ATOM     20  C   UNL     1      20.710   3.189  34.202  1.00  0.00     0.006 C 
BRANCH  20  21
ATOM     21  C   UNL     1      20.730   2.324  35.476  1.00  0.00     0.053 C 
BRANCH  21  22
ATOM     22  C   UNL     1      20.578   0.862  35.181  1.00  0.00     0.041 C 
ATOM     23  O   UNL     1      20.867   0.006  36.059  1.00  0.00    -0.550 OA
ATOM     24  O   UNL     1      20.083   0.444  33.952  1.00  0.00    -0.550 OA
ENDBRANCH  21  22
ENDBRANCH  20  21
ENDBRANCH  19  20
ENDBRANCH  18  19
ENDBRANCH  17  18
ENDBRANCH  16  17
ENDBRANCH  15  16
ENDBRANCH  14  15
ENDBRANCH  13  14
ENDBRANCH   1  13
TORSDOF 20
ENDMDL
MODEL 7
REMARK VINA RESULT:    -2.923     10.480     12.597
REMARK INTER + INTRA:         -10.397
REMARK INTER:                  -7.035
REMARK INTRA:                  -3.362
REMARK UNBOUND:                -4.057
REMARK SMILES CCCCCCCCCCCCCCCCCCCCCC(=O)[O-]
REMARK SMILES IDX 12 1 11 2 10 3 9 4 8 5 7 6 6 7 5 8 4 9 3 10 2 11 1 12 13 13
REMARK SMILES IDX 14 14 15 15 16 16 17 17 18 18 19 19 20 20 21 21 22 22 23 23
REMARK SMILES IDX 24 24
REMARK H PARENT
REMARK Flexibility Score: inf
ROOT
ATOM      1  C   UNL     1      20.241   7.519  36.069  1.00  0.00     0.000 C 
ENDROOT
BRANCH   1   2
ATOM      2  C   UNL     1      19.841   8.985  35.839  1.00  0.00     0.000 C 
BRANCH   2   3
ATOM      3  C   UNL     1      20.427   9.933  36.897  1.00  0.00     0.000 C 
BRANCH   3   4
ATOM      4  C   UNL     1      21.958   9.853  36.920  1.00  0.00    -0.000 C 
BRANCH   4   5
ATOM      5  C   UNL     1      22.472   9.604  38.347  1.00  0.00    -0.000 C 
BRANCH   5   6
ATOM      6  C   UNL     1      22.942   8.157  38.562  1.00  0.00    -0.000 C 
BRANCH   6   7
ATOM      7  C   UNL     1      21.926   7.314  39.353  1.00  0.00    -0.000 C 
BRANCH   7   8
ATOM      8  C   UNL     1      20.900   8.189  40.104  1.00  0.00    -0.000 C 
BRANCH   8   9
ATOM      9  C   UNL     1      19.551   7.487  40.353  1.00  0.00    -0.000 C 
BRANCH   9  10
ATOM     10  C   UNL     1      18.510   7.679  39.237  1.00  0.00    -0.000 C 
BRANCH  10  11
ATOM     11  C   UNL     1      17.646   8.933  39.439  1.00  0.00    -0.003 C 
ATOM     12  C   UNL     1      16.904   9.299  38.158  1.00  0.00     0.004 C 
ENDBRANCH  10  11
ENDBRANCH   9  10
ENDBRANCH   8   9
ENDBRANCH   7   8
ENDBRANCH   6   7
ENDBRANCH   5   6
ENDBRANCH   4   5
ENDBRANCH   3   4
ENDBRANCH   2   3
ENDBRANCH   1   2
BRANCH   1  13
ATOM     13  C   UNL     1      20.630   6.798  34.768  1.00  0.00     0.000 C 
BRANCH  13  14
ATOM     14  C   UNL     1      21.437   7.725  33.848  1.00  0.00     0.000 C 
BRANCH  14  15
ATOM     15  C   UNL     1      22.012   6.994  32.624  1.00  0.00     0.000 C 
BRANCH  15  16
ATOM     16  C   UNL     1      22.555   5.597  32.971  1.00  0.00     0.000 C 
BRANCH  16  17
ATOM     17  C   UNL     1      21.790   4.471  32.254  1.00  0.00     0.000 C 
BRANCH  17  18
ATOM     18  C   UNL     1      21.766   3.164  33.059  1.00  0.00     0.000 C 
BRANCH  18  19
ATOM     19  C   UNL     1      22.738   3.231  34.246  1.00  0.00     0.000 C 
BRANCH  19  20
ATOM     20  C   UNL     1      22.165   2.605  35.532  1.00  0.00     0.006 C 
BRANCH  20  21
ATOM     21  C   UNL     1      20.905   3.313  36.064  1.00  0.00     0.053 C 
BRANCH  21  22
ATOM     22  C   UNL     1      21.155   4.046  37.348  1.00  0.00     0.041 C 
ATOM     23  O   UNL     1      22.333   4.237  37.748  1.00  0.00    -0.550 OA
ATOM     24  O   UNL     1      20.090   4.550  38.085  1.00  0.00    -0.550 OA
ENDBRANCH  21  22
ENDBRANCH  20  21
ENDBRANCH  19  20
ENDBRANCH  18  19
ENDBRANCH  17  18
ENDBRANCH  16  17
ENDBRANCH  15  16
ENDBRANCH  14  15
ENDBRANCH  13  14
ENDBRANCH   1  13
TORSDOF 20
ENDMDL
MODEL 8
REMARK VINA RESULT:    -2.919      1.771      3.165
REMARK INTER + INTRA:         -10.390
REMARK INTER:                  -6.613
REMARK INTRA:                  -3.776
REMARK UNBOUND:                -4.057
REMARK SMILES CCCCCCCCCCCCCCCCCCCCCC(=O)[O-]
REMARK SMILES IDX 12 1 11 2 10 3 9 4 8 5 7 6 6 7 5 8 4 9 3 10 2 11 1 12 13 13
REMARK SMILES IDX 14 14 15 15 16 16 17 17 18 18 19 19 20 20 21 21 22 22 23 23
REMARK SMILES IDX 24 24
REMARK H PARENT
REMARK Flexibility Score: inf
ROOT
ATOM      1  C   UNL     1      10.562   8.261  32.860  1.00  0.00     0.000 C 
ENDROOT
BRANCH   1   2
ATOM      2  C   UNL     1       9.445   8.122  31.814  1.00  0.00     0.000 C 
BRANCH   2   3
ATOM      3  C   UNL     1       9.964   7.631  30.453  1.00  0.00     0.000 C 
BRANCH   3   4
ATOM      4  C   UNL     1       9.181   6.402  29.976  1.00  0.00    -0.000 C 
BRANCH   4   5
ATOM      5  C   UNL     1       8.253   5.881  31.083  1.00  0.00    -0.000 C 
BRANCH   5   6
ATOM      6  C   UNL     1       8.633   4.470  31.559  1.00  0.00    -0.000 C 
BRANCH   6   7
ATOM      7  C   UNL     1       8.277   4.225  33.036  1.00  0.00    -0.000 C 
BRANCH   7   8
ATOM      8  C   UNL     1       8.519   2.761  33.460  1.00  0.00    -0.000 C 
BRANCH   8   9
ATOM      9  C   UNL     1       8.449   1.758  32.293  1.00  0.00    -0.000 C 
BRANCH   9  10
ATOM     10  C   UNL     1       9.685   0.855  32.144  1.00  0.00    -0.000 C 
BRANCH  10  11
ATOM     11  C   UNL     1      10.424   1.073  30.816  1.00  0.00    -0.003 C 
ATOM     12  C   UNL     1       9.441   1.316  29.675  1.00  0.00     0.004 C 
ENDBRANCH  10  11
ENDBRANCH   9  10
ENDBRANCH   8   9
ENDBRANCH   7   8
ENDBRANCH   6   7
ENDBRANCH   5   6
ENDBRANCH   4   5
ENDBRANCH   3   4
ENDBRANCH   2   3
ENDBRANCH   1   2
BRANCH   1  13
ATOM     13  C   UNL     1      10.678   7.031  33.773  1.00  0.00     0.000 C 
BRANCH  13  14
ATOM     14  C   UNL     1      11.997   6.286  33.524  1.00  0.00     0.000 C 
BRANCH  14  15
ATOM     15  C   UNL     1      11.903   4.786  33.849  1.00  0.00     0.000 C 
BRANCH  15  16
ATOM     16  C   UNL     1      12.028   3.900  32.598  1.00  0.00     0.000 C 
BRANCH  16  17
ATOM     17  C   UNL     1      12.252   4.719  31.314  1.00  0.00     0.000 C 
BRANCH  17  18
ATOM     18  C   UNL     1      13.274   4.072  30.368  1.00  0.00     0.000 C 
BRANCH  18  19
ATOM     19  C   UNL     1      12.608   3.635  29.055  1.00  0.00     0.000 C 
BRANCH  19  20
ATOM     20  C   UNL     1      13.499   3.864  27.820  1.00  0.00     0.006 C 
BRANCH  20  21
ATOM     21  C   UNL     1      13.052   5.042  26.935  1.00  0.00     0.053 C 
BRANCH  21  22
ATOM     22  C   UNL     1      13.972   6.222  27.040  1.00  0.00     0.041 C 
ATOM     23  O   UNL     1      14.753   6.330  28.021  1.00  0.00    -0.550 OA
ATOM     24  O   UNL     1      13.992   7.184  26.037  1.00  0.00    -0.550 OA
ENDBRANCH  21  22
ENDBRANCH  20  21
ENDBRANCH  19  20
ENDBRANCH  18  19
ENDBRANCH  17  18
ENDBRANCH  16  17
ENDBRANCH  15  16
ENDBRANCH  14  15
ENDBRANCH  13  14
ENDBRANCH   1  13
TORSDOF 20
ENDMDL
MODEL 9
REMARK VINA RESULT:    -2.909      1.686      4.876
REMARK INTER + INTRA:         -10.367
REMARK INTER:                  -6.360
REMARK INTRA:                  -4.007
REMARK UNBOUND:                -4.057
REMARK SMILES CCCCCCCCCCCCCCCCCCCCCC(=O)[O-]
REMARK SMILES IDX 12 1 11 2 10 3 9 4 8 5 7 6 6 7 5 8 4 9 3 10 2 11 1 12 13 13
REMARK SMILES IDX 14 14 15 15 16 16 17 17 18 18 19 19 20 20 21 21 22 22 23 23
REMARK SMILES IDX 24 24
REMARK H PARENT
REMARK Flexibility Score: inf
ROOT
ATOM      1  C   UNL     1      10.711   7.898  33.341  1.00  0.00     0.000 C 
ENDROOT
BRANCH   1   2
ATOM      2  C   UNL     1      10.390   8.163  31.861  1.00  0.00     0.000 C 
BRANCH   2   3
ATOM      3  C   UNL     1       8.880   8.214  31.582  1.00  0.00     0.000 C 
BRANCH   3   4
ATOM      4  C   UNL     1       8.498   7.262  30.443  1.00  0.00    -0.000 C 
BRANCH   4   5
ATOM      5  C   UNL     1       8.259   5.840  30.975  1.00  0.00    -0.000 C 
BRANCH   5   6
ATOM      6  C   UNL     1       8.941   4.764  30.115  1.00  0.00    -0.000 C 
BRANCH   6   7
ATOM      7  C   UNL     1      10.375   4.454  30.579  1.00  0.00    -0.000 C 
BRANCH   7   8
ATOM      8  C   UNL     1      11.437   5.078  29.648  1.00  0.00    -0.000 C 
BRANCH   8   9
ATOM      9  C   UNL     1      12.858   5.081  30.244  1.00  0.00    -0.000 C 
BRANCH   9  10
ATOM     10  C   UNL     1      13.035   4.198  31.491  1.00  0.00    -0.000 C 
BRANCH  10  11
ATOM     11  C   UNL     1      14.389   4.410  32.183  1.00  0.00    -0.003 C 
ATOM     12  C   UNL     1      14.224   4.491  33.697  1.00  0.00     0.004 C 
ENDBRANCH  10  11
ENDBRANCH   9  10
ENDBRANCH   8   9
ENDBRANCH   7   8
ENDBRANCH   6   7
ENDBRANCH   5   6
ENDBRANCH   4   5
ENDBRANCH   3   4
ENDBRANCH   2   3
ENDBRANCH   1   2
BRANCH   1  13
ATOM     13  C   UNL     1      11.315   6.505  33.578  1.00  0.00     0.000 C 
BRANCH  13  14
ATOM     14  C   UNL     1      10.499   5.724  34.619  1.00  0.00     0.000 C 
BRANCH  14  15
ATOM     15  C   UNL     1       9.772   4.511  34.015  1.00  0.00     0.000 C 
BRANCH  15  16
ATOM     16  C   UNL     1      10.460   3.179  34.356  1.00  0.00     0.000 C 
BRANCH  16  17
ATOM     17  C   UNL     1       9.678   1.960  33.837  1.00  0.00     0.000 C 
BRANCH  17  18
ATOM     18  C   UNL     1       8.450   2.353  33.002  1.00  0.00     0.000 C 
BRANCH  18  19
ATOM     19  C   UNL     1       8.223   1.357  31.856  1.00  0.00     0.000 C 
BRANCH  19  20
ATOM     20  C   UNL     1       9.527   0.942  31.150  1.00  0.00     0.006 C 
BRANCH  20  21
ATOM     21  C   UNL     1       9.434   0.942  29.612  1.00  0.00     0.053 C 
BRANCH  21  22
ATOM     22  C   UNL     1      10.781   0.917  28.954  1.00  0.00     0.041 C 
ATOM     23  O   UNL     1      11.793   1.342  29.569  1.00  0.00    -0.550 OA
ATOM     24  O   UNL     1      10.924   0.393  27.675  1.00  0.00    -0.550 OA
ENDBRANCH  21  22
ENDBRANCH  20  21
ENDBRANCH  19  20
ENDBRANCH  18  19
ENDBRANCH  17  18
ENDBRANCH  16  17
ENDBRANCH  15  16
ENDBRANCH  14  15
ENDBRANCH  13  14
ENDBRANCH   1  13
TORSDOF 20
ENDMDL
