MODEL 1
REMARK VINA RESULT:    41.019      0.000      0.000
REMARK INTER + INTRA:          61.937
REMARK INTER:                  61.401
REMARK INTRA:                   0.536
REMARK UNBOUND:                 0.536
REMARK SMILES COC(=O)C1=CO[C@@H](O[C@@H]2O[C@H](CO)[C@H](O)[C@H](O)[C@H]2O)[C@@H]2C(CO)=CC[C@@H]12
REMARK SMILES IDX 9 1 8 2 5 3 6 4 27 5 7 6 21 7 26 8 22 9 25 10 3 11 4 12 2 13
REMARK SMILES IDX 1 14 23 15 24 16 10 18 19 19 11 20 17 21 12 22 15 23 20 24
REMARK SMILES IDX 18 26 13 28 14 29 16 31
REMARK H PARENT 24 17 20 25 18 27 14 30 16 32
REMARK Flexibility Score: inf
ROOT
ATOM      1  O   UNL     1      19.286   8.435   9.890  1.00  0.00    -0.310 OA
ENDROOT
BRANCH   1   2
ATOM      2  C   UNL     1      18.046   8.715   9.262  1.00  0.00     0.316 C 
ATOM      3  C   UNL     1      15.614  10.343   9.423  1.00  0.00     0.076 C 
ATOM      4  C   UNL     1      16.790  10.897   9.059  1.00  0.00     0.202 C 
ATOM      5  C   UNL     1      15.603   8.842   9.566  1.00  0.00     0.047 C 
ATOM      6  O   UNL     1      17.973  10.125   8.974  1.00  0.00    -0.471 OA
ATOM      7  C   UNL     1      16.902   8.384  10.225  1.00  0.00     0.094 C 
ATOM      8  C   UNL     1      14.533   8.127  10.391  1.00  0.00     0.037 C 
ATOM      9  C   UNL     1      16.570   6.971  10.578  1.00  0.00    -0.039 C 
ATOM     10  C   UNL     1      15.248   6.855  10.743  1.00  0.00    -0.024 C 
BRANCH   3  11
ATOM     11  C   UNL     1      14.374  11.151   9.432  1.00  0.00     0.337 C 
ATOM     12  O   UNL     1      13.922  11.606  10.519  1.00  0.00    -0.246 OA
BRANCH  11  13
ATOM     13  O   UNL     1      13.692  11.390   8.233  1.00  0.00    -0.466 OA
ATOM     14  C   UNL     1      14.317  11.278   6.960  1.00  0.00     0.282 C 
ENDBRANCH  11  13
ENDBRANCH   3  11
BRANCH   9  15
ATOM     15  C   UNL     1      17.549   5.882  10.923  1.00  0.00     0.187 C 
BRANCH  15  16
ATOM     16  O   UNL     1      18.601   5.875   9.998  1.00  0.00    -0.392 OA
ATOM     17  H   UNL     1      18.560   6.744   9.517  1.00  0.00     0.211 HD
ENDBRANCH  15  16
ENDBRANCH   9  15
ENDBRANCH   1   2
BRANCH   1  18
ATOM     18  C   UNL     1      20.219   7.805   9.018  1.00  0.00     0.286 C 
ATOM     19  C   UNL     1      21.273   8.812   8.465  1.00  0.00     0.202 C 
ATOM     20  O   UNL     1      20.848   6.725   9.688  1.00  0.00    -0.341 OA
ATOM     21  C   UNL     1      22.539   8.894   9.348  1.00  0.00     0.179 C 
ATOM     22  C   UNL     1      21.595   7.104  10.843  1.00  0.00     0.178 C 
ATOM     23  C   UNL     1      22.208   8.537  10.801  1.00  0.00     0.177 C 
BRANCH  19  24
ATOM     24  O   UNL     1      21.629   8.488   7.144  1.00  0.00    -0.385 OA
ATOM     25  H   UNL     1      21.989   9.309   6.717  1.00  0.00     0.211 HD
ENDBRANCH  19  24
BRANCH  21  26
ATOM     26  O   UNL     1      23.077  10.190   9.279  1.00  0.00    -0.387 OA
ATOM     27  H   UNL     1      23.603  10.325  10.110  1.00  0.00     0.211 HD
ENDBRANCH  21  26
BRANCH  22  28
ATOM     28  C   UNL     1      20.793   6.826  12.128  1.00  0.00     0.191 C 
BRANCH  28  29
ATOM     29  O   UNL     1      21.542   6.040  13.016  1.00  0.00    -0.394 OA
ATOM     30  H   UNL     1      21.938   5.305  12.483  1.00  0.00     0.210 HD
ENDBRANCH  28  29
ENDBRANCH  22  28
BRANCH  23  31
ATOM     31  O   UNL     1      21.333   9.501  11.335  1.00  0.00    -0.387 OA
ATOM     32  H   UNL     1      21.638  10.388  11.007  1.00  0.00     0.211 HD
ENDBRANCH  23  31
ENDBRANCH   1  18
TORSDOF 11
ENDMDL
