MODEL 1
REMARK VINA RESULT:    -4.697      0.000      0.000
REMARK INTER + INTRA:          -9.177
REMARK INTER:                  -7.992
REMARK INTRA:                  -1.185
REMARK UNBOUND:                -1.185
REMARK SMILES CCCCCCCCCCCCCC(=O)[O-]
REMARK SMILES IDX 8 1 9 2 10 3 11 4 12 5 13 6 14 7 15 8 16 9 7 10 6 11 5 12
REMARK SMILES IDX 4 13 3 14 2 15 1 16
REMARK H PARENT
REMARK Flexibility Score: inf
ROOT
ATOM      1  C   UNL     1     -14.778  36.123  15.121  1.00  0.00     0.000 C 
ENDROOT
BRANCH   1   2
ATOM      2  C   UNL     1     -15.865  36.006  16.200  1.00  0.00     0.000 C 
BRANCH   2   3
ATOM      3  C   UNL     1     -16.538  37.351  16.517  1.00  0.00     0.000 C 
BRANCH   3   4
ATOM      4  C   UNL     1     -16.781  37.618  18.016  1.00  0.00     0.000 C 
BRANCH   4   5
ATOM      5  C   UNL     1     -17.257  39.054  18.323  1.00  0.00     0.006 C 
BRANCH   5   6
ATOM      6  C   UNL     1     -18.011  39.145  19.657  1.00  0.00     0.053 C 
BRANCH   6   7
ATOM      7  C   UNL     1     -18.323  40.570  19.986  1.00  0.00     0.041 C 
ATOM      8  O   UNL     1     -18.859  41.316  19.124  1.00  0.00    -0.550 OA
ATOM      9  O   UNL     1     -17.977  41.090  21.226  1.00  0.00    -0.550 OA
ENDBRANCH   6   7
ENDBRANCH   5   6
ENDBRANCH   4   5
ENDBRANCH   3   4
ENDBRANCH   2   3
ENDBRANCH   1   2
BRANCH   1  10
ATOM     10  C   UNL     1     -14.776  37.523  14.495  1.00  0.00     0.000 C 
BRANCH  10  11
ATOM     11  C   UNL     1     -15.590  37.543  13.192  1.00  0.00    -0.000 C 
BRANCH  11  12
ATOM     12  C   UNL     1     -15.406  36.264  12.360  1.00  0.00    -0.000 C 
BRANCH  12  13
ATOM     13  C   UNL     1     -16.735  35.705  11.831  1.00  0.00    -0.000 C 
BRANCH  13  14
ATOM     14  C   UNL     1     -16.968  34.275  12.340  1.00  0.00    -0.000 C 
BRANCH  14  15
ATOM     15  C   UNL     1     -17.770  34.236  13.650  1.00  0.00    -0.003 C 
ATOM     16  C   UNL     1     -18.601  35.500  13.874  1.00  0.00     0.004 C 
ENDBRANCH  14  15
ENDBRANCH  13  14
ENDBRANCH  12  13
ENDBRANCH  11  12
ENDBRANCH  10  11
ENDBRANCH   1  10
TORSDOF 12
ENDMDL
MODEL 2
REMARK VINA RESULT:    -4.657      3.743      8.745
REMARK INTER + INTRA:          -9.110
REMARK INTER:                  -8.695
REMARK INTRA:                  -0.414
REMARK UNBOUND:                -1.185
REMARK SMILES CCCCCCCCCCCCCC(=O)[O-]
REMARK SMILES IDX 8 1 9 2 10 3 11 4 12 5 13 6 14 7 15 8 16 9 7 10 6 11 5 12
REMARK SMILES IDX 4 13 3 14 2 15 1 16
REMARK H PARENT
REMARK Flexibility Score: inf
ROOT
ATOM      1  C   UNL     1     -17.290  39.413  18.541  1.00  0.00     0.000 C 
ENDROOT
BRANCH   1   2
ATOM      2  C   UNL     1     -16.963  37.927  18.327  1.00  0.00     0.000 C 
BRANCH   2   3
ATOM      3  C   UNL     1     -16.628  37.596  16.863  1.00  0.00     0.000 C 
BRANCH   3   4
ATOM      4  C   UNL     1     -16.052  36.184  16.634  1.00  0.00     0.000 C 
BRANCH   4   5
ATOM      5  C   UNL     1     -15.783  35.856  15.150  1.00  0.00     0.006 C 
BRANCH   5   6
ATOM      6  C   UNL     1     -16.969  35.141  14.486  1.00  0.00     0.053 C 
BRANCH   6   7
ATOM      7  C   UNL     1     -17.413  35.886  13.268  1.00  0.00     0.041 C 
ATOM      8  O   UNL     1     -16.911  35.619  12.145  1.00  0.00    -0.550 OA
ATOM      9  O   UNL     1     -18.346  36.909  13.380  1.00  0.00    -0.550 OA
ENDBRANCH   6   7
ENDBRANCH   5   6
ENDBRANCH   4   5
ENDBRANCH   3   4
ENDBRANCH   2   3
ENDBRANCH   1   2
BRANCH   1  10
ATOM     10  C   UNL     1     -17.792  39.663  19.969  1.00  0.00     0.000 C 
BRANCH  10  11
ATOM     11  C   UNL     1     -19.025  40.579  19.965  1.00  0.00    -0.000 C 
BRANCH  11  12
ATOM     12  C   UNL     1     -18.657  42.068  20.064  1.00  0.00    -0.000 C 
BRANCH  12  13
ATOM     13  C   UNL     1     -17.468  42.323  21.001  1.00  0.00    -0.000 C 
BRANCH  13  14
ATOM     14  C   UNL     1     -17.444  43.785  21.470  1.00  0.00    -0.000 C 
BRANCH  14  15
ATOM     15  C   UNL     1     -16.292  44.076  22.445  1.00  0.00    -0.003 C 
ATOM     16  C   UNL     1     -16.556  45.297  23.326  1.00  0.00     0.004 C 
ENDBRANCH  14  15
ENDBRANCH  13  14
ENDBRANCH  12  13
ENDBRANCH  11  12
ENDBRANCH  10  11
ENDBRANCH   1  10
TORSDOF 12
ENDMDL
MODEL 3
REMARK VINA RESULT:    -4.631      1.724      2.591
REMARK INTER + INTRA:          -9.066
REMARK INTER:                  -8.000
REMARK INTRA:                  -1.066
REMARK UNBOUND:                -1.185
REMARK SMILES CCCCCCCCCCCCCC(=O)[O-]
REMARK SMILES IDX 8 1 9 2 10 3 11 4 12 5 13 6 14 7 15 8 16 9 7 10 6 11 5 12
REMARK SMILES IDX 4 13 3 14 2 15 1 16
REMARK H PARENT
REMARK Flexibility Score: inf
ROOT
ATOM      1  C   UNL     1     -16.156  36.151  17.063  1.00  0.00     0.000 C 
ENDROOT
BRANCH   1   2
ATOM      2  C   UNL     1     -16.611  37.618  17.065  1.00  0.00     0.000 C 
BRANCH   2   3
ATOM      3  C   UNL     1     -16.995  38.121  18.466  1.00  0.00     0.000 C 
BRANCH   3   4
ATOM      4  C   UNL     1     -17.459  39.591  18.522  1.00  0.00     0.000 C 
BRANCH   4   5
ATOM      5  C   UNL     1     -18.555  39.858  19.576  1.00  0.00     0.006 C 
BRANCH   5   6
ATOM      6  C   UNL     1     -18.467  41.273  20.163  1.00  0.00     0.053 C 
BRANCH   6   7
ATOM      7  C   UNL     1     -17.533  41.298  21.332  1.00  0.00     0.041 C 
ATOM      8  O   UNL     1     -17.034  42.386  21.720  1.00  0.00    -0.550 OA
ATOM      9  O   UNL     1     -17.175  40.113  21.960  1.00  0.00    -0.550 OA
ENDBRANCH   6   7
ENDBRANCH   5   6
ENDBRANCH   4   5
ENDBRANCH   3   4
ENDBRANCH   2   3
ENDBRANCH   1   2
BRANCH   1  10
ATOM     10  C   UNL     1     -15.745  35.706  15.654  1.00  0.00     0.000 C 
BRANCH  10  11
ATOM     11  C   UNL     1     -14.421  36.364  15.235  1.00  0.00    -0.000 C 
BRANCH  11  12
ATOM     12  C   UNL     1     -14.401  36.760  13.750  1.00  0.00    -0.000 C 
BRANCH  12  13
ATOM     13  C   UNL     1     -14.853  38.209  13.517  1.00  0.00    -0.000 C 
BRANCH  13  14
ATOM     14  C   UNL     1     -16.124  38.254  12.656  1.00  0.00    -0.000 C 
BRANCH  14  15
ATOM     15  C   UNL     1     -17.410  38.201  13.495  1.00  0.00    -0.003 C 
ATOM     16  C   UNL     1     -18.228  36.933  13.247  1.00  0.00     0.004 C 
ENDBRANCH  14  15
ENDBRANCH  13  14
ENDBRANCH  12  13
ENDBRANCH  11  12
ENDBRANCH  10  11
ENDBRANCH   1  10
TORSDOF 12
ENDMDL
MODEL 4
REMARK VINA RESULT:    -4.550      3.074      7.373
REMARK INTER + INTRA:          -8.927
REMARK INTER:                  -8.071
REMARK INTRA:                  -0.856
REMARK UNBOUND:                -1.185
REMARK SMILES CCCCCCCCCCCCCC(=O)[O-]
REMARK SMILES IDX 8 1 9 2 10 3 11 4 12 5 13 6 14 7 15 8 16 9 7 10 6 11 5 12
REMARK SMILES IDX 4 13 3 14 2 15 1 16
REMARK H PARENT
REMARK Flexibility Score: inf
ROOT
ATOM      1  C   UNL     1     -16.754  37.879  17.431  1.00  0.00     0.000 C 
ENDROOT
BRANCH   1   2
ATOM      2  C   UNL     1     -16.289  36.425  17.261  1.00  0.00     0.000 C 
BRANCH   2   3
ATOM      3  C   UNL     1     -15.712  36.142  15.864  1.00  0.00     0.000 C 
BRANCH   3   4
ATOM      4  C   UNL     1     -16.588  35.240  14.973  1.00  0.00     0.000 C 
BRANCH   4   5
ATOM      5  C   UNL     1     -16.810  35.797  13.550  1.00  0.00     0.006 C 
BRANCH   5   6
ATOM      6  C   UNL     1     -17.849  36.927  13.523  1.00  0.00     0.053 C 
BRANCH   6   7
ATOM      7  C   UNL     1     -17.211  38.214  13.105  1.00  0.00     0.041 C 
ATOM      8  O   UNL     1     -15.958  38.335  13.123  1.00  0.00    -0.550 OA
ATOM      9  O   UNL     1     -18.002  39.298  12.745  1.00  0.00    -0.550 OA
ENDBRANCH   6   7
ENDBRANCH   5   6
ENDBRANCH   4   5
ENDBRANCH   3   4
ENDBRANCH   2   3
ENDBRANCH   1   2
BRANCH   1  10
ATOM     10  C   UNL     1     -17.038  38.196  18.904  1.00  0.00     0.000 C 
BRANCH  10  11
ATOM     11  C   UNL     1     -18.131  39.268  19.035  1.00  0.00    -0.000 C 
BRANCH  11  12
ATOM     12  C   UNL     1     -17.607  40.685  18.752  1.00  0.00    -0.000 C 
BRANCH  12  13
ATOM     13  C   UNL     1     -18.397  41.769  19.500  1.00  0.00    -0.000 C 
BRANCH  13  14
ATOM     14  C   UNL     1     -18.386  41.509  21.013  1.00  0.00    -0.000 C 
BRANCH  14  15
ATOM     15  C   UNL     1     -16.969  41.525  21.606  1.00  0.00    -0.003 C 
ATOM     16  C   UNL     1     -16.680  40.308  22.486  1.00  0.00     0.004 C 
ENDBRANCH  14  15
ENDBRANCH  13  14
ENDBRANCH  12  13
ENDBRANCH  11  12
ENDBRANCH  10  11
ENDBRANCH   1  10
TORSDOF 12
ENDMDL
MODEL 5
REMARK VINA RESULT:    -4.549      5.991      8.256
REMARK INTER + INTRA:          -8.926
REMARK INTER:                  -7.846
REMARK INTRA:                  -1.080
REMARK UNBOUND:                -1.185
REMARK SMILES CCCCCCCCCCCCCC(=O)[O-]
REMARK SMILES IDX 8 1 9 2 10 3 11 4 12 5 13 6 14 7 15 8 16 9 7 10 6 11 5 12
REMARK SMILES IDX 4 13 3 14 2 15 1 16
REMARK H PARENT
REMARK Flexibility Score: inf
ROOT
ATOM      1  C   UNL     1     -16.036  40.822  11.707  1.00  0.00     0.000 C 
ENDROOT
BRANCH   1   2
ATOM      2  C   UNL     1     -17.335  41.615  11.496  1.00  0.00     0.000 C 
BRANCH   2   3
ATOM      3  C   UNL     1     -17.791  41.632  10.028  1.00  0.00     0.000 C 
BRANCH   3   4
ATOM      4  C   UNL     1     -17.174  42.756   9.171  1.00  0.00     0.000 C 
BRANCH   4   5
ATOM      5  C   UNL     1     -16.628  42.273   7.810  1.00  0.00     0.006 C 
BRANCH   5   6
ATOM      6  C   UNL     1     -15.555  41.187   7.965  1.00  0.00     0.053 C 
BRANCH   6   7
ATOM      7  C   UNL     1     -14.205  41.806   8.142  1.00  0.00     0.041 C 
ATOM      8  O   UNL     1     -13.731  41.972   9.296  1.00  0.00    -0.550 OA
ATOM      9  O   UNL     1     -13.492  42.246   7.034  1.00  0.00    -0.550 OA
ENDBRANCH   6   7
ENDBRANCH   5   6
ENDBRANCH   4   5
ENDBRANCH   3   4
ENDBRANCH   2   3
ENDBRANCH   1   2
BRANCH   1  10
ATOM     10  C   UNL     1     -16.337  39.350  12.013  1.00  0.00     0.000 C 
BRANCH  10  11
ATOM     11  C   UNL     1     -17.644  39.209  12.808  1.00  0.00    -0.000 C 
BRANCH  11  12
ATOM     12  C   UNL     1     -17.599  38.053  13.820  1.00  0.00    -0.000 C 
BRANCH  12  13
ATOM     13  C   UNL     1     -18.022  36.711  13.206  1.00  0.00    -0.000 C 
BRANCH  13  14
ATOM     14  C   UNL     1     -16.828  35.749  13.116  1.00  0.00    -0.000 C 
BRANCH  14  15
ATOM     15  C   UNL     1     -16.710  35.080  11.738  1.00  0.00    -0.003 C 
ATOM     16  C   UNL     1     -15.772  35.832  10.793  1.00  0.00     0.004 C 
ENDBRANCH  14  15
ENDBRANCH  13  14
ENDBRANCH  12  13
ENDBRANCH  11  12
ENDBRANCH  10  11
ENDBRANCH   1  10
TORSDOF 12
ENDMDL
MODEL 6
REMARK VINA RESULT:    -4.502      6.261     11.053
REMARK INTER + INTRA:          -8.845
REMARK INTER:                  -7.815
REMARK INTRA:                  -1.030
REMARK UNBOUND:                -1.185
REMARK SMILES CCCCCCCCCCCCCC(=O)[O-]
REMARK SMILES IDX 8 1 9 2 10 3 11 4 12 5 13 6 14 7 15 8 16 9 7 10 6 11 5 12
REMARK SMILES IDX 4 13 3 14 2 15 1 16
REMARK H PARENT
REMARK Flexibility Score: inf
ROOT
ATOM      1  C   UNL     1     -16.359  46.093  22.375  1.00  0.00     0.000 C 
ENDROOT
BRANCH   1   2
ATOM      2  C   UNL     1     -17.097  44.805  22.768  1.00  0.00     0.000 C 
BRANCH   2   3
ATOM      3  C   UNL     1     -17.141  43.772  21.630  1.00  0.00     0.000 C 
BRANCH   3   4
ATOM      4  C   UNL     1     -16.300  42.503  21.874  1.00  0.00     0.000 C 
BRANCH   4   5
ATOM      5  C   UNL     1     -17.107  41.191  21.767  1.00  0.00     0.006 C 
BRANCH   5   6
ATOM      6  C   UNL     1     -18.310  41.322  20.822  1.00  0.00     0.053 C 
BRANCH   6   7
ATOM      7  C   UNL     1     -18.070  40.554  19.561  1.00  0.00     0.041 C 
ATOM      8  O   UNL     1     -17.476  41.096  18.592  1.00  0.00    -0.550 OA
ATOM      9  O   UNL     1     -18.547  39.256  19.436  1.00  0.00    -0.550 OA
ENDBRANCH   6   7
ENDBRANCH   5   6
ENDBRANCH   4   5
ENDBRANCH   3   4
ENDBRANCH   2   3
ENDBRANCH   1   2
BRANCH   1  10
ATOM     10  C   UNL     1     -15.527  46.627  23.547  1.00  0.00     0.000 C 
BRANCH  10  11
ATOM     11  C   UNL     1     -15.177  45.500  24.531  1.00  0.00    -0.000 C 
BRANCH  11  12
ATOM     12  C   UNL     1     -13.734  45.597  25.053  1.00  0.00    -0.000 C 
BRANCH  12  13
ATOM     13  C   UNL     1     -13.156  44.232  25.454  1.00  0.00    -0.000 C 
BRANCH  13  14
ATOM     14  C   UNL     1     -13.435  43.180  24.370  1.00  0.00    -0.000 C 
BRANCH  14  15
ATOM     15  C   UNL     1     -13.129  41.750  24.841  1.00  0.00    -0.003 C 
ATOM     16  C   UNL     1     -13.336  41.564  26.344  1.00  0.00     0.004 C 
ENDBRANCH  14  15
ENDBRANCH  13  14
ENDBRANCH  12  13
ENDBRANCH  11  12
ENDBRANCH  10  11
ENDBRANCH   1  10
TORSDOF 12
ENDMDL
MODEL 7
REMARK VINA RESULT:    -4.482      5.449      7.309
REMARK INTER + INTRA:          -8.812
REMARK INTER:                  -8.017
REMARK INTRA:                  -0.795
REMARK UNBOUND:                -1.185
REMARK SMILES CCCCCCCCCCCCCC(=O)[O-]
REMARK SMILES IDX 8 1 9 2 10 3 11 4 12 5 13 6 14 7 15 8 16 9 7 10 6 11 5 12
REMARK SMILES IDX 4 13 3 14 2 15 1 16
REMARK H PARENT
REMARK Flexibility Score: inf
ROOT
ATOM      1  C   UNL     1     -16.157  40.191  12.033  1.00  0.00     0.000 C 
ENDROOT
BRANCH   1   2
ATOM      2  C   UNL     1     -16.303  38.737  12.505  1.00  0.00     0.000 C 
BRANCH   2   3
ATOM      3  C   UNL     1     -17.610  38.487  13.275  1.00  0.00     0.000 C 
BRANCH   3   4
ATOM      4  C   UNL     1     -18.163  37.052  13.166  1.00  0.00     0.000 C 
BRANCH   4   5
ATOM      5  C   UNL     1     -17.069  35.963  13.156  1.00  0.00     0.006 C 
BRANCH   5   6
ATOM      6  C   UNL     1     -16.944  35.250  14.509  1.00  0.00     0.053 C 
BRANCH   6   7
ATOM      7  C   UNL     1     -15.872  35.884  15.338  1.00  0.00     0.041 C 
ATOM      8  O   UNL     1     -14.799  36.265  14.801  1.00  0.00    -0.550 OA
ATOM      9  O   UNL     1     -16.037  36.009  16.711  1.00  0.00    -0.550 OA
ENDBRANCH   6   7
ENDBRANCH   5   6
ENDBRANCH   4   5
ENDBRANCH   3   4
ENDBRANCH   2   3
ENDBRANCH   1   2
BRANCH   1  10
ATOM     10  C   UNL     1     -16.761  40.376  10.635  1.00  0.00     0.000 C 
BRANCH  10  11
ATOM     11  C   UNL     1     -17.753  41.550  10.616  1.00  0.00    -0.000 C 
BRANCH  11  12
ATOM     12  C   UNL     1     -17.687  42.359   9.311  1.00  0.00    -0.000 C 
BRANCH  12  13
ATOM     13  C   UNL     1     -16.549  41.900   8.387  1.00  0.00    -0.000 C 
BRANCH  13  14
ATOM     14  C   UNL     1     -16.101  43.042   7.462  1.00  0.00    -0.000 C 
BRANCH  14  15
ATOM     15  C   UNL     1     -16.586  44.418   7.943  1.00  0.00    -0.003 C 
ATOM     16  C   UNL     1     -15.482  45.233   8.617  1.00  0.00     0.004 C 
ENDBRANCH  14  15
ENDBRANCH  13  14
ENDBRANCH  12  13
ENDBRANCH  11  12
ENDBRANCH  10  11
ENDBRANCH   1  10
TORSDOF 12
ENDMDL
MODEL 8
REMARK VINA RESULT:    -4.459      6.304      8.394
REMARK INTER + INTRA:          -8.772
REMARK INTER:                  -7.732
REMARK INTRA:                  -1.040
REMARK UNBOUND:                -1.185
REMARK SMILES CCCCCCCCCCCCCC(=O)[O-]
REMARK SMILES IDX 8 1 9 2 10 3 11 4 12 5 13 6 14 7 15 8 16 9 7 10 6 11 5 12
REMARK SMILES IDX 4 13 3 14 2 15 1 16
REMARK H PARENT
REMARK Flexibility Score: inf
ROOT
ATOM      1  C   UNL     1     -17.372  40.871  11.263  1.00  0.00     0.000 C 
ENDROOT
BRANCH   1   2
ATOM      2  C   UNL     1     -15.999  40.433  11.796  1.00  0.00     0.000 C 
BRANCH   2   3
ATOM      3  C   UNL     1     -16.043  39.070  12.508  1.00  0.00     0.000 C 
BRANCH   3   4
ATOM      4  C   UNL     1     -17.460  38.537  12.800  1.00  0.00     0.000 C 
BRANCH   4   5
ATOM      5  C   UNL     1     -17.491  37.053  13.222  1.00  0.00     0.006 C 
BRANCH   5   6
ATOM      6  C   UNL     1     -16.180  36.325  12.894  1.00  0.00     0.053 C 
BRANCH   6   7
ATOM      7  C   UNL     1     -16.333  35.506  11.652  1.00  0.00     0.041 C 
ATOM      8  O   UNL     1     -16.947  34.408  11.690  1.00  0.00    -0.550 OA
ATOM      9  O   UNL     1     -15.755  35.930  10.462  1.00  0.00    -0.550 OA
ENDBRANCH   6   7
ENDBRANCH   5   6
ENDBRANCH   4   5
ENDBRANCH   3   4
ENDBRANCH   2   3
ENDBRANCH   1   2
BRANCH   1  10
ATOM     10  C   UNL     1     -17.255  41.424   9.838  1.00  0.00     0.000 C 
BRANCH  10  11
ATOM     11  C   UNL     1     -16.210  40.640   9.029  1.00  0.00    -0.000 C 
BRANCH  11  12
ATOM     12  C   UNL     1     -15.922  41.278   7.660  1.00  0.00    -0.000 C 
BRANCH  12  13
ATOM     13  C   UNL     1     -14.664  42.158   7.668  1.00  0.00    -0.000 C 
BRANCH  13  14
ATOM     14  C   UNL     1     -14.947  43.524   7.026  1.00  0.00    -0.000 C 
BRANCH  14  15
ATOM     15  C   UNL     1     -16.149  44.239   7.660  1.00  0.00    -0.003 C 
ATOM     16  C   UNL     1     -15.823  44.849   9.024  1.00  0.00     0.004 C 
ENDBRANCH  14  15
ENDBRANCH  13  14
ENDBRANCH  12  13
ENDBRANCH  11  12
ENDBRANCH  10  11
ENDBRANCH   1  10
TORSDOF 12
ENDMDL
MODEL 9
REMARK VINA RESULT:    -4.437      5.907      7.894
REMARK INTER + INTRA:          -8.736
REMARK INTER:                  -7.536
REMARK INTRA:                  -1.199
REMARK UNBOUND:                -1.185
REMARK SMILES CCCCCCCCCCCCCC(=O)[O-]
REMARK SMILES IDX 8 1 9 2 10 3 11 4 12 5 13 6 14 7 15 8 16 9 7 10 6 11 5 12
REMARK SMILES IDX 4 13 3 14 2 15 1 16
REMARK H PARENT
REMARK Flexibility Score: inf
ROOT
ATOM      1  C   UNL     1     -17.491  41.059  10.249  1.00  0.00     0.000 C 
ENDROOT
BRANCH   1   2
ATOM      2  C   UNL     1     -17.082  41.096  11.729  1.00  0.00     0.000 C 
BRANCH   2   3
ATOM      3  C   UNL     1     -15.936  40.125  12.056  1.00  0.00     0.000 C 
BRANCH   3   4
ATOM      4  C   UNL     1     -16.369  38.660  12.269  1.00  0.00     0.000 C 
BRANCH   4   5
ATOM      5  C   UNL     1     -17.570  38.499  13.226  1.00  0.00     0.006 C 
BRANCH   5   6
ATOM      6  C   UNL     1     -17.917  37.027  13.483  1.00  0.00     0.053 C 
BRANCH   6   7
ATOM      7  C   UNL     1     -17.071  36.475  14.586  1.00  0.00     0.041 C 
ATOM      8  O   UNL     1     -16.831  35.240  14.643  1.00  0.00    -0.550 OA
ATOM      9  O   UNL     1     -16.588  37.316  15.580  1.00  0.00    -0.550 OA
ENDBRANCH   6   7
ENDBRANCH   5   6
ENDBRANCH   4   5
ENDBRANCH   3   4
ENDBRANCH   2   3
ENDBRANCH   1   2
BRANCH   1  10
ATOM     10  C   UNL     1     -16.257  40.980   9.342  1.00  0.00     0.000 C 
BRANCH  10  11
ATOM     11  C   UNL     1     -16.425  41.876   8.105  1.00  0.00    -0.000 C 
BRANCH  11  12
ATOM     12  C   UNL     1     -17.396  43.042   8.348  1.00  0.00    -0.000 C 
BRANCH  12  13
ATOM     13  C   UNL     1     -16.812  44.398   7.925  1.00  0.00    -0.000 C 
BRANCH  13  14
ATOM     14  C   UNL     1     -15.376  44.561   8.443  1.00  0.00    -0.000 C 
BRANCH  14  15
ATOM     15  C   UNL     1     -15.315  45.273   9.803  1.00  0.00    -0.003 C 
ATOM     16  C   UNL     1     -15.199  44.300  10.977  1.00  0.00     0.004 C 
ENDBRANCH  14  15
ENDBRANCH  13  14
ENDBRANCH  12  13
ENDBRANCH  11  12
ENDBRANCH  10  11
ENDBRANCH   1  10
TORSDOF 12
ENDMDL
