MODEL 1
REMARK VINA RESULT:    -2.973      0.000      0.000
REMARK INTER + INTRA:          -3.517
REMARK INTER:                  -3.495
REMARK INTRA:                  -0.022
REMARK UNBOUND:                -0.022
REMARK SMILES CCCCC(=O)[O-]
REMARK SMILES IDX 4 1 5 2 6 3 7 4 3 5 2 6 1 7
REMARK H PARENT
REMARK Flexibility Score: inf
ROOT
ATOM      1  C   UNL     1     -24.048   6.665  22.526  1.00  0.00     0.053 C 
ENDROOT
BRANCH   1   2
ATOM      2  C   UNL     1     -22.727   7.236  22.120  1.00  0.00     0.041 C 
ATOM      3  O   UNL     1     -22.600   7.814  21.009  1.00  0.00    -0.550 OA
ATOM      4  O   UNL     1     -21.621   7.087  22.949  1.00  0.00    -0.550 OA
ENDBRANCH   1   2
BRANCH   1   5
ATOM      5  C   UNL     1     -23.851   5.485  23.484  1.00  0.00     0.006 C 
BRANCH   5   6
ATOM      6  C   UNL     1     -25.125   5.217  24.293  1.00  0.00    -0.003 C 
ATOM      7  C   UNL     1     -24.795   4.871  25.742  1.00  0.00     0.004 C 
ENDBRANCH   5   6
ENDBRANCH   1   5
TORSDOF 3
ENDMDL
MODEL 2
REMARK VINA RESULT:    -2.971      2.347      3.202
REMARK INTER + INTRA:          -3.515
REMARK INTER:                  -3.424
REMARK INTRA:                  -0.091
REMARK UNBOUND:                -0.022
REMARK SMILES CCCCC(=O)[O-]
REMARK SMILES IDX 4 1 5 2 6 3 7 4 3 5 2 6 1 7
REMARK H PARENT
REMARK Flexibility Score: inf
ROOT
ATOM      1  C   UNL     1     -21.880   7.750  20.282  1.00  0.00     0.053 C 
ENDROOT
BRANCH   1   2
ATOM      2  C   UNL     1     -21.060   6.599  19.792  1.00  0.00     0.041 C 
ATOM      3  O   UNL     1     -21.403   5.971  18.756  1.00  0.00    -0.550 OA
ATOM      4  O   UNL     1     -19.943   6.187  20.508  1.00  0.00    -0.550 OA
ENDBRANCH   1   2
BRANCH   1   5
ATOM      5  C   UNL     1     -22.087   7.655  21.797  1.00  0.00     0.006 C 
BRANCH   5   6
ATOM      6  C   UNL     1     -23.442   7.020  22.127  1.00  0.00    -0.003 C 
ATOM      7  C   UNL     1     -23.266   5.692  22.858  1.00  0.00     0.004 C 
ENDBRANCH   5   6
ENDBRANCH   1   5
TORSDOF 3
ENDMDL
MODEL 3
REMARK VINA RESULT:    -2.865     25.282     25.961
REMARK INTER + INTRA:          -3.389
REMARK INTER:                  -3.333
REMARK INTRA:                  -0.056
REMARK UNBOUND:                -0.022
REMARK SMILES CCCCC(=O)[O-]
REMARK SMILES IDX 4 1 5 2 6 3 7 4 3 5 2 6 1 7
REMARK H PARENT
REMARK Flexibility Score: inf
ROOT
ATOM      1  C   UNL     1      -4.947  -9.024  34.508  1.00  0.00     0.053 C 
ENDROOT
BRANCH   1   2
ATOM      2  C   UNL     1      -5.603  -9.361  33.207  1.00  0.00     0.041 C 
ATOM      3  O   UNL     1      -4.969  -9.239  32.126  1.00  0.00    -0.550 OA
ATOM      4  O   UNL     1      -6.932  -9.766  33.183  1.00  0.00    -0.550 OA
ENDBRANCH   1   2
BRANCH   1   5
ATOM      5  C   UNL     1      -6.002  -8.742  35.583  1.00  0.00     0.006 C 
BRANCH   5   6
ATOM      6  C   UNL     1      -5.636  -7.498  36.399  1.00  0.00    -0.003 C 
ATOM      7  C   UNL     1      -5.633  -6.247  35.526  1.00  0.00     0.004 C 
ENDBRANCH   5   6
ENDBRANCH   1   5
TORSDOF 3
ENDMDL
MODEL 4
REMARK VINA RESULT:    -2.828      2.297      4.061
REMARK INTER + INTRA:          -3.346
REMARK INTER:                  -3.240
REMARK INTRA:                  -0.106
REMARK UNBOUND:                -0.022
REMARK SMILES CCCCC(=O)[O-]
REMARK SMILES IDX 4 1 5 2 6 3 7 4 3 5 2 6 1 7
REMARK H PARENT
REMARK Flexibility Score: inf
ROOT
ATOM      1  C   UNL     1     -23.225   7.344  22.079  1.00  0.00     0.053 C 
ENDROOT
BRANCH   1   2
ATOM      2  C   UNL     1     -23.883   6.167  22.725  1.00  0.00     0.041 C 
ATOM      3  O   UNL     1     -25.051   6.264  23.183  1.00  0.00    -0.550 OA
ATOM      4  O   UNL     1     -23.186   4.972  22.865  1.00  0.00    -0.550 OA
ENDBRANCH   1   2
BRANCH   1   5
ATOM      5  C   UNL     1     -21.737   7.067  21.846  1.00  0.00     0.006 C 
BRANCH   5   6
ATOM      6  C   UNL     1     -21.399   7.099  20.352  1.00  0.00    -0.003 C 
ATOM      7  C   UNL     1     -21.262   5.688  19.787  1.00  0.00     0.004 C 
ENDBRANCH   5   6
ENDBRANCH   1   5
TORSDOF 3
ENDMDL
MODEL 5
REMARK VINA RESULT:    -2.763      2.465      4.070
REMARK INTER + INTRA:          -3.270
REMARK INTER:                  -3.189
REMARK INTRA:                  -0.081
REMARK UNBOUND:                -0.022
REMARK SMILES CCCCC(=O)[O-]
REMARK SMILES IDX 4 1 5 2 6 3 7 4 3 5 2 6 1 7
REMARK H PARENT
REMARK Flexibility Score: inf
ROOT
ATOM      1  C   UNL     1     -22.340   5.470  22.587  1.00  0.00     0.053 C 
ENDROOT
BRANCH   1   2
ATOM      2  C   UNL     1     -23.365   6.545  22.414  1.00  0.00     0.041 C 
ATOM      3  O   UNL     1     -24.538   6.377  22.838  1.00  0.00    -0.550 OA
ATOM      4  O   UNL     1     -23.038   7.715  21.739  1.00  0.00    -0.550 OA
ENDBRANCH   1   2
BRANCH   1   5
ATOM      5  C   UNL     1     -22.074   4.762  21.255  1.00  0.00     0.006 C 
BRANCH   5   6
ATOM      6  C   UNL     1     -20.855   5.363  20.547  1.00  0.00    -0.003 C 
ATOM      7  C   UNL     1     -21.240   5.958  19.196  1.00  0.00     0.004 C 
ENDBRANCH   5   6
ENDBRANCH   1   5
TORSDOF 3
ENDMDL
MODEL 6
REMARK VINA RESULT:    -2.739      2.430      4.139
REMARK INTER + INTRA:          -3.241
REMARK INTER:                  -3.214
REMARK INTRA:                  -0.027
REMARK UNBOUND:                -0.022
REMARK SMILES CCCCC(=O)[O-]
REMARK SMILES IDX 4 1 5 2 6 3 7 4 3 5 2 6 1 7
REMARK H PARENT
REMARK Flexibility Score: inf
ROOT
ATOM      1  C   UNL     1     -23.152   5.536  22.615  1.00  0.00     0.053 C 
ENDROOT
BRANCH   1   2
ATOM      2  C   UNL     1     -24.193   5.084  23.589  1.00  0.00     0.041 C 
ATOM      3  O   UNL     1     -25.125   5.860  23.929  1.00  0.00    -0.550 OA
ATOM      4  O   UNL     1     -24.108   3.820  24.161  1.00  0.00    -0.550 OA
ENDBRANCH   1   2
BRANCH   1   5
ATOM      5  C   UNL     1     -23.413   6.983  22.186  1.00  0.00     0.006 C 
BRANCH   5   6
ATOM      6  C   UNL     1     -22.099   7.708  21.873  1.00  0.00    -0.003 C 
ATOM      7  C   UNL     1     -21.982   8.019  20.384  1.00  0.00     0.004 C 
ENDBRANCH   5   6
ENDBRANCH   1   5
TORSDOF 3
ENDMDL
MODEL 7
REMARK VINA RESULT:    -2.612      2.834      3.943
REMARK INTER + INTRA:          -3.092
REMARK INTER:                  -3.049
REMARK INTRA:                  -0.043
REMARK UNBOUND:                -0.022
REMARK SMILES CCCCC(=O)[O-]
REMARK SMILES IDX 4 1 5 2 6 3 7 4 3 5 2 6 1 7
REMARK H PARENT
REMARK Flexibility Score: inf
ROOT
ATOM      1  C   UNL     1     -22.507   5.278  21.763  1.00  0.00     0.053 C 
ENDROOT
BRANCH   1   2
ATOM      2  C   UNL     1     -23.279   6.534  22.016  1.00  0.00     0.041 C 
ATOM      3  O   UNL     1     -22.867   7.634  21.563  1.00  0.00    -0.550 OA
ATOM      4  O   UNL     1     -24.430   6.497  22.793  1.00  0.00    -0.550 OA
ENDBRANCH   1   2
BRANCH   1   5
ATOM      5  C   UNL     1     -21.734   5.380  20.444  1.00  0.00     0.006 C 
BRANCH   5   6
ATOM      6  C   UNL     1     -20.309   4.840  20.600  1.00  0.00    -0.003 C 
ATOM      7  C   UNL     1     -20.316   3.398  21.099  1.00  0.00     0.004 C 
ENDBRANCH   5   6
ENDBRANCH   1   5
TORSDOF 3
ENDMDL
MODEL 8
REMARK VINA RESULT:    -2.450     25.089     25.934
REMARK INTER + INTRA:          -2.902
REMARK INTER:                  -2.830
REMARK INTRA:                  -0.072
REMARK UNBOUND:                -0.022
REMARK SMILES CCCCC(=O)[O-]
REMARK SMILES IDX 4 1 5 2 6 3 7 4 3 5 2 6 1 7
REMARK H PARENT
REMARK Flexibility Score: inf
ROOT
ATOM      1  C   UNL     1      -4.983  -9.109  32.413  1.00  0.00     0.053 C 
ENDROOT
BRANCH   1   2
ATOM      2  C   UNL     1      -5.556  -8.773  33.753  1.00  0.00     0.041 C 
ATOM      3  O   UNL     1      -6.631  -8.124  33.839  1.00  0.00    -0.550 OA
ATOM      4  O   UNL     1      -4.876  -9.136  34.910  1.00  0.00    -0.550 OA
ENDBRANCH   1   2
BRANCH   1   5
ATOM      5  C   UNL     1      -4.893 -10.627  32.233  1.00  0.00     0.006 C 
BRANCH   5   6
ATOM      6  C   UNL     1      -6.055 -11.150  31.382  1.00  0.00    -0.003 C 
ATOM      7  C   UNL     1      -6.662 -10.035  30.535  1.00  0.00     0.004 C 
ENDBRANCH   5   6
ENDBRANCH   1   5
TORSDOF 3
ENDMDL
