MODEL 1
REMARK VINA RESULT:    -6.026      0.000      0.000
REMARK INTER + INTRA:         -10.944
REMARK INTER:                  -9.197
REMARK INTRA:                  -1.747
REMARK UNBOUND:                -1.747
REMARK SMILES CC(=O)CCC=C(C)CCC=C(C)CCC=C(C)C
REMARK SMILES IDX 10 1 11 2 12 3 13 4 14 5 15 6 16 7 18 8 17 9 19 10 9 11 7 12
REMARK SMILES IDX 6 13 8 14 5 15 4 16 2 17 3 18 1 19
REMARK H PARENT
REMARK Flexibility Score: inf
ROOT
ATOM      1  C   UNL     1     -10.144 -15.129  30.523  1.00  0.00     0.032 C 
ENDROOT
BRANCH   1   2
ATOM      2  C   UNL     1     -10.228 -16.049  29.331  1.00  0.00    -0.028 C 
ATOM      3  C   UNL     1     -11.297 -16.131  28.507  1.00  0.00    -0.077 C 
ATOM      4  C   UNL     1     -12.498 -15.226  28.665  1.00  0.00     0.039 C 
BRANCH   3   5
ATOM      5  C   UNL     1     -11.289 -17.154  27.389  1.00  0.00     0.034 C 
BRANCH   5   6
ATOM      6  C   UNL     1     -12.410 -18.191  27.555  1.00  0.00     0.032 C 
BRANCH   6   7
ATOM      7  C   UNL     1     -12.332 -18.894  28.890  1.00  0.00    -0.028 C 
ATOM      8  C   UNL     1     -14.236 -20.440  28.382  1.00  0.00     0.039 C 
ATOM      9  C   UNL     1     -13.163 -19.883  29.287  1.00  0.00    -0.080 C 
ATOM     10  C   UNL     1     -12.991 -20.450  30.673  1.00  0.00     0.039 C 
ENDBRANCH   6   7
ENDBRANCH   5   6
ENDBRANCH   3   5
ENDBRANCH   1   2
BRANCH   1  11
ATOM     11  C   UNL     1      -9.945 -15.935  31.812  1.00  0.00     0.034 C 
BRANCH  11  12
ATOM     12  C   UNL     1     -11.077 -16.921  32.007  1.00  0.00    -0.077 C 
ATOM     13  C   UNL     1     -12.350 -16.465  32.007  1.00  0.00    -0.028 C 
ATOM     14  C   UNL     1     -10.754 -18.388  32.174  1.00  0.00     0.039 C 
BRANCH  13  15
ATOM     15  C   UNL     1     -13.566 -17.327  32.238  1.00  0.00     0.035 C 
BRANCH  15  16
ATOM     16  C   UNL     1     -14.665 -16.527  32.954  1.00  0.00     0.079 C 
BRANCH  16  17
ATOM     17  C   UNL     1     -14.615 -15.036  32.702  1.00  0.00     0.130 C 
ATOM     18  O   UNL     1     -14.286 -14.304  33.624  1.00  0.00    -0.300 OA
ATOM     19  C   UNL     1     -14.955 -14.417  31.375  1.00  0.00     0.087 C 
ENDBRANCH  16  17
ENDBRANCH  15  16
ENDBRANCH  13  15
ENDBRANCH  11  12
ENDBRANCH   1  11
TORSDOF 9
ENDMDL
MODEL 2
REMARK VINA RESULT:    -5.971      1.196      3.258
REMARK INTER + INTRA:         -10.860
REMARK INTER:                  -9.617
REMARK INTRA:                  -1.243
REMARK UNBOUND:                -1.747
REMARK SMILES CC(=O)CCC=C(C)CCC=C(C)CCC=C(C)C
REMARK SMILES IDX 10 1 11 2 12 3 13 4 14 5 15 6 16 7 18 8 17 9 19 10 9 11 7 12
REMARK SMILES IDX 6 13 8 14 5 15 4 16 2 17 3 18 1 19
REMARK H PARENT
REMARK Flexibility Score: inf
ROOT
ATOM      1  C   UNL     1     -10.297 -18.425  31.713  1.00  0.00     0.032 C 
ENDROOT
BRANCH   1   2
ATOM      2  C   UNL     1     -11.120 -18.799  30.507  1.00  0.00    -0.028 C 
ATOM      3  C   UNL     1     -12.236 -19.563  30.554  1.00  0.00    -0.077 C 
ATOM      4  C   UNL     1     -12.813 -20.052  31.862  1.00  0.00     0.039 C 
BRANCH   3   5
ATOM      5  C   UNL     1     -12.929 -19.935  29.259  1.00  0.00     0.034 C 
BRANCH   5   6
ATOM      6  C   UNL     1     -13.382 -18.693  28.476  1.00  0.00     0.032 C 
BRANCH   6   7
ATOM      7  C   UNL     1     -12.352 -18.264  27.457  1.00  0.00    -0.028 C 
ATOM      8  C   UNL     1     -13.637 -16.231  26.759  1.00  0.00     0.039 C 
ATOM      9  C   UNL     1     -12.467 -17.180  26.658  1.00  0.00    -0.080 C 
ATOM     10  C   UNL     1     -11.377 -16.912  25.654  1.00  0.00     0.039 C 
ENDBRANCH   6   7
ENDBRANCH   5   6
ENDBRANCH   3   5
ENDBRANCH   1   2
BRANCH   1  11
ATOM     11  C   UNL     1     -10.443 -16.931  32.022  1.00  0.00     0.034 C 
BRANCH  11  12
ATOM     12  C   UNL     1     -11.435 -16.283  31.080  1.00  0.00    -0.077 C 
ATOM     13  C   UNL     1     -12.722 -16.151  31.474  1.00  0.00    -0.028 C 
ATOM     14  C   UNL     1     -10.957 -15.783  29.737  1.00  0.00     0.039 C 
BRANCH  13  15
ATOM     15  C   UNL     1     -13.822 -15.571  30.620  1.00  0.00     0.035 C 
BRANCH  15  16
ATOM     16  C   UNL     1     -14.616 -14.518  31.407  1.00  0.00     0.079 C 
BRANCH  16  17
ATOM     17  C   UNL     1     -14.906 -14.898  32.843  1.00  0.00     0.130 C 
ATOM     18  O   UNL     1     -14.295 -14.319  33.729  1.00  0.00    -0.300 OA
ATOM     19  C   UNL     1     -15.904 -15.955  33.225  1.00  0.00     0.087 C 
ENDBRANCH  16  17
ENDBRANCH  15  16
ENDBRANCH  13  15
ENDBRANCH  11  12
ENDBRANCH   1  11
TORSDOF 9
ENDMDL
MODEL 3
REMARK VINA RESULT:    -5.837      2.813      4.275
REMARK INTER + INTRA:         -10.655
REMARK INTER:                  -9.107
REMARK INTRA:                  -1.548
REMARK UNBOUND:                -1.747
REMARK SMILES CC(=O)CCC=C(C)CCC=C(C)CCC=C(C)C
REMARK SMILES IDX 10 1 11 2 12 3 13 4 14 5 15 6 16 7 18 8 17 9 19 10 9 11 7 12
REMARK SMILES IDX 6 13 8 14 5 15 4 16 2 17 3 18 1 19
REMARK H PARENT
REMARK Flexibility Score: inf
ROOT
ATOM      1  C   UNL     1     -10.556 -18.328  31.982  1.00  0.00     0.032 C 
ENDROOT
BRANCH   1   2
ATOM      2  C   UNL     1     -11.173 -18.687  30.655  1.00  0.00    -0.028 C 
ATOM      3  C   UNL     1     -12.451 -19.101  30.496  1.00  0.00    -0.077 C 
ATOM      4  C   UNL     1     -13.419 -19.162  31.654  1.00  0.00     0.039 C 
BRANCH   3   5
ATOM      5  C   UNL     1     -12.927 -19.508  29.116  1.00  0.00     0.034 C 
BRANCH   5   6
ATOM      6  C   UNL     1     -12.463 -18.521  28.035  1.00  0.00     0.032 C 
BRANCH   6   7
ATOM      7  C   UNL     1     -13.223 -17.217  28.101  1.00  0.00    -0.028 C 
ATOM      8  C   UNL     1     -11.196 -15.864  28.678  1.00  0.00     0.039 C 
ATOM      9  C   UNL     1     -12.675 -16.023  28.418  1.00  0.00    -0.080 C 
ATOM     10  C   UNL     1     -13.577 -14.818  28.493  1.00  0.00     0.039 C 
ENDBRANCH   6   7
ENDBRANCH   5   6
ENDBRANCH   3   5
ENDBRANCH   1   2
BRANCH   1  11
ATOM     11  C   UNL     1     -10.029 -16.889  31.960  1.00  0.00     0.034 C 
BRANCH  11  12
ATOM     12  C   UNL     1     -10.928 -15.976  32.765  1.00  0.00    -0.077 C 
ATOM     13  C   UNL     1     -10.399 -15.278  33.796  1.00  0.00    -0.028 C 
ATOM     14  C   UNL     1     -12.385 -15.852  32.382  1.00  0.00     0.039 C 
BRANCH  13  15
ATOM     15  C   UNL     1     -11.187 -14.373  34.709  1.00  0.00     0.035 C 
BRANCH  15  16
ATOM     16  C   UNL     1     -10.255 -13.675  35.710  1.00  0.00     0.079 C 
BRANCH  16  17
ATOM     17  C   UNL     1     -10.649 -12.252  36.043  1.00  0.00     0.130 C 
ATOM     18  O   UNL     1      -9.875 -11.354  35.748  1.00  0.00    -0.300 OA
ATOM     19  C   UNL     1     -11.943 -11.897  36.721  1.00  0.00     0.087 C 
ENDBRANCH  16  17
ENDBRANCH  15  16
ENDBRANCH  13  15
ENDBRANCH  11  12
ENDBRANCH   1  11
TORSDOF 9
ENDMDL
MODEL 4
REMARK VINA RESULT:    -5.830      2.170      4.511
REMARK INTER + INTRA:         -10.644
REMARK INTER:                  -9.314
REMARK INTRA:                  -1.329
REMARK UNBOUND:                -1.747
REMARK SMILES CC(=O)CCC=C(C)CCC=C(C)CCC=C(C)C
REMARK SMILES IDX 10 1 11 2 12 3 13 4 14 5 15 6 16 7 18 8 17 9 19 10 9 11 7 12
REMARK SMILES IDX 6 13 8 14 5 15 4 16 2 17 3 18 1 19
REMARK H PARENT
REMARK Flexibility Score: inf
ROOT
ATOM      1  C   UNL     1     -15.343 -14.366  31.933  1.00  0.00     0.032 C 
ENDROOT
BRANCH   1   2
ATOM      2  C   UNL     1     -14.599 -14.538  30.633  1.00  0.00    -0.028 C 
ATOM      3  C   UNL     1     -14.969 -13.969  29.463  1.00  0.00    -0.077 C 
ATOM      4  C   UNL     1     -16.143 -13.023  29.372  1.00  0.00     0.039 C 
BRANCH   3   5
ATOM      5  C   UNL     1     -14.180 -14.286  28.208  1.00  0.00     0.034 C 
BRANCH   5   6
ATOM      6  C   UNL     1     -12.971 -15.186  28.504  1.00  0.00     0.032 C 
BRANCH   6   7
ATOM      7  C   UNL     1     -12.629 -16.071  27.328  1.00  0.00    -0.028 C 
ATOM      8  C   UNL     1     -10.513 -16.923  28.363  1.00  0.00     0.039 C 
ATOM      9  C   UNL     1     -11.515 -16.831  27.237  1.00  0.00    -0.080 C 
ATOM     10  C   UNL     1     -11.288 -17.620  25.974  1.00  0.00     0.039 C 
ENDBRANCH   6   7
ENDBRANCH   5   6
ENDBRANCH   3   5
ENDBRANCH   1   2
BRANCH   1  11
ATOM     11  C   UNL     1     -14.451 -14.751  33.119  1.00  0.00     0.034 C 
BRANCH  11  12
ATOM     12  C   UNL     1     -13.507 -15.870  32.738  1.00  0.00    -0.077 C 
ATOM     13  C   UNL     1     -14.022 -17.050  32.322  1.00  0.00    -0.028 C 
ATOM     14  C   UNL     1     -12.016 -15.632  32.810  1.00  0.00     0.039 C 
BRANCH  13  15
ATOM     15  C   UNL     1     -13.199 -18.261  31.960  1.00  0.00     0.035 C 
BRANCH  15  16
ATOM     16  C   UNL     1     -13.018 -18.353  30.438  1.00  0.00     0.079 C 
BRANCH  16  17
ATOM     17  C   UNL     1     -13.185 -19.746  29.872  1.00  0.00     0.130 C 
ATOM     18  O   UNL     1     -12.749 -20.688  30.516  1.00  0.00    -0.300 OA
ATOM     19  C   UNL     1     -13.857 -20.020  28.555  1.00  0.00     0.087 C 
ENDBRANCH  16  17
ENDBRANCH  15  16
ENDBRANCH  13  15
ENDBRANCH  11  12
ENDBRANCH   1  11
TORSDOF 9
ENDMDL
MODEL 5
REMARK VINA RESULT:    -5.789      2.108      4.169
REMARK INTER + INTRA:         -10.581
REMARK INTER:                  -9.395
REMARK INTRA:                  -1.187
REMARK UNBOUND:                -1.747
REMARK SMILES CC(=O)CCC=C(C)CCC=C(C)CCC=C(C)C
REMARK SMILES IDX 10 1 11 2 12 3 13 4 14 5 15 6 16 7 18 8 17 9 19 10 9 11 7 12
REMARK SMILES IDX 6 13 8 14 5 15 4 16 2 17 3 18 1 19
REMARK H PARENT
REMARK Flexibility Score: inf
ROOT
ATOM      1  C   UNL     1     -11.012 -16.060  32.772  1.00  0.00     0.032 C 
ENDROOT
BRANCH   1   2
ATOM      2  C   UNL     1     -11.679 -15.968  31.423  1.00  0.00    -0.028 C 
ATOM      3  C   UNL     1     -13.016 -16.050  31.228  1.00  0.00    -0.077 C 
ATOM      4  C   UNL     1     -13.985 -16.162  32.383  1.00  0.00     0.039 C 
BRANCH   3   5
ATOM      5  C   UNL     1     -13.557 -16.023  29.813  1.00  0.00     0.034 C 
BRANCH   5   6
ATOM      6  C   UNL     1     -12.682 -15.170  28.882  1.00  0.00     0.032 C 
BRANCH   6   7
ATOM      7  C   UNL     1     -11.836 -16.024  27.967  1.00  0.00    -0.028 C 
ATOM      8  C   UNL     1     -13.689 -16.408  26.326  1.00  0.00     0.039 C 
ATOM      9  C   UNL     1     -12.282 -16.611  26.835  1.00  0.00    -0.080 C 
ATOM     10  C   UNL     1     -11.328 -17.478  26.055  1.00  0.00     0.039 C 
ENDBRANCH   6   7
ENDBRANCH   5   6
ENDBRANCH   3   5
ENDBRANCH   1   2
BRANCH   1  11
ATOM     11  C   UNL     1     -10.099 -17.289  32.838  1.00  0.00     0.034 C 
BRANCH  11  12
ATOM     12  C   UNL     1     -10.586 -18.370  31.898  1.00  0.00    -0.077 C 
ATOM     13  C   UNL     1     -11.654 -19.119  32.258  1.00  0.00    -0.028 C 
ATOM     14  C   UNL     1      -9.884 -18.568  30.575  1.00  0.00     0.039 C 
BRANCH  13  15
ATOM     15  C   UNL     1     -12.213 -20.258  31.443  1.00  0.00     0.035 C 
BRANCH  15  16
ATOM     16  C   UNL     1     -13.421 -19.788  30.619  1.00  0.00     0.079 C 
BRANCH  16  17
ATOM     17  C   UNL     1     -13.226 -19.871  29.121  1.00  0.00     0.130 C 
ATOM     18  O   UNL     1     -12.234 -19.347  28.637  1.00  0.00    -0.300 OA
ATOM     19  C   UNL     1     -14.197 -20.564  28.206  1.00  0.00     0.087 C 
ENDBRANCH  16  17
ENDBRANCH  15  16
ENDBRANCH  13  15
ENDBRANCH  11  12
ENDBRANCH   1  11
TORSDOF 9
ENDMDL
MODEL 6
REMARK VINA RESULT:    -5.756      2.176      4.768
REMARK INTER + INTRA:         -10.532
REMARK INTER:                  -9.354
REMARK INTRA:                  -1.178
REMARK UNBOUND:                -1.747
REMARK SMILES CC(=O)CCC=C(C)CCC=C(C)CCC=C(C)C
REMARK SMILES IDX 10 1 11 2 12 3 13 4 14 5 15 6 16 7 18 8 17 9 19 10 9 11 7 12
REMARK SMILES IDX 6 13 8 14 5 15 4 16 2 17 3 18 1 19
REMARK H PARENT
REMARK Flexibility Score: inf
ROOT
ATOM      1  C   UNL     1     -13.155 -15.270  33.165  1.00  0.00     0.032 C 
ENDROOT
BRANCH   1   2
ATOM      2  C   UNL     1     -12.145 -16.158  32.483  1.00  0.00    -0.028 C 
ATOM      3  C   UNL     1     -10.819 -16.151  32.754  1.00  0.00    -0.077 C 
ATOM      4  C   UNL     1     -10.234 -15.288  33.848  1.00  0.00     0.039 C 
BRANCH   3   5
ATOM      5  C   UNL     1      -9.897 -17.037  31.943  1.00  0.00     0.034 C 
BRANCH   5   6
ATOM      6  C   UNL     1     -10.367 -18.500  31.937  1.00  0.00     0.032 C 
BRANCH   6   7
ATOM      7  C   UNL     1     -10.983 -18.887  30.613  1.00  0.00    -0.028 C 
ATOM      8  C   UNL     1     -13.241 -19.338  31.598  1.00  0.00     0.039 C 
ATOM      9  C   UNL     1     -12.261 -19.295  30.450  1.00  0.00    -0.080 C 
ATOM     10  C   UNL     1     -12.714 -19.698  29.071  1.00  0.00     0.039 C 
ENDBRANCH   6   7
ENDBRANCH   5   6
ENDBRANCH   3   5
ENDBRANCH   1   2
BRANCH   1  11
ATOM     11  C   UNL     1     -14.517 -15.372  32.470  1.00  0.00     0.034 C 
BRANCH  11  12
ATOM     12  C   UNL     1     -14.408 -14.972  31.015  1.00  0.00    -0.077 C 
ATOM     13  C   UNL     1     -13.537 -15.631  30.217  1.00  0.00    -0.028 C 
ATOM     14  C   UNL     1     -15.290 -13.864  30.487  1.00  0.00     0.039 C 
BRANCH  13  15
ATOM     15  C   UNL     1     -13.292 -15.305  28.765  1.00  0.00     0.035 C 
BRANCH  15  16
ATOM     16  C   UNL     1     -12.157 -16.174  28.203  1.00  0.00     0.079 C 
BRANCH  16  17
ATOM     17  C   UNL     1     -12.444 -16.773  26.844  1.00  0.00     0.130 C 
ATOM     18  O   UNL     1     -13.601 -16.792  26.453  1.00  0.00    -0.300 OA
ATOM     19  C   UNL     1     -11.373 -17.347  25.959  1.00  0.00     0.087 C 
ENDBRANCH  16  17
ENDBRANCH  15  16
ENDBRANCH  13  15
ENDBRANCH  11  12
ENDBRANCH   1  11
TORSDOF 9
ENDMDL
MODEL 7
REMARK VINA RESULT:    -5.747      2.116      5.160
REMARK INTER + INTRA:         -10.518
REMARK INTER:                  -8.508
REMARK INTRA:                  -2.010
REMARK UNBOUND:                -1.747
REMARK SMILES CC(=O)CCC=C(C)CCC=C(C)CCC=C(C)C
REMARK SMILES IDX 10 1 11 2 12 3 13 4 14 5 15 6 16 7 18 8 17 9 19 10 9 11 7 12
REMARK SMILES IDX 6 13 8 14 5 15 4 16 2 17 3 18 1 19
REMARK H PARENT
REMARK Flexibility Score: inf
ROOT
ATOM      1  C   UNL     1     -10.964 -16.259  32.630  1.00  0.00     0.032 C 
ENDROOT
BRANCH   1   2
ATOM      2  C   UNL     1     -12.360 -15.702  32.751  1.00  0.00    -0.028 C 
ATOM      3  C   UNL     1     -13.483 -16.390  32.442  1.00  0.00    -0.077 C 
ATOM      4  C   UNL     1     -13.440 -17.839  32.016  1.00  0.00     0.039 C 
BRANCH   3   5
ATOM      5  C   UNL     1     -14.824 -15.689  32.531  1.00  0.00     0.034 C 
BRANCH   5   6
ATOM      6  C   UNL     1     -14.857 -14.408  31.684  1.00  0.00     0.032 C 
BRANCH   6   7
ATOM      7  C   UNL     1     -14.397 -14.659  30.267  1.00  0.00    -0.028 C 
ATOM      8  C   UNL     1     -15.909 -12.921  29.284  1.00  0.00     0.039 C 
ATOM      9  C   UNL     1     -14.882 -14.022  29.178  1.00  0.00    -0.080 C 
ATOM     10  C   UNL     1     -14.357 -14.421  27.823  1.00  0.00     0.039 C 
ENDBRANCH   6   7
ENDBRANCH   5   6
ENDBRANCH   3   5
ENDBRANCH   1   2
BRANCH   1  11
ATOM     11  C   UNL     1     -10.317 -15.810  31.315  1.00  0.00     0.034 C 
BRANCH  11  12
ATOM     12  C   UNL     1     -10.590 -16.811  30.214  1.00  0.00    -0.077 C 
ATOM     13  C   UNL     1     -11.452 -16.480  29.225  1.00  0.00    -0.028 C 
ATOM     14  C   UNL     1      -9.875 -18.143  30.235  1.00  0.00     0.039 C 
BRANCH  13  15
ATOM     15  C   UNL     1     -11.851 -17.397  28.096  1.00  0.00     0.035 C 
BRANCH  15  16
ATOM     16  C   UNL     1     -13.261 -17.960  28.333  1.00  0.00     0.079 C 
BRANCH  16  17
ATOM     17  C   UNL     1     -13.294 -19.428  28.695  1.00  0.00     0.130 C 
ATOM     18  O   UNL     1     -12.403 -19.869  29.406  1.00  0.00    -0.300 OA
ATOM     19  C   UNL     1     -14.367 -20.366  28.217  1.00  0.00     0.087 C 
ENDBRANCH  16  17
ENDBRANCH  15  16
ENDBRANCH  13  15
ENDBRANCH  11  12
ENDBRANCH   1  11
TORSDOF 9
ENDMDL
MODEL 8
REMARK VINA RESULT:    -5.639      3.479      6.767
REMARK INTER + INTRA:         -10.353
REMARK INTER:                  -9.334
REMARK INTRA:                  -1.019
REMARK UNBOUND:                -1.747
REMARK SMILES CC(=O)CCC=C(C)CCC=C(C)CCC=C(C)C
REMARK SMILES IDX 10 1 11 2 12 3 13 4 14 5 15 6 16 7 18 8 17 9 19 10 9 11 7 12
REMARK SMILES IDX 6 13 8 14 5 15 4 16 2 17 3 18 1 19
REMARK H PARENT
REMARK Flexibility Score: inf
ROOT
ATOM      1  C   UNL     1     -13.093 -16.115  31.990  1.00  0.00     0.032 C 
ENDROOT
BRANCH   1   2
ATOM      2  C   UNL     1     -12.105 -15.764  33.073  1.00  0.00    -0.028 C 
ATOM      3  C   UNL     1     -10.761 -15.823  32.926  1.00  0.00    -0.077 C 
ATOM      4  C   UNL     1     -10.119 -16.178  31.605  1.00  0.00     0.039 C 
BRANCH   3   5
ATOM      5  C   UNL     1      -9.876 -15.520  34.117  1.00  0.00     0.034 C 
BRANCH   5   6
ATOM      6  C   UNL     1      -9.959 -14.043  34.531  1.00  0.00     0.032 C 
BRANCH   6   7
ATOM      7  C   UNL     1     -11.093 -13.792  35.497  1.00  0.00    -0.028 C 
ATOM      8  C   UNL     1     -10.593 -11.349  35.721  1.00  0.00     0.039 C 
ATOM      9  C   UNL     1     -11.371 -12.597  36.063  1.00  0.00    -0.080 C 
ATOM     10  C   UNL     1     -12.506 -12.519  37.050  1.00  0.00     0.039 C 
ENDBRANCH   6   7
ENDBRANCH   5   6
ENDBRANCH   3   5
ENDBRANCH   1   2
BRANCH   1  11
ATOM     11  C   UNL     1     -13.575 -17.562  32.150  1.00  0.00     0.034 C 
BRANCH  11  12
ATOM     12  C   UNL     1     -13.083 -18.420  31.005  1.00  0.00    -0.077 C 
ATOM     13  C   UNL     1     -12.869 -17.844  29.799  1.00  0.00    -0.028 C 
ATOM     14  C   UNL     1     -12.824 -19.889  31.244  1.00  0.00     0.039 C 
BRANCH  13  15
ATOM     15  C   UNL     1     -12.428 -18.587  28.563  1.00  0.00     0.035 C 
BRANCH  15  16
ATOM     16  C   UNL     1     -11.456 -17.731  27.739  1.00  0.00     0.079 C 
BRANCH  16  17
ATOM     17  C   UNL     1     -12.058 -17.134  26.486  1.00  0.00     0.130 C 
ATOM     18  O   UNL     1     -11.362 -17.072  25.483  1.00  0.00    -0.300 OA
ATOM     19  C   UNL     1     -13.465 -16.611  26.422  1.00  0.00     0.087 C 
ENDBRANCH  16  17
ENDBRANCH  15  16
ENDBRANCH  13  15
ENDBRANCH  11  12
ENDBRANCH   1  11
TORSDOF 9
ENDMDL
MODEL 9
REMARK VINA RESULT:    -5.570      2.495      3.233
REMARK INTER + INTRA:         -10.247
REMARK INTER:                  -8.743
REMARK INTRA:                  -1.504
REMARK UNBOUND:                -1.747
REMARK SMILES CC(=O)CCC=C(C)CCC=C(C)CCC=C(C)C
REMARK SMILES IDX 10 1 11 2 12 3 13 4 14 5 15 6 16 7 18 8 17 9 19 10 9 11 7 12
REMARK SMILES IDX 6 13 8 14 5 15 4 16 2 17 3 18 1 19
REMARK H PARENT
REMARK Flexibility Score: inf
ROOT
ATOM      1  C   UNL     1     -13.483 -15.496  31.237  1.00  0.00     0.032 C 
ENDROOT
BRANCH   1   2
ATOM      2  C   UNL     1     -13.502 -16.117  29.864  1.00  0.00    -0.028 C 
ATOM      3  C   UNL     1     -12.466 -16.075  28.995  1.00  0.00    -0.077 C 
ATOM      4  C   UNL     1     -11.138 -15.457  29.367  1.00  0.00     0.039 C 
BRANCH   3   5
ATOM      5  C   UNL     1     -12.640 -16.669  27.612  1.00  0.00     0.034 C 
BRANCH   5   6
ATOM      6  C   UNL     1     -12.112 -18.110  27.538  1.00  0.00     0.032 C 
BRANCH   6   7
ATOM      7  C   UNL     1     -12.030 -18.750  28.904  1.00  0.00    -0.028 C 
ATOM      8  C   UNL     1     -14.119 -20.094  28.592  1.00  0.00     0.039 C 
ATOM      9  C   UNL     1     -12.938 -19.617  29.403  1.00  0.00    -0.080 C 
ATOM     10  C   UNL     1     -12.743 -20.130  30.806  1.00  0.00     0.039 C 
ENDBRANCH   6   7
ENDBRANCH   5   6
ENDBRANCH   3   5
ENDBRANCH   1   2
BRANCH   1  11
ATOM     11  C   UNL     1     -13.092 -16.537  32.293  1.00  0.00     0.034 C 
BRANCH  11  12
ATOM     12  C   UNL     1     -11.666 -16.326  32.752  1.00  0.00    -0.077 C 
ATOM     13  C   UNL     1     -11.364 -15.217  33.465  1.00  0.00    -0.028 C 
ATOM     14  C   UNL     1     -10.624 -17.369  32.421  1.00  0.00     0.039 C 
BRANCH  13  15
ATOM     15  C   UNL     1      -9.979 -14.858  33.942  1.00  0.00     0.035 C 
BRANCH  15  16
ATOM     16  C   UNL     1     -10.019 -14.380  35.401  1.00  0.00     0.079 C 
BRANCH  16  17
ATOM     17  C   UNL     1     -10.456 -12.942  35.575  1.00  0.00     0.130 C 
ATOM     18  O   UNL     1      -9.875 -12.079  34.934  1.00  0.00    -0.300 OA
ATOM     19  C   UNL     1     -11.565 -12.530  36.502  1.00  0.00     0.087 C 
ENDBRANCH  16  17
ENDBRANCH  15  16
ENDBRANCH  13  15
ENDBRANCH  11  12
ENDBRANCH   1  11
TORSDOF 9
ENDMDL
