MODEL 1
REMARK VINA RESULT:    -3.904      0.000      0.000
REMARK INTER + INTRA:          -4.348
REMARK INTER:                  -4.132
REMARK INTRA:                  -0.216
REMARK UNBOUND:                -0.216
REMARK SMILES C=C(C)[C@@H]1CC=C(C)C(=O)C1
REMARK SMILES IDX 8 1 7 2 6 3 5 4 4 5 11 6 9 7 10 8 2 9 1 10 3 11
REMARK H PARENT
REMARK Flexibility Score: inf
ROOT
ATOM      1  C   UNL     1       9.467 -32.894  13.499  1.00  0.00     0.048 C 
ATOM      2  C   UNL     1       8.240 -33.112  14.342  1.00  0.00    -0.012 C 
ATOM      3  C   UNL     1       7.209 -33.814  13.848  1.00  0.00    -0.019 C 
ATOM      4  C   UNL     1       5.940 -34.042  14.623  1.00  0.00     0.036 C 
ATOM      5  C   UNL     1       6.148 -34.070  16.152  1.00  0.00     0.025 C 
ATOM      6  C   UNL     1       7.031 -32.900  16.632  1.00  0.00     0.089 C 
ATOM      7  C   UNL     1       8.237 -32.683  15.760  1.00  0.00     0.158 C 
ATOM      8  O   UNL     1       9.240 -32.095  16.244  1.00  0.00    -0.295 OA
ENDROOT
BRANCH   5   9
ATOM      9  C   UNL     1       6.627 -35.430  16.662  1.00  0.00    -0.077 C 
ATOM     10  C   UNL     1       7.450 -35.552  17.717  1.00  0.00     0.008 C 
ATOM     11  C   UNL     1       6.173 -36.692  15.971  1.00  0.00     0.039 C 
ENDBRANCH   5   9
TORSDOF 1
ENDMDL
MODEL 2
REMARK VINA RESULT:    -3.433      1.645      2.179
REMARK INTER + INTRA:          -3.850
REMARK INTER:                  -3.682
REMARK INTRA:                  -0.168
REMARK UNBOUND:                -0.216
REMARK SMILES C=C(C)[C@@H]1CC=C(C)C(=O)C1
REMARK SMILES IDX 8 1 7 2 6 3 5 4 4 5 11 6 9 7 10 8 2 9 1 10 3 11
REMARK H PARENT
REMARK Flexibility Score: inf
ROOT
ATOM      1  C   UNL     1      10.481 -35.278  13.627  1.00  0.00     0.048 C 
ATOM      2  C   UNL     1       9.156 -34.832  14.180  1.00  0.00    -0.012 C 
ATOM      3  C   UNL     1       8.233 -35.746  14.516  1.00  0.00    -0.019 C 
ATOM      4  C   UNL     1       6.875 -35.369  15.044  1.00  0.00     0.036 C 
ATOM      5  C   UNL     1       6.864 -34.035  15.818  1.00  0.00     0.025 C 
ATOM      6  C   UNL     1       7.625 -32.926  15.061  1.00  0.00     0.089 C 
ATOM      7  C   UNL     1       8.934 -33.401  14.494  1.00  0.00     0.158 C 
ATOM      8  O   UNL     1       9.836 -32.555  14.253  1.00  0.00    -0.295 OA
ENDROOT
BRANCH   5   9
ATOM      9  C   UNL     1       7.315 -34.187  17.271  1.00  0.00    -0.077 C 
ATOM     10  C   UNL     1       7.393 -35.384  17.878  1.00  0.00     0.008 C 
ATOM     11  C   UNL     1       7.690 -32.964  18.072  1.00  0.00     0.039 C 
ENDBRANCH   5   9
TORSDOF 1
ENDMDL
MODEL 3
REMARK VINA RESULT:    -3.368      1.997      3.550
REMARK INTER + INTRA:          -3.781
REMARK INTER:                  -3.564
REMARK INTRA:                  -0.217
REMARK UNBOUND:                -0.216
REMARK SMILES C=C(C)[C@@H]1CC=C(C)C(=O)C1
REMARK SMILES IDX 8 1 7 2 6 3 5 4 4 5 11 6 9 7 10 8 2 9 1 10 3 11
REMARK H PARENT
REMARK Flexibility Score: inf
ROOT
ATOM      1  C   UNL     1       8.034 -32.533  17.732  1.00  0.00     0.048 C 
ATOM      2  C   UNL     1       8.088 -32.745  16.244  1.00  0.00    -0.012 C 
ATOM      3  C   UNL     1       9.225 -32.493  15.576  1.00  0.00    -0.019 C 
ATOM      4  C   UNL     1       9.339 -32.651  14.084  1.00  0.00     0.036 C 
ATOM      5  C   UNL     1       8.404 -33.734  13.506  1.00  0.00     0.025 C 
ATOM      6  C   UNL     1       6.971 -33.611  14.064  1.00  0.00     0.089 C 
ATOM      7  C   UNL     1       6.941 -33.374  15.548  1.00  0.00     0.158 C 
ATOM      8  O   UNL     1       5.904 -33.685  16.193  1.00  0.00    -0.295 OA
ENDROOT
BRANCH   5   9
ATOM      9  C   UNL     1       8.978 -35.146  13.635  1.00  0.00    -0.077 C 
ATOM     10  C   UNL     1       8.198 -36.223  13.828  1.00  0.00     0.008 C 
ATOM     11  C   UNL     1      10.468 -35.361  13.547  1.00  0.00     0.039 C 
ENDBRANCH   5   9
TORSDOF 1
ENDMDL
MODEL 4
REMARK VINA RESULT:    -3.274      1.933      3.599
REMARK INTER + INTRA:          -3.681
REMARK INTER:                  -3.727
REMARK INTRA:                   0.046
REMARK UNBOUND:                -0.216
REMARK SMILES C=C(C)[C@@H]1CC=C(C)C(=O)C1
REMARK SMILES IDX 8 1 7 2 6 3 5 4 4 5 11 6 9 7 10 8 2 9 1 10 3 11
REMARK H PARENT
REMARK Flexibility Score: inf
ROOT
ATOM      1  C   UNL     1       7.685 -36.200  14.469  1.00  0.00     0.048 C 
ATOM      2  C   UNL     1       7.353 -35.208  15.550  1.00  0.00    -0.012 C 
ATOM      3  C   UNL     1       7.723 -35.456  16.816  1.00  0.00    -0.019 C 
ATOM      4  C   UNL     1       7.396 -34.524  17.951  1.00  0.00     0.036 C 
ATOM      5  C   UNL     1       7.283 -33.046  17.523  1.00  0.00     0.025 C 
ATOM      6  C   UNL     1       6.429 -32.883  16.248  1.00  0.00     0.089 C 
ATOM      7  C   UNL     1       6.759 -33.899  15.191  1.00  0.00     0.158 C 
ATOM      8  O   UNL     1       6.488 -33.638  13.989  1.00  0.00    -0.295 OA
ENDROOT
BRANCH   5   9
ATOM      9  C   UNL     1       8.641 -32.349  17.428  1.00  0.00    -0.077 C 
ATOM     10  C   UNL     1       9.297 -32.211  16.263  1.00  0.00     0.008 C 
ATOM     11  C   UNL     1       9.285 -31.791  18.673  1.00  0.00     0.039 C 
ENDBRANCH   5   9
TORSDOF 1
ENDMDL
MODEL 5
REMARK VINA RESULT:    -3.271      1.863      3.762
REMARK INTER + INTRA:          -3.678
REMARK INTER:                  -3.545
REMARK INTRA:                  -0.133
REMARK UNBOUND:                -0.216
REMARK SMILES C=C(C)[C@@H]1CC=C(C)C(=O)C1
REMARK SMILES IDX 8 1 7 2 6 3 5 4 4 5 11 6 9 7 10 8 2 9 1 10 3 11
REMARK H PARENT
REMARK Flexibility Score: inf
ROOT
ATOM      1  C   UNL     1       7.401 -33.034  18.308  1.00  0.00     0.048 C 
ATOM      2  C   UNL     1       7.380 -33.573  16.904  1.00  0.00    -0.012 C 
ATOM      3  C   UNL     1       7.288 -32.726  15.867  1.00  0.00    -0.019 C 
ATOM      4  C   UNL     1       7.228 -33.198  14.440  1.00  0.00     0.036 C 
ATOM      5  C   UNL     1       7.964 -34.533  14.201  1.00  0.00     0.025 C 
ATOM      6  C   UNL     1       7.610 -35.583  15.274  1.00  0.00     0.089 C 
ATOM      7  C   UNL     1       7.612 -35.017  16.667  1.00  0.00     0.158 C 
ATOM      8  O   UNL     1       7.779 -35.798  17.641  1.00  0.00    -0.295 OA
ENDROOT
BRANCH   5   9
ATOM      9  C   UNL     1       9.471 -34.355  14.011  1.00  0.00    -0.077 C 
ATOM     10  C   UNL     1      10.316 -35.399  13.957  1.00  0.00     0.008 C 
ATOM     11  C   UNL     1      10.052 -32.970  13.877  1.00  0.00     0.039 C 
ENDBRANCH   5   9
TORSDOF 1
ENDMDL
MODEL 6
REMARK VINA RESULT:    -3.263      1.441      2.210
REMARK INTER + INTRA:          -3.669
REMARK INTER:                  -3.452
REMARK INTRA:                  -0.217
REMARK UNBOUND:                -0.216
REMARK SMILES C=C(C)[C@@H]1CC=C(C)C(=O)C1
REMARK SMILES IDX 8 1 7 2 6 3 5 4 4 5 11 6 9 7 10 8 2 9 1 10 3 11
REMARK H PARENT
REMARK Flexibility Score: inf
ROOT
ATOM      1  C   UNL     1       9.633 -31.874  16.897  1.00  0.00     0.048 C 
ATOM      2  C   UNL     1       8.519 -32.507  16.109  1.00  0.00    -0.012 C 
ATOM      3  C   UNL     1       8.726 -32.865  14.833  1.00  0.00    -0.019 C 
ATOM      4  C   UNL     1       7.648 -33.472  13.977  1.00  0.00     0.036 C 
ATOM      5  C   UNL     1       6.608 -34.282  14.780  1.00  0.00     0.025 C 
ATOM      6  C   UNL     1       6.127 -33.519  16.031  1.00  0.00     0.089 C 
ATOM      7  C   UNL     1       7.254 -32.872  16.788  1.00  0.00     0.158 C 
ATOM      8  O   UNL     1       7.094 -32.608  18.010  1.00  0.00    -0.295 OA
ENDROOT
BRANCH   5   9
ATOM      9  C   UNL     1       7.075 -35.706  15.089  1.00  0.00    -0.077 C 
ATOM     10  C   UNL     1       7.897 -36.386  14.272  1.00  0.00     0.008 C 
ATOM     11  C   UNL     1       6.607 -36.390  16.350  1.00  0.00     0.039 C 
ENDBRANCH   5   9
TORSDOF 1
ENDMDL
MODEL 7
REMARK VINA RESULT:    -3.163      1.236      3.299
REMARK INTER + INTRA:          -3.564
REMARK INTER:                  -3.465
REMARK INTRA:                  -0.099
REMARK UNBOUND:                -0.216
REMARK SMILES C=C(C)[C@@H]1CC=C(C)C(=O)C1
REMARK SMILES IDX 8 1 7 2 6 3 5 4 4 5 11 6 9 7 10 8 2 9 1 10 3 11
REMARK H PARENT
REMARK Flexibility Score: inf
ROOT
ATOM      1  C   UNL     1       7.315 -32.503  18.020  1.00  0.00     0.048 C 
ATOM      2  C   UNL     1       7.664 -33.524  16.972  1.00  0.00    -0.012 C 
ATOM      3  C   UNL     1       6.951 -34.657  16.883  1.00  0.00    -0.019 C 
ATOM      4  C   UNL     1       7.265 -35.734  15.881  1.00  0.00     0.036 C 
ATOM      5  C   UNL     1       7.912 -35.201  14.585  1.00  0.00     0.025 C 
ATOM      6  C   UNL     1       9.050 -34.202  14.882  1.00  0.00     0.089 C 
ATOM      7  C   UNL     1       8.689 -33.208  15.950  1.00  0.00     0.158 C 
ATOM      8  O   UNL     1       9.301 -32.107  15.989  1.00  0.00    -0.295 OA
ENDROOT
BRANCH   5   9
ATOM      9  C   UNL     1       6.887 -34.662  13.587  1.00  0.00    -0.077 C 
ATOM     10  C   UNL     1       5.876 -35.414  13.118  1.00  0.00     0.008 C 
ATOM     11  C   UNL     1       6.993 -33.239  13.097  1.00  0.00     0.039 C 
ENDBRANCH   5   9
TORSDOF 1
ENDMDL
MODEL 8
REMARK VINA RESULT:    -3.092      1.756      3.016
REMARK INTER + INTRA:          -3.489
REMARK INTER:                  -3.493
REMARK INTRA:                   0.005
REMARK UNBOUND:                -0.216
REMARK SMILES C=C(C)[C@@H]1CC=C(C)C(=O)C1
REMARK SMILES IDX 8 1 7 2 6 3 5 4 4 5 11 6 9 7 10 8 2 9 1 10 3 11
REMARK H PARENT
REMARK Flexibility Score: inf
ROOT
ATOM      1  C   UNL     1       7.378 -36.669  14.882  1.00  0.00     0.048 C 
ATOM      2  C   UNL     1       7.316 -35.206  15.225  1.00  0.00    -0.012 C 
ATOM      3  C   UNL     1       6.234 -34.713  15.847  1.00  0.00    -0.019 C 
ATOM      4  C   UNL     1       6.091 -33.255  16.189  1.00  0.00     0.036 C 
ATOM      5  C   UNL     1       7.437 -32.547  16.445  1.00  0.00     0.025 C 
ATOM      6  C   UNL     1       8.479 -32.886  15.358  1.00  0.00     0.089 C 
ATOM      7  C   UNL     1       8.506 -34.349  15.013  1.00  0.00     0.158 C 
ATOM      8  O   UNL     1       9.551 -34.834  14.502  1.00  0.00    -0.295 OA
ENDROOT
BRANCH   5   9
ATOM      9  C   UNL     1       7.962 -32.763  17.866  1.00  0.00    -0.077 C 
ATOM     10  C   UNL     1       9.010 -32.078  18.356  1.00  0.00     0.008 C 
ATOM     11  C   UNL     1       7.297 -33.775  18.765  1.00  0.00     0.039 C 
ENDBRANCH   5   9
TORSDOF 1
ENDMDL
