MODEL 1
REMARK VINA RESULT:    -4.620      0.000      0.000
REMARK INTER + INTRA:          -4.933
REMARK INTER:                  -5.700
REMARK INTRA:                   0.767
REMARK UNBOUND:                 0.767
REMARK SMILES CC1=CC=CC(C)(C)CC1=O
REMARK SMILES IDX 1 1 2 2 3 3 10 4 11 5 9 6 4 8 5 9 6 10 7 11 8 12
REMARK H PARENT
REMARK Flexibility Score: 80.00
ROOT
ATOM      1  C   UNL     1      80.000   6.702  26.878  1.00  0.00     0.048 C 
ATOM      2  C   UNL     1      81.335   6.000  26.804  1.00  0.00    -0.008 C 
ATOM      3  C   UNL     1      81.745   5.561  25.595  1.00  0.00     0.007 C 
ENDROOT
BRANCH   2   4
ATOM      4  C   UNL     1      82.056   5.783  28.083  1.00  0.00     0.159 C 
ATOM      5  O   UNL     1      81.452   6.009  29.167  1.00  0.00    -0.295 OA
BRANCH   4   6
ATOM      6  C   UNL     1      83.478   5.319  28.161  1.00  0.00     0.091 CG0
ATOM      7  G   UNL     1      83.711   3.951  27.481  1.00  0.00     0.000 G0
ENDBRANCH   4   6
ENDBRANCH   2   4
BRANCH   3   8
ATOM      8  C   UNL     1      82.974   4.825  25.216  1.00  0.00    -0.003 C 
ATOM      9  C   UNL     1      83.814   4.129  25.992  1.00  0.00    -0.020 C 
BRANCH   9  10
ATOM     10  C   UNL     1      83.713   3.950  27.489  1.00  0.00    -0.010 CG0
ATOM     11  C   UNL     1      82.606   2.924  27.824  1.00  0.00     0.016 C 
ATOM     12  C   UNL     1      85.057   3.384  28.001  1.00  0.00     0.016 C 
ATOM     13  G   UNL     1      83.480   5.320  28.162  1.00  0.00     0.000 G0
ENDBRANCH   9  10
ENDBRANCH   3   8
TORSDOF 0
ENDMDL
MODEL 2
REMARK VINA RESULT:    -4.050      1.616      2.952
REMARK INTER + INTRA:          -4.229
REMARK INTER:                  -5.291
REMARK INTRA:                   1.061
REMARK UNBOUND:                 0.767
REMARK SMILES CC1=CC=CC(C)(C)CC1=O
REMARK SMILES IDX 1 1 2 2 3 3 10 4 11 5 9 6 4 8 5 9 6 10 7 11 8 12
REMARK H PARENT
REMARK Flexibility Score: 80.00
ROOT
ATOM      1  C   UNL     1      83.947   4.440  24.553  1.00  0.00     0.048 C 
ATOM      2  C   UNL     1      83.140   4.872  25.754  1.00  0.00    -0.008 C 
ATOM      3  C   UNL     1      81.896   5.348  25.534  1.00  0.00     0.007 C 
ENDROOT
BRANCH   2   4
ATOM      4  C   UNL     1      83.809   4.806  27.077  1.00  0.00     0.159 C 
ATOM      5  O   UNL     1      84.865   4.125  27.191  1.00  0.00    -0.295 OA
BRANCH   4   6
ATOM      6  C   UNL     1      83.292   5.500  28.299  1.00  0.00     0.091 CG0
ATOM      7  G   UNL     1      81.874   5.041  28.706  1.00  0.00     0.000 G0
ENDBRANCH   4   6
ENDBRANCH   2   4
BRANCH   3   8
ATOM      8  C   UNL     1      80.891   5.865  26.492  1.00  0.00    -0.003 C 
ATOM      9  C   UNL     1      80.867   5.762  27.827  1.00  0.00    -0.020 C 
BRANCH   9  10
ATOM     10  C   UNL     1      81.879   5.047  28.690  1.00  0.00    -0.010 CG0
ATOM     11  C   UNL     1      81.565   5.290  30.184  1.00  0.00     0.016 C 
ATOM     12  C   UNL     1      81.762   3.530  28.420  1.00  0.00     0.016 C 
ATOM     13  G   UNL     1      83.305   5.497  28.301  1.00  0.00     0.000 G0
ENDBRANCH   9  10
ENDBRANCH   3   8
TORSDOF 0
ENDMDL
MODEL 3
REMARK VINA RESULT:    -3.837      1.653      2.865
REMARK INTER + INTRA:          -3.967
REMARK INTER:                  -5.031
REMARK INTRA:                   1.064
REMARK UNBOUND:                 0.767
REMARK SMILES CC1=CC=CC(C)(C)CC1=O
REMARK SMILES IDX 1 1 2 2 3 3 10 4 11 5 9 6 4 8 5 9 6 10 7 11 8 12
REMARK H PARENT
REMARK Flexibility Score: 80.00
ROOT
ATOM      1  C   UNL     1      81.712   4.482  30.273  1.00  0.00     0.048 C 
ATOM      2  C   UNL     1      81.872   4.612  28.777  1.00  0.00    -0.008 C 
ATOM      3  C   UNL     1      81.077   5.495  28.136  1.00  0.00     0.007 C 
ENDROOT
BRANCH   2   4
ATOM      4  C   UNL     1      82.843   3.701  28.120  1.00  0.00     0.159 C 
ATOM      5  O   UNL     1      83.682   3.088  28.835  1.00  0.00    -0.295 OA
BRANCH   4   6
ATOM      6  C   UNL     1      82.892   3.474  26.640  1.00  0.00     0.091 CG0
ATOM      7  G   UNL     1      83.136   4.769  25.833  1.00  0.00     0.000 G0
ENDBRANCH   4   6
ENDBRANCH   2   4
BRANCH   3   8
ATOM      8  C   UNL     1      80.984   5.820  26.693  1.00  0.00    -0.003 C 
ATOM      9  C   UNL     1      81.831   5.512  25.703  1.00  0.00    -0.020 C 
BRANCH   9  10
ATOM     10  C   UNL     1      83.135   4.761  25.837  1.00  0.00    -0.010 CG0
ATOM     11  C   UNL     1      83.741   4.500  24.439  1.00  0.00     0.016 C 
ATOM     12  C   UNL     1      84.125   5.646  26.628  1.00  0.00     0.016 C 
ATOM     13  G   UNL     1      82.905   3.461  26.639  1.00  0.00     0.000 G0
ENDBRANCH   9  10
ENDBRANCH   3   8
TORSDOF 0
ENDMDL
MODEL 4
REMARK VINA RESULT:    -3.660      1.461      3.501
REMARK INTER + INTRA:          -3.749
REMARK INTER:                  -4.521
REMARK INTRA:                   0.773
REMARK UNBOUND:                 0.767
REMARK SMILES CC1=CC=CC(C)(C)CC1=O
REMARK SMILES IDX 1 1 2 2 3 3 10 4 11 5 9 6 4 8 5 9 6 10 7 11 8 12
REMARK H PARENT
REMARK Flexibility Score: 80.00
ROOT
ATOM      1  C   UNL     1      85.192   2.994  28.439  1.00  0.00     0.048 C 
ATOM      2  C   UNL     1      84.075   3.655  27.669  1.00  0.00    -0.008 C 
ATOM      3  C   UNL     1      84.403   4.336  26.550  1.00  0.00     0.007 C 
ENDROOT
BRANCH   2   4
ATOM      4  C   UNL     1      82.711   3.567  28.247  1.00  0.00     0.159 C 
ATOM      5  O   UNL     1      82.577   3.143  29.428  1.00  0.00    -0.295 OA
BRANCH   4   6
ATOM      6  C   UNL     1      81.470   3.944  27.498  1.00  0.00     0.091 CG0
ATOM      7  G   UNL     1      81.460   5.418  27.038  1.00  0.00     0.000 G0
ENDBRANCH   4   6
ENDBRANCH   2   4
BRANCH   3   8
ATOM      8  C   UNL     1      83.545   5.099  25.614  1.00  0.00    -0.003 C 
ATOM      9  C   UNL     1      82.308   5.577  25.801  1.00  0.00    -0.020 C 
BRANCH   9  10
ATOM     10  C   UNL     1      81.464   5.418  27.044  1.00  0.00    -0.010 CG0
ATOM     11  C   UNL     1      81.968   6.373  28.150  1.00  0.00     0.016 C 
ATOM     12  C   UNL     1      80.011   5.816  26.696  1.00  0.00     0.016 C 
ATOM     13  G   UNL     1      81.465   3.939  27.488  1.00  0.00     0.000 G0
ENDBRANCH   9  10
ENDBRANCH   3   8
TORSDOF 0
ENDMDL
MODEL 5
REMARK VINA RESULT:    -3.402      1.538      2.489
REMARK INTER + INTRA:          -3.430
REMARK INTER:                  -4.204
REMARK INTRA:                   0.774
REMARK UNBOUND:                 0.767
REMARK SMILES CC1=CC=CC(C)(C)CC1=O
REMARK SMILES IDX 1 1 2 2 3 3 10 4 11 5 9 6 4 8 5 9 6 10 7 11 8 12
REMARK H PARENT
REMARK Flexibility Score: 80.00
ROOT
ATOM      1  C   UNL     1      80.010   6.825  26.673  1.00  0.00     0.048 C 
ATOM      2  C   UNL     1      80.960   5.785  27.215  1.00  0.00    -0.008 C 
ATOM      3  C   UNL     1      80.999   5.609  28.554  1.00  0.00     0.007 C 
ENDROOT
BRANCH   2   4
ATOM      4  C   UNL     1      81.832   5.090  26.236  1.00  0.00     0.159 C 
ATOM      5  O   UNL     1      81.889   5.528  25.054  1.00  0.00    -0.295 OA
BRANCH   4   6
ATOM      6  C   UNL     1      82.647   3.879  26.569  1.00  0.00     0.091 CG0
ATOM      7  G   UNL     1      83.670   4.125  27.700  1.00  0.00     0.000 G0
ENDBRANCH   4   6
ENDBRANCH   2   4
BRANCH   3   8
ATOM      8  C   UNL     1      81.835   4.698  29.370  1.00  0.00    -0.003 C 
ATOM      9  C   UNL     1      82.970   4.070  29.039  1.00  0.00    -0.020 C 
BRANCH   9  10
ATOM     10  C   UNL     1      83.670   4.127  27.702  1.00  0.00    -0.010 CG0
ATOM     11  C   UNL     1      84.405   5.478  27.547  1.00  0.00     0.016 C 
ATOM     12  C   UNL     1      84.729   3.002  27.661  1.00  0.00     0.016 C 
ATOM     13  G   UNL     1      82.650   3.870  26.570  1.00  0.00     0.000 G0
ENDBRANCH   9  10
ENDBRANCH   3   8
TORSDOF 0
ENDMDL
MODEL 6
REMARK VINA RESULT:    -3.353      1.886      3.931
REMARK INTER + INTRA:          -3.369
REMARK INTER:                  -4.431
REMARK INTRA:                   1.061
REMARK UNBOUND:                 0.767
REMARK SMILES CC1=CC=CC(C)(C)CC1=O
REMARK SMILES IDX 1 1 2 2 3 3 10 4 11 5 9 6 4 8 5 9 6 10 7 11 8 12
REMARK H PARENT
REMARK Flexibility Score: 80.00
ROOT
ATOM      1  C   UNL     1      85.502   3.003  28.033  1.00  0.00     0.048 C 
ATOM      2  C   UNL     1      84.081   3.506  27.947  1.00  0.00    -0.008 C 
ATOM      3  C   UNL     1      83.304   3.379  29.044  1.00  0.00     0.007 C 
ENDROOT
BRANCH   2   4
ATOM      4  C   UNL     1      83.630   4.034  26.635  1.00  0.00     0.159 C 
ATOM      5  O   UNL     1      84.496   4.321  25.765  1.00  0.00    -0.295 OA
BRANCH   4   6
ATOM      6  C   UNL     1      82.191   4.259  26.287  1.00  0.00     0.091 CG0
ATOM      7  G   UNL     1      81.482   5.253  27.233  1.00  0.00     0.000 G0
ENDBRANCH   4   6
ENDBRANCH   2   4
BRANCH   3   8
ATOM      8  C   UNL     1      81.885   3.749  29.253  1.00  0.00    -0.003 C 
ATOM      9  C   UNL     1      81.094   4.522  28.498  1.00  0.00    -0.020 C 
BRANCH   9  10
ATOM     10  C   UNL     1      81.489   5.242  27.230  1.00  0.00    -0.010 CG0
ATOM     11  C   UNL     1      80.247   5.903  26.590  1.00  0.00     0.016 C 
ATOM     12  C   UNL     1      82.488   6.362  27.600  1.00  0.00     0.016 C 
ATOM     13  G   UNL     1      82.199   4.258  26.274  1.00  0.00     0.000 G0
ENDBRANCH   9  10
ENDBRANCH   3   8
TORSDOF 0
ENDMDL
MODEL 7
REMARK VINA RESULT:    -3.101      1.584      2.848
REMARK INTER + INTRA:          -3.060
REMARK INTER:                  -3.822
REMARK INTRA:                   0.762
REMARK UNBOUND:                 0.767
REMARK SMILES CC1=CC=CC(C)(C)CC1=O
REMARK SMILES IDX 1 1 2 2 3 3 10 4 11 5 9 6 4 8 5 9 6 10 7 11 8 12
REMARK H PARENT
REMARK Flexibility Score: 80.00
ROOT
ATOM      1  C   UNL     1      81.489   4.122  31.098  1.00  0.00     0.048 C 
ATOM      2  C   UNL     1      81.720   4.144  29.605  1.00  0.00    -0.008 C 
ATOM      3  C   UNL     1      81.897   2.960  28.982  1.00  0.00     0.007 C 
ENDROOT
BRANCH   2   4
ATOM      4  C   UNL     1      81.809   5.475  28.955  1.00  0.00     0.159 C 
ATOM      5  O   UNL     1      81.885   6.503  29.682  1.00  0.00    -0.295 OA
BRANCH   4   6
ATOM      6  C   UNL     1      81.801   5.671  27.471  1.00  0.00     0.091 CG0
ATOM      7  G   UNL     1      82.961   4.947  26.753  1.00  0.00     0.000 G0
ENDBRANCH   4   6
ENDBRANCH   2   4
BRANCH   3   8
ATOM      8  C   UNL     1      82.166   2.667  27.554  1.00  0.00    -0.003 C 
ATOM      9  C   UNL     1      82.624   3.482  26.597  1.00  0.00    -0.020 C 
BRANCH   9  10
ATOM     10  C   UNL     1      82.959   4.948  26.751  1.00  0.00    -0.010 CG0
ATOM     11  C   UNL     1      84.312   5.107  27.481  1.00  0.00     0.016 C 
ATOM     12  C   UNL     1      83.104   5.562  25.340  1.00  0.00     0.016 C 
ATOM     13  G   UNL     1      81.802   5.672  27.474  1.00  0.00     0.000 G0
ENDBRANCH   9  10
ENDBRANCH   3   8
TORSDOF 0
ENDMDL
MODEL 8
REMARK VINA RESULT:    -3.007      1.569      2.678
REMARK INTER + INTRA:          -2.943
REMARK INTER:                  -3.700
REMARK INTRA:                   0.757
REMARK UNBOUND:                 0.767
REMARK SMILES CC1=CC=CC(C)(C)CC1=O
REMARK SMILES IDX 1 1 2 2 3 3 10 4 11 5 9 6 4 8 5 9 6 10 7 11 8 12
REMARK H PARENT
REMARK Flexibility Score: 80.00
ROOT
ATOM      1  C   UNL     1      83.039   4.978  24.243  1.00  0.00     0.048 C 
ATOM      2  C   UNL     1      83.116   4.796  25.740  1.00  0.00    -0.008 C 
ATOM      3  C   UNL     1      84.186   4.138  26.237  1.00  0.00     0.007 C 
ENDROOT
BRANCH   2   4
ATOM      4  C   UNL     1      81.969   5.291  26.541  1.00  0.00     0.159 C 
ATOM      5  O   UNL     1      80.914   5.638  25.942  1.00  0.00    -0.295 OA
BRANCH   4   6
ATOM      6  C   UNL     1      81.995   5.414  28.033  1.00  0.00     0.091 CG0
ATOM      7  G   UNL     1      82.239   4.069  28.752  1.00  0.00     0.000 G0
ENDBRANCH   4   6
ENDBRANCH   2   4
BRANCH   3   8
ATOM      8  C   UNL     1      84.521   3.787  27.637  1.00  0.00    -0.003 C 
ATOM      9  C   UNL     1      83.722   3.741  28.710  1.00  0.00    -0.020 C 
BRANCH   9  10
ATOM     10  C   UNL     1      82.250   4.075  28.748  1.00  0.00    -0.010 CG0
ATOM     11  C   UNL     1      81.429   2.911  28.146  1.00  0.00     0.016 C 
ATOM     12  C   UNL     1      81.828   4.241  30.225  1.00  0.00     0.016 C 
ATOM     13  G   UNL     1      82.002   5.416  28.022  1.00  0.00     0.000 G0
ENDBRANCH   9  10
ENDBRANCH   3   8
TORSDOF 0
ENDMDL
MODEL 9
REMARK VINA RESULT:    -2.767      9.478     11.137
REMARK INTER + INTRA:          -2.647
REMARK INTER:                  -3.409
REMARK INTRA:                   0.762
REMARK UNBOUND:                 0.767
REMARK SMILES CC1=CC=CC(C)(C)CC1=O
REMARK SMILES IDX 1 1 2 2 3 3 10 4 11 5 9 6 4 8 5 9 6 10 7 11 8 12
REMARK H PARENT
REMARK Flexibility Score: 80.00
ROOT
ATOM      1  C   UNL     1      86.448  -6.115  30.439  1.00  0.00     0.048 C 
ATOM      2  C   UNL     1      85.140  -6.158  29.684  1.00  0.00    -0.008 C 
ATOM      3  C   UNL     1      85.022  -7.060  28.687  1.00  0.00     0.007 C 
ENDROOT
BRANCH   2   4
ATOM      4  C   UNL     1      84.115  -5.150  30.052  1.00  0.00     0.159 C 
ATOM      5  O   UNL     1      84.441  -4.201  30.816  1.00  0.00    -0.295 OA
BRANCH   4   6
ATOM      6  C   UNL     1      82.697  -5.202  29.573  1.00  0.00     0.091 CG0
ATOM      7  G   UNL     1      82.572  -5.168  28.033  1.00  0.00     0.000 G0
ENDBRANCH   4   6
ENDBRANCH   2   4
BRANCH   3   8
ATOM      8  C   UNL     1      83.891  -7.317  27.765  1.00  0.00    -0.003 C 
ATOM      9  C   UNL     1      82.852  -6.530  27.464  1.00  0.00    -0.020 C 
BRANCH   9  10
ATOM     10  C   UNL     1      82.569  -5.160  28.035  1.00  0.00    -0.010 CG0
ATOM     11  C   UNL     1      83.502  -4.113  27.384  1.00  0.00     0.016 C 
ATOM     12  C   UNL     1      81.111  -4.781  27.685  1.00  0.00     0.016 C 
ATOM     13  G   UNL     1      82.700  -5.201  29.573  1.00  0.00     0.000 G0
ENDBRANCH   9  10
ENDBRANCH   3   8
TORSDOF 0
ENDMDL
