MODEL 1
REMARK VINA RESULT:    -4.968      0.000      0.000
REMARK INTER + INTRA:          -5.505
REMARK INTER:                  -5.259
REMARK INTRA:                  -0.246
REMARK UNBOUND:                -0.246
REMARK SMILES CC(C)[C@@H]1CC[C@@H](C)[C@@H]2C=C[C@H](C)C[C@H]21
REMARK SMILES IDX 8 1 7 2 6 3 5 4 4 5 15 6 9 7 10 8 11 9 12 10 14 11 13 12
REMARK SMILES IDX 2 13 1 14 3 15
REMARK H PARENT
REMARK Flexibility Score: inf
ROOT
ATOM      1  C   UNL     1      17.233   4.636  16.551  1.00  0.00     0.008 C 
ATOM      2  C   UNL     1      15.694   4.634  16.582  1.00  0.00    -0.007 C 
ATOM      3  C   UNL     1      15.182   5.983  16.044  1.00  0.00     0.004 C 
ATOM      4  C   UNL     1      13.655   6.044  16.059  1.00  0.00     0.004 C 
ATOM      5  C   UNL     1      13.104   5.864  17.493  1.00  0.00    -0.005 C 
ATOM      6  C   UNL     1      13.599   4.508  18.084  1.00  0.00    -0.000 C 
ATOM      7  C   UNL     1      15.150   4.382  18.013  1.00  0.00     0.018 C 
ATOM      8  C   UNL     1      15.512   2.999  18.516  1.00  0.00    -0.027 C 
ATOM      9  C   UNL     1      14.959   2.551  19.649  1.00  0.00    -0.028 C 
ATOM     10  C   UNL     1      14.065   3.464  20.452  1.00  0.00     0.008 C 
ATOM     11  C   UNL     1      13.094   4.275  19.547  1.00  0.00     0.012 C 
ATOM     12  C   UNL     1      13.304   2.682  21.526  1.00  0.00     0.012 C 
ENDROOT
BRANCH   5  13
ATOM     13  C   UNL     1      11.546   6.043  17.558  1.00  0.00    -0.014 C 
ATOM     14  C   UNL     1      11.137   7.186  18.502  1.00  0.00     0.007 C 
ATOM     15  C   UNL     1      10.879   6.232  16.185  1.00  0.00     0.007 C 
ENDBRANCH   5  13
TORSDOF 1
ENDMDL
MODEL 2
REMARK VINA RESULT:    -4.691      1.580      2.313
REMARK INTER + INTRA:          -5.211
REMARK INTER:                  -4.934
REMARK INTRA:                  -0.277
REMARK UNBOUND:                -0.246
REMARK SMILES CC(C)[C@@H]1CC[C@@H](C)[C@@H]2C=C[C@H](C)C[C@H]21
REMARK SMILES IDX 8 1 7 2 6 3 5 4 4 5 15 6 9 7 10 8 11 9 12 10 14 11 13 12
REMARK SMILES IDX 2 13 1 14 3 15
REMARK H PARENT
REMARK Flexibility Score: inf
ROOT
ATOM      1  C   UNL     1      15.709   2.524  18.494  1.00  0.00     0.008 C 
ATOM      2  C   UNL     1      14.478   3.329  18.041  1.00  0.00    -0.007 C 
ATOM      3  C   UNL     1      14.853   4.160  16.801  1.00  0.00     0.004 C 
ATOM      4  C   UNL     1      13.668   4.991  16.309  1.00  0.00     0.004 C 
ATOM      5  C   UNL     1      13.177   5.966  17.405  1.00  0.00    -0.005 C 
ATOM      6  C   UNL     1      12.786   5.168  18.687  1.00  0.00    -0.000 C 
ATOM      7  C   UNL     1      13.948   4.251  19.171  1.00  0.00     0.018 C 
ATOM      8  C   UNL     1      13.431   3.454  20.351  1.00  0.00    -0.027 C 
ATOM      9  C   UNL     1      12.766   4.087  21.324  1.00  0.00    -0.028 C 
ATOM     10  C   UNL     1      12.630   5.589  21.278  1.00  0.00     0.008 C 
ATOM     11  C   UNL     1      12.302   6.101  19.845  1.00  0.00     0.012 C 
ATOM     12  C   UNL     1      11.596   6.078  22.296  1.00  0.00     0.012 C 
ENDROOT
BRANCH   5  13
ATOM     13  C   UNL     1      12.041   6.916  16.888  1.00  0.00    -0.014 C 
ATOM     14  C   UNL     1      12.588   8.021  15.969  1.00  0.00     0.007 C 
ATOM     15  C   UNL     1      10.877   6.186  16.196  1.00  0.00     0.007 C 
ENDBRANCH   5  13
TORSDOF 1
ENDMDL
MODEL 3
REMARK VINA RESULT:    -4.641      2.211      4.058
REMARK INTER + INTRA:          -5.158
REMARK INTER:                  -4.889
REMARK INTRA:                  -0.268
REMARK UNBOUND:                -0.246
REMARK SMILES CC(C)[C@@H]1CC[C@@H](C)[C@@H]2C=C[C@H](C)C[C@H]21
REMARK SMILES IDX 8 1 7 2 6 3 5 4 4 5 15 6 9 7 10 8 11 9 12 10 14 11 13 12
REMARK SMILES IDX 2 13 1 14 3 15
REMARK H PARENT
REMARK Flexibility Score: inf
ROOT
ATOM      1  C   UNL     1      14.152   3.097  21.129  1.00  0.00     0.008 C 
ATOM      2  C   UNL     1      13.142   3.824  20.224  1.00  0.00    -0.007 C 
ATOM      3  C   UNL     1      13.708   3.886  18.794  1.00  0.00     0.004 C 
ATOM      4  C   UNL     1      12.750   4.607  17.847  1.00  0.00     0.004 C 
ATOM      5  C   UNL     1      12.488   6.057  18.317  1.00  0.00    -0.005 C 
ATOM      6  C   UNL     1      11.914   6.047  19.768  1.00  0.00    -0.000 C 
ATOM      7  C   UNL     1      12.830   5.252  20.744  1.00  0.00     0.018 C 
ATOM      8  C   UNL     1      12.135   5.221  22.090  1.00  0.00    -0.027 C 
ATOM      9  C   UNL     1      11.626   6.354  22.587  1.00  0.00    -0.028 C 
ATOM     10  C   UNL     1      11.838   7.653  21.849  1.00  0.00     0.008 C 
ATOM     11  C   UNL     1      11.648   7.489  20.313  1.00  0.00     0.012 C 
ATOM     12  C   UNL     1      10.937   8.757  22.409  1.00  0.00     0.012 C 
ENDROOT
BRANCH   5  13
ATOM     13  C   UNL     1      11.604   6.861  17.300  1.00  0.00    -0.014 C 
ATOM     14  C   UNL     1      12.407   7.958  16.582  1.00  0.00     0.007 C 
ATOM     15  C   UNL     1      10.877   5.982  16.268  1.00  0.00     0.007 C 
ENDBRANCH   5  13
TORSDOF 1
ENDMDL
MODEL 4
REMARK VINA RESULT:    -4.505      2.228      4.971
REMARK INTER + INTRA:          -5.014
REMARK INTER:                  -4.789
REMARK INTRA:                  -0.226
REMARK UNBOUND:                -0.246
REMARK SMILES CC(C)[C@@H]1CC[C@@H](C)[C@@H]2C=C[C@H](C)C[C@H]21
REMARK SMILES IDX 8 1 7 2 6 3 5 4 4 5 15 6 9 7 10 8 11 9 12 10 14 11 13 12
REMARK SMILES IDX 2 13 1 14 3 15
REMARK H PARENT
REMARK Flexibility Score: inf
ROOT
ATOM      1  C   UNL     1      11.232   6.477  17.337  1.00  0.00     0.008 C 
ATOM      2  C   UNL     1      12.319   5.864  18.238  1.00  0.00    -0.007 C 
ATOM      3  C   UNL     1      12.566   4.408  17.801  1.00  0.00     0.004 C 
ATOM      4  C   UNL     1      13.633   3.741  18.668  1.00  0.00     0.004 C 
ATOM      5  C   UNL     1      13.213   3.726  20.157  1.00  0.00    -0.005 C 
ATOM      6  C   UNL     1      12.949   5.184  20.647  1.00  0.00    -0.000 C 
ATOM      7  C   UNL     1      11.921   5.919  19.736  1.00  0.00     0.018 C 
ATOM      8  C   UNL     1      11.815   7.345  20.238  1.00  0.00    -0.027 C 
ATOM      9  C   UNL     1      11.669   7.566  21.549  1.00  0.00    -0.028 C 
ATOM     10  C   UNL     1      11.516   6.395  22.489  1.00  0.00     0.008 C 
ATOM     11  C   UNL     1      12.496   5.237  22.143  1.00  0.00     0.012 C 
ATOM     12  C   UNL     1      11.667   6.837  23.947  1.00  0.00     0.012 C 
ENDROOT
BRANCH   5  13
ATOM     13  C   UNL     1      14.233   2.940  21.054  1.00  0.00    -0.014 C 
ATOM     14  C   UNL     1      13.552   1.809  21.842  1.00  0.00     0.007 C 
ATOM     15  C   UNL     1      15.448   2.389  20.288  1.00  0.00     0.007 C 
ENDBRANCH   5  13
TORSDOF 1
ENDMDL
MODEL 5
REMARK VINA RESULT:    -4.443      2.390      4.629
REMARK INTER + INTRA:          -4.949
REMARK INTER:                  -4.676
REMARK INTRA:                  -0.273
REMARK UNBOUND:                -0.246
REMARK SMILES CC(C)[C@@H]1CC[C@@H](C)[C@@H]2C=C[C@H](C)C[C@H]21
REMARK SMILES IDX 8 1 7 2 6 3 5 4 4 5 15 6 9 7 10 8 11 9 12 10 14 11 13 12
REMARK SMILES IDX 2 13 1 14 3 15
REMARK H PARENT
REMARK Flexibility Score: inf
ROOT
ATOM      1  C   UNL     1      10.925   7.751  16.289  1.00  0.00     0.008 C 
ATOM      2  C   UNL     1      10.875   7.610  17.821  1.00  0.00    -0.007 C 
ATOM      3  C   UNL     1      11.092   8.995  18.456  1.00  0.00     0.004 C 
ATOM      4  C   UNL     1      11.062   8.917  19.982  1.00  0.00     0.004 C 
ATOM      5  C   UNL     1      12.165   7.973  20.514  1.00  0.00    -0.005 C 
ATOM      6  C   UNL     1      11.988   6.552  19.894  1.00  0.00    -0.000 C 
ATOM      7  C   UNL     1      11.938   6.605  18.339  1.00  0.00     0.018 C 
ATOM      8  C   UNL     1      11.665   5.197  17.849  1.00  0.00    -0.027 C 
ATOM      9  C   UNL     1      12.372   4.182  18.358  1.00  0.00    -0.028 C 
ATOM     10  C   UNL     1      13.489   4.466  19.333  1.00  0.00     0.008 C 
ATOM     11  C   UNL     1      13.090   5.551  20.375  1.00  0.00     0.012 C 
ATOM     12  C   UNL     1      13.961   3.181  20.017  1.00  0.00     0.012 C 
ENDROOT
BRANCH   5  13
ATOM     13  C   UNL     1      12.237   7.967  22.082  1.00  0.00    -0.014 C 
ATOM     14  C   UNL     1      13.419   8.799  22.606  1.00  0.00     0.007 C 
ATOM     15  C   UNL     1      10.936   8.410  22.772  1.00  0.00     0.007 C 
ENDBRANCH   5  13
TORSDOF 1
ENDMDL
MODEL 6
REMARK VINA RESULT:    -4.386      1.705      4.307
REMARK INTER + INTRA:          -4.888
REMARK INTER:                  -4.638
REMARK INTRA:                  -0.250
REMARK UNBOUND:                -0.246
REMARK SMILES CC(C)[C@@H]1CC[C@@H](C)[C@@H]2C=C[C@H](C)C[C@H]21
REMARK SMILES IDX 8 1 7 2 6 3 5 4 4 5 15 6 9 7 10 8 11 9 12 10 14 11 13 12
REMARK SMILES IDX 2 13 1 14 3 15
REMARK H PARENT
REMARK Flexibility Score: inf
ROOT
ATOM      1  C   UNL     1      12.744   2.886  22.454  1.00  0.00     0.008 C 
ATOM      2  C   UNL     1      12.977   4.250  21.780  1.00  0.00    -0.007 C 
ATOM      3  C   UNL     1      11.826   5.198  22.160  1.00  0.00     0.004 C 
ATOM      4  C   UNL     1      11.999   6.571  21.511  1.00  0.00     0.004 C 
ATOM      5  C   UNL     1      12.031   6.458  19.969  1.00  0.00    -0.005 C 
ATOM      6  C   UNL     1      13.184   5.502  19.532  1.00  0.00    -0.000 C 
ATOM      7  C   UNL     1      13.081   4.117  20.238  1.00  0.00     0.018 C 
ATOM      8  C   UNL     1      14.294   3.310  19.823  1.00  0.00    -0.027 C 
ATOM      9  C   UNL     1      14.636   3.262  18.531  1.00  0.00    -0.028 C 
ATOM     10  C   UNL     1      13.755   3.930  17.503  1.00  0.00     0.008 C 
ATOM     11  C   UNL     1      13.257   5.325  17.980  1.00  0.00     0.012 C 
ATOM     12  C   UNL     1      14.465   4.024  16.149  1.00  0.00     0.012 C 
ENDROOT
BRANCH   5  13
ATOM     13  C   UNL     1      12.085   7.862  19.271  1.00  0.00    -0.014 C 
ATOM     14  C   UNL     1      10.875   8.094  18.351  1.00  0.00     0.007 C 
ATOM     15  C   UNL     1      12.237   9.042  20.246  1.00  0.00     0.007 C 
ENDBRANCH   5  13
TORSDOF 1
ENDMDL
MODEL 7
REMARK VINA RESULT:    -4.341      2.684      5.783
REMARK INTER + INTRA:          -4.841
REMARK INTER:                  -4.566
REMARK INTRA:                  -0.275
REMARK UNBOUND:                -0.246
REMARK SMILES CC(C)[C@@H]1CC[C@@H](C)[C@@H]2C=C[C@H](C)C[C@H]21
REMARK SMILES IDX 8 1 7 2 6 3 5 4 4 5 15 6 9 7 10 8 11 9 12 10 14 11 13 12
REMARK SMILES IDX 2 13 1 14 3 15
REMARK H PARENT
REMARK Flexibility Score: inf
ROOT
ATOM      1  C   UNL     1      10.925   5.457  24.762  1.00  0.00     0.008 C 
ATOM      2  C   UNL     1      12.020   5.176  23.718  1.00  0.00    -0.007 C 
ATOM      3  C   UNL     1      11.694   5.954  22.431  1.00  0.00     0.004 C 
ATOM      4  C   UNL     1      12.745   5.707  21.350  1.00  0.00     0.004 C 
ATOM      5  C   UNL     1      12.832   4.206  20.989  1.00  0.00    -0.005 C 
ATOM      6  C   UNL     1      13.160   3.373  22.266  1.00  0.00    -0.000 C 
ATOM      7  C   UNL     1      12.149   3.660  23.415  1.00  0.00     0.018 C 
ATOM      8  C   UNL     1      12.616   2.882  24.630  1.00  0.00    -0.027 C 
ATOM      9  C   UNL     1      12.961   1.598  24.488  1.00  0.00    -0.028 C 
ATOM     10  C   UNL     1      12.789   0.924  23.149  1.00  0.00     0.008 C 
ATOM     11  C   UNL     1      13.239   1.838  21.973  1.00  0.00     0.012 C 
ATOM     12  C   UNL     1      13.513  -0.425  23.116  1.00  0.00     0.012 C 
ENDROOT
BRANCH   5  13
ATOM     13  C   UNL     1      13.817   3.938  19.797  1.00  0.00    -0.014 C 
ATOM     14  C   UNL     1      13.108   4.023  18.435  1.00  0.00     0.007 C 
ATOM     15  C   UNL     1      15.064   4.839  19.797  1.00  0.00     0.007 C 
ENDBRANCH   5  13
TORSDOF 1
ENDMDL
MODEL 8
REMARK VINA RESULT:    -4.337      1.134      4.795
REMARK INTER + INTRA:          -4.837
REMARK INTER:                  -4.571
REMARK INTRA:                  -0.265
REMARK UNBOUND:                -0.246
REMARK SMILES CC(C)[C@@H]1CC[C@@H](C)[C@@H]2C=C[C@H](C)C[C@H]21
REMARK SMILES IDX 8 1 7 2 6 3 5 4 4 5 15 6 9 7 10 8 11 9 12 10 14 11 13 12
REMARK SMILES IDX 2 13 1 14 3 15
REMARK H PARENT
REMARK Flexibility Score: inf
ROOT
ATOM      1  C   UNL     1      13.408   3.065  21.010  1.00  0.00     0.008 C 
ATOM      2  C   UNL     1      14.162   3.327  19.694  1.00  0.00    -0.007 C 
ATOM      3  C   UNL     1      15.635   3.637  20.015  1.00  0.00     0.004 C 
ATOM      4  C   UNL     1      16.435   3.916  18.743  1.00  0.00     0.004 C 
ATOM      5  C   UNL     1      15.853   5.124  17.972  1.00  0.00    -0.005 C 
ATOM      6  C   UNL     1      14.355   4.858  17.624  1.00  0.00    -0.000 C 
ATOM      7  C   UNL     1      13.527   4.494  18.892  1.00  0.00     0.018 C 
ATOM      8  C   UNL     1      12.123   4.160  18.431  1.00  0.00    -0.027 C 
ATOM      9  C   UNL     1      11.508   4.977  17.568  1.00  0.00    -0.028 C 
ATOM     10  C   UNL     1      12.183   6.260  17.147  1.00  0.00     0.008 C 
ATOM     11  C   UNL     1      13.699   6.055  16.862  1.00  0.00     0.012 C 
ATOM     12  C   UNL     1      11.469   6.888  15.947  1.00  0.00     0.012 C 
ENDROOT
BRANCH   5  13
ATOM     13  C   UNL     1      16.725   5.509  16.726  1.00  0.00    -0.014 C 
ATOM     14  C   UNL     1      17.363   6.900  16.878  1.00  0.00     0.007 C 
ATOM     15  C   UNL     1      17.806   4.473  16.371  1.00  0.00     0.007 C 
ENDBRANCH   5  13
TORSDOF 1
ENDMDL
MODEL 9
REMARK VINA RESULT:    -4.283      1.037      4.149
REMARK INTER + INTRA:          -4.779
REMARK INTER:                  -4.581
REMARK INTRA:                  -0.199
REMARK UNBOUND:                -0.246
REMARK SMILES CC(C)[C@@H]1CC[C@@H](C)[C@@H]2C=C[C@H](C)C[C@H]21
REMARK SMILES IDX 8 1 7 2 6 3 5 4 4 5 15 6 9 7 10 8 11 9 12 10 14 11 13 12
REMARK SMILES IDX 2 13 1 14 3 15
REMARK H PARENT
REMARK Flexibility Score: inf
ROOT
ATOM      1  C   UNL     1      17.239   4.500  16.374  1.00  0.00     0.008 C 
ATOM      2  C   UNL     1      16.331   4.624  17.610  1.00  0.00    -0.007 C 
ATOM      3  C   UNL     1      16.502   3.369  18.484  1.00  0.00     0.004 C 
ATOM      4  C   UNL     1      15.615   3.431  19.726  1.00  0.00     0.004 C 
ATOM      5  C   UNL     1      14.122   3.540  19.341  1.00  0.00    -0.005 C 
ATOM      6  C   UNL     1      13.896   4.801  18.449  1.00  0.00    -0.000 C 
ATOM      7  C   UNL     1      14.842   4.806  17.212  1.00  0.00     0.018 C 
ATOM      8  C   UNL     1      14.613   6.111  16.477  1.00  0.00    -0.027 C 
ATOM      9  C   UNL     1      13.359   6.511  16.233  1.00  0.00    -0.028 C 
ATOM     10  C   UNL     1      12.206   5.612  16.606  1.00  0.00     0.008 C 
ATOM     11  C   UNL     1      12.405   4.957  18.003  1.00  0.00     0.012 C 
ATOM     12  C   UNL     1      10.875   6.366  16.529  1.00  0.00     0.012 C 
ENDROOT
BRANCH   5  13
ATOM     13  C   UNL     1      13.178   3.483  20.593  1.00  0.00    -0.014 C 
ATOM     14  C   UNL     1      13.498   2.283  21.500  1.00  0.00     0.007 C 
ATOM     15  C   UNL     1      13.159   4.778  21.424  1.00  0.00     0.007 C 
ENDBRANCH   5  13
TORSDOF 1
ENDMDL
