MODEL 1
REMARK VINA RESULT:    -3.425      0.000      0.000
REMARK INTER + INTRA:          -4.208
REMARK INTER:                  -4.026
REMARK INTRA:                  -0.183
REMARK UNBOUND:                -0.183
REMARK SMILES O=C([O-])CCC(=O)[O-]
REMARK SMILES IDX 4 1 2 2 1 3 3 4 5 5 6 6 7 7 8 8
REMARK H PARENT
REMARK Flexibility Score: inf
ROOT
ATOM      1  C   UNL     1      19.897  20.958  -6.578  1.00  0.00     0.059 C 
ENDROOT
BRANCH   1   2
ATOM      2  C   UNL     1      18.436  20.661  -6.464  1.00  0.00     0.042 C 
ATOM      3  O   UNL     1      17.757  21.165  -5.530  1.00  0.00    -0.550 OA
ATOM      4  O   UNL     1      17.831  19.790  -7.360  1.00  0.00    -0.550 OA
ENDBRANCH   1   2
BRANCH   1   5
ATOM      5  C   UNL     1      20.641  20.463  -5.336  1.00  0.00     0.059 C 
BRANCH   5   6
ATOM      6  C   UNL     1      20.656  18.968  -5.296  1.00  0.00     0.042 C 
ATOM      7  O   UNL     1      21.276  18.316  -6.177  1.00  0.00    -0.550 OA
ATOM      8  O   UNL     1      19.945  18.291  -4.312  1.00  0.00    -0.550 OA
ENDBRANCH   5   6
ENDBRANCH   1   5
TORSDOF 3
ENDMDL
MODEL 2
REMARK VINA RESULT:    -3.421      1.741      3.493
REMARK INTER + INTRA:          -4.203
REMARK INTER:                  -4.115
REMARK INTRA:                  -0.088
REMARK UNBOUND:                -0.183
REMARK SMILES O=C([O-])CCC(=O)[O-]
REMARK SMILES IDX 4 1 2 2 1 3 3 4 5 5 6 6 7 7 8 8
REMARK H PARENT
REMARK Flexibility Score: inf
ROOT
ATOM      1  C   UNL     1      20.284  21.954  -6.926  1.00  0.00     0.059 C 
ENDROOT
BRANCH   1   2
ATOM      2  C   UNL     1      21.430  21.383  -6.152  1.00  0.00     0.042 C 
ATOM      3  O   UNL     1      22.231  22.145  -5.549  1.00  0.00    -0.550 OA
ATOM      4  O   UNL     1      21.643  20.011  -6.136  1.00  0.00    -0.550 OA
ENDBRANCH   1   2
BRANCH   1   5
ATOM      5  C   UNL     1      19.540  20.847  -7.674  1.00  0.00     0.059 C 
BRANCH   5   6
ATOM      6  C   UNL     1      18.273  20.493  -6.960  1.00  0.00     0.042 C 
ATOM      7  O   UNL     1      17.518  19.595  -7.416  1.00  0.00    -0.550 OA
ATOM      8  O   UNL     1      17.903  21.188  -5.816  1.00  0.00    -0.550 OA
ENDBRANCH   5   6
ENDBRANCH   1   5
TORSDOF 3
ENDMDL
MODEL 3
REMARK VINA RESULT:    -3.415      0.113      3.485
REMARK INTER + INTRA:          -4.197
REMARK INTER:                  -4.015
REMARK INTRA:                  -0.182
REMARK UNBOUND:                -0.183
REMARK SMILES O=C([O-])CCC(=O)[O-]
REMARK SMILES IDX 4 1 2 2 1 3 3 4 5 5 6 6 7 7 8 8
REMARK H PARENT
REMARK Flexibility Score: inf
ROOT
ATOM      1  C   UNL     1      20.672  20.530  -5.365  1.00  0.00     0.059 C 
ENDROOT
BRANCH   1   2
ATOM      2  C   UNL     1      20.746  19.038  -5.297  1.00  0.00     0.042 C 
ATOM      3  O   UNL     1      21.375  18.393  -6.177  1.00  0.00    -0.550 OA
ATOM      4  O   UNL     1      20.079  18.354  -4.289  1.00  0.00    -0.550 OA
ENDBRANCH   1   2
BRANCH   1   5
ATOM      5  C   UNL     1      19.935  20.972  -6.631  1.00  0.00     0.059 C 
BRANCH   5   6
ATOM      6  C   UNL     1      18.479  20.642  -6.531  1.00  0.00     0.042 C 
ATOM      7  O   UNL     1      17.764  21.189  -5.651  1.00  0.00    -0.550 OA
ATOM      8  O   UNL     1      17.922  19.692  -7.379  1.00  0.00    -0.550 OA
ENDBRANCH   5   6
ENDBRANCH   1   5
TORSDOF 3
ENDMDL
MODEL 4
REMARK VINA RESULT:    -3.401      0.156      1.623
REMARK INTER + INTRA:          -4.181
REMARK INTER:                  -4.006
REMARK INTRA:                  -0.174
REMARK UNBOUND:                -0.183
REMARK SMILES O=C([O-])CCC(=O)[O-]
REMARK SMILES IDX 4 1 2 2 1 3 3 4 5 5 6 6 7 7 8 8
REMARK H PARENT
REMARK Flexibility Score: inf
ROOT
ATOM      1  C   UNL     1      19.789  20.956  -6.659  1.00  0.00     0.059 C 
ENDROOT
BRANCH   1   2
ATOM      2  C   UNL     1      18.326  20.660  -6.556  1.00  0.00     0.042 C 
ATOM      3  O   UNL     1      17.769  19.913  -7.403  1.00  0.00    -0.550 OA
ATOM      4  O   UNL     1      17.567  21.247  -5.553  1.00  0.00    -0.550 OA
ENDBRANCH   1   2
BRANCH   1   5
ATOM      5  C   UNL     1      20.516  20.501  -5.392  1.00  0.00     0.059 C 
BRANCH   5   6
ATOM      6  C   UNL     1      20.532  19.008  -5.305  1.00  0.00     0.042 C 
ATOM      7  O   UNL     1      20.019  18.424  -4.314  1.00  0.00    -0.550 OA
ATOM      8  O   UNL     1      21.157  18.260  -6.296  1.00  0.00    -0.550 OA
ENDBRANCH   5   6
ENDBRANCH   1   5
TORSDOF 3
ENDMDL
MODEL 5
REMARK VINA RESULT:    -3.397      1.719      2.177
REMARK INTER + INTRA:          -4.176
REMARK INTER:                  -4.093
REMARK INTRA:                  -0.083
REMARK UNBOUND:                -0.183
REMARK SMILES O=C([O-])CCC(=O)[O-]
REMARK SMILES IDX 4 1 2 2 1 3 3 4 5 5 6 6 7 7 8 8
REMARK H PARENT
REMARK Flexibility Score: inf
ROOT
ATOM      1  C   UNL     1      19.465  20.878  -7.719  1.00  0.00     0.059 C 
ENDROOT
BRANCH   1   2
ATOM      2  C   UNL     1      18.184  20.544  -7.024  1.00  0.00     0.042 C 
ATOM      3  O   UNL     1      17.796  21.232  -6.044  1.00  0.00    -0.550 OA
ATOM      4  O   UNL     1      17.441  19.442  -7.428  1.00  0.00    -0.550 OA
ENDBRANCH   1   2
BRANCH   1   5
ATOM      5  C   UNL     1      20.228  21.954  -6.944  1.00  0.00     0.059 C 
BRANCH   5   6
ATOM      6  C   UNL     1      21.340  21.340  -6.153  1.00  0.00     0.042 C 
ATOM      7  O   UNL     1      22.177  22.071  -5.561  1.00  0.00    -0.550 OA
ATOM      8  O   UNL     1      21.482  19.958  -6.109  1.00  0.00    -0.550 OA
ENDBRANCH   5   6
ENDBRANCH   1   5
TORSDOF 3
ENDMDL
MODEL 6
REMARK VINA RESULT:    -3.301      2.120      2.645
REMARK INTER + INTRA:          -4.063
REMARK INTER:                  -3.955
REMARK INTRA:                  -0.108
REMARK UNBOUND:                -0.183
REMARK SMILES O=C([O-])CCC(=O)[O-]
REMARK SMILES IDX 4 1 2 2 1 3 3 4 5 5 6 6 7 7 8 8
REMARK H PARENT
REMARK Flexibility Score: inf
ROOT
ATOM      1  C   UNL     1      18.511  21.313  -7.237  1.00  0.00     0.059 C 
ENDROOT
BRANCH   1   2
ATOM      2  C   UNL     1      19.759  21.914  -7.801  1.00  0.00     0.042 C 
ATOM      3  O   UNL     1      19.916  21.997  -9.047  1.00  0.00    -0.550 OA
ATOM      4  O   UNL     1      20.771  22.340  -6.951  1.00  0.00    -0.550 OA
ENDBRANCH   1   2
BRANCH   1   5
ATOM      5  C   UNL     1      18.738  20.867  -5.791  1.00  0.00     0.059 C 
BRANCH   5   6
ATOM      6  C   UNL     1      19.329  19.493  -5.754  1.00  0.00     0.042 C 
ATOM      7  O   UNL     1      20.378  19.272  -5.093  1.00  0.00    -0.550 OA
ATOM      8  O   UNL     1      18.749  18.466  -6.488  1.00  0.00    -0.550 OA
ENDBRANCH   5   6
ENDBRANCH   1   5
TORSDOF 3
ENDMDL
MODEL 7
REMARK VINA RESULT:    -3.251      2.079      3.479
REMARK INTER + INTRA:          -4.004
REMARK INTER:                  -3.869
REMARK INTRA:                  -0.135
REMARK UNBOUND:                -0.183
REMARK SMILES O=C([O-])CCC(=O)[O-]
REMARK SMILES IDX 4 1 2 2 1 3 3 4 5 5 6 6 7 7 8 8
REMARK H PARENT
REMARK Flexibility Score: inf
ROOT
ATOM      1  C   UNL     1      18.901  20.547  -5.789  1.00  0.00     0.059 C 
ENDROOT
BRANCH   1   2
ATOM      2  C   UNL     1      19.358  19.179  -6.185  1.00  0.00     0.042 C 
ATOM      3  O   UNL     1      20.509  18.778  -5.867  1.00  0.00    -0.550 OA
ATOM      4  O   UNL     1      18.533  18.363  -6.948  1.00  0.00    -0.550 OA
ENDBRANCH   1   2
BRANCH   1   5
ATOM      5  C   UNL     1      18.583  21.384  -7.030  1.00  0.00     0.059 C 
BRANCH   5   6
ATOM      6  C   UNL     1      19.841  21.934  -7.626  1.00  0.00     0.042 C 
ATOM      7  O   UNL     1      20.799  22.272  -6.883  1.00  0.00    -0.550 OA
ATOM      8  O   UNL     1      19.936  22.118  -9.000  1.00  0.00    -0.550 OA
ENDBRANCH   5   6
ENDBRANCH   1   5
TORSDOF 3
ENDMDL
MODEL 8
REMARK VINA RESULT:    -3.223      1.559      3.708
REMARK INTER + INTRA:          -3.971
REMARK INTER:                  -3.785
REMARK INTRA:                  -0.186
REMARK UNBOUND:                -0.183
REMARK SMILES O=C([O-])CCC(=O)[O-]
REMARK SMILES IDX 4 1 2 2 1 3 3 4 5 5 6 6 7 7 8 8
REMARK H PARENT
REMARK Flexibility Score: inf
ROOT
ATOM      1  C   UNL     1      20.243  19.416  -7.293  1.00  0.00     0.059 C 
ENDROOT
BRANCH   1   2
ATOM      2  C   UNL     1      20.926  19.630  -5.980  1.00  0.00     0.042 C 
ATOM      3  O   UNL     1      20.708  18.848  -5.017  1.00  0.00    -0.550 OA
ATOM      4  O   UNL     1      21.767  20.721  -5.803  1.00  0.00    -0.550 OA
ENDBRANCH   1   2
BRANCH   1   5
ATOM      5  C   UNL     1      18.729  19.571  -7.140  1.00  0.00     0.059 C 
BRANCH   5   6
ATOM      6  C   UNL     1      18.383  20.976  -6.757  1.00  0.00     0.042 C 
ATOM      7  O   UNL     1      17.664  21.199  -5.748  1.00  0.00    -0.550 OA
ATOM      8  O   UNL     1      18.813  22.037  -7.544  1.00  0.00    -0.550 OA
ENDBRANCH   5   6
ENDBRANCH   1   5
TORSDOF 3
ENDMDL
MODEL 9
REMARK VINA RESULT:    -3.206      1.352      3.537
REMARK INTER + INTRA:          -3.952
REMARK INTER:                  -3.780
REMARK INTRA:                  -0.171
REMARK UNBOUND:                -0.183
REMARK SMILES O=C([O-])CCC(=O)[O-]
REMARK SMILES IDX 4 1 2 2 1 3 3 4 5 5 6 6 7 7 8 8
REMARK H PARENT
REMARK Flexibility Score: inf
ROOT
ATOM      1  C   UNL     1      19.429  18.587  -7.256  1.00  0.00     0.059 C 
ENDROOT
BRANCH   1   2
ATOM      2  C   UNL     1      20.007  18.457  -5.883  1.00  0.00     0.042 C 
ATOM      3  O   UNL     1      21.226  18.701  -5.683  1.00  0.00    -0.550 OA
ATOM      4  O   UNL     1      19.211  18.020  -4.832  1.00  0.00    -0.550 OA
ENDBRANCH   1   2
BRANCH   1   5
ATOM      5  C   UNL     1      18.058  19.262  -7.197  1.00  0.00     0.059 C 
BRANCH   5   6
ATOM      6  C   UNL     1      18.203  20.712  -6.854  1.00  0.00     0.042 C 
ATOM      7  O   UNL     1      18.830  21.486  -7.624  1.00  0.00    -0.550 OA
ATOM      8  O   UNL     1      17.687  21.198  -5.659  1.00  0.00    -0.550 OA
ENDBRANCH   5   6
ENDBRANCH   1   5
TORSDOF 3
ENDMDL
