MODEL 1
REMARK VINA RESULT:    -5.817      0.000      0.000
REMARK INTER + INTRA:         -10.865
REMARK INTER:                 -10.067
REMARK INTRA:                  -0.798
REMARK UNBOUND:                -0.798
REMARK SMILES OC[C@@H]1O[C@H](O)[C@H](O)[C@H](O)[C@H]1O[C@H]1O[C@@H](CO)[C@H](O[C@H]2O[C@H](CO)[C@H](O)[C@H](O)[C@H]2O)[C@@H](O)[C@H]1O
REMARK SMILES IDX 18 1 15 2 14 3 13 4 33 5 31 6 19 7 20 8 22 9 25 10 21 11
REMARK SMILES IDX 27 12 29 13 23 14 24 15 26 17 28 19 30 21 16 23 17 24 32 26
REMARK SMILES IDX 34 28 12 30 11 31 3 32 9 33 4 34 7 35 5 36 2 37 1 38 10 40
REMARK SMILES IDX 8 42 6 44
REMARK H PARENT 24 16 26 18 28 20 30 22 17 25 32 27 34 29 1 39 10 41 8 43 6 45
REMARK Flexibility Score: inf
ROOT
ATOM      1  C   UNL     1      40.637  43.177  24.972  1.00  0.00     0.184 C 
ATOM      2  C   UNL     1      41.437  42.000  24.371  1.00  0.00     0.178 C 
ATOM      3  O   UNL     1      41.055  40.740  24.914  1.00  0.00    -0.341 OA
ATOM      4  C   UNL     1      39.672  40.439  24.784  1.00  0.00     0.282 C 
ATOM      5  C   UNL     1      38.760  41.550  25.361  1.00  0.00     0.202 C 
ATOM      6  C   UNL     1      39.124  42.947  24.835  1.00  0.00     0.180 C 
ENDROOT
BRANCH   1   7
ATOM      7  O   UNL     1      40.994  43.259  26.341  1.00  0.00    -0.341 OA
BRANCH   7   8
ATOM      8  C   UNL     1      42.202  42.571  26.653  1.00  0.00     0.282 C 
ATOM      9  C   UNL     1      43.453  44.526  26.270  1.00  0.00     0.178 C 
ATOM     10  C   UNL     1      43.795  44.714  27.765  1.00  0.00     0.177 C 
ATOM     11  O   UNL     1      43.292  43.151  25.951  1.00  0.00    -0.341 OA
ATOM     12  C   UNL     1      42.687  44.082  28.625  1.00  0.00     0.179 C 
ATOM     13  C   UNL     1      42.459  42.626  28.175  1.00  0.00     0.202 C 
BRANCH   9  14
ATOM     14  C   UNL     1      44.545  45.125  25.377  1.00  0.00     0.191 C 
BRANCH  14  15
ATOM     15  O   UNL     1      44.316  44.763  24.045  1.00  0.00    -0.394 OA
ATOM     16  H   UNL     1      43.910  45.558  23.614  1.00  0.00     0.210 HD
ENDBRANCH  14  15
ENDBRANCH   9  14
BRANCH  10  17
ATOM     17  O   UNL     1      45.024  44.093  28.054  1.00  0.00    -0.387 OA
ATOM     18  H   UNL     1      45.465  44.620  28.769  1.00  0.00     0.211 HD
ENDBRANCH  10  17
BRANCH  12  19
ATOM     19  O   UNL     1      43.057  44.121  29.979  1.00  0.00    -0.387 OA
ATOM     20  H   UNL     1      42.348  44.628  30.453  1.00  0.00     0.211 HD
ENDBRANCH  12  19
BRANCH  13  21
ATOM     21  O   UNL     1      41.415  42.022  28.894  1.00  0.00    -0.385 OA
ATOM     22  H   UNL     1      41.615  42.124  29.861  1.00  0.00     0.211 HD
ENDBRANCH  13  21
ENDBRANCH   7   8
ENDBRANCH   1   7
BRANCH   2  23
ATOM     23  C   UNL     1      41.517  42.004  22.829  1.00  0.00     0.191 C 
BRANCH  23  24
ATOM     24  O   UNL     1      42.837  41.782  22.411  1.00  0.00    -0.394 OA
ATOM     25  H   UNL     1      42.917  40.810  22.227  1.00  0.00     0.210 HD
ENDBRANCH  23  24
ENDBRANCH   2  23
BRANCH   6  26
ATOM     26  O   UNL     1      38.723  43.115  23.499  1.00  0.00    -0.387 OA
ATOM     27  H   UNL     1      39.335  42.568  22.941  1.00  0.00     0.211 HD
ENDBRANCH   6  26
BRANCH   5  28
ATOM     28  O   UNL     1      37.414  41.260  25.097  1.00  0.00    -0.385 OA
ATOM     29  H   UNL     1      36.895  42.073  25.317  1.00  0.00     0.211 HD
ENDBRANCH   5  28
BRANCH   4  30
ATOM     30  O   UNL     1      39.368  40.124  23.428  1.00  0.00    -0.341 OA
BRANCH  30  31
ATOM     31  C   UNL     1      39.159  38.737  23.209  1.00  0.00     0.184 C 
ATOM     32  C   UNL     1      40.505  37.990  23.397  1.00  0.00     0.178 C 
ATOM     33  C   UNL     1      38.145  38.168  24.232  1.00  0.00     0.180 C 
ATOM     34  O   UNL     1      40.335  36.596  23.201  1.00  0.00    -0.342 OA
ATOM     35  C   UNL     1      38.074  36.632  24.105  1.00  0.00     0.201 C 
ATOM     36  C   UNL     1      39.500  36.047  24.205  1.00  0.00     0.279 C 
BRANCH  32  37
ATOM     37  C   UNL     1      41.569  38.487  22.405  1.00  0.00     0.191 C 
BRANCH  37  38
ATOM     38  O   UNL     1      42.738  38.861  23.081  1.00  0.00    -0.394 OA
ATOM     39  H   UNL     1      42.552  38.769  24.053  1.00  0.00     0.210 HD
ENDBRANCH  37  38
ENDBRANCH  32  37
BRANCH  33  40
ATOM     40  O   UNL     1      36.875  38.732  24.030  1.00  0.00    -0.387 OA
ATOM     41  H   UNL     1      36.297  38.447  24.790  1.00  0.00     0.211 HD
ENDBRANCH  33  40
BRANCH  35  42
ATOM     42  O   UNL     1      37.508  36.294  22.862  1.00  0.00    -0.385 OA
ATOM     43  H   UNL     1      36.875  35.547  23.012  1.00  0.00     0.211 HD
ENDBRANCH  35  42
BRANCH  36  44
ATOM     44  O   UNL     1      39.474  34.649  24.077  1.00  0.00    -0.366 OA
ATOM     45  H   UNL     1      39.940  34.269  24.863  1.00  0.00     0.213 HD
ENDBRANCH  36  44
ENDBRANCH  30  31
ENDBRANCH   4  30
TORSDOF 18
ENDMDL
MODEL 2
REMARK VINA RESULT:    -4.961     15.073     18.774
REMARK INTER + INTRA:          -9.384
REMARK INTER:                  -8.052
REMARK INTRA:                  -1.332
REMARK UNBOUND:                -0.798
REMARK SMILES OC[C@@H]1O[C@H](O)[C@H](O)[C@H](O)[C@H]1O[C@H]1O[C@@H](CO)[C@H](O[C@H]2O[C@H](CO)[C@H](O)[C@H](O)[C@H]2O)[C@@H](O)[C@H]1O
REMARK SMILES IDX 18 1 15 2 14 3 13 4 33 5 31 6 19 7 20 8 22 9 25 10 21 11
REMARK SMILES IDX 27 12 29 13 23 14 24 15 26 17 28 19 30 21 16 23 17 24 32 26
REMARK SMILES IDX 34 28 12 30 11 31 3 32 9 33 4 34 7 35 5 36 2 37 1 38 10 40
REMARK SMILES IDX 8 42 6 44
REMARK H PARENT 24 16 26 18 28 20 30 22 17 25 32 27 34 29 1 39 10 41 8 43 6 45
REMARK Flexibility Score: inf
ROOT
ATOM      1  C   UNL     1      48.990  28.185  15.401  1.00  0.00     0.184 C 
ATOM      2  C   UNL     1      50.452  27.757  15.147  1.00  0.00     0.178 C 
ATOM      3  O   UNL     1      51.299  28.003  16.266  1.00  0.00    -0.341 OA
ATOM      4  C   UNL     1      50.870  27.390  17.475  1.00  0.00     0.282 C 
ATOM      5  C   UNL     1      49.409  27.751  17.842  1.00  0.00     0.202 C 
ATOM      6  C   UNL     1      48.434  27.531  16.676  1.00  0.00     0.180 C 
ENDROOT
BRANCH   1   7
ATOM      7  O   UNL     1      48.993  29.595  15.540  1.00  0.00    -0.341 OA
BRANCH   7   8
ATOM      8  C   UNL     1      47.689  30.168  15.528  1.00  0.00     0.282 C 
ATOM      9  C   UNL     1      48.155  31.354  17.504  1.00  0.00     0.178 C 
ATOM     10  C   UNL     1      48.188  32.722  16.787  1.00  0.00     0.177 C 
ATOM     11  O   UNL     1      47.268  30.456  16.853  1.00  0.00    -0.341 OA
ATOM     12  C   UNL     1      48.600  32.520  15.319  1.00  0.00     0.179 C 
ATOM     13  C   UNL     1      47.690  31.456  14.676  1.00  0.00     0.202 C 
BRANCH   9  14
ATOM     14  C   UNL     1      47.728  31.511  18.968  1.00  0.00     0.191 C 
BRANCH  14  15
ATOM     15  O   UNL     1      47.116  30.332  19.408  1.00  0.00    -0.394 OA
ATOM     16  H   UNL     1      46.356  30.175  18.792  1.00  0.00     0.210 HD
ENDBRANCH  14  15
ENDBRANCH   9  14
BRANCH  10  17
ATOM     17  O   UNL     1      46.913  33.317  16.839  1.00  0.00    -0.387 OA
ATOM     18  H   UNL     1      46.986  34.217  16.427  1.00  0.00     0.211 HD
ENDBRANCH  10  17
BRANCH  12  19
ATOM     19  O   UNL     1      48.494  33.736  14.625  1.00  0.00    -0.387 OA
ATOM     20  H   UNL     1      48.872  33.580  13.720  1.00  0.00     0.211 HD
ENDBRANCH  12  19
BRANCH  13  21
ATOM     21  O   UNL     1      48.063  31.193  13.348  1.00  0.00    -0.385 OA
ATOM     22  H   UNL     1      47.256  30.878  12.864  1.00  0.00     0.211 HD
ENDBRANCH  13  21
ENDBRANCH   7   8
ENDBRANCH   1   7
BRANCH   2  23
ATOM     23  C   UNL     1      50.610  26.339  14.559  1.00  0.00     0.191 C 
BRANCH  23  24
ATOM     24  O   UNL     1      49.565  26.066  13.665  1.00  0.00    -0.394 OA
ATOM     25  H   UNL     1      49.839  26.440  12.786  1.00  0.00     0.210 HD
ENDBRANCH  23  24
ENDBRANCH   2  23
BRANCH   6  26
ATOM     26  O   UNL     1      48.191  26.164  16.458  1.00  0.00    -0.387 OA
ATOM     27  H   UNL     1      48.522  25.952  15.546  1.00  0.00     0.211 HD
ENDBRANCH   6  26
BRANCH   5  28
ATOM     28  O   UNL     1      48.998  27.027  18.970  1.00  0.00    -0.385 OA
ATOM     29  H   UNL     1      49.757  26.451  19.236  1.00  0.00     0.211 HD
ENDBRANCH   5  28
BRANCH   4  30
ATOM     30  O   UNL     1      51.092  25.985  17.414  1.00  0.00    -0.341 OA
BRANCH  30  31
ATOM     31  C   UNL     1      52.337  25.591  17.972  1.00  0.00     0.184 C 
ATOM     32  C   UNL     1      53.443  25.750  16.896  1.00  0.00     0.178 C 
ATOM     33  C   UNL     1      52.705  26.489  19.178  1.00  0.00     0.180 C 
ATOM     34  O   UNL     1      54.707  25.379  17.420  1.00  0.00    -0.342 OA
ATOM     35  C   UNL     1      54.140  26.176  19.650  1.00  0.00     0.201 C 
ATOM     36  C   UNL     1      55.104  26.270  18.447  1.00  0.00     0.279 C 
BRANCH  32  37
ATOM     37  C   UNL     1      53.161  24.875  15.663  1.00  0.00     0.191 C 
BRANCH  37  38
ATOM     38  O   UNL     1      54.023  25.212  14.612  1.00  0.00    -0.394 OA
ATOM     39  H   UNL     1      53.461  25.601  13.891  1.00  0.00     0.210 HD
ENDBRANCH  37  38
ENDBRANCH  32  37
BRANCH  33  40
ATOM     40  O   UNL     1      51.794  26.298  20.229  1.00  0.00    -0.387 OA
ATOM     41  H   UNL     1      51.178  27.081  20.236  1.00  0.00     0.211 HD
ENDBRANCH  33  40
BRANCH  35  42
ATOM     42  O   UNL     1      54.179  24.876  20.189  1.00  0.00    -0.385 OA
ATOM     43  H   UNL     1      53.443  24.357  19.776  1.00  0.00     0.211 HD
ENDBRANCH  35  42
BRANCH  36  44
ATOM     44  O   UNL     1      56.419  25.974  18.840  1.00  0.00    -0.366 OA
ATOM     45  H   UNL     1      56.535  26.304  19.766  1.00  0.00     0.213 HD
ENDBRANCH  36  44
ENDBRANCH  30  31
ENDBRANCH   4  30
TORSDOF 18
ENDMDL
MODEL 3
REMARK VINA RESULT:    -4.829      1.654      7.576
REMARK INTER + INTRA:          -9.156
REMARK INTER:                  -8.701
REMARK INTRA:                  -0.455
REMARK UNBOUND:                -0.798
REMARK SMILES OC[C@@H]1O[C@H](O)[C@H](O)[C@H](O)[C@H]1O[C@H]1O[C@@H](CO)[C@H](O[C@H]2O[C@H](CO)[C@H](O)[C@H](O)[C@H]2O)[C@@H](O)[C@H]1O
REMARK SMILES IDX 18 1 15 2 14 3 13 4 33 5 31 6 19 7 20 8 22 9 25 10 21 11
REMARK SMILES IDX 27 12 29 13 23 14 24 15 26 17 28 19 30 21 16 23 17 24 32 26
REMARK SMILES IDX 34 28 12 30 11 31 3 32 9 33 4 34 7 35 5 36 2 37 1 38 10 40
REMARK SMILES IDX 8 42 6 44
REMARK H PARENT 24 16 26 18 28 20 30 22 17 25 32 27 34 29 1 39 10 41 8 43 6 45
REMARK Flexibility Score: inf
ROOT
ATOM      1  C   UNL     1      38.059  40.908  25.196  1.00  0.00     0.184 C 
ATOM      2  C   UNL     1      38.530  41.390  26.586  1.00  0.00     0.178 C 
ATOM      3  O   UNL     1      39.948  41.384  26.717  1.00  0.00    -0.341 OA
ATOM      4  C   UNL     1      40.633  42.150  25.736  1.00  0.00     0.282 C 
ATOM      5  C   UNL     1      40.246  41.753  24.289  1.00  0.00     0.202 C 
ATOM      6  C   UNL     1      38.726  41.717  24.072  1.00  0.00     0.180 C 
ENDROOT
BRANCH   1   7
ATOM      7  O   UNL     1      38.419  39.542  25.090  1.00  0.00    -0.341 OA
BRANCH   7   8
ATOM      8  C   UNL     1      38.925  39.187  23.807  1.00  0.00     0.282 C 
ATOM      9  C   UNL     1      40.728  38.047  24.798  1.00  0.00     0.178 C 
ATOM     10  C   UNL     1      40.197  36.656  24.388  1.00  0.00     0.177 C 
ATOM     11  O   UNL     1      40.337  39.041  23.861  1.00  0.00    -0.341 OA
ATOM     12  C   UNL     1      38.665  36.711  24.263  1.00  0.00     0.179 C 
ATOM     13  C   UNL     1      38.270  37.872  23.330  1.00  0.00     0.202 C 
BRANCH   9  14
ATOM     14  C   UNL     1      42.257  38.039  24.914  1.00  0.00     0.191 C 
BRANCH  14  15
ATOM     15  O   UNL     1      42.826  38.044  23.636  1.00  0.00    -0.394 OA
ATOM     16  H   UNL     1      43.177  37.129  23.492  1.00  0.00     0.210 HD
ENDBRANCH  14  15
ENDBRANCH   9  14
BRANCH  10  17
ATOM     17  O   UNL     1      40.755  36.278  23.152  1.00  0.00    -0.387 OA
ATOM     18  H   UNL     1      40.613  35.301  23.047  1.00  0.00     0.211 HD
ENDBRANCH  10  17
BRANCH  12  19
ATOM     19  O   UNL     1      38.186  35.493  23.753  1.00  0.00    -0.387 OA
ATOM     20  H   UNL     1      38.979  34.983  23.444  1.00  0.00     0.211 HD
ENDBRANCH  12  19
BRANCH  13  21
ATOM     21  O   UNL     1      36.876  38.001  23.227  1.00  0.00    -0.385 OA
ATOM     22  H   UNL     1      36.618  38.854  23.664  1.00  0.00     0.211 HD
ENDBRANCH  13  21
ENDBRANCH   7   8
ENDBRANCH   1   7
BRANCH   2  23
ATOM     23  C   UNL     1      37.875  42.703  27.063  1.00  0.00     0.191 C 
BRANCH  23  24
ATOM     24  O   UNL     1      37.633  42.651  28.443  1.00  0.00    -0.394 OA
ATOM     25  H   UNL     1      36.812  43.186  28.608  1.00  0.00     0.210 HD
ENDBRANCH  23  24
ENDBRANCH   2  23
BRANCH   6  26
ATOM     26  O   UNL     1      38.183  43.012  24.013  1.00  0.00    -0.387 OA
ATOM     27  H   UNL     1      37.700  43.085  23.149  1.00  0.00     0.211 HD
ENDBRANCH   6  26
BRANCH   5  28
ATOM     28  O   UNL     1      40.855  42.617  23.368  1.00  0.00    -0.385 OA
ATOM     29  H   UNL     1      41.220  42.055  22.641  1.00  0.00     0.211 HD
ENDBRANCH   5  28
BRANCH   4  30
ATOM     30  O   UNL     1      40.457  43.540  25.992  1.00  0.00    -0.341 OA
BRANCH  30  31
ATOM     31  C   UNL     1      41.601  44.153  26.568  1.00  0.00     0.184 C 
ATOM     32  C   UNL     1      41.389  44.271  28.101  1.00  0.00     0.178 C 
ATOM     33  C   UNL     1      42.864  43.294  26.321  1.00  0.00     0.180 C 
ATOM     34  O   UNL     1      42.520  44.866  28.716  1.00  0.00    -0.342 OA
ATOM     35  C   UNL     1      44.057  43.870  27.112  1.00  0.00     0.201 C 
ATOM     36  C   UNL     1      43.655  44.028  28.595  1.00  0.00     0.279 C 
BRANCH  32  37
ATOM     37  C   UNL     1      40.156  45.125  28.436  1.00  0.00     0.191 C 
BRANCH  37  38
ATOM     38  O   UNL     1      39.779  44.944  29.773  1.00  0.00    -0.394 OA
ATOM     39  H   UNL     1      39.006  44.320  29.773  1.00  0.00     0.210 HD
ENDBRANCH  37  38
ENDBRANCH  32  37
BRANCH  33  40
ATOM     40  O   UNL     1      43.166  43.247  24.950  1.00  0.00    -0.387 OA
ATOM     41  H   UNL     1      42.918  44.130  24.560  1.00  0.00     0.211 HD
ENDBRANCH  33  40
BRANCH  35  42
ATOM     42  O   UNL     1      44.406  45.125  26.578  1.00  0.00    -0.385 OA
ATOM     43  H   UNL     1      44.700  44.983  25.644  1.00  0.00     0.211 HD
ENDBRANCH  35  42
BRANCH  36  44
ATOM     44  O   UNL     1      44.715  44.567  29.342  1.00  0.00    -0.366 OA
ATOM     45  H   UNL     1      44.321  45.052  30.110  1.00  0.00     0.213 HD
ENDBRANCH  36  44
ENDBRANCH  30  31
ENDBRANCH   4  30
TORSDOF 18
ENDMDL
MODEL 4
REMARK VINA RESULT:    -4.763     14.672     18.347
REMARK INTER + INTRA:          -9.042
REMARK INTER:                  -7.941
REMARK INTRA:                  -1.101
REMARK UNBOUND:                -0.798
REMARK SMILES OC[C@@H]1O[C@H](O)[C@H](O)[C@H](O)[C@H]1O[C@H]1O[C@@H](CO)[C@H](O[C@H]2O[C@H](CO)[C@H](O)[C@H](O)[C@H]2O)[C@@H](O)[C@H]1O
REMARK SMILES IDX 18 1 15 2 14 3 13 4 33 5 31 6 19 7 20 8 22 9 25 10 21 11
REMARK SMILES IDX 27 12 29 13 23 14 24 15 26 17 28 19 30 21 16 23 17 24 32 26
REMARK SMILES IDX 34 28 12 30 11 31 3 32 9 33 4 34 7 35 5 36 2 37 1 38 10 40
REMARK SMILES IDX 8 42 6 44
REMARK H PARENT 24 16 26 18 28 20 30 22 17 25 32 27 34 29 1 39 10 41 8 43 6 45
REMARK Flexibility Score: inf
ROOT
ATOM      1  C   UNL     1      50.055  27.973  15.670  1.00  0.00     0.184 C 
ATOM      2  C   UNL     1      51.453  27.690  16.263  1.00  0.00     0.178 C 
ATOM      3  O   UNL     1      51.526  27.971  17.658  1.00  0.00    -0.341 OA
ATOM      4  C   UNL     1      50.569  27.278  18.448  1.00  0.00     0.282 C 
ATOM      5  C   UNL     1      49.117  27.491  17.952  1.00  0.00     0.202 C 
ATOM      6  C   UNL     1      48.960  27.225  16.447  1.00  0.00     0.180 C 
ENDROOT
BRANCH   1   7
ATOM      7  O   UNL     1      49.846  29.371  15.761  1.00  0.00    -0.341 OA
BRANCH   7   8
ATOM      8  C   UNL     1      48.529  29.722  16.174  1.00  0.00     0.282 C 
ATOM      9  C   UNL     1      49.315  31.743  17.084  1.00  0.00     0.178 C 
ATOM     10  C   UNL     1      48.634  32.606  15.998  1.00  0.00     0.177 C 
ATOM     11  O   UNL     1      48.580  30.551  17.325  1.00  0.00    -0.341 OA
ATOM     12  C   UNL     1      48.493  31.783  14.706  1.00  0.00     0.179 C 
ATOM     13  C   UNL     1      47.794  30.448  15.026  1.00  0.00     0.202 C 
BRANCH   9  14
ATOM     14  C   UNL     1      49.457  32.521  18.396  1.00  0.00     0.191 C 
BRANCH  14  15
ATOM     15  O   UNL     1      49.732  33.864  18.120  1.00  0.00    -0.394 OA
ATOM     16  H   UNL     1      50.636  33.879  17.715  1.00  0.00     0.210 HD
ENDBRANCH  14  15
ENDBRANCH   9  14
BRANCH  10  17
ATOM     17  O   UNL     1      47.360  33.008  16.440  1.00  0.00    -0.387 OA
ATOM     18  H   UNL     1      46.747  32.967  15.661  1.00  0.00     0.211 HD
ENDBRANCH  10  17
BRANCH  12  19
ATOM     19  O   UNL     1      47.749  32.508  13.761  1.00  0.00    -0.387 OA
ATOM     20  H   UNL     1      46.792  32.336  13.961  1.00  0.00     0.211 HD
ENDBRANCH  12  19
BRANCH  13  21
ATOM     21  O   UNL     1      47.691  29.634  13.886  1.00  0.00    -0.385 OA
ATOM     22  H   UNL     1      47.875  28.699  14.164  1.00  0.00     0.211 HD
ENDBRANCH  13  21
ENDBRANCH   7   8
ENDBRANCH   1   7
BRANCH   2  23
ATOM     23  C   UNL     1      52.041  26.315  15.883  1.00  0.00     0.191 C 
BRANCH  23  24
ATOM     24  O   UNL     1      51.587  25.926  14.615  1.00  0.00    -0.394 OA
ATOM     25  H   UNL     1      51.335  24.968  14.685  1.00  0.00     0.210 HD
ENDBRANCH  23  24
ENDBRANCH   2  23
BRANCH   6  26
ATOM     26  O   UNL     1      49.008  25.851  16.159  1.00  0.00    -0.387 OA
ATOM     27  H   UNL     1      49.617  25.435  16.824  1.00  0.00     0.211 HD
ENDBRANCH   6  26
BRANCH   5  28
ATOM     28  O   UNL     1      48.230  26.692  18.688  1.00  0.00    -0.385 OA
ATOM     29  H   UNL     1      47.388  27.203  18.779  1.00  0.00     0.211 HD
ENDBRANCH   5  28
BRANCH   4  30
ATOM     30  O   UNL     1      50.922  25.902  18.546  1.00  0.00    -0.341 OA
BRANCH  30  31
ATOM     31  C   UNL     1      51.436  25.546  19.821  1.00  0.00     0.184 C 
ATOM     32  C   UNL     1      52.974  25.751  19.818  1.00  0.00     0.178 C 
ATOM     33  C   UNL     1      50.832  26.446  20.925  1.00  0.00     0.180 C 
ATOM     34  O   UNL     1      53.524  25.419  21.082  1.00  0.00    -0.342 OA
ATOM     35  C   UNL     1      51.539  26.178  22.270  1.00  0.00     0.201 C 
ATOM     36  C   UNL     1      53.066  26.314  22.079  1.00  0.00     0.279 C 
BRANCH  32  37
ATOM     37  C   UNL     1      53.658  24.878  18.754  1.00  0.00     0.191 C 
BRANCH  37  38
ATOM     38  O   UNL     1      54.901  25.417  18.397  1.00  0.00    -0.394 OA
ATOM     39  H   UNL     1      55.570  24.690  18.498  1.00  0.00     0.210 HD
ENDBRANCH  37  38
ENDBRANCH  32  37
BRANCH  33  40
ATOM     40  O   UNL     1      49.452  26.216  21.046  1.00  0.00    -0.387 OA
ATOM     41  H   UNL     1      49.102  26.850  21.731  1.00  0.00     0.211 HD
ENDBRANCH  33  40
BRANCH  35  42
ATOM     42  O   UNL     1      51.230  24.875  22.706  1.00  0.00    -0.385 OA
ATOM     43  H   UNL     1      51.066  24.320  21.903  1.00  0.00     0.211 HD
ENDBRANCH  35  42
BRANCH  36  44
ATOM     44  O   UNL     1      53.742  26.060  23.282  1.00  0.00    -0.366 OA
ATOM     45  H   UNL     1      53.088  25.670  23.915  1.00  0.00     0.213 HD
ENDBRANCH  36  44
ENDBRANCH  30  31
ENDBRANCH   4  30
TORSDOF 18
ENDMDL
MODEL 5
REMARK VINA RESULT:    -4.316     15.451     19.584
REMARK INTER + INTRA:          -8.268
REMARK INTER:                  -6.747
REMARK INTRA:                  -1.521
REMARK UNBOUND:                -0.798
REMARK SMILES OC[C@@H]1O[C@H](O)[C@H](O)[C@H](O)[C@H]1O[C@H]1O[C@@H](CO)[C@H](O[C@H]2O[C@H](CO)[C@H](O)[C@H](O)[C@H]2O)[C@@H](O)[C@H]1O
REMARK SMILES IDX 18 1 15 2 14 3 13 4 33 5 31 6 19 7 20 8 22 9 25 10 21 11
REMARK SMILES IDX 27 12 29 13 23 14 24 15 26 17 28 19 30 21 16 23 17 24 32 26
REMARK SMILES IDX 34 28 12 30 11 31 3 32 9 33 4 34 7 35 5 36 2 37 1 38 10 40
REMARK SMILES IDX 8 42 6 44
REMARK H PARENT 24 16 26 18 28 20 30 22 17 25 32 27 34 29 1 39 10 41 8 43 6 45
REMARK Flexibility Score: inf
ROOT
ATOM      1  C   UNL     1      50.424  26.164  16.316  1.00  0.00     0.184 C 
ATOM      2  C   UNL     1      50.380  27.187  17.472  1.00  0.00     0.178 C 
ATOM      3  O   UNL     1      50.467  28.534  17.017  1.00  0.00    -0.341 OA
ATOM      4  C   UNL     1      49.471  28.901  16.072  1.00  0.00     0.282 C 
ATOM      5  C   UNL     1      49.421  27.946  14.854  1.00  0.00     0.202 C 
ATOM      6  C   UNL     1      49.346  26.467  15.264  1.00  0.00     0.180 C 
ENDROOT
BRANCH   1   7
ATOM      7  O   UNL     1      51.712  26.258  15.732  1.00  0.00    -0.341 OA
BRANCH   7   8
ATOM      8  C   UNL     1      52.154  25.043  15.134  1.00  0.00     0.282 C 
ATOM      9  C   UNL     1      52.368  26.110  13.049  1.00  0.00     0.178 C 
ATOM     10  C   UNL     1      53.911  26.043  13.067  1.00  0.00     0.177 C 
ATOM     11  O   UNL     1      51.800  25.018  13.759  1.00  0.00    -0.341 OA
ATOM     12  C   UNL     1      54.404  26.027  14.524  1.00  0.00     0.179 C 
ATOM     13  C   UNL     1      53.683  24.905  15.295  1.00  0.00     0.202 C 
BRANCH   9  14
ATOM     14  C   UNL     1      51.835  26.106  11.612  1.00  0.00     0.191 C 
BRANCH  14  15
ATOM     15  O   UNL     1      52.650  26.908  10.805  1.00  0.00    -0.394 OA
ATOM     16  H   UNL     1      52.042  27.353  10.162  1.00  0.00     0.210 HD
ENDBRANCH  14  15
ENDBRANCH   9  14
BRANCH  10  17
ATOM     17  O   UNL     1      54.345  24.875  12.413  1.00  0.00    -0.387 OA
ATOM     18  H   UNL     1      54.300  24.131  13.068  1.00  0.00     0.211 HD
ENDBRANCH  10  17
BRANCH  12  19
ATOM     19  O   UNL     1      55.793  25.823  14.553  1.00  0.00    -0.387 OA
ATOM     20  H   UNL     1      56.062  25.832  15.509  1.00  0.00     0.211 HD
ENDBRANCH  12  19
BRANCH  13  21
ATOM     21  O   UNL     1      54.058  24.885  16.648  1.00  0.00    -0.385 OA
ATOM     22  H   UNL     1      53.510  24.194  17.103  1.00  0.00     0.211 HD
ENDBRANCH  13  21
ENDBRANCH   7   8
ENDBRANCH   1   7
BRANCH   2  23
ATOM     23  C   UNL     1      49.242  26.955  18.487  1.00  0.00     0.191 C 
BRANCH  23  24
ATOM     24  O   UNL     1      49.060  25.582  18.708  1.00  0.00    -0.394 OA
ATOM     25  H   UNL     1      48.841  25.476  19.671  1.00  0.00     0.210 HD
ENDBRANCH  23  24
ENDBRANCH   2  23
BRANCH   6  26
ATOM     26  O   UNL     1      48.074  26.133  15.758  1.00  0.00    -0.387 OA
ATOM     27  H   UNL     1      47.414  26.684  15.260  1.00  0.00     0.211 HD
ENDBRANCH   6  26
BRANCH   5  28
ATOM     28  O   UNL     1      48.346  28.280  14.018  1.00  0.00    -0.385 OA
ATOM     29  H   UNL     1      48.358  29.263  13.909  1.00  0.00     0.211 HD
ENDBRANCH   5  28
BRANCH   4  30
ATOM     30  O   UNL     1      48.210  29.035  16.721  1.00  0.00    -0.341 OA
BRANCH  30  31
ATOM     31  C   UNL     1      47.801  30.386  16.877  1.00  0.00     0.184 C 
ATOM     32  C   UNL     1      48.105  30.838  18.329  1.00  0.00     0.178 C 
ATOM     33  C   UNL     1      48.582  31.309  15.910  1.00  0.00     0.180 C 
ATOM     34  O   UNL     1      47.724  32.190  18.521  1.00  0.00    -0.342 OA
ATOM     35  C   UNL     1      48.268  32.787  16.224  1.00  0.00     0.201 C 
ATOM     36  C   UNL     1      48.517  33.053  17.725  1.00  0.00     0.279 C 
BRANCH  32  37
ATOM     37  C   UNL     1      47.353  29.978  19.358  1.00  0.00     0.191 C 
BRANCH  37  38
ATOM     38  O   UNL     1      46.938  30.759  20.444  1.00  0.00    -0.394 OA
ATOM     39  H   UNL     1      47.068  31.708  20.184  1.00  0.00     0.210 HD
ENDBRANCH  37  38
ENDBRANCH  32  37
BRANCH  33  40
ATOM     40  O   UNL     1      48.255  31.014  14.577  1.00  0.00    -0.387 OA
ATOM     41  H   UNL     1      47.278  31.171  14.467  1.00  0.00     0.211 HD
ENDBRANCH  33  40
BRANCH  35  42
ATOM     42  O   UNL     1      46.922  33.052  15.911  1.00  0.00    -0.385 OA
ATOM     43  H   UNL     1      46.372  32.330  16.307  1.00  0.00     0.211 HD
ENDBRANCH  35  42
BRANCH  36  44
ATOM     44  O   UNL     1      48.224  34.387  18.048  1.00  0.00    -0.366 OA
ATOM     45  H   UNL     1      47.305  34.575  17.734  1.00  0.00     0.213 HD
ENDBRANCH  36  44
ENDBRANCH  30  31
ENDBRANCH   4  30
TORSDOF 18
ENDMDL
MODEL 6
REMARK VINA RESULT:    -4.303     18.069     21.267
REMARK INTER + INTRA:          -8.245
REMARK INTER:                  -7.388
REMARK INTRA:                  -0.857
REMARK UNBOUND:                -0.798
REMARK SMILES OC[C@@H]1O[C@H](O)[C@H](O)[C@H](O)[C@H]1O[C@H]1O[C@@H](CO)[C@H](O[C@H]2O[C@H](CO)[C@H](O)[C@H](O)[C@H]2O)[C@@H](O)[C@H]1O
REMARK SMILES IDX 18 1 15 2 14 3 13 4 33 5 31 6 19 7 20 8 22 9 25 10 21 11
REMARK SMILES IDX 27 12 29 13 23 14 24 15 26 17 28 19 30 21 16 23 17 24 32 26
REMARK SMILES IDX 34 28 12 30 11 31 3 32 9 33 4 34 7 35 5 36 2 37 1 38 10 40
REMARK SMILES IDX 8 42 6 44
REMARK H PARENT 24 16 26 18 28 20 30 22 17 25 32 27 34 29 1 39 10 41 8 43 6 45
REMARK Flexibility Score: inf
ROOT
ATOM      1  C   UNL     1      51.289  27.082  14.713  1.00  0.00     0.184 C 
ATOM      2  C   UNL     1      51.090  25.762  15.491  1.00  0.00     0.178 C 
ATOM      3  O   UNL     1      52.000  25.623  16.578  1.00  0.00    -0.341 OA
ATOM      4  C   UNL     1      51.964  26.691  17.516  1.00  0.00     0.282 C 
ATOM      5  C   UNL     1      52.159  28.077  16.851  1.00  0.00     0.202 C 
ATOM      6  C   UNL     1      51.224  28.296  15.653  1.00  0.00     0.180 C 
ENDROOT
BRANCH   1   7
ATOM      7  O   UNL     1      52.564  27.010  14.101  1.00  0.00    -0.341 OA
BRANCH   7   8
ATOM      8  C   UNL     1      52.745  25.844  13.302  1.00  0.00     0.282 C 
ATOM      9  C   UNL     1      53.475  27.155  11.492  1.00  0.00     0.178 C 
ATOM     10  C   UNL     1      54.935  26.661  11.602  1.00  0.00     0.177 C 
ATOM     11  O   UNL     1      52.563  26.157  11.929  1.00  0.00    -0.341 OA
ATOM     12  C   UNL     1      55.229  26.256  13.056  1.00  0.00     0.179 C 
ATOM     13  C   UNL     1      54.155  25.261  13.536  1.00  0.00     0.202 C 
BRANCH   9  14
ATOM     14  C   UNL     1      53.135  27.550  10.051  1.00  0.00     0.191 C 
BRANCH  14  15
ATOM     15  O   UNL     1      52.636  28.856  10.026  1.00  0.00    -0.394 OA
ATOM     16  H   UNL     1      52.004  28.920  10.786  1.00  0.00     0.210 HD
ENDBRANCH  14  15
ENDBRANCH   9  14
BRANCH  10  17
ATOM     17  O   UNL     1      55.127  25.552  10.758  1.00  0.00    -0.387 OA
ATOM     18  H   UNL     1      56.087  25.527  10.509  1.00  0.00     0.211 HD
ENDBRANCH  10  17
BRANCH  12  19
ATOM     19  O   UNL     1      56.504  25.673  13.137  1.00  0.00    -0.387 OA
ATOM     20  H   UNL     1      56.539  25.185  14.001  1.00  0.00     0.211 HD
ENDBRANCH  12  19
BRANCH  13  21
ATOM     21  O   UNL     1      54.348  24.903  14.880  1.00  0.00    -0.385 OA
ATOM     22  H   UNL     1      54.873  25.624  15.313  1.00  0.00     0.211 HD
ENDBRANCH  13  21
ENDBRANCH   7   8
ENDBRANCH   1   7
BRANCH   2  23
ATOM     23  C   UNL     1      49.626  25.461  15.874  1.00  0.00     0.191 C 
BRANCH  23  24
ATOM     24  O   UNL     1      48.750  26.105  14.989  1.00  0.00    -0.394 OA
ATOM     25  H   UNL     1      47.840  26.018  15.376  1.00  0.00     0.210 HD
ENDBRANCH  23  24
ENDBRANCH   2  23
BRANCH   6  26
ATOM     26  O   UNL     1      49.900  28.523  16.067  1.00  0.00    -0.387 OA
ATOM     27  H   UNL     1      49.382  27.706  15.846  1.00  0.00     0.211 HD
ENDBRANCH   6  26
BRANCH   5  28
ATOM     28  O   UNL     1      51.993  29.097  17.798  1.00  0.00    -0.385 OA
ATOM     29  H   UNL     1      52.520  29.873  17.483  1.00  0.00     0.211 HD
ENDBRANCH   5  28
BRANCH   4  30
ATOM     30  O   UNL     1      50.774  26.616  18.295  1.00  0.00    -0.341 OA
BRANCH  30  31
ATOM     31  C   UNL     1      51.020  26.614  19.693  1.00  0.00     0.184 C 
ATOM     32  C   UNL     1      50.096  25.565  20.365  1.00  0.00     0.178 C 
ATOM     33  C   UNL     1      52.488  26.224  19.990  1.00  0.00     0.180 C 
ATOM     34  O   UNL     1      50.323  25.523  21.764  1.00  0.00    -0.342 OA
ATOM     35  C   UNL     1      52.688  26.040  21.509  1.00  0.00     0.201 C 
ATOM     36  C   UNL     1      51.629  25.053  22.046  1.00  0.00     0.279 C 
BRANCH  32  37
ATOM     37  C   UNL     1      48.611  25.887  20.130  1.00  0.00     0.191 C 
BRANCH  37  38
ATOM     38  O   UNL     1      48.222  25.511  18.838  1.00  0.00    -0.394 OA
ATOM     39  H   UNL     1      47.230  25.465  18.837  1.00  0.00     0.210 HD
ENDBRANCH  37  38
ENDBRANCH  32  37
BRANCH  33  40
ATOM     40  O   UNL     1      53.365  27.204  19.498  1.00  0.00    -0.387 OA
ATOM     41  H   UNL     1      53.394  27.109  18.507  1.00  0.00     0.211 HD
ENDBRANCH  33  40
BRANCH  35  42
ATOM     42  O   UNL     1      52.545  27.285  22.150  1.00  0.00    -0.385 OA
ATOM     43  H   UNL     1      51.596  27.558  22.072  1.00  0.00     0.211 HD
ENDBRANCH  35  42
BRANCH  36  44
ATOM     44  O   UNL     1      51.772  24.876  23.431  1.00  0.00    -0.366 OA
ATOM     45  H   UNL     1      51.942  23.913  23.592  1.00  0.00     0.213 HD
ENDBRANCH  36  44
ENDBRANCH  30  31
ENDBRANCH   4  30
TORSDOF 18
ENDMDL
MODEL 7
REMARK VINA RESULT:    -4.209      1.502      2.046
REMARK INTER + INTRA:          -8.082
REMARK INTER:                  -8.638
REMARK INTRA:                   0.556
REMARK UNBOUND:                -0.798
REMARK SMILES OC[C@@H]1O[C@H](O)[C@H](O)[C@H](O)[C@H]1O[C@H]1O[C@@H](CO)[C@H](O[C@H]2O[C@H](CO)[C@H](O)[C@H](O)[C@H]2O)[C@@H](O)[C@H]1O
REMARK SMILES IDX 18 1 15 2 14 3 13 4 33 5 31 6 19 7 20 8 22 9 25 10 21 11
REMARK SMILES IDX 27 12 29 13 23 14 24 15 26 17 28 19 30 21 16 23 17 24 32 26
REMARK SMILES IDX 34 28 12 30 11 31 3 32 9 33 4 34 7 35 5 36 2 37 1 38 10 40
REMARK SMILES IDX 8 42 6 44
REMARK H PARENT 24 16 26 18 28 20 30 22 17 25 32 27 34 29 1 39 10 41 8 43 6 45
REMARK Flexibility Score: inf
ROOT
ATOM      1  C   UNL     1      41.037  42.969  24.429  1.00  0.00     0.184 C 
ATOM      2  C   UNL     1      41.731  41.785  23.720  1.00  0.00     0.178 C 
ATOM      3  O   UNL     1      41.455  40.533  24.342  1.00  0.00    -0.341 OA
ATOM      4  C   UNL     1      40.073  40.224  24.456  1.00  0.00     0.282 C 
ATOM      5  C   UNL     1      39.266  41.343  25.161  1.00  0.00     0.202 C 
ATOM      6  C   UNL     1      39.524  42.731  24.557  1.00  0.00     0.180 C 
ENDROOT
BRANCH   1   7
ATOM      7  O   UNL     1      41.622  43.077  25.714  1.00  0.00    -0.341 OA
BRANCH   7   8
ATOM      8  C   UNL     1      40.860  42.446  26.739  1.00  0.00     0.282 C 
ATOM      9  C   UNL     1      42.826  41.668  27.769  1.00  0.00     0.178 C 
ATOM     10  C   UNL     1      42.680  42.617  28.979  1.00  0.00     0.177 C 
ATOM     11  O   UNL     1      41.556  41.314  27.240  1.00  0.00    -0.341 OA
ATOM     12  C   UNL     1      41.900  43.872  28.552  1.00  0.00     0.179 C 
ATOM     13  C   UNL     1      40.580  43.449  27.879  1.00  0.00     0.202 C 
BRANCH   9  14
ATOM     14  C   UNL     1      43.581  40.393  28.159  1.00  0.00     0.191 C 
BRANCH  14  15
ATOM     15  O   UNL     1      43.429  39.430  27.156  1.00  0.00    -0.394 OA
ATOM     16  H   UNL     1      42.704  39.762  26.569  1.00  0.00     0.210 HD
ENDBRANCH  14  15
ENDBRANCH   9  14
BRANCH  10  17
ATOM     17  O   UNL     1      41.987  41.965  30.015  1.00  0.00    -0.387 OA
ATOM     18  H   UNL     1      42.359  42.291  30.875  1.00  0.00     0.211 HD
ENDBRANCH  10  17
BRANCH  12  19
ATOM     19  O   UNL     1      41.639  44.674  29.675  1.00  0.00    -0.387 OA
ATOM     20  H   UNL     1      42.433  45.255  29.800  1.00  0.00     0.211 HD
ENDBRANCH  12  19
BRANCH  13  21
ATOM     21  O   UNL     1      39.856  44.560  27.419  1.00  0.00    -0.385 OA
ATOM     22  H   UNL     1      39.709  45.166  28.191  1.00  0.00     0.211 HD
ENDBRANCH  13  21
ENDBRANCH   7   8
ENDBRANCH   1   7
BRANCH   2  23
ATOM     23  C   UNL     1      41.546  41.760  22.188  1.00  0.00     0.191 C 
BRANCH  23  24
ATOM     24  O   UNL     1      42.182  40.637  21.640  1.00  0.00    -0.394 OA
ATOM     25  H   UNL     1      41.836  39.847  22.132  1.00  0.00     0.210 HD
ENDBRANCH  23  24
ENDBRANCH   2  23
BRANCH   6  26
ATOM     26  O   UNL     1      38.900  42.873  23.306  1.00  0.00    -0.387 OA
ATOM     27  H   UNL     1      38.330  42.072  23.173  1.00  0.00     0.211 HD
ENDBRANCH   6  26
BRANCH   5  28
ATOM     28  O   UNL     1      37.896  41.043  25.136  1.00  0.00    -0.385 OA
ATOM     29  H   UNL     1      37.413  41.903  25.061  1.00  0.00     0.211 HD
ENDBRANCH   5  28
BRANCH   4  30
ATOM     30  O   UNL     1      39.543  39.884  23.178  1.00  0.00    -0.341 OA
BRANCH  30  31
ATOM     31  C   UNL     1      39.236  38.504  23.049  1.00  0.00     0.184 C 
ATOM     32  C   UNL     1      40.472  37.672  23.482  1.00  0.00     0.178 C 
ATOM     33  C   UNL     1      38.050  38.119  23.966  1.00  0.00     0.180 C 
ATOM     34  O   UNL     1      40.199  36.284  23.381  1.00  0.00    -0.342 OA
ATOM     35  C   UNL     1      37.854  36.588  23.961  1.00  0.00     0.201 C 
ATOM     36  C   UNL     1      39.194  35.902  24.303  1.00  0.00     0.279 C 
BRANCH  32  37
ATOM     37  C   UNL     1      41.697  37.983  22.608  1.00  0.00     0.191 C 
BRANCH  37  38
ATOM     38  O   UNL     1      42.802  38.309  23.404  1.00  0.00    -0.394 OA
ATOM     39  H   UNL     1      43.449  37.560  23.321  1.00  0.00     0.210 HD
ENDBRANCH  37  38
ENDBRANCH  32  37
BRANCH  33  40
ATOM     40  O   UNL     1      36.875  38.762  23.546  1.00  0.00    -0.387 OA
ATOM     41  H   UNL     1      36.202  38.660  24.273  1.00  0.00     0.211 HD
ENDBRANCH  33  40
BRANCH  35  42
ATOM     42  O   UNL     1      37.424  36.180  22.684  1.00  0.00    -0.385 OA
ATOM     43  H   UNL     1      38.228  35.948  22.155  1.00  0.00     0.211 HD
ENDBRANCH  35  42
BRANCH  36  44
ATOM     44  O   UNL     1      39.054  34.505  24.290  1.00  0.00    -0.366 OA
ATOM     45  H   UNL     1      39.244  34.195  23.369  1.00  0.00     0.213 HD
ENDBRANCH  36  44
ENDBRANCH  30  31
ENDBRANCH   4  30
TORSDOF 18
ENDMDL
