MODEL 1
REMARK VINA RESULT:    -3.946      0.000      0.000
REMARK INTER + INTRA:          -6.196
REMARK INTER:                  -5.792
REMARK INTRA:                  -0.404
REMARK UNBOUND:                -0.404
REMARK SMILES O=C([O-])CCCCCCCC(=O)[O-]
REMARK SMILES IDX 7 1 6 2 5 3 4 4 2 5 1 6 3 7 8 8 9 9 10 10 11 11 12 12 13 13
REMARK H PARENT
REMARK Flexibility Score: inf
ROOT
ATOM      1  C   UNL     1      49.154   5.065  21.336  1.00  0.00     0.000 C 
ENDROOT
BRANCH   1   2
ATOM      2  C   UNL     1      49.367   6.530  21.748  1.00  0.00     0.000 C 
BRANCH   2   3
ATOM      3  C   UNL     1      48.801   7.486  20.687  1.00  0.00     0.006 C 
BRANCH   3   4
ATOM      4  C   UNL     1      49.848   8.494  20.194  1.00  0.00     0.053 C 
BRANCH   4   5
ATOM      5  C   UNL     1      50.526   8.023  18.945  1.00  0.00     0.041 C 
ATOM      6  O   UNL     1      50.105   8.390  17.816  1.00  0.00    -0.550 OA
ATOM      7  O   UNL     1      51.644   7.203  19.028  1.00  0.00    -0.550 OA
ENDBRANCH   4   5
ENDBRANCH   3   4
ENDBRANCH   2   3
ENDBRANCH   1   2
BRANCH   1   8
ATOM      8  C   UNL     1      49.726   4.071  22.360  1.00  0.00     0.000 C 
BRANCH   8   9
ATOM      9  C   UNL     1      50.552   2.953  21.701  1.00  0.00     0.006 C 
BRANCH   9  10
ATOM     10  C   UNL     1      50.317   2.876  20.187  1.00  0.00     0.053 C 
BRANCH  10  11
ATOM     11  C   UNL     1      51.599   2.962  19.418  1.00  0.00     0.041 C 
ATOM     12  O   UNL     1      51.819   3.944  18.661  1.00  0.00    -0.550 OA
ATOM     13  O   UNL     1      52.539   1.944  19.514  1.00  0.00    -0.550 OA
ENDBRANCH  10  11
ENDBRANCH   9  10
ENDBRANCH   8   9
ENDBRANCH   1   8
TORSDOF 8
ENDMDL
MODEL 2
REMARK VINA RESULT:    -3.914      1.112      5.049
REMARK INTER + INTRA:          -6.149
REMARK INTER:                  -5.725
REMARK INTRA:                  -0.423
REMARK UNBOUND:                -0.404
REMARK SMILES O=C([O-])CCCCCCCC(=O)[O-]
REMARK SMILES IDX 7 1 6 2 5 3 4 4 2 5 1 6 3 7 8 8 9 9 10 10 11 11 12 12 13 13
REMARK H PARENT
REMARK Flexibility Score: inf
ROOT
ATOM      1  C   UNL     1      48.670   5.059  22.594  1.00  0.00     0.000 C 
ENDROOT
BRANCH   1   2
ATOM      2  C   UNL     1      49.199   3.690  22.140  1.00  0.00     0.000 C 
BRANCH   2   3
ATOM      3  C   UNL     1      49.966   3.811  20.814  1.00  0.00     0.006 C 
BRANCH   3   4
ATOM      4  C   UNL     1      50.860   2.593  20.546  1.00  0.00     0.053 C 
BRANCH   4   5
ATOM      5  C   UNL     1      51.788   2.828  19.395  1.00  0.00     0.041 C 
ATOM      6  O   UNL     1      52.574   1.920  19.016  1.00  0.00    -0.550 OA
ATOM      7  O   UNL     1      51.763   4.042  18.719  1.00  0.00    -0.550 OA
ENDBRANCH   4   5
ENDBRANCH   3   4
ENDBRANCH   2   3
ENDBRANCH   1   2
BRANCH   1   8
ATOM      8  C   UNL     1      48.353   5.994  21.415  1.00  0.00     0.000 C 
BRANCH   8   9
ATOM      9  C   UNL     1      49.025   7.371  21.554  1.00  0.00     0.006 C 
BRANCH   9  10
ATOM     10  C   UNL     1      50.082   7.611  20.469  1.00  0.00     0.053 C 
BRANCH  10  11
ATOM     11  C   UNL     1      49.617   8.602  19.446  1.00  0.00     0.041 C 
ATOM     12  O   UNL     1      50.451   9.325  18.841  1.00  0.00    -0.550 OA
ATOM     13  O   UNL     1      48.260   8.747  19.183  1.00  0.00    -0.550 OA
ENDBRANCH  10  11
ENDBRANCH   9  10
ENDBRANCH   8   9
ENDBRANCH   1   8
TORSDOF 8
ENDMDL
MODEL 3
REMARK VINA RESULT:    -3.874      3.922      5.827
REMARK INTER + INTRA:          -6.090
REMARK INTER:                  -5.545
REMARK INTRA:                  -0.545
REMARK UNBOUND:                -0.404
REMARK SMILES O=C([O-])CCCCCCCC(=O)[O-]
REMARK SMILES IDX 7 1 6 2 5 3 4 4 2 5 1 6 3 7 8 8 9 9 10 10 11 11 12 12 13 13
REMARK H PARENT
REMARK Flexibility Score: inf
ROOT
ATOM      1  C   UNL     1      50.180   1.458  22.352  1.00  0.00     0.000 C 
ENDROOT
BRANCH   1   2
ATOM      2  C   UNL     1      50.824   2.677  21.675  1.00  0.00     0.000 C 
BRANCH   2   3
ATOM      3  C   UNL     1      50.671   2.600  20.148  1.00  0.00     0.006 C 
BRANCH   3   4
ATOM      4  C   UNL     1      51.868   3.219  19.413  1.00  0.00     0.053 C 
BRANCH   4   5
ATOM      5  C   UNL     1      53.120   2.426  19.626  1.00  0.00     0.041 C 
ATOM      6  O   UNL     1      54.176   2.996  20.010  1.00  0.00    -0.550 OA
ATOM      7  O   UNL     1      53.113   1.050  19.433  1.00  0.00    -0.550 OA
ENDBRANCH   4   5
ENDBRANCH   3   4
ENDBRANCH   2   3
ENDBRANCH   1   2
BRANCH   1   8
ATOM      8  C   UNL     1      51.211   0.537  23.024  1.00  0.00     0.000 C 
BRANCH   8   9
ATOM      9  C   UNL     1      51.616  -0.649  22.132  1.00  0.00     0.006 C 
BRANCH   9  10
ATOM     10  C   UNL     1      51.434  -1.996  22.844  1.00  0.00     0.053 C 
BRANCH  10  11
ATOM     11  C   UNL     1      49.988  -2.325  23.054  1.00  0.00     0.041 C 
ATOM     12  O   UNL     1      49.547  -2.525  24.216  1.00  0.00    -0.550 OA
ATOM     13  O   UNL     1      49.134  -2.441  21.965  1.00  0.00    -0.550 OA
ENDBRANCH  10  11
ENDBRANCH   9  10
ENDBRANCH   8   9
ENDBRANCH   1   8
TORSDOF 8
ENDMDL
MODEL 4
REMARK VINA RESULT:    -3.793      1.658      2.537
REMARK INTER + INTRA:          -5.971
REMARK INTER:                  -5.496
REMARK INTRA:                  -0.475
REMARK UNBOUND:                -0.404
REMARK SMILES O=C([O-])CCCCCCCC(=O)[O-]
REMARK SMILES IDX 7 1 6 2 5 3 4 4 2 5 1 6 3 7 8 8 9 9 10 10 11 11 12 12 13 13
REMARK H PARENT
REMARK Flexibility Score: inf
ROOT
ATOM      1  C   UNL     1      49.864   3.667  22.405  1.00  0.00     0.000 C 
ENDROOT
BRANCH   1   2
ATOM      2  C   UNL     1      48.727   4.150  21.493  1.00  0.00     0.000 C 
BRANCH   2   3
ATOM      3  C   UNL     1      48.261   5.558  21.896  1.00  0.00     0.006 C 
BRANCH   3   4
ATOM      4  C   UNL     1      49.439   6.509  22.149  1.00  0.00     0.053 C 
BRANCH   4   5
ATOM      5  C   UNL     1      49.269   7.807  21.421  1.00  0.00     0.041 C 
ATOM      6  O   UNL     1      50.036   8.106  20.468  1.00  0.00    -0.550 OA
ATOM      7  O   UNL     1      48.244   8.674  21.776  1.00  0.00    -0.550 OA
ENDBRANCH   4   5
ENDBRANCH   3   4
ENDBRANCH   2   3
ENDBRANCH   1   2
BRANCH   1   8
ATOM      8  C   UNL     1      50.807   2.675  21.705  1.00  0.00     0.000 C 
BRANCH   8   9
ATOM      9  C   UNL     1      50.570   2.605  20.186  1.00  0.00     0.006 C 
BRANCH   9  10
ATOM     10  C   UNL     1      51.734   3.208  19.390  1.00  0.00     0.053 C 
BRANCH  10  11
ATOM     11  C   UNL     1      52.989   2.405  19.541  1.00  0.00     0.041 C 
ATOM     12  O   UNL     1      52.986   1.172  19.290  1.00  0.00    -0.550 OA
ATOM     13  O   UNL     1      54.156   3.013  19.987  1.00  0.00    -0.550 OA
ENDBRANCH  10  11
ENDBRANCH   9  10
ENDBRANCH   8   9
ENDBRANCH   1   8
TORSDOF 8
ENDMDL
MODEL 5
REMARK VINA RESULT:    -3.769      9.591     10.868
REMARK INTER + INTRA:          -5.936
REMARK INTER:                  -5.732
REMARK INTRA:                  -0.204
REMARK UNBOUND:                -0.404
REMARK SMILES O=C([O-])CCCCCCCC(=O)[O-]
REMARK SMILES IDX 7 1 6 2 5 3 4 4 2 5 1 6 3 7 8 8 9 9 10 10 11 11 12 12 13 13
REMARK H PARENT
REMARK Flexibility Score: inf
ROOT
ATOM      1  C   UNL     1      59.175   1.572  17.196  1.00  0.00     0.000 C 
ENDROOT
BRANCH   1   2
ATOM      2  C   UNL     1      60.638   1.935  16.903  1.00  0.00     0.000 C 
BRANCH   2   3
ATOM      3  C   UNL     1      60.947   3.372  17.352  1.00  0.00     0.006 C 
BRANCH   3   4
ATOM      4  C   UNL     1      62.241   3.459  18.173  1.00  0.00     0.053 C 
BRANCH   4   5
ATOM      5  C   UNL     1      62.407   4.806  18.806  1.00  0.00     0.041 C 
ATOM      6  O   UNL     1      62.740   4.903  20.016  1.00  0.00    -0.550 OA
ATOM      7  O   UNL     1      62.223   5.957  18.050  1.00  0.00    -0.550 OA
ENDBRANCH   4   5
ENDBRANCH   3   4
ENDBRANCH   2   3
ENDBRANCH   1   2
BRANCH   1   8
ATOM      8  C   UNL     1      58.680   0.381  16.358  1.00  0.00     0.000 C 
BRANCH   8   9
ATOM      9  C   UNL     1      58.283  -0.827  17.224  1.00  0.00     0.006 C 
BRANCH   9  10
ATOM     10  C   UNL     1      57.478  -0.411  18.463  1.00  0.00     0.053 C 
BRANCH  10  11
ATOM     11  C   UNL     1      56.805  -1.582  19.110  1.00  0.00     0.041 C 
ATOM     12  O   UNL     1      57.491  -2.476  19.672  1.00  0.00    -0.550 OA
ATOM     13  O   UNL     1      55.421  -1.701  19.068  1.00  0.00    -0.550 OA
ENDBRANCH  10  11
ENDBRANCH   9  10
ENDBRANCH   8   9
ENDBRANCH   1   8
TORSDOF 8
ENDMDL
MODEL 6
REMARK VINA RESULT:    -3.766      3.999      7.021
REMARK INTER + INTRA:          -5.931
REMARK INTER:                  -5.466
REMARK INTRA:                  -0.465
REMARK UNBOUND:                -0.404
REMARK SMILES O=C([O-])CCCCCCCC(=O)[O-]
REMARK SMILES IDX 7 1 6 2 5 3 4 4 2 5 1 6 3 7 8 8 9 9 10 10 11 11 12 12 13 13
REMARK H PARENT
REMARK Flexibility Score: inf
ROOT
ATOM      1  C   UNL     1      49.564   1.675  21.981  1.00  0.00     0.000 C 
ENDROOT
BRANCH   1   2
ATOM      2  C   UNL     1      48.715   0.396  21.999  1.00  0.00     0.000 C 
BRANCH   2   3
ATOM      3  C   UNL     1      49.432  -0.727  22.766  1.00  0.00     0.006 C 
BRANCH   3   4
ATOM      4  C   UNL     1      50.877  -0.925  22.289  1.00  0.00     0.053 C 
BRANCH   4   5
ATOM      5  C   UNL     1      51.432  -2.243  22.733  1.00  0.00     0.041 C 
ATOM      6  O   UNL     1      51.859  -3.071  21.885  1.00  0.00    -0.550 OA
ATOM      7  O   UNL     1      51.505  -2.546  24.087  1.00  0.00    -0.550 OA
ENDBRANCH   4   5
ENDBRANCH   3   4
ENDBRANCH   2   3
ENDBRANCH   1   2
BRANCH   1   8
ATOM      8  C   UNL     1      49.473   2.429  20.644  1.00  0.00     0.000 C 
BRANCH   8   9
ATOM      9  C   UNL     1      50.852   2.856  20.110  1.00  0.00     0.006 C 
BRANCH   9  10
ATOM     10  C   UNL     1      52.001   2.203  20.890  1.00  0.00     0.053 C 
BRANCH  10  11
ATOM     11  C   UNL     1      53.212   1.998  20.032  1.00  0.00     0.041 C 
ATOM     12  O   UNL     1      53.359   0.926  19.389  1.00  0.00    -0.550 OA
ATOM     13  O   UNL     1      54.193   2.980  19.966  1.00  0.00    -0.550 OA
ENDBRANCH  10  11
ENDBRANCH   9  10
ENDBRANCH   8   9
ENDBRANCH   1   8
TORSDOF 8
ENDMDL
MODEL 7
REMARK VINA RESULT:    -3.761      8.579     10.609
REMARK INTER + INTRA:          -5.924
REMARK INTER:                  -5.510
REMARK INTRA:                  -0.414
REMARK UNBOUND:                -0.404
REMARK SMILES O=C([O-])CCCCCCCC(=O)[O-]
REMARK SMILES IDX 7 1 6 2 5 3 4 4 2 5 1 6 3 7 8 8 9 9 10 10 11 11 12 12 13 13
REMARK H PARENT
REMARK Flexibility Score: inf
ROOT
ATOM      1  C   UNL     1      58.762  -0.934  16.148  1.00  0.00     0.000 C 
ENDROOT
BRANCH   1   2
ATOM      2  C   UNL     1      58.290  -1.781  17.340  1.00  0.00     0.000 C 
BRANCH   2   3
ATOM      3  C   UNL     1      57.527  -0.917  18.357  1.00  0.00     0.006 C 
BRANCH   3   4
ATOM      4  C   UNL     1      56.711  -1.765  19.343  1.00  0.00     0.053 C 
BRANCH   4   5
ATOM      5  C   UNL     1      55.259  -1.797  18.977  1.00  0.00     0.041 C 
ATOM      6  O   UNL     1      54.582  -0.735  18.972  1.00  0.00    -0.550 OA
ATOM      7  O   UNL     1      54.661  -2.996  18.611  1.00  0.00    -0.550 OA
ENDBRANCH   4   5
ENDBRANCH   3   4
ENDBRANCH   2   3
ENDBRANCH   1   2
BRANCH   1   8
ATOM      8  C   UNL     1      58.602   0.575  16.392  1.00  0.00     0.000 C 
BRANCH   8   9
ATOM      9  C   UNL     1      59.908   1.354  16.154  1.00  0.00     0.006 C 
BRANCH   9  10
ATOM     10  C   UNL     1      60.202   2.348  17.285  1.00  0.00     0.053 C 
BRANCH  10  11
ATOM     11  C   UNL     1      59.019   3.213  17.590  1.00  0.00     0.041 C 
ATOM     12  O   UNL     1      58.710   4.158  16.818  1.00  0.00    -0.550 OA
ATOM     13  O   UNL     1      58.274   2.995  18.743  1.00  0.00    -0.550 OA
ENDBRANCH  10  11
ENDBRANCH   9  10
ENDBRANCH   8   9
ENDBRANCH   1   8
TORSDOF 8
ENDMDL
MODEL 8
REMARK VINA RESULT:    -3.743      3.888      5.097
REMARK INTER + INTRA:          -5.897
REMARK INTER:                  -5.432
REMARK INTRA:                  -0.465
REMARK UNBOUND:                -0.404
REMARK SMILES O=C([O-])CCCCCCCC(=O)[O-]
REMARK SMILES IDX 7 1 6 2 5 3 4 4 2 5 1 6 3 7 8 8 9 9 10 10 11 11 12 12 13 13
REMARK H PARENT
REMARK Flexibility Score: inf
ROOT
ATOM      1  C   UNL     1      48.789   6.695  22.741  1.00  0.00     0.000 C 
ENDROOT
BRANCH   1   2
ATOM      2  C   UNL     1      49.284   6.600  21.290  1.00  0.00     0.000 C 
BRANCH   2   3
ATOM      3  C   UNL     1      49.956   7.911  20.854  1.00  0.00     0.006 C 
BRANCH   3   4
ATOM      4  C   UNL     1      50.333   7.905  19.366  1.00  0.00     0.053 C 
BRANCH   4   5
ATOM      5  C   UNL     1      49.350   8.678  18.542  1.00  0.00     0.041 C 
ATOM      6  O   UNL     1      48.464   9.378  19.100  1.00  0.00    -0.550 OA
ATOM      7  O   UNL     1      49.432   8.651  17.156  1.00  0.00    -0.550 OA
ENDBRANCH   4   5
ENDBRANCH   3   4
ENDBRANCH   2   3
ENDBRANCH   1   2
BRANCH   1   8
ATOM      8  C   UNL     1      49.111   8.050  23.391  1.00  0.00     0.000 C 
BRANCH   8   9
ATOM      9  C   UNL     1      50.076   7.921  24.583  1.00  0.00     0.006 C 
BRANCH   9  10
ATOM     10  C   UNL     1      50.304   6.458  24.986  1.00  0.00     0.053 C 
BRANCH  10  11
ATOM     11  C   UNL     1      49.662   6.135  26.299  1.00  0.00     0.041 C 
ATOM     12  O   UNL     1      50.334   5.597  27.218  1.00  0.00    -0.550 OA
ATOM     13  O   UNL     1      48.313   6.400  26.500  1.00  0.00    -0.550 OA
ENDBRANCH  10  11
ENDBRANCH   9  10
ENDBRANCH   8   9
ENDBRANCH   1   8
TORSDOF 8
ENDMDL
MODEL 9
REMARK VINA RESULT:    -3.723      4.352      6.571
REMARK INTER + INTRA:          -5.868
REMARK INTER:                  -5.383
REMARK INTRA:                  -0.485
REMARK UNBOUND:                -0.404
REMARK SMILES O=C([O-])CCCCCCCC(=O)[O-]
REMARK SMILES IDX 7 1 6 2 5 3 4 4 2 5 1 6 3 7 8 8 9 9 10 10 11 11 12 12 13 13
REMARK H PARENT
REMARK Flexibility Score: inf
ROOT
ATOM      1  C   UNL     1      49.311   6.649  22.620  1.00  0.00     0.000 C 
ENDROOT
BRANCH   1   2
ATOM      2  C   UNL     1      49.380   8.028  23.291  1.00  0.00     0.000 C 
BRANCH   2   3
ATOM      3  C   UNL     1      50.101   7.943  24.645  1.00  0.00     0.006 C 
BRANCH   3   4
ATOM      4  C   UNL     1      50.369   6.493  25.071  1.00  0.00     0.053 C 
BRANCH   4   5
ATOM      5  C   UNL     1      49.805   6.201  26.428  1.00  0.00     0.041 C 
ATOM      6  O   UNL     1      49.187   7.094  27.065  1.00  0.00    -0.550 OA
ATOM      7  O   UNL     1      49.936   4.931  26.976  1.00  0.00    -0.550 OA
ENDBRANCH   4   5
ENDBRANCH   3   4
ENDBRANCH   2   3
ENDBRANCH   1   2
BRANCH   1   8
ATOM      8  C   UNL     1      49.219   6.738  21.088  1.00  0.00     0.000 C 
BRANCH   8   9
ATOM      9  C   UNL     1      49.601   8.129  20.552  1.00  0.00     0.006 C 
BRANCH   9  10
ATOM     10  C   UNL     1      48.623   8.622  19.477  1.00  0.00     0.053 C 
BRANCH  10  11
ATOM     11  C   UNL     1      47.409   9.262  20.077  1.00  0.00     0.041 C 
ATOM     12  O   UNL     1      46.342   8.605  20.198  1.00  0.00    -0.550 OA
ATOM     13  O   UNL     1      47.448  10.592  20.477  1.00  0.00    -0.550 OA
ENDBRANCH  10  11
ENDBRANCH   9  10
ENDBRANCH   8   9
ENDBRANCH   1   8
TORSDOF 8
ENDMDL
