MODEL 1
REMARK VINA RESULT:    -5.671      0.000      0.000
REMARK INTER + INTRA:          -7.226
REMARK INTER:                  -6.997
REMARK INTRA:                  -0.229
REMARK UNBOUND:                -0.229
REMARK SMILES CCOC(=O)c1ccc(O)c(O)c1
REMARK SMILES IDX 4 1 5 2 3 3 2 4 1 5 6 6 13 7 7 8 11 9 8 10 9 11 12 12 10 14
REMARK H PARENT 12 13 10 15
REMARK Flexibility Score: inf
ROOT
ATOM      1  C   UNL     1     -33.193  -3.930 -16.919  1.00  0.00     0.338 C 
ATOM      2  O   UNL     1     -32.637  -4.279 -15.840  1.00  0.00    -0.246 OA
ENDROOT
BRANCH   1   3
ATOM      3  O   UNL     1     -34.569  -4.116 -17.089  1.00  0.00    -0.462 OA
BRANCH   3   4
ATOM      4  C   UNL     1     -35.129  -5.342 -17.551  1.00  0.00     0.230 C 
ATOM      5  C   UNL     1     -35.853  -5.107 -18.866  1.00  0.00     0.049 C 
ENDBRANCH   3   4
ENDBRANCH   1   3
BRANCH   1   6
ATOM      6  C   UNL     1     -32.393  -3.320 -18.004  1.00  0.00     0.064 A 
ATOM      7  C   UNL     1     -33.017  -2.816 -19.160  1.00  0.00     0.065 A 
ATOM      8  C   UNL     1     -30.994  -3.238 -17.894  1.00  0.00     0.020 A 
ATOM      9  C   UNL     1     -32.255  -2.239 -20.187  1.00  0.00     0.158 A 
ATOM     10  C   UNL     1     -30.235  -2.663 -18.917  1.00  0.00     0.051 A 
ATOM     11  C   UNL     1     -30.862  -2.162 -20.065  1.00  0.00     0.157 A 
BRANCH   9  12
ATOM     12  O   UNL     1     -32.875  -1.739 -21.332  1.00  0.00    -0.504 OA
ATOM     13  H   UNL     1     -33.258  -2.356 -22.038  1.00  0.00     0.293 HD
ENDBRANCH   9  12
BRANCH  11  14
ATOM     14  O   UNL     1     -30.109  -1.588 -21.087  1.00  0.00    -0.504 OA
ATOM     15  H   UNL     1     -29.145  -1.310 -20.942  1.00  0.00     0.293 HD
ENDBRANCH  11  14
ENDBRANCH   1   6
TORSDOF 5
ENDMDL
MODEL 2
REMARK VINA RESULT:    -5.328      4.864      7.155
REMARK INTER + INTRA:          -6.803
REMARK INTER:                  -6.504
REMARK INTRA:                  -0.299
REMARK UNBOUND:                -0.229
REMARK SMILES CCOC(=O)c1ccc(O)c(O)c1
REMARK SMILES IDX 4 1 5 2 3 3 2 4 1 5 6 6 13 7 7 8 11 9 8 10 9 11 12 12 10 14
REMARK H PARENT 12 13 10 15
REMARK Flexibility Score: inf
ROOT
ATOM      1  C   UNL     1     -37.959  -7.882 -14.897  1.00  0.00     0.338 C 
ATOM      2  O   UNL     1     -38.429  -8.378 -15.958  1.00  0.00    -0.246 OA
ENDROOT
BRANCH   1   3
ATOM      3  O   UNL     1     -38.458  -8.286 -13.654  1.00  0.00    -0.462 OA
BRANCH   3   4
ATOM      4  C   UNL     1     -39.846  -8.259 -13.336  1.00  0.00     0.230 C 
ATOM      5  C   UNL     1     -40.268  -6.835 -13.018  1.00  0.00     0.049 C 
ENDBRANCH   3   4
ENDBRANCH   1   3
BRANCH   1   6
ATOM      6  C   UNL     1     -36.878  -6.873 -14.963  1.00  0.00     0.064 A 
ATOM      7  C   UNL     1     -36.531  -6.117 -13.828  1.00  0.00     0.065 A 
ATOM      8  C   UNL     1     -36.181  -6.657 -16.165  1.00  0.00     0.020 A 
ATOM      9  C   UNL     1     -35.506  -5.162 -13.894  1.00  0.00     0.158 A 
ATOM     10  C   UNL     1     -35.161  -5.705 -16.231  1.00  0.00     0.051 A 
ATOM     11  C   UNL     1     -34.819  -4.956 -15.098  1.00  0.00     0.157 A 
BRANCH   9  12
ATOM     12  O   UNL     1     -35.163  -4.413 -12.769  1.00  0.00    -0.504 OA
ATOM     13  H   UNL     1     -34.201  -4.323 -12.466  1.00  0.00     0.293 HD
ENDBRANCH   9  12
BRANCH  11  14
ATOM     14  O   UNL     1     -33.802  -4.007 -15.160  1.00  0.00    -0.504 OA
ATOM     15  H   UNL     1     -32.991  -4.137 -15.754  1.00  0.00     0.293 HD
ENDBRANCH  11  14
ENDBRANCH   1   6
TORSDOF 5
ENDMDL
MODEL 3
REMARK VINA RESULT:    -5.244      4.363      6.345
REMARK INTER + INTRA:          -6.700
REMARK INTER:                  -6.575
REMARK INTRA:                  -0.126
REMARK UNBOUND:                -0.229
REMARK SMILES CCOC(=O)c1ccc(O)c(O)c1
REMARK SMILES IDX 4 1 5 2 3 3 2 4 1 5 6 6 13 7 7 8 11 9 8 10 9 11 12 12 10 14
REMARK H PARENT 12 13 10 15
REMARK Flexibility Score: inf
ROOT
ATOM      1  C   UNL     1     -36.873  -7.676 -13.790  1.00  0.00     0.338 C 
ATOM      2  O   UNL     1     -36.267  -8.450 -12.998  1.00  0.00    -0.246 OA
ENDROOT
BRANCH   1   3
ATOM      3  O   UNL     1     -38.245  -7.835 -14.011  1.00  0.00    -0.462 OA
BRANCH   3   4
ATOM      4  C   UNL     1     -38.942  -9.037 -13.697  1.00  0.00     0.230 C 
ATOM      5  C   UNL     1     -40.410  -8.725 -13.455  1.00  0.00     0.049 C 
ENDBRANCH   3   4
ENDBRANCH   1   3
BRANCH   1   6
ATOM      6  C   UNL     1     -36.135  -6.599 -14.486  1.00  0.00     0.064 A 
ATOM      7  C   UNL     1     -36.010  -6.603 -15.888  1.00  0.00     0.065 A 
ATOM      8  C   UNL     1     -35.549  -5.553 -13.753  1.00  0.00     0.020 A 
ATOM      9  C   UNL     1     -35.310  -5.580 -16.544  1.00  0.00     0.158 A 
ATOM     10  C   UNL     1     -34.851  -4.533 -14.407  1.00  0.00     0.051 A 
ATOM     11  C   UNL     1     -34.730  -4.543 -15.802  1.00  0.00     0.157 A 
BRANCH   9  12
ATOM     12  O   UNL     1     -35.187  -5.587 -17.933  1.00  0.00    -0.504 OA
ATOM     13  H   UNL     1     -35.032  -6.446 -18.447  1.00  0.00     0.293 HD
ENDBRANCH   9  12
BRANCH  11  14
ATOM     14  O   UNL     1     -34.036  -3.529 -16.458  1.00  0.00    -0.504 OA
ATOM     15  H   UNL     1     -34.509  -2.703 -16.807  1.00  0.00     0.293 HD
ENDBRANCH  11  14
ENDBRANCH   1   6
TORSDOF 5
ENDMDL
MODEL 4
REMARK VINA RESULT:    -5.192      5.221      8.757
REMARK INTER + INTRA:          -6.636
REMARK INTER:                  -6.332
REMARK INTRA:                  -0.304
REMARK UNBOUND:                -0.229
REMARK SMILES CCOC(=O)c1ccc(O)c(O)c1
REMARK SMILES IDX 4 1 5 2 3 3 2 4 1 5 6 6 13 7 7 8 11 9 8 10 9 11 12 12 10 14
REMARK H PARENT 12 13 10 15
REMARK Flexibility Score: inf
ROOT
ATOM      1  C   UNL     1     -35.901  -5.756 -13.654  1.00  0.00     0.338 C 
ATOM      2  O   UNL     1     -35.702  -5.020 -12.647  1.00  0.00    -0.246 OA
ENDROOT
BRANCH   1   3
ATOM      3  O   UNL     1     -34.990  -5.747 -14.717  1.00  0.00    -0.462 OA
BRANCH   3   4
ATOM      4  C   UNL     1     -35.151  -4.915 -15.862  1.00  0.00     0.230 C 
ATOM      5  C   UNL     1     -35.660  -5.747 -17.027  1.00  0.00     0.049 C 
ENDBRANCH   3   4
ENDBRANCH   1   3
BRANCH   1   6
ATOM      6  C   UNL     1     -37.093  -6.630 -13.713  1.00  0.00     0.064 A 
ATOM      7  C   UNL     1     -38.384  -6.079 -13.812  1.00  0.00     0.065 A 
ATOM      8  C   UNL     1     -36.950  -8.028 -13.672  1.00  0.00     0.020 A 
ATOM      9  C   UNL     1     -39.511  -6.910 -13.869  1.00  0.00     0.158 A 
ATOM     10  C   UNL     1     -38.074  -8.856 -13.727  1.00  0.00     0.051 A 
ATOM     11  C   UNL     1     -39.356  -8.302 -13.826  1.00  0.00     0.157 A 
BRANCH   9  12
ATOM     12  O   UNL     1     -40.790  -6.362 -13.966  1.00  0.00    -0.504 OA
ATOM     13  H   UNL     1     -41.612  -6.948 -14.056  1.00  0.00     0.293 HD
ENDBRANCH   9  12
BRANCH  11  14
ATOM     14  O   UNL     1     -40.479  -9.125 -13.882  1.00  0.00    -0.504 OA
ATOM     15  H   UNL     1     -41.198  -8.994 -14.585  1.00  0.00     0.293 HD
ENDBRANCH  11  14
ENDBRANCH   1   6
TORSDOF 5
ENDMDL
MODEL 5
REMARK VINA RESULT:    -5.174      5.727      9.230
REMARK INTER + INTRA:          -6.614
REMARK INTER:                  -6.346
REMARK INTRA:                  -0.267
REMARK UNBOUND:                -0.229
REMARK SMILES CCOC(=O)c1ccc(O)c(O)c1
REMARK SMILES IDX 4 1 5 2 3 3 2 4 1 5 6 6 13 7 7 8 11 9 8 10 9 11 12 12 10 14
REMARK H PARENT 12 13 10 15
REMARK Flexibility Score: inf
ROOT
ATOM      1  C   UNL     1     -36.616  -5.427 -13.255  1.00  0.00     0.338 C 
ATOM      2  O   UNL     1     -36.345  -4.512 -12.429  1.00  0.00    -0.246 OA
ENDROOT
BRANCH   1   3
ATOM      3  O   UNL     1     -35.614  -5.936 -14.089  1.00  0.00    -0.462 OA
BRANCH   3   4
ATOM      4  C   UNL     1     -35.179  -5.266 -15.268  1.00  0.00     0.230 C 
ATOM      5  C   UNL     1     -35.472  -6.131 -16.482  1.00  0.00     0.049 C 
ENDBRANCH   3   4
ENDBRANCH   1   3
BRANCH   1   6
ATOM      6  C   UNL     1     -37.991  -5.966 -13.345  1.00  0.00     0.064 A 
ATOM      7  C   UNL     1     -38.255  -7.146 -14.065  1.00  0.00     0.065 A 
ATOM      8  C   UNL     1     -39.055  -5.304 -12.708  1.00  0.00     0.020 A 
ATOM      9  C   UNL     1     -39.560  -7.654 -14.147  1.00  0.00     0.158 A 
ATOM     10  C   UNL     1     -40.355  -5.810 -12.790  1.00  0.00     0.051 A 
ATOM     11  C   UNL     1     -40.611  -6.984 -13.508  1.00  0.00     0.157 A 
BRANCH   9  12
ATOM     12  O   UNL     1     -39.820  -8.822 -14.862  1.00  0.00    -0.504 OA
ATOM     13  H   UNL     1     -39.512  -8.936 -15.821  1.00  0.00     0.293 HD
ENDBRANCH   9  12
BRANCH  11  14
ATOM     14  O   UNL     1     -41.906  -7.492 -13.592  1.00  0.00    -0.504 OA
ATOM     15  H   UNL     1     -42.380  -7.592 -14.483  1.00  0.00     0.293 HD
ENDBRANCH  11  14
ENDBRANCH   1   6
TORSDOF 5
ENDMDL
MODEL 6
REMARK VINA RESULT:    -5.113      4.265      8.044
REMARK INTER + INTRA:          -6.538
REMARK INTER:                  -6.386
REMARK INTRA:                  -0.153
REMARK UNBOUND:                -0.229
REMARK SMILES CCOC(=O)c1ccc(O)c(O)c1
REMARK SMILES IDX 4 1 5 2 3 3 2 4 1 5 6 6 13 7 7 8 11 9 8 10 9 11 12 12 10 14
REMARK H PARENT 12 13 10 15
REMARK Flexibility Score: inf
ROOT
ATOM      1  C   UNL     1     -35.932  -5.789 -16.663  1.00  0.00     0.338 C 
ATOM      2  O   UNL     1     -36.469  -5.502 -17.769  1.00  0.00    -0.246 OA
ENDROOT
BRANCH   1   3
ATOM      3  O   UNL     1     -34.665  -5.284 -16.349  1.00  0.00    -0.462 OA
BRANCH   3   4
ATOM      4  C   UNL     1     -33.582  -5.291 -17.274  1.00  0.00     0.230 C 
ATOM      5  C   UNL     1     -32.370  -4.627 -16.642  1.00  0.00     0.049 C 
ENDBRANCH   3   4
ENDBRANCH   1   3
BRANCH   1   6
ATOM      6  C   UNL     1     -36.639  -6.657 -15.696  1.00  0.00     0.064 A 
ATOM      7  C   UNL     1     -37.849  -7.284 -16.045  1.00  0.00     0.065 A 
ATOM      8  C   UNL     1     -36.109  -6.867 -14.411  1.00  0.00     0.020 A 
ATOM      9  C   UNL     1     -38.517  -8.106 -15.126  1.00  0.00     0.158 A 
ATOM     10  C   UNL     1     -36.774  -7.685 -13.495  1.00  0.00     0.051 A 
ATOM     11  C   UNL     1     -37.978  -8.308 -13.849  1.00  0.00     0.157 A 
BRANCH   9  12
ATOM     12  O   UNL     1     -39.716  -8.727 -15.473  1.00  0.00    -0.504 OA
ATOM     13  H   UNL     1     -40.135  -9.437 -14.884  1.00  0.00     0.293 HD
ENDBRANCH   9  12
BRANCH  11  14
ATOM     14  O   UNL     1     -38.644  -9.125 -12.938  1.00  0.00    -0.504 OA
ATOM     15  H   UNL     1     -39.655  -9.193 -12.928  1.00  0.00     0.293 HD
ENDBRANCH  11  14
ENDBRANCH   1   6
TORSDOF 5
ENDMDL
MODEL 7
REMARK VINA RESULT:    -5.102      2.668      4.775
REMARK INTER + INTRA:          -6.524
REMARK INTER:                  -6.395
REMARK INTRA:                  -0.129
REMARK UNBOUND:                -0.229
REMARK SMILES CCOC(=O)c1ccc(O)c(O)c1
REMARK SMILES IDX 4 1 5 2 3 3 2 4 1 5 6 6 13 7 7 8 11 9 8 10 9 11 12 12 10 14
REMARK H PARENT 12 13 10 15
REMARK Flexibility Score: inf
ROOT
ATOM      1  C   UNL     1     -31.889  -4.612 -16.836  1.00  0.00     0.338 C 
ATOM      2  O   UNL     1     -31.294  -3.510 -16.683  1.00  0.00    -0.246 OA
ENDROOT
BRANCH   1   3
ATOM      3  O   UNL     1     -31.213  -5.813 -16.591  1.00  0.00    -0.462 OA
BRANCH   3   4
ATOM      4  C   UNL     1     -29.806  -5.951 -16.757  1.00  0.00     0.230 C 
ATOM      5  C   UNL     1     -29.346  -7.259 -16.134  1.00  0.00     0.049 C 
ENDBRANCH   3   4
ENDBRANCH   1   3
BRANCH   1   6
ATOM      6  C   UNL     1     -33.304  -4.640 -17.271  1.00  0.00     0.064 A 
ATOM      7  C   UNL     1     -33.805  -3.660 -18.147  1.00  0.00     0.065 A 
ATOM      8  C   UNL     1     -34.167  -5.650 -16.813  1.00  0.00     0.020 A 
ATOM      9  C   UNL     1     -35.145  -3.689 -18.558  1.00  0.00     0.158 A 
ATOM     10  C   UNL     1     -35.503  -5.679 -17.221  1.00  0.00     0.051 A 
ATOM     11  C   UNL     1     -35.996  -4.701 -18.094  1.00  0.00     0.157 A 
BRANCH   9  12
ATOM     12  O   UNL     1     -35.640  -2.717 -19.426  1.00  0.00    -0.504 OA
ATOM     13  H   UNL     1     -36.300  -2.948 -20.159  1.00  0.00     0.293 HD
ENDBRANCH   9  12
BRANCH  11  14
ATOM     14  O   UNL     1     -37.327  -4.727 -18.504  1.00  0.00    -0.504 OA
ATOM     15  H   UNL     1     -37.971  -3.982 -18.262  1.00  0.00     0.293 HD
ENDBRANCH  11  14
ENDBRANCH   1   6
TORSDOF 5
ENDMDL
MODEL 8
REMARK VINA RESULT:    -5.069      3.793      5.486
REMARK INTER + INTRA:          -6.483
REMARK INTER:                  -6.223
REMARK INTRA:                  -0.260
REMARK UNBOUND:                -0.229
REMARK SMILES CCOC(=O)c1ccc(O)c(O)c1
REMARK SMILES IDX 4 1 5 2 3 3 2 4 1 5 6 6 13 7 7 8 11 9 8 10 9 11 12 12 10 14
REMARK H PARENT 12 13 10 15
REMARK Flexibility Score: inf
ROOT
ATOM      1  C   UNL     1     -37.402  -6.502 -15.632  1.00  0.00     0.338 C 
ATOM      2  O   UNL     1     -38.475  -5.839 -15.581  1.00  0.00    -0.246 OA
ENDROOT
BRANCH   1   3
ATOM      3  O   UNL     1     -37.442  -7.901 -15.593  1.00  0.00    -0.462 OA
BRANCH   3   4
ATOM      4  C   UNL     1     -37.729  -8.630 -14.404  1.00  0.00     0.230 C 
ATOM      5  C   UNL     1     -36.673  -8.326 -13.354  1.00  0.00     0.049 C 
ENDBRANCH   3   4
ENDBRANCH   1   3
BRANCH   1   6
ATOM      6  C   UNL     1     -36.101  -5.806 -15.736  1.00  0.00     0.064 A 
ATOM      7  C   UNL     1     -35.221  -6.081 -16.798  1.00  0.00     0.065 A 
ATOM      8  C   UNL     1     -35.726  -4.855 -14.770  1.00  0.00     0.020 A 
ATOM      9  C   UNL     1     -33.988  -5.419 -16.893  1.00  0.00     0.158 A 
ATOM     10  C   UNL     1     -34.498  -4.196 -14.864  1.00  0.00     0.051 A 
ATOM     11  C   UNL     1     -33.627  -4.474 -15.924  1.00  0.00     0.157 A 
BRANCH   9  12
ATOM     12  O   UNL     1     -33.117  -5.694 -17.947  1.00  0.00    -0.504 OA
ATOM     13  H   UNL     1     -32.184  -5.301 -17.978  1.00  0.00     0.293 HD
ENDBRANCH   9  12
BRANCH  11  14
ATOM     14  O   UNL     1     -32.401  -3.818 -16.022  1.00  0.00    -0.504 OA
ATOM     15  H   UNL     1     -31.701  -4.100 -16.699  1.00  0.00     0.293 HD
ENDBRANCH  11  14
ENDBRANCH   1   6
TORSDOF 5
ENDMDL
MODEL 9
REMARK VINA RESULT:    -4.982      2.531      4.358
REMARK INTER + INTRA:          -6.376
REMARK INTER:                  -6.088
REMARK INTRA:                  -0.287
REMARK UNBOUND:                -0.229
REMARK SMILES CCOC(=O)c1ccc(O)c(O)c1
REMARK SMILES IDX 4 1 5 2 3 3 2 4 1 5 6 6 13 7 7 8 11 9 8 10 9 11 12 12 10 14
REMARK H PARENT 12 13 10 15
REMARK Flexibility Score: inf
ROOT
ATOM      1  C   UNL     1     -36.335  -6.137 -16.489  1.00  0.00     0.338 C 
ATOM      2  O   UNL     1     -37.520  -5.819 -16.786  1.00  0.00    -0.246 OA
ENDROOT
BRANCH   1   3
ATOM      3  O   UNL     1     -36.093  -7.228 -15.646  1.00  0.00    -0.462 OA
BRANCH   3   4
ATOM      4  C   UNL     1     -36.742  -7.388 -14.389  1.00  0.00     0.230 C 
ATOM      5  C   UNL     1     -36.043  -6.534 -13.344  1.00  0.00     0.049 C 
ENDBRANCH   3   4
ENDBRANCH   1   3
BRANCH   1   6
ATOM      6  C   UNL     1     -35.198  -5.361 -17.032  1.00  0.00     0.064 A 
ATOM      7  C   UNL     1     -34.118  -4.996 -16.207  1.00  0.00     0.065 A 
ATOM      8  C   UNL     1     -35.182  -4.977 -18.384  1.00  0.00     0.020 A 
ATOM      9  C   UNL     1     -33.042  -4.261 -16.725  1.00  0.00     0.158 A 
ATOM     10  C   UNL     1     -34.110  -4.244 -18.900  1.00  0.00     0.051 A 
ATOM     11  C   UNL     1     -33.038  -3.885 -18.074  1.00  0.00     0.157 A 
BRANCH   9  12
ATOM     12  O   UNL     1     -31.973  -3.900 -15.905  1.00  0.00    -0.504 OA
ATOM     13  H   UNL     1     -32.119  -3.584 -14.954  1.00  0.00     0.293 HD
ENDBRANCH   9  12
BRANCH  11  14
ATOM     14  O   UNL     1     -31.968  -3.154 -18.585  1.00  0.00    -0.504 OA
ATOM     15  H   UNL     1     -32.090  -2.212 -18.941  1.00  0.00     0.293 HD
ENDBRANCH  11  14
ENDBRANCH   1   6
TORSDOF 5
ENDMDL
