MODEL 1
REMARK VINA RESULT:    -3.216      0.000      0.000
REMARK INTER + INTRA:          -3.896
REMARK INTER:                  -3.780
REMARK INTRA:                  -0.116
REMARK UNBOUND:                -0.116
REMARK SMILES O=C([O-])CCC(=O)[O-]
REMARK SMILES IDX 4 1 2 2 1 3 3 4 5 5 6 6 7 7 8 8
REMARK H PARENT
REMARK Flexibility Score: inf
ROOT
ATOM      1  C   UNL     1     178.001 170.123 186.405  1.00  0.00     0.059 C 
ENDROOT
BRANCH   1   2
ATOM      2  C   UNL     1     176.838 171.014 186.098  1.00  0.00     0.042 C 
ATOM      3  O   UNL     1     176.920 171.866 185.173  1.00  0.00    -0.550 OA
ATOM      4  O   UNL     1     175.649 170.878 186.804  1.00  0.00    -0.550 OA
ENDBRANCH   1   2
BRANCH   1   5
ATOM      5  C   UNL     1     177.859 168.754 185.730  1.00  0.00     0.059 C 
BRANCH   5   6
ATOM      6  C   UNL     1     178.795 168.609 184.570  1.00  0.00     0.042 C 
ATOM      7  O   UNL     1     178.649 169.326 183.545  1.00  0.00    -0.550 OA
ATOM      8  O   UNL     1     179.853 167.711 184.637  1.00  0.00    -0.550 OA
ENDBRANCH   5   6
ENDBRANCH   1   5
TORSDOF 3
ENDMDL
MODEL 2
REMARK VINA RESULT:    -3.213     10.986     13.056
REMARK INTER + INTRA:          -3.893
REMARK INTER:                  -3.772
REMARK INTRA:                  -0.120
REMARK UNBOUND:                -0.116
REMARK SMILES O=C([O-])CCC(=O)[O-]
REMARK SMILES IDX 4 1 2 2 1 3 3 4 5 5 6 6 7 7 8 8
REMARK H PARENT
REMARK Flexibility Score: inf
ROOT
ATOM      1  C   UNL     1     166.187 174.530 186.164  1.00  0.00     0.059 C 
ENDROOT
BRANCH   1   2
ATOM      2  C   UNL     1     167.220 173.495 185.840  1.00  0.00     0.042 C 
ATOM      3  O   UNL     1     168.265 173.403 186.538  1.00  0.00    -0.550 OA
ATOM      4  O   UNL     1     167.011 172.605 184.794  1.00  0.00    -0.550 OA
ENDBRANCH   1   2
BRANCH   1   5
ATOM      5  C   UNL     1     166.418 175.824 185.376  1.00  0.00     0.059 C 
BRANCH   5   6
ATOM      6  C   UNL     1     165.429 175.978 184.262  1.00  0.00     0.042 C 
ATOM      7  O   UNL     1     165.578 175.335 183.189  1.00  0.00    -0.550 OA
ATOM      8  O   UNL     1     164.321 176.800 184.423  1.00  0.00    -0.550 OA
ENDBRANCH   5   6
ENDBRANCH   1   5
TORSDOF 3
ENDMDL
MODEL 3
REMARK VINA RESULT:    -3.207      0.702      3.937
REMARK INTER + INTRA:          -3.885
REMARK INTER:                  -3.765
REMARK INTRA:                  -0.120
REMARK UNBOUND:                -0.116
REMARK SMILES O=C([O-])CCC(=O)[O-]
REMARK SMILES IDX 4 1 2 2 1 3 3 4 5 5 6 6 7 7 8 8
REMARK H PARENT
REMARK Flexibility Score: inf
ROOT
ATOM      1  C   UNL     1     178.020 168.310 185.403  1.00  0.00     0.059 C 
ENDROOT
BRANCH   1   2
ATOM      2  C   UNL     1     179.123 168.287 184.390  1.00  0.00     0.042 C 
ATOM      3  O   UNL     1     179.068 169.034 183.377  1.00  0.00    -0.550 OA
ATOM      4  O   UNL     1     180.230 167.470 184.584  1.00  0.00    -0.550 OA
ENDBRANCH   1   2
BRANCH   1   5
ATOM      5  C   UNL     1     177.979 169.641 186.163  1.00  0.00     0.059 C 
BRANCH   5   6
ATOM      6  C   UNL     1     176.737 170.417 185.853  1.00  0.00     0.042 C 
ATOM      7  O   UNL     1     176.008 170.847 186.786  1.00  0.00    -0.550 OA
ATOM      8  O   UNL     1     176.405 170.702 184.533  1.00  0.00    -0.550 OA
ENDBRANCH   5   6
ENDBRANCH   1   5
TORSDOF 3
ENDMDL
MODEL 4
REMARK VINA RESULT:    -3.202     10.995     12.726
REMARK INTER + INTRA:          -3.880
REMARK INTER:                  -3.759
REMARK INTRA:                  -0.121
REMARK UNBOUND:                -0.116
REMARK SMILES O=C([O-])CCC(=O)[O-]
REMARK SMILES IDX 4 1 2 2 1 3 3 4 5 5 6 6 7 7 8 8
REMARK H PARENT
REMARK Flexibility Score: inf
ROOT
ATOM      1  C   UNL     1     166.403 175.881 185.370  1.00  0.00     0.059 C 
ENDROOT
BRANCH   1   2
ATOM      2  C   UNL     1     165.423 175.994 184.243  1.00  0.00     0.042 C 
ATOM      3  O   UNL     1     165.585 175.316 183.193  1.00  0.00    -0.550 OA
ATOM      4  O   UNL     1     164.310 176.815 184.366  1.00  0.00    -0.550 OA
ENDBRANCH   1   2
BRANCH   1   5
ATOM      5  C   UNL     1     166.196 174.592 186.172  1.00  0.00     0.059 C 
BRANCH   5   6
ATOM      6  C   UNL     1     167.211 173.550 185.817  1.00  0.00     0.042 C 
ATOM      7  O   UNL     1     168.290 173.470 186.460  1.00  0.00    -0.550 OA
ATOM      8  O   UNL     1     166.948 172.640 184.800  1.00  0.00    -0.550 OA
ENDBRANCH   5   6
ENDBRANCH   1   5
TORSDOF 3
ENDMDL
MODEL 5
REMARK VINA RESULT:    -3.184      1.589      4.404
REMARK INTER + INTRA:          -3.858
REMARK INTER:                  -3.813
REMARK INTRA:                  -0.045
REMARK UNBOUND:                -0.116
REMARK SMILES O=C([O-])CCC(=O)[O-]
REMARK SMILES IDX 4 1 2 2 1 3 3 4 5 5 6 6 7 7 8 8
REMARK H PARENT
REMARK Flexibility Score: inf
ROOT
ATOM      1  C   UNL     1     178.687 168.372 183.956  1.00  0.00     0.059 C 
ENDROOT
BRANCH   1   2
ATOM      2  C   UNL     1     180.103 167.923 183.762  1.00  0.00     0.042 C 
ATOM      3  O   UNL     1     180.654 167.178 184.615  1.00  0.00    -0.550 OA
ATOM      4  O   UNL     1     180.802 168.295 182.620  1.00  0.00    -0.550 OA
ENDBRANCH   1   2
BRANCH   1   5
ATOM      5  C   UNL     1     178.265 168.288 185.428  1.00  0.00     0.059 C 
BRANCH   5   6
ATOM      6  C   UNL     1     177.632 169.563 185.895  1.00  0.00     0.042 C 
ATOM      7  O   UNL     1     178.270 170.350 186.643  1.00  0.00    -0.550 OA
ATOM      8  O   UNL     1     176.353 169.901 185.472  1.00  0.00    -0.550 OA
ENDBRANCH   5   6
ENDBRANCH   1   5
TORSDOF 3
ENDMDL
MODEL 6
REMARK VINA RESULT:    -3.156     12.079     14.100
REMARK INTER + INTRA:          -3.826
REMARK INTER:                  -3.787
REMARK INTRA:                  -0.039
REMARK UNBOUND:                -0.116
REMARK SMILES O=C([O-])CCC(=O)[O-]
REMARK SMILES IDX 4 1 2 2 1 3 3 4 5 5 6 6 7 7 8 8
REMARK H PARENT
REMARK Flexibility Score: inf
ROOT
ATOM      1  C   UNL     1     165.986 176.097 185.350  1.00  0.00     0.059 C 
ENDROOT
BRANCH   1   2
ATOM      2  C   UNL     1     166.678 174.815 185.698  1.00  0.00     0.042 C 
ATOM      3  O   UNL     1     167.868 174.619 185.335  1.00  0.00    -0.550 OA
ATOM      4  O   UNL     1     166.023 173.853 186.457  1.00  0.00    -0.550 OA
ENDBRANCH   1   2
BRANCH   1   5
ATOM      5  C   UNL     1     165.772 176.232 183.838  1.00  0.00     0.059 C 
BRANCH   5   6
ATOM      6  C   UNL     1     164.345 176.545 183.508  1.00  0.00     0.042 C 
ATOM      7  O   UNL     1     163.649 177.237 184.297  1.00  0.00    -0.550 OA
ATOM      8  O   UNL     1     163.796 176.108 182.309  1.00  0.00    -0.550 OA
ENDBRANCH   5   6
ENDBRANCH   1   5
TORSDOF 3
ENDMDL
MODEL 7
REMARK VINA RESULT:    -3.144     12.069     13.867
REMARK INTER + INTRA:          -3.811
REMARK INTER:                  -3.783
REMARK INTRA:                  -0.029
REMARK UNBOUND:                -0.116
REMARK SMILES O=C([O-])CCC(=O)[O-]
REMARK SMILES IDX 4 1 2 2 1 3 3 4 5 5 6 6 7 7 8 8
REMARK H PARENT
REMARK Flexibility Score: inf
ROOT
ATOM      1  C   UNL     1     165.389 175.828 183.922  1.00  0.00     0.059 C 
ENDROOT
BRANCH   1   2
ATOM      2  C   UNL     1     164.529 177.006 183.582  1.00  0.00     0.042 C 
ATOM      3  O   UNL     1     163.468 177.222 184.226  1.00  0.00    -0.550 OA
ATOM      4  O   UNL     1     164.918 177.887 182.581  1.00  0.00    -0.550 OA
ENDBRANCH   1   2
BRANCH   1   5
ATOM      5  C   UNL     1     166.035 175.981 185.304  1.00  0.00     0.059 C 
BRANCH   5   6
ATOM      6  C   UNL     1     166.656 174.700 185.769  1.00  0.00     0.042 C 
ATOM      7  O   UNL     1     165.985 173.881 186.451  1.00  0.00    -0.550 OA
ATOM      8  O   UNL     1     167.964 174.391 185.415  1.00  0.00    -0.550 OA
ENDBRANCH   5   6
ENDBRANCH   1   5
TORSDOF 3
ENDMDL
MODEL 8
REMARK VINA RESULT:    -3.097      1.713      2.185
REMARK INTER + INTRA:          -3.757
REMARK INTER:                  -3.728
REMARK INTRA:                  -0.029
REMARK UNBOUND:                -0.116
REMARK SMILES O=C([O-])CCC(=O)[O-]
REMARK SMILES IDX 4 1 2 2 1 3 3 4 5 5 6 6 7 7 8 8
REMARK H PARENT
REMARK Flexibility Score: inf
ROOT
ATOM      1  C   UNL     1     178.373 168.310 185.292  1.00  0.00     0.059 C 
ENDROOT
BRANCH   1   2
ATOM      2  C   UNL     1     177.664 169.528 185.799  1.00  0.00     0.042 C 
ATOM      3  O   UNL     1     176.483 169.772 185.435  1.00  0.00    -0.550 OA
ATOM      4  O   UNL     1     178.293 170.374 186.705  1.00  0.00    -0.550 OA
ENDBRANCH   1   2
BRANCH   1   5
ATOM      5  C   UNL     1     179.102 168.589 183.973  1.00  0.00     0.059 C 
BRANCH   5   6
ATOM      6  C   UNL     1     180.071 167.498 183.635  1.00  0.00     0.042 C 
ATOM      7  O   UNL     1     180.126 167.040 182.463  1.00  0.00    -0.550 OA
ATOM      8  O   UNL     1     180.941 167.014 184.605  1.00  0.00    -0.550 OA
ENDBRANCH   5   6
ENDBRANCH   1   5
TORSDOF 3
ENDMDL
MODEL 9
REMARK VINA RESULT:    -2.963      1.506      2.177
REMARK INTER + INTRA:          -3.599
REMARK INTER:                  -3.474
REMARK INTRA:                  -0.125
REMARK UNBOUND:                -0.116
REMARK SMILES O=C([O-])CCC(=O)[O-]
REMARK SMILES IDX 4 1 2 2 1 3 3 4 5 5 6 6 7 7 8 8
REMARK H PARENT
REMARK Flexibility Score: inf
ROOT
ATOM      1  C   UNL     1     176.629 171.376 185.694  1.00  0.00     0.059 C 
ENDROOT
BRANCH   1   2
ATOM      2  C   UNL     1     175.296 170.779 186.025  1.00  0.00     0.042 C 
ATOM      3  O   UNL     1     174.712 171.089 187.098  1.00  0.00    -0.550 OA
ATOM      4  O   UNL     1     174.678 169.913 185.131  1.00  0.00    -0.550 OA
ENDBRANCH   1   2
BRANCH   1   5
ATOM      5  C   UNL     1     177.780 170.536 186.259  1.00  0.00     0.059 C 
BRANCH   5   6
ATOM      6  C   UNL     1     178.103 169.373 185.372  1.00  0.00     0.042 C 
ATOM      7  O   UNL     1     177.981 168.195 185.802  1.00  0.00    -0.550 OA
ATOM      8  O   UNL     1     178.499 169.588 184.057  1.00  0.00    -0.550 OA
ENDBRANCH   5   6
ENDBRANCH   1   5
TORSDOF 3
ENDMDL
