MODEL 1
REMARK VINA RESULT:    -4.707      0.000      0.000
REMARK INTER + INTRA:          -9.438
REMARK INTER:                  -8.146
REMARK INTRA:                  -1.292
REMARK UNBOUND:                -1.292
REMARK SMILES OC[C@@H]1O[C@@H](O[C@@H]2[C@H](O)[C@@H](O)[C@H](O[C@@H]3[C@@H](O)[C@H](O)[C@H](O)O[C@@H]3CO)O[C@H]2CO)[C@@H](O)[C@H](O)[C@H]1O
REMARK SMILES IDX 7 1 26 2 25 3 12 4 10 5 8 6 6 7 5 8 3 9 33 10 4 11 31 12
REMARK SMILES IDX 29 13 2 14 1 15 34 17 32 19 30 21 27 23 28 24 9 26 11 28
REMARK SMILES IDX 13 30 14 31 22 32 15 33 21 34 17 35 19 36 23 37 24 38 16 40
REMARK SMILES IDX 18 42 20 44
REMARK H PARENT 1 16 34 18 32 20 30 22 28 25 9 27 11 29 24 39 16 41 18 43
REMARK H PARENT 20 45
REMARK Flexibility Score: inf
ROOT
ATOM      1  C   UNL     1      13.118   7.690   3.052  1.00  0.00     0.184 C 
ATOM      2  C   UNL     1      12.732   6.431   3.845  1.00  0.00     0.178 C 
ATOM      3  O   UNL     1      11.698   5.764   3.148  1.00  0.00    -0.341 OA
ATOM      4  C   UNL     1      10.449   6.430   3.230  1.00  0.00     0.282 C 
ATOM      5  C   UNL     1      10.521   8.002   3.375  1.00  0.00     0.202 C 
ATOM      6  C   UNL     1      11.907   8.680   2.913  1.00  0.00     0.180 C 
ENDROOT
BRANCH   1   7
ATOM      7  O   UNL     1      14.243   8.326   3.681  1.00  0.00    -0.341 OA
BRANCH   7   8
ATOM      8  C   UNL     1      15.210   8.746   2.700  1.00  0.00     0.282 C 
ATOM      9  C   UNL     1      15.967   8.292   0.493  1.00  0.00     0.178 C 
ATOM     10  C   UNL     1      17.415   7.938   0.975  1.00  0.00     0.177 C 
ATOM     11  O   UNL     1      14.976   8.083   1.487  1.00  0.00    -0.341 OA
ATOM     12  C   UNL     1      17.725   8.745   2.249  1.00  0.00     0.179 C 
ATOM     13  C   UNL     1      16.614   8.523   3.309  1.00  0.00     0.202 C 
BRANCH   9  14
ATOM     14  C   UNL     1      15.913   9.649  -0.220  1.00  0.00     0.191 C 
BRANCH  14  15
ATOM     15  O   UNL     1      17.092   9.875  -0.957  1.00  0.00    -0.394 OA
ATOM     16  H   UNL     1      17.780   9.760  -0.242  1.00  0.00     0.210 HD
ENDBRANCH  14  15
ENDBRANCH   9  14
BRANCH  10  17
ATOM     17  O   UNL     1      17.502   6.565   1.248  1.00  0.00    -0.387 OA
ATOM     18  H   UNL     1      18.459   6.362   1.463  1.00  0.00     0.211 HD
ENDBRANCH  10  17
BRANCH  12  19
ATOM     19  O   UNL     1      17.921  10.120   2.016  1.00  0.00    -0.387 OA
ATOM     20  H   UNL     1      17.035  10.559   2.090  1.00  0.00     0.211 HD
ENDBRANCH  12  19
BRANCH  13  21
ATOM     21  O   UNL     1      16.666   7.186   3.755  1.00  0.00    -0.385 OA
ATOM     22  H   UNL     1      17.245   6.673   3.138  1.00  0.00     0.211 HD
ENDBRANCH  13  21
ENDBRANCH   7   8
ENDBRANCH   1   7
BRANCH   2  23
ATOM     23  C   UNL     1      13.967   5.491   3.908  1.00  0.00     0.191 C 
BRANCH  23  24
ATOM     24  O   UNL     1      14.564   5.453   2.614  1.00  0.00    -0.394 OA
ATOM     25  H   UNL     1      15.374   6.056   2.621  1.00  0.00     0.210 HD
ENDBRANCH  23  24
ENDBRANCH   2  23
BRANCH   6  26
ATOM     26  O   UNL     1      12.101   9.813   3.741  1.00  0.00    -0.387 OA
ATOM     27  H   UNL     1      11.591  10.563   3.357  1.00  0.00     0.211 HD
ENDBRANCH   6  26
BRANCH   5  28
ATOM     28  O   UNL     1       9.458   8.563   2.576  1.00  0.00    -0.385 OA
ATOM     29  H   UNL     1       8.976   9.315   3.083  1.00  0.00     0.211 HD
ENDBRANCH   5  28
BRANCH   4  30
ATOM     30  O   UNL     1       9.478   5.618   3.984  1.00  0.00    -0.341 OA
BRANCH  30  31
ATOM     31  C   UNL     1       8.433   5.054   3.229  1.00  0.00     0.184 C 
ATOM     32  C   UNL     1       6.920   5.264   3.591  1.00  0.00     0.178 C 
ATOM     33  C   UNL     1       8.522   5.269   1.684  1.00  0.00     0.180 C 
ATOM     34  O   UNL     1       6.020   4.919   2.496  1.00  0.00    -0.342 OA
ATOM     35  C   UNL     1       7.971   3.895   1.222  1.00  0.00     0.201 C 
ATOM     36  C   UNL     1       6.439   3.821   1.583  1.00  0.00     0.279 C 
BRANCH  32  37
ATOM     37  C   UNL     1       6.688   6.705   4.106  1.00  0.00     0.191 C 
BRANCH  37  38
ATOM     38  O   UNL     1       6.632   7.630   3.033  1.00  0.00    -0.394 OA
ATOM     39  H   UNL     1       7.140   7.241   2.302  1.00  0.00     0.210 HD
ENDBRANCH  37  38
ENDBRANCH  32  37
BRANCH  33  40
ATOM     40  O   UNL     1       9.803   5.563   1.195  1.00  0.00    -0.387 OA
ATOM     41  H   UNL     1      10.430   5.616   2.018  1.00  0.00     0.211 HD
ENDBRANCH  33  40
BRANCH  35  42
ATOM     42  O   UNL     1       8.491   3.479  -0.083  1.00  0.00    -0.385 OA
ATOM     43  H   UNL     1       9.318   2.920  -0.035  1.00  0.00     0.211 HD
ENDBRANCH  35  42
BRANCH  36  44
ATOM     44  O   UNL     1       5.682   3.899   0.367  1.00  0.00    -0.366 OA
ATOM     45  H   UNL     1       6.167   3.346  -0.308  1.00  0.00     0.213 HD
ENDBRANCH  36  44
ENDBRANCH  30  31
ENDBRANCH   4  30
TORSDOF 18
ENDMDL
MODEL 2
REMARK VINA RESULT:    -3.825      1.569      2.924
REMARK INTER + INTRA:          -7.913
REMARK INTER:                  -6.712
REMARK INTRA:                  -1.200
REMARK UNBOUND:                -1.292
REMARK SMILES OC[C@@H]1O[C@@H](O[C@@H]2[C@H](O)[C@@H](O)[C@H](O[C@@H]3[C@@H](O)[C@H](O)[C@H](O)O[C@@H]3CO)O[C@H]2CO)[C@@H](O)[C@H](O)[C@H]1O
REMARK SMILES IDX 7 1 26 2 25 3 12 4 10 5 8 6 6 7 5 8 3 9 33 10 4 11 31 12
REMARK SMILES IDX 29 13 2 14 1 15 34 17 32 19 30 21 27 23 28 24 9 26 11 28
REMARK SMILES IDX 13 30 14 31 22 32 15 33 21 34 17 35 19 36 23 37 24 38 16 40
REMARK SMILES IDX 18 42 20 44
REMARK H PARENT 1 16 34 18 32 20 30 22 28 25 9 27 11 29 24 39 16 41 18 43
REMARK H PARENT 20 45
REMARK Flexibility Score: inf
ROOT
ATOM      1  C   UNL     1      13.239   7.387   2.165  1.00  0.00     0.184 C 
ATOM      2  C   UNL     1      11.941   8.198   2.026  1.00  0.00     0.178 C 
ATOM      3  O   UNL     1      11.081   7.852   3.094  1.00  0.00    -0.341 OA
ATOM      4  C   UNL     1      10.513   6.560   2.957  1.00  0.00     0.282 C 
ATOM      5  C   UNL     1      11.394   5.505   2.179  1.00  0.00     0.202 C 
ATOM      6  C   UNL     1      12.967   5.842   2.090  1.00  0.00     0.180 C 
ENDROOT
BRANCH   1   7
ATOM      7  O   UNL     1      14.175   7.802   1.157  1.00  0.00    -0.341 OA
BRANCH   7   8
ATOM      8  C   UNL     1      15.433   8.178   1.747  1.00  0.00     0.282 C 
ATOM      9  C   UNL     1      16.764  10.071   2.289  1.00  0.00     0.178 C 
ATOM     10  C   UNL     1      17.950   9.599   1.380  1.00  0.00     0.177 C 
ATOM     11  O   UNL     1      15.503   9.573   1.873  1.00  0.00    -0.341 OA
ATOM     12  C   UNL     1      17.951   8.061   1.323  1.00  0.00     0.179 C 
ATOM     13  C   UNL     1      16.554   7.539   0.893  1.00  0.00     0.202 C 
BRANCH   9  14
ATOM     14  C   UNL     1      17.082   9.905   3.780  1.00  0.00     0.191 C 
BRANCH  14  15
ATOM     15  O   UNL     1      18.451  10.125   4.029  1.00  0.00    -0.394 OA
ATOM     16  H   UNL     1      18.606  10.948   3.484  1.00  0.00     0.210 HD
ENDBRANCH  14  15
ENDBRANCH   9  14
BRANCH  10  17
ATOM     17  O   UNL     1      17.795  10.125   0.088  1.00  0.00    -0.387 OA
ATOM     18  H   UNL     1      18.689  10.079  -0.363  1.00  0.00     0.211 HD
ENDBRANCH  10  17
BRANCH  12  19
ATOM     19  O   UNL     1      18.361   7.450   2.523  1.00  0.00    -0.387 OA
ATOM     20  H   UNL     1      19.326   7.648   2.638  1.00  0.00     0.211 HD
ENDBRANCH  12  19
BRANCH  13  21
ATOM     21  O   UNL     1      16.318   7.911  -0.447  1.00  0.00    -0.385 OA
ATOM     22  H   UNL     1      17.187   7.950  -0.918  1.00  0.00     0.211 HD
ENDBRANCH  13  21
ENDBRANCH   7   8
ENDBRANCH   1   7
BRANCH   2  23
ATOM     23  C   UNL     1      12.289   9.707   2.147  1.00  0.00     0.191 C 
BRANCH  23  24
ATOM     24  O   UNL     1      12.313  10.050   3.531  1.00  0.00    -0.394 OA
ATOM     25  H   UNL     1      11.551  10.687   3.712  1.00  0.00     0.210 HD
ENDBRANCH  23  24
ENDBRANCH   2  23
BRANCH   6  26
ATOM     26  O   UNL     1      13.425   5.323   0.854  1.00  0.00    -0.387 OA
ATOM     27  H   UNL     1      13.349   6.035   0.178  1.00  0.00     0.211 HD
ENDBRANCH   6  26
BRANCH   5  28
ATOM     28  O   UNL     1      11.245   4.234   2.845  1.00  0.00    -0.385 OA
ATOM     29  H   UNL     1      12.160   3.797   3.011  1.00  0.00     0.211 HD
ENDBRANCH   5  28
BRANCH   4  30
ATOM     30  O   UNL     1       9.055   6.654   2.768  1.00  0.00    -0.341 OA
BRANCH  30  31
ATOM     31  C   UNL     1       8.306   5.552   3.221  1.00  0.00     0.184 C 
ATOM     32  C   UNL     1       7.003   5.711   4.082  1.00  0.00     0.178 C 
ATOM     33  C   UNL     1       7.958   4.480   2.139  1.00  0.00     0.180 C 
ATOM     34  O   UNL     1       6.197   4.497   4.125  1.00  0.00    -0.342 OA
ATOM     35  C   UNL     1       8.091   3.207   3.015  1.00  0.00     0.201 C 
ATOM     36  C   UNL     1       6.914   3.194   4.063  1.00  0.00     0.279 C 
BRANCH  32  37
ATOM     37  C   UNL     1       6.188   6.936   3.600  1.00  0.00     0.191 C 
BRANCH  37  38
ATOM     38  O   UNL     1       6.909   8.141   3.801  1.00  0.00    -0.394 OA
ATOM     39  H   UNL     1       6.540   8.557   4.598  1.00  0.00     0.210 HD
ENDBRANCH  37  38
ENDBRANCH  32  37
BRANCH  33  40
ATOM     40  O   UNL     1       8.787   4.483   1.008  1.00  0.00    -0.387 OA
ATOM     41  H   UNL     1       9.310   5.376   1.025  1.00  0.00     0.211 HD
ENDBRANCH  33  40
BRANCH  35  42
ATOM     42  O   UNL     1       8.470   2.020   2.246  1.00  0.00    -0.385 OA
ATOM     43  H   UNL     1       9.061   2.212   1.462  1.00  0.00     0.211 HD
ENDBRANCH  35  42
BRANCH  36  44
ATOM     44  O   UNL     1       5.991   2.159   3.696  1.00  0.00    -0.366 OA
ATOM     45  H   UNL     1       5.836   2.250   2.714  1.00  0.00     0.213 HD
ENDBRANCH  36  44
ENDBRANCH  30  31
ENDBRANCH   4  30
TORSDOF 18
ENDMDL
MODEL 3
REMARK VINA RESULT:    -3.691      1.461      8.697
REMARK INTER + INTRA:          -7.680
REMARK INTER:                  -7.232
REMARK INTRA:                  -0.449
REMARK UNBOUND:                -1.292
REMARK SMILES OC[C@@H]1O[C@@H](O[C@@H]2[C@H](O)[C@@H](O)[C@H](O[C@@H]3[C@@H](O)[C@H](O)[C@H](O)O[C@@H]3CO)O[C@H]2CO)[C@@H](O)[C@H](O)[C@H]1O
REMARK SMILES IDX 7 1 26 2 25 3 12 4 10 5 8 6 6 7 5 8 3 9 33 10 4 11 31 12
REMARK SMILES IDX 29 13 2 14 1 15 34 17 32 19 30 21 27 23 28 24 9 26 11 28
REMARK SMILES IDX 13 30 14 31 22 32 15 33 21 34 17 35 19 36 23 37 24 38 16 40
REMARK SMILES IDX 18 42 20 44
REMARK H PARENT 1 16 34 18 32 20 30 22 28 25 9 27 11 29 24 39 16 41 18 43
REMARK H PARENT 20 45
REMARK Flexibility Score: inf
ROOT
ATOM      1  C   UNL     1      11.182   6.373   2.613  1.00  0.00     0.184 C 
ATOM      2  C   UNL     1      12.617   6.506   2.079  1.00  0.00     0.178 C 
ATOM      3  O   UNL     1      13.246   7.580   2.751  1.00  0.00    -0.341 OA
ATOM      4  C   UNL     1      12.772   8.851   2.340  1.00  0.00     0.282 C 
ATOM      5  C   UNL     1      11.269   8.896   1.855  1.00  0.00     0.202 C 
ATOM      6  C   UNL     1      10.343   7.674   2.347  1.00  0.00     0.180 C 
ENDROOT
BRANCH   1   7
ATOM      7  O   UNL     1      10.558   5.219   2.028  1.00  0.00    -0.341 OA
BRANCH   7   8
ATOM      8  C   UNL     1       9.140   5.217   2.283  1.00  0.00     0.282 C 
ATOM      9  C   UNL     1       7.549   5.127   4.047  1.00  0.00     0.178 C 
ATOM     10  C   UNL     1       6.905   3.805   3.507  1.00  0.00     0.177 C 
ATOM     11  O   UNL     1       8.906   5.290   3.664  1.00  0.00    -0.341 OA
ATOM     12  C   UNL     1       7.059   3.765   1.976  1.00  0.00     0.179 C 
ATOM     13  C   UNL     1       8.546   3.973   1.581  1.00  0.00     0.202 C 
BRANCH   9  14
ATOM     14  C   UNL     1       6.645   6.344   3.812  1.00  0.00     0.191 C 
BRANCH  14  15
ATOM     15  O   UNL     1       5.297   6.023   4.061  1.00  0.00    -0.394 OA
ATOM     16  H   UNL     1       4.988   5.803   3.137  1.00  0.00     0.210 HD
ENDBRANCH  14  15
ENDBRANCH   9  14
BRANCH  10  17
ATOM     17  O   UNL     1       7.547   2.697   4.081  1.00  0.00    -0.387 OA
ATOM     18  H   UNL     1       8.534   2.865   4.034  1.00  0.00     0.211 HD
ENDBRANCH  10  17
BRANCH  12  19
ATOM     19  O   UNL     1       6.234   4.682   1.299  1.00  0.00    -0.387 OA
ATOM     20  H   UNL     1       5.466   4.172   0.934  1.00  0.00     0.211 HD
ENDBRANCH  12  19
BRANCH  13  21
ATOM     21  O   UNL     1       9.294   2.857   2.009  1.00  0.00    -0.385 OA
ATOM     22  H   UNL     1       8.671   2.189   2.389  1.00  0.00     0.211 HD
ENDBRANCH  13  21
ENDBRANCH   7   8
ENDBRANCH   1   7
BRANCH   2  23
ATOM     23  C   UNL     1      13.389   5.200   2.411  1.00  0.00     0.191 C 
BRANCH  23  24
ATOM     24  O   UNL     1      12.746   4.571   3.517  1.00  0.00    -0.394 OA
ATOM     25  H   UNL     1      13.359   4.632   4.316  1.00  0.00     0.210 HD
ENDBRANCH  23  24
ENDBRANCH   2  23
BRANCH   6  26
ATOM     26  O   UNL     1       9.394   7.444   1.321  1.00  0.00    -0.387 OA
ATOM     27  H   UNL     1       9.200   8.306   0.886  1.00  0.00     0.211 HD
ENDBRANCH   6  26
BRANCH   5  28
ATOM     28  O   UNL     1      10.688  10.123   2.343  1.00  0.00    -0.385 OA
ATOM     29  H   UNL     1      10.220  10.634   1.584  1.00  0.00     0.211 HD
ENDBRANCH   5  28
BRANCH   4  30
ATOM     30  O   UNL     1      13.838   9.605   1.656  1.00  0.00    -0.341 OA
BRANCH  30  31
ATOM     31  C   UNL     1      15.074   8.943   1.534  1.00  0.00     0.184 C 
ATOM     32  C   UNL     1      15.821   8.793   0.161  1.00  0.00     0.178 C 
ATOM     33  C   UNL     1      16.175   9.370   2.558  1.00  0.00     0.180 C 
ATOM     34  O   UNL     1      17.221   8.417   0.313  1.00  0.00    -0.342 OA
ATOM     35  C   UNL     1      16.831   7.985   2.791  1.00  0.00     0.201 C 
ATOM     36  C   UNL     1      17.579   7.555   1.472  1.00  0.00     0.279 C 
BRANCH  32  37
ATOM     37  C   UNL     1      15.648  10.078  -0.686  1.00  0.00     0.191 C 
BRANCH  37  38
ATOM     38  O   UNL     1      16.381   9.995  -1.897  1.00  0.00    -0.394 OA
ATOM     39  H   UNL     1      17.308  10.182  -1.676  1.00  0.00     0.210 HD
ENDBRANCH  37  38
ENDBRANCH  32  37
BRANCH  33  40
ATOM     40  O   UNL     1      15.697   9.979   3.727  1.00  0.00    -0.387 OA
ATOM     41  H   UNL     1      16.248   9.588   4.512  1.00  0.00     0.211 HD
ENDBRANCH  33  40
BRANCH  35  42
ATOM     42  O   UNL     1      17.441   7.856   4.116  1.00  0.00    -0.385 OA
ATOM     43  H   UNL     1      18.037   8.619   4.368  1.00  0.00     0.211 HD
ENDBRANCH  35  42
BRANCH  36  44
ATOM     44  O   UNL     1      18.993   7.636   1.706  1.00  0.00    -0.366 OA
ATOM     45  H   UNL     1      19.392   6.800   1.333  1.00  0.00     0.213 HD
ENDBRANCH  36  44
ENDBRANCH  30  31
ENDBRANCH   4  30
TORSDOF 18
ENDMDL
MODEL 4
REMARK VINA RESULT:    -3.571      1.316      2.134
REMARK INTER + INTRA:          -7.472
REMARK INTER:                  -7.300
REMARK INTRA:                  -0.172
REMARK UNBOUND:                -1.292
REMARK SMILES OC[C@@H]1O[C@@H](O[C@@H]2[C@H](O)[C@@H](O)[C@H](O[C@@H]3[C@@H](O)[C@H](O)[C@H](O)O[C@@H]3CO)O[C@H]2CO)[C@@H](O)[C@H](O)[C@H]1O
REMARK SMILES IDX 7 1 26 2 25 3 12 4 10 5 8 6 6 7 5 8 3 9 33 10 4 11 31 12
REMARK SMILES IDX 29 13 2 14 1 15 34 17 32 19 30 21 27 23 28 24 9 26 11 28
REMARK SMILES IDX 13 30 14 31 22 32 15 33 21 34 17 35 19 36 23 37 24 38 16 40
REMARK SMILES IDX 18 42 20 44
REMARK H PARENT 1 16 34 18 32 20 30 22 28 25 9 27 11 29 24 39 16 41 18 43
REMARK H PARENT 20 45
REMARK Flexibility Score: inf
ROOT
ATOM      1  C   UNL     1      14.096   7.035   2.519  1.00  0.00     0.184 C 
ATOM      2  C   UNL     1      13.558   5.886   3.387  1.00  0.00     0.178 C 
ATOM      3  O   UNL     1      12.397   5.365   2.769  1.00  0.00    -0.341 OA
ATOM      4  C   UNL     1      11.274   6.225   2.874  1.00  0.00     0.282 C 
ATOM      5  C   UNL     1      11.600   7.769   2.941  1.00  0.00     0.202 C 
ATOM      6  C   UNL     1      13.050   8.199   2.386  1.00  0.00     0.180 C 
ENDROOT
BRANCH   1   7
ATOM      7  O   UNL     1      15.338   7.507   3.066  1.00  0.00    -0.341 OA
BRANCH   7   8
ATOM      8  C   UNL     1      16.388   7.450   2.082  1.00  0.00     0.282 C 
ATOM      9  C   UNL     1      18.734   7.726   1.818  1.00  0.00     0.178 C 
ATOM     10  C   UNL     1      18.562   8.884   0.776  1.00  0.00     0.177 C 
ATOM     11  O   UNL     1      17.634   7.600   2.706  1.00  0.00    -0.341 OA
ATOM     12  C   UNL     1      17.247   8.668   0.006  1.00  0.00     0.179 C 
ATOM     13  C   UNL     1      16.065   8.506   0.998  1.00  0.00     0.202 C 
BRANCH   9  14
ATOM     14  C   UNL     1      19.203   6.424   1.158  1.00  0.00     0.191 C 
BRANCH  14  15
ATOM     15  O   UNL     1      20.601   6.283   1.265  1.00  0.00    -0.394 OA
ATOM     16  H   UNL     1      20.748   5.484   0.683  1.00  0.00     0.210 HD
ENDBRANCH  14  15
ENDBRANCH   9  14
BRANCH  10  17
ATOM     17  O   UNL     1      18.529  10.119   1.441  1.00  0.00    -0.387 OA
ATOM     18  H   UNL     1      18.681  10.833   0.754  1.00  0.00     0.211 HD
ENDBRANCH  10  17
BRANCH  12  19
ATOM     19  O   UNL     1      17.289   7.589  -0.897  1.00  0.00    -0.387 OA
ATOM     20  H   UNL     1      17.240   6.756  -0.362  1.00  0.00     0.211 HD
ENDBRANCH  12  19
BRANCH  13  21
ATOM     21  O   UNL     1      15.851   9.731   1.662  1.00  0.00    -0.385 OA
ATOM     22  H   UNL     1      14.888   9.949   1.615  1.00  0.00     0.211 HD
ENDBRANCH  13  21
ENDBRANCH   7   8
ENDBRANCH   1   7
BRANCH   2  23
ATOM     23  C   UNL     1      14.630   4.764   3.439  1.00  0.00     0.191 C 
BRANCH  23  24
ATOM     24  O   UNL     1      13.999   3.528   3.111  1.00  0.00    -0.394 OA
ATOM     25  H   UNL     1      14.529   3.088   2.374  1.00  0.00     0.210 HD
ENDBRANCH  23  24
ENDBRANCH   2  23
BRANCH   6  26
ATOM     26  O   UNL     1      13.463   9.318   3.151  1.00  0.00    -0.387 OA
ATOM     27  H   UNL     1      14.062   8.996   3.864  1.00  0.00     0.211 HD
ENDBRANCH   6  26
BRANCH   5  28
ATOM     28  O   UNL     1      10.600   8.461   2.164  1.00  0.00    -0.385 OA
ATOM     29  H   UNL     1       9.825   8.775   2.761  1.00  0.00     0.211 HD
ENDBRANCH   5  28
BRANCH   4  30
ATOM     30  O   UNL     1      10.228   5.609   3.708  1.00  0.00    -0.341 OA
BRANCH  30  31
ATOM     31  C   UNL     1       9.108   5.110   3.017  1.00  0.00     0.184 C 
ATOM     32  C   UNL     1       7.636   5.337   3.515  1.00  0.00     0.178 C 
ATOM     33  C   UNL     1       9.075   5.401   1.482  1.00  0.00     0.180 C 
ATOM     34  O   UNL     1       6.639   5.070   2.485  1.00  0.00    -0.342 OA
ATOM     35  C   UNL     1       8.449   4.065   1.002  1.00  0.00     0.201 C 
ATOM     36  C   UNL     1       6.950   4.011   1.487  1.00  0.00     0.279 C 
BRANCH  32  37
ATOM     37  C   UNL     1       7.489   6.755   4.118  1.00  0.00     0.191 C 
BRANCH  37  38
ATOM     38  O   UNL     1       8.034   7.739   3.254  1.00  0.00    -0.394 OA
ATOM     39  H   UNL     1       7.385   7.878   2.545  1.00  0.00     0.210 HD
ENDBRANCH  37  38
ENDBRANCH  32  37
BRANCH  33  40
ATOM     40  O   UNL     1      10.319   5.688   0.903  1.00  0.00    -0.387 OA
ATOM     41  H   UNL     1      10.998   5.768   1.680  1.00  0.00     0.211 HD
ENDBRANCH  33  40
BRANCH  35  42
ATOM     42  O   UNL     1       8.846   3.705  -0.360  1.00  0.00    -0.385 OA
ATOM     43  H   UNL     1       9.019   4.488  -0.958  1.00  0.00     0.211 HD
ENDBRANCH  35  42
BRANCH  36  44
ATOM     44  O   UNL     1       6.097   4.169   0.344  1.00  0.00    -0.366 OA
ATOM     45  H   UNL     1       6.097   3.294  -0.136  1.00  0.00     0.213 HD
ENDBRANCH  36  44
ENDBRANCH  30  31
ENDBRANCH   4  30
TORSDOF 18
ENDMDL
MODEL 5
REMARK VINA RESULT:    -3.386      1.426      8.595
REMARK INTER + INTRA:          -7.153
REMARK INTER:                  -5.511
REMARK INTRA:                  -1.641
REMARK UNBOUND:                -1.292
REMARK SMILES OC[C@@H]1O[C@@H](O[C@@H]2[C@H](O)[C@@H](O)[C@H](O[C@@H]3[C@@H](O)[C@H](O)[C@H](O)O[C@@H]3CO)O[C@H]2CO)[C@@H](O)[C@H](O)[C@H]1O
REMARK SMILES IDX 7 1 26 2 25 3 12 4 10 5 8 6 6 7 5 8 3 9 33 10 4 11 31 12
REMARK SMILES IDX 29 13 2 14 1 15 34 17 32 19 30 21 27 23 28 24 9 26 11 28
REMARK SMILES IDX 13 30 14 31 22 32 15 33 21 34 17 35 19 36 23 37 24 38 16 40
REMARK SMILES IDX 18 42 20 44
REMARK H PARENT 1 16 34 18 32 20 30 22 28 25 9 27 11 29 24 39 16 41 18 43
REMARK H PARENT 20 45
REMARK Flexibility Score: inf
ROOT
ATOM      1  C   UNL     1      10.927   5.844   2.861  1.00  0.00     0.184 C 
ATOM      2  C   UNL     1      12.370   5.369   3.096  1.00  0.00     0.178 C 
ATOM      3  O   UNL     1      12.938   6.156   4.125  1.00  0.00    -0.341 OA
ATOM      4  C   UNL     1      13.238   7.479   3.715  1.00  0.00     0.282 C 
ATOM      5  C   UNL     1      12.307   8.073   2.585  1.00  0.00     0.202 C 
ATOM      6  C   UNL     1      10.879   7.347   2.408  1.00  0.00     0.180 C 
ENDROOT
BRANCH   1   7
ATOM      7  O   UNL     1      10.291   4.987   1.899  1.00  0.00    -0.341 OA
BRANCH   7   8
ATOM      8  C   UNL     1       8.863   4.975   2.088  1.00  0.00     0.282 C 
ATOM      9  C   UNL     1       7.191   4.795   3.767  1.00  0.00     0.178 C 
ATOM     10  C   UNL     1       6.573   3.505   3.128  1.00  0.00     0.177 C 
ATOM     11  O   UNL     1       8.564   4.975   3.457  1.00  0.00    -0.341 OA
ATOM     12  C   UNL     1       6.799   3.546   1.607  1.00  0.00     0.179 C 
ATOM     13  C   UNL     1       8.302   3.771   1.293  1.00  0.00     0.202 C 
BRANCH   9  14
ATOM     14  C   UNL     1       6.299   6.025   3.555  1.00  0.00     0.191 C 
BRANCH  14  15
ATOM     15  O   UNL     1       5.001   5.795   4.051  1.00  0.00    -0.394 OA
ATOM     16  H   UNL     1       5.214   5.390   4.939  1.00  0.00     0.210 HD
ENDBRANCH  14  15
ENDBRANCH   9  14
BRANCH  10  17
ATOM     17  O   UNL     1       7.187   2.366   3.671  1.00  0.00    -0.387 OA
ATOM     18  H   UNL     1       6.812   2.234   4.592  1.00  0.00     0.211 HD
ENDBRANCH  10  17
BRANCH  12  19
ATOM     19  O   UNL     1       6.006   4.500   0.941  1.00  0.00    -0.387 OA
ATOM     20  H   UNL     1       6.622   5.110   0.460  1.00  0.00     0.211 HD
ENDBRANCH  12  19
BRANCH  13  21
ATOM     21  O   UNL     1       9.030   2.632   1.696  1.00  0.00    -0.385 OA
ATOM     22  H   UNL     1       9.352   2.164   0.887  1.00  0.00     0.211 HD
ENDBRANCH  13  21
ENDBRANCH   7   8
ENDBRANCH   1   7
BRANCH   2  23
ATOM     23  C   UNL     1      12.330   3.892   3.574  1.00  0.00     0.191 C 
BRANCH  23  24
ATOM     24  O   UNL     1      11.010   3.607   4.033  1.00  0.00    -0.394 OA
ATOM     25  H   UNL     1      10.872   2.608   3.996  1.00  0.00     0.210 HD
ENDBRANCH  23  24
ENDBRANCH   2  23
BRANCH   6  26
ATOM     26  O   UNL     1      10.547   7.434   1.034  1.00  0.00    -0.387 OA
ATOM     27  H   UNL     1      10.970   8.245   0.669  1.00  0.00     0.211 HD
ENDBRANCH   6  26
BRANCH   5  28
ATOM     28  O   UNL     1      12.067   9.461   2.900  1.00  0.00    -0.385 OA
ATOM     29  H   UNL     1      12.320  10.065   2.108  1.00  0.00     0.211 HD
ENDBRANCH   5  28
BRANCH   4  30
ATOM     30  O   UNL     1      14.694   7.707   3.728  1.00  0.00    -0.341 OA
BRANCH  30  31
ATOM     31  C   UNL     1      15.208   8.447   2.647  1.00  0.00     0.184 C 
ATOM     32  C   UNL     1      16.080   9.738   2.844  1.00  0.00     0.178 C 
ATOM     33  C   UNL     1      15.944   7.616   1.547  1.00  0.00     0.180 C 
ATOM     34  O   UNL     1      16.805  10.125   1.640  1.00  0.00    -0.342 OA
ATOM     35  C   UNL     1      15.481   8.412   0.299  1.00  0.00     0.201 C 
ATOM     36  C   UNL     1      16.164   9.832   0.329  1.00  0.00     0.279 C 
BRANCH  32  37
ATOM     37  C   UNL     1      17.019   9.569   4.063  1.00  0.00     0.191 C 
BRANCH  37  38
ATOM     38  O   UNL     1      17.739   8.349   3.989  1.00  0.00    -0.394 OA
ATOM     39  H   UNL     1      18.478   8.498   3.376  1.00  0.00     0.210 HD
ENDBRANCH  37  38
ENDBRANCH  32  37
BRANCH  33  40
ATOM     40  O   UNL     1      15.615   6.253   1.509  1.00  0.00    -0.387 OA
ATOM     41  H   UNL     1      14.589   6.199   1.379  1.00  0.00     0.211 HD
ENDBRANCH  33  40
BRANCH  35  42
ATOM     42  O   UNL     1      15.425   7.593  -0.913  1.00  0.00    -0.385 OA
ATOM     43  H   UNL     1      14.618   7.756  -1.481  1.00  0.00     0.211 HD
ENDBRANCH  35  42
BRANCH  36  44
ATOM     44  O   UNL     1      17.156   9.881  -0.707  1.00  0.00    -0.366 OA
ATOM     45  H   UNL     1      17.855  10.524  -0.403  1.00  0.00     0.213 HD
ENDBRANCH  36  44
ENDBRANCH  30  31
ENDBRANCH   4  30
TORSDOF 18
ENDMDL
MODEL 6
REMARK VINA RESULT:    -3.264      1.466      8.921
REMARK INTER + INTRA:          -6.940
REMARK INTER:                  -7.482
REMARK INTRA:                   0.541
REMARK UNBOUND:                -1.292
REMARK SMILES OC[C@@H]1O[C@@H](O[C@@H]2[C@H](O)[C@@H](O)[C@H](O[C@@H]3[C@@H](O)[C@H](O)[C@H](O)O[C@@H]3CO)O[C@H]2CO)[C@@H](O)[C@H](O)[C@H]1O
REMARK SMILES IDX 7 1 26 2 25 3 12 4 10 5 8 6 6 7 5 8 3 9 33 10 4 11 31 12
REMARK SMILES IDX 29 13 2 14 1 15 34 17 32 19 30 21 27 23 28 24 9 26 11 28
REMARK SMILES IDX 13 30 14 31 22 32 15 33 21 34 17 35 19 36 23 37 24 38 16 40
REMARK SMILES IDX 18 42 20 44
REMARK H PARENT 1 16 34 18 32 20 30 22 28 25 9 27 11 29 24 39 16 41 18 43
REMARK H PARENT 20 45
REMARK Flexibility Score: inf
ROOT
ATOM      1  C   UNL     1      10.803   6.540   3.022  1.00  0.00     0.184 C 
ATOM      2  C   UNL     1      11.208   8.003   3.264  1.00  0.00     0.178 C 
ATOM      3  O   UNL     1      11.967   8.445   2.155  1.00  0.00    -0.341 OA
ATOM      4  C   UNL     1      13.271   7.891   2.113  1.00  0.00     0.282 C 
ATOM      5  C   UNL     1      13.422   6.451   2.745  1.00  0.00     0.202 C 
ATOM      6  C   UNL     1      12.058   5.606   2.886  1.00  0.00     0.180 C 
ENDROOT
BRANCH   1   7
ATOM      7  O   UNL     1       9.937   6.101   4.082  1.00  0.00    -0.341 OA
BRANCH   7   8
ATOM      8  C   UNL     1       8.950   5.175   3.589  1.00  0.00     0.282 C 
ATOM      9  C   UNL     1       8.721   3.069   2.512  1.00  0.00     0.178 C 
ATOM     10  C   UNL     1       7.966   3.686   1.286  1.00  0.00     0.177 C 
ATOM     11  O   UNL     1       9.574   3.991   3.171  1.00  0.00    -0.341 OA
ATOM     12  C   UNL     1       7.186   4.927   1.756  1.00  0.00     0.179 C 
ATOM     13  C   UNL     1       8.134   5.907   2.497  1.00  0.00     0.202 C 
BRANCH   9  14
ATOM     14  C   UNL     1       7.781   2.271   3.424  1.00  0.00     0.191 C 
BRANCH  14  15
ATOM     15  O   UNL     1       6.624   1.870   2.725  1.00  0.00    -0.394 OA
ATOM     16  H   UNL     1       6.088   2.713   2.762  1.00  0.00     0.210 HD
ENDBRANCH  14  15
ENDBRANCH   9  14
BRANCH  10  17
ATOM     17  O   UNL     1       8.890   4.050   0.294  1.00  0.00    -0.387 OA
ATOM     18  H   UNL     1       9.557   4.667   0.719  1.00  0.00     0.211 HD
ENDBRANCH  10  17
BRANCH  12  19
ATOM     19  O   UNL     1       6.065   4.625   2.551  1.00  0.00    -0.387 OA
ATOM     20  H   UNL     1       5.425   4.128   1.980  1.00  0.00     0.211 HD
ENDBRANCH  12  19
BRANCH  13  21
ATOM     21  O   UNL     1       9.058   6.439   1.574  1.00  0.00    -0.385 OA
ATOM     22  H   UNL     1       8.903   6.011   0.695  1.00  0.00     0.211 HD
ENDBRANCH  13  21
ENDBRANCH   7   8
ENDBRANCH   1   7
BRANCH   2  23
ATOM     23  C   UNL     1       9.919   8.863   3.351  1.00  0.00     0.191 C 
BRANCH  23  24
ATOM     24  O   UNL     1       9.489   9.158   2.024  1.00  0.00    -0.394 OA
ATOM     25  H   UNL     1      10.081   8.655   1.381  1.00  0.00     0.210 HD
ENDBRANCH  23  24
ENDBRANCH   2  23
BRANCH   6  26
ATOM     26  O   UNL     1      12.197   4.799   4.042  1.00  0.00    -0.387 OA
ATOM     27  H   UNL     1      11.751   5.259   4.790  1.00  0.00     0.211 HD
ENDBRANCH   6  26
BRANCH   5  28
ATOM     28  O   UNL     1      14.330   5.701   1.911  1.00  0.00    -0.385 OA
ATOM     29  H   UNL     1      15.307   5.897   2.164  1.00  0.00     0.211 HD
ENDBRANCH   5  28
BRANCH   4  30
ATOM     30  O   UNL     1      14.285   8.942   2.306  1.00  0.00    -0.341 OA
BRANCH  30  31
ATOM     31  C   UNL     1      15.607   8.583   1.985  1.00  0.00     0.184 C 
ATOM     32  C   UNL     1      16.122   8.487   0.505  1.00  0.00     0.178 C 
ATOM     33  C   UNL     1      16.725   9.351   2.762  1.00  0.00     0.180 C 
ATOM     34  O   UNL     1      17.577   8.469   0.407  1.00  0.00    -0.342 OA
ATOM     35  C   UNL     1      17.737   8.188   2.933  1.00  0.00     0.201 C 
ATOM     36  C   UNL     1      18.332   7.827   1.519  1.00  0.00     0.279 C 
BRANCH  32  37
ATOM     37  C   UNL     1      15.493   9.610  -0.355  1.00  0.00     0.191 C 
BRANCH  37  38
ATOM     38  O   UNL     1      16.225   9.809  -1.553  1.00  0.00    -0.394 OA
ATOM     39  H   UNL     1      16.432  10.757  -1.599  1.00  0.00     0.210 HD
ENDBRANCH  37  38
ENDBRANCH  32  37
BRANCH  33  40
ATOM     40  O   UNL     1      16.318   9.935   3.969  1.00  0.00    -0.387 OA
ATOM     41  H   UNL     1      15.891  10.848   3.729  1.00  0.00     0.211 HD
ENDBRANCH  33  40
BRANCH  35  42
ATOM     42  O   UNL     1      18.576   8.331   4.124  1.00  0.00    -0.385 OA
ATOM     43  H   UNL     1      19.559   8.310   3.937  1.00  0.00     0.211 HD
ENDBRANCH  35  42
BRANCH  36  44
ATOM     44  O   UNL     1      19.699   8.261   1.477  1.00  0.00    -0.366 OA
ATOM     45  H   UNL     1      19.719   9.178   1.871  1.00  0.00     0.213 HD
ENDBRANCH  36  44
ENDBRANCH  30  31
ENDBRANCH   4  30
TORSDOF 18
ENDMDL
MODEL 7
REMARK VINA RESULT:    -2.865      1.538      8.777
REMARK INTER + INTRA:          -6.251
REMARK INTER:                  -6.063
REMARK INTRA:                  -0.188
REMARK UNBOUND:                -1.292
REMARK SMILES OC[C@@H]1O[C@@H](O[C@@H]2[C@H](O)[C@@H](O)[C@H](O[C@@H]3[C@@H](O)[C@H](O)[C@H](O)O[C@@H]3CO)O[C@H]2CO)[C@@H](O)[C@H](O)[C@H]1O
REMARK SMILES IDX 7 1 26 2 25 3 12 4 10 5 8 6 6 7 5 8 3 9 33 10 4 11 31 12
REMARK SMILES IDX 29 13 2 14 1 15 34 17 32 19 30 21 27 23 28 24 9 26 11 28
REMARK SMILES IDX 13 30 14 31 22 32 15 33 21 34 17 35 19 36 23 37 24 38 16 40
REMARK SMILES IDX 18 42 20 44
REMARK H PARENT 1 16 34 18 32 20 30 22 28 25 9 27 11 29 24 39 16 41 18 43
REMARK H PARENT 20 45
REMARK Flexibility Score: inf
ROOT
ATOM      1  C   UNL     1      10.147   6.155   2.236  1.00  0.00     0.184 C 
ATOM      2  C   UNL     1      11.001   7.431   2.319  1.00  0.00     0.178 C 
ATOM      3  O   UNL     1      12.206   7.208   1.613  1.00  0.00    -0.341 OA
ATOM      4  C   UNL     1      13.098   6.339   2.290  1.00  0.00     0.282 C 
ATOM      5  C   UNL     1      12.421   5.249   3.213  1.00  0.00     0.202 C 
ATOM      6  C   UNL     1      10.876   4.928   2.891  1.00  0.00     0.180 C 
ENDROOT
BRANCH   1   7
ATOM      7  O   UNL     1       8.870   6.392   2.850  1.00  0.00    -0.341 OA
BRANCH   7   8
ATOM      8  C   UNL     1       8.099   5.178   2.920  1.00  0.00     0.282 C 
ATOM      9  C   UNL     1       7.659   3.162   1.740  1.00  0.00     0.178 C 
ATOM     10  C   UNL     1       6.131   3.482   1.601  1.00  0.00     0.177 C 
ATOM     11  O   UNL     1       8.467   4.320   1.873  1.00  0.00    -0.341 OA
ATOM     12  C   UNL     1       5.690   4.333   2.804  1.00  0.00     0.179 C 
ATOM     13  C   UNL     1       6.605   5.578   2.946  1.00  0.00     0.202 C 
BRANCH   9  14
ATOM     14  C   UNL     1       7.922   2.051   2.764  1.00  0.00     0.191 C 
BRANCH  14  15
ATOM     15  O   UNL     1       8.164   2.593   4.042  1.00  0.00    -0.394 OA
ATOM     16  H   UNL     1       7.258   2.499   4.454  1.00  0.00     0.210 HD
ENDBRANCH  14  15
ENDBRANCH   9  14
BRANCH  10  17
ATOM     17  O   UNL     1       5.901   4.185   0.409  1.00  0.00    -0.387 OA
ATOM     18  H   UNL     1       5.272   4.936   0.621  1.00  0.00     0.211 HD
ENDBRANCH  10  17
BRANCH  12  19
ATOM     19  O   UNL     1       5.636   3.617   4.016  1.00  0.00    -0.387 OA
ATOM     20  H   UNL     1       5.765   4.272   4.749  1.00  0.00     0.211 HD
ENDBRANCH  12  19
BRANCH  13  21
ATOM     21  O   UNL     1       6.385   6.436   1.847  1.00  0.00    -0.385 OA
ATOM     22  H   UNL     1       7.211   6.956   1.687  1.00  0.00     0.211 HD
ENDBRANCH  13  21
ENDBRANCH   7   8
ENDBRANCH   1   7
BRANCH   2  23
ATOM     23  C   UNL     1      10.230   8.585   1.621  1.00  0.00     0.191 C 
BRANCH  23  24
ATOM     24  O   UNL     1       9.299   9.127   2.555  1.00  0.00    -0.394 OA
ATOM     25  H   UNL     1       9.204   8.478   3.321  1.00  0.00     0.210 HD
ENDBRANCH  23  24
ENDBRANCH   2  23
BRANCH   6  26
ATOM     26  O   UNL     1      10.265   4.595   4.125  1.00  0.00    -0.387 OA
ATOM     27  H   UNL     1       9.572   5.270   4.314  1.00  0.00     0.211 HD
ENDBRANCH   6  26
BRANCH   5  28
ATOM     28  O   UNL     1      13.173   4.025   3.067  1.00  0.00    -0.385 OA
ATOM     29  H   UNL     1      13.187   3.719   2.086  1.00  0.00     0.211 HD
ENDBRANCH   5  28
BRANCH   4  30
ATOM     30  O   UNL     1      14.316   7.061   2.696  1.00  0.00    -0.341 OA
BRANCH  30  31
ATOM     31  C   UNL     1      14.902   7.876   1.711  1.00  0.00     0.184 C 
ATOM     32  C   UNL     1      14.506   9.382   1.512  1.00  0.00     0.178 C 
ATOM     33  C   UNL     1      16.464   7.849   1.651  1.00  0.00     0.180 C 
ATOM     34  O   UNL     1      15.473  10.125   0.712  1.00  0.00    -0.342 OA
ATOM     35  C   UNL     1      16.644   7.945   0.114  1.00  0.00     0.201 C 
ATOM     36  C   UNL     1      16.196   9.381  -0.355  1.00  0.00     0.279 C 
BRANCH  32  37
ATOM     37  C   UNL     1      14.244  10.052   2.883  1.00  0.00     0.191 C 
BRANCH  37  38
ATOM     38  O   UNL     1      13.013   9.618   3.438  1.00  0.00    -0.394 OA
ATOM     39  H   UNL     1      12.449   9.353   2.693  1.00  0.00     0.210 HD
ENDBRANCH  37  38
ENDBRANCH  32  37
BRANCH  33  40
ATOM     40  O   UNL     1      17.063   6.719   2.226  1.00  0.00    -0.387 OA
ATOM     41  H   UNL     1      17.533   6.208   1.458  1.00  0.00     0.211 HD
ENDBRANCH  33  40
BRANCH  35  42
ATOM     42  O   UNL     1      17.879   7.315  -0.358  1.00  0.00    -0.385 OA
ATOM     43  H   UNL     1      18.300   6.693   0.303  1.00  0.00     0.211 HD
ENDBRANCH  35  42
BRANCH  36  44
ATOM     44  O   UNL     1      17.366  10.119  -0.739  1.00  0.00    -0.366 OA
ATOM     45  H   UNL     1      18.139   9.493  -0.652  1.00  0.00     0.213 HD
ENDBRANCH  36  44
ENDBRANCH  30  31
ENDBRANCH   4  30
TORSDOF 18
ENDMDL
MODEL 8
REMARK VINA RESULT:    -2.733      1.969      3.428
REMARK INTER + INTRA:          -6.022
REMARK INTER:                  -5.325
REMARK INTRA:                  -0.697
REMARK UNBOUND:                -1.292
REMARK SMILES OC[C@@H]1O[C@@H](O[C@@H]2[C@H](O)[C@@H](O)[C@H](O[C@@H]3[C@@H](O)[C@H](O)[C@H](O)O[C@@H]3CO)O[C@H]2CO)[C@@H](O)[C@H](O)[C@H]1O
REMARK SMILES IDX 7 1 26 2 25 3 12 4 10 5 8 6 6 7 5 8 3 9 33 10 4 11 31 12
REMARK SMILES IDX 29 13 2 14 1 15 34 17 32 19 30 21 27 23 28 24 9 26 11 28
REMARK SMILES IDX 13 30 14 31 22 32 15 33 21 34 17 35 19 36 23 37 24 38 16 40
REMARK SMILES IDX 18 42 20 44
REMARK H PARENT 1 16 34 18 32 20 30 22 28 25 9 27 11 29 24 39 16 41 18 43
REMARK H PARENT 20 45
REMARK Flexibility Score: inf
ROOT
ATOM      1  C   UNL     1      10.419   7.239   2.760  1.00  0.00     0.184 C 
ATOM      2  C   UNL     1       9.712   6.172   3.612  1.00  0.00     0.178 C 
ATOM      3  O   UNL     1       8.799   5.474   2.787  1.00  0.00    -0.341 OA
ATOM      4  C   UNL     1       7.654   6.238   2.450  1.00  0.00     0.282 C 
ATOM      5  C   UNL     1       7.873   7.800   2.367  1.00  0.00     0.202 C 
ATOM      6  C   UNL     1       9.399   8.278   2.171  1.00  0.00     0.180 C 
ENDROOT
BRANCH   1   7
ATOM      7  O   UNL     1      11.431   7.887   3.547  1.00  0.00    -0.341 OA
BRANCH   7   8
ATOM      8  C   UNL     1      12.721   7.775   2.917  1.00  0.00     0.282 C 
ATOM      9  C   UNL     1      14.976   7.158   3.349  1.00  0.00     0.178 C 
ATOM     10  C   UNL     1      15.521   8.579   2.977  1.00  0.00     0.177 C 
ATOM     11  O   UNL     1      13.630   7.171   3.798  1.00  0.00    -0.341 OA
ATOM     12  C   UNL     1      14.590   9.210   1.926  1.00  0.00     0.179 C 
ATOM     13  C   UNL     1      13.122   9.188   2.427  1.00  0.00     0.202 C 
BRANCH   9  14
ATOM     14  C   UNL     1      15.303   6.117   2.271  1.00  0.00     0.191 C 
BRANCH  14  15
ATOM     15  O   UNL     1      14.302   5.128   2.209  1.00  0.00    -0.394 OA
ATOM     16  H   UNL     1      13.490   5.697   2.093  1.00  0.00     0.210 HD
ENDBRANCH  14  15
ENDBRANCH   9  14
BRANCH  10  17
ATOM     17  O   UNL     1      15.562   9.386   4.124  1.00  0.00    -0.387 OA
ATOM     18  H   UNL     1      15.078   8.896   4.853  1.00  0.00     0.211 HD
ENDBRANCH  10  17
BRANCH  12  19
ATOM     19  O   UNL     1      14.688   8.617   0.653  1.00  0.00    -0.387 OA
ATOM     20  H   UNL     1      14.269   7.722   0.713  1.00  0.00     0.211 HD
ENDBRANCH  12  19
BRANCH  13  21
ATOM     21  O   UNL     1      13.000  10.059   3.530  1.00  0.00    -0.385 OA
ATOM     22  H   UNL     1      13.546  10.864   3.354  1.00  0.00     0.211 HD
ENDBRANCH  13  21
ENDBRANCH   7   8
ENDBRANCH   1   7
BRANCH   2  23
ATOM     23  C   UNL     1      10.778   5.166   4.125  1.00  0.00     0.191 C 
BRANCH  23  24
ATOM     24  O   UNL     1      11.521   4.693   3.004  1.00  0.00    -0.394 OA
ATOM     25  H   UNL     1      12.002   3.849   3.276  1.00  0.00     0.210 HD
ENDBRANCH  23  24
ENDBRANCH   2  23
BRANCH   6  26
ATOM     26  O   UNL     1       9.525   9.521   2.840  1.00  0.00    -0.387 OA
ATOM     27  H   UNL     1       8.619   9.861   3.023  1.00  0.00     0.211 HD
ENDBRANCH   6  26
BRANCH   5  28
ATOM     28  O   UNL     1       7.103   8.292   1.251  1.00  0.00    -0.385 OA
ATOM     29  H   UNL     1       6.712   9.220   1.456  1.00  0.00     0.211 HD
ENDBRANCH   5  28
BRANCH   4  30
ATOM     30  O   UNL     1       6.444   5.648   3.050  1.00  0.00    -0.341 OA
BRANCH  30  31
ATOM     31  C   UNL     1       6.491   4.262   3.286  1.00  0.00     0.184 C 
ATOM     32  C   UNL     1       5.372   3.501   4.083  1.00  0.00     0.178 C 
ATOM     33  C   UNL     1       6.785   3.371   2.036  1.00  0.00     0.180 C 
ATOM     34  O   UNL     1       5.421   2.056   3.895  1.00  0.00    -0.342 OA
ATOM     35  C   UNL     1       7.666   2.291   2.717  1.00  0.00     0.201 C 
ATOM     36  C   UNL     1       6.757   1.436   3.680  1.00  0.00     0.279 C 
BRANCH  32  37
ATOM     37  C   UNL     1       3.980   4.088   3.744  1.00  0.00     0.191 C 
BRANCH  37  38
ATOM     38  O   UNL     1       3.301   3.280   2.797  1.00  0.00    -0.394 OA
ATOM     39  H   UNL     1       3.843   3.278   1.991  1.00  0.00     0.210 HD
ENDBRANCH  37  38
ENDBRANCH  32  37
BRANCH  33  40
ATOM     40  O   UNL     1       7.413   4.030   0.970  1.00  0.00    -0.387 OA
ATOM     41  H   UNL     1       7.246   3.454   0.125  1.00  0.00     0.211 HD
ENDBRANCH  33  40
BRANCH  35  42
ATOM     42  O   UNL     1       8.631   1.680   1.801  1.00  0.00    -0.385 OA
ATOM     43  H   UNL     1       8.413   0.738   1.545  1.00  0.00     0.211 HD
ENDBRANCH  35  42
BRANCH  36  44
ATOM     44  O   UNL     1       6.590   0.132   3.107  1.00  0.00    -0.366 OA
ATOM     45  H   UNL     1       5.944   0.232   2.352  1.00  0.00     0.213 HD
ENDBRANCH  36  44
ENDBRANCH  30  31
ENDBRANCH   4  30
TORSDOF 18
ENDMDL
MODEL 9
REMARK VINA RESULT:    -2.672      1.562      8.375
REMARK INTER + INTRA:          -5.916
REMARK INTER:                  -6.447
REMARK INTRA:                   0.531
REMARK UNBOUND:                -1.292
REMARK SMILES OC[C@@H]1O[C@@H](O[C@@H]2[C@H](O)[C@@H](O)[C@H](O[C@@H]3[C@@H](O)[C@H](O)[C@H](O)O[C@@H]3CO)O[C@H]2CO)[C@@H](O)[C@H](O)[C@H]1O
REMARK SMILES IDX 7 1 26 2 25 3 12 4 10 5 8 6 6 7 5 8 3 9 33 10 4 11 31 12
REMARK SMILES IDX 29 13 2 14 1 15 34 17 32 19 30 21 27 23 28 24 9 26 11 28
REMARK SMILES IDX 13 30 14 31 22 32 15 33 21 34 17 35 19 36 23 37 24 38 16 40
REMARK SMILES IDX 18 42 20 44
REMARK H PARENT 1 16 34 18 32 20 30 22 28 25 9 27 11 29 24 39 16 41 18 43
REMARK H PARENT 20 45
REMARK Flexibility Score: inf
ROOT
ATOM      1  C   UNL     1       8.795   7.185   3.613  1.00  0.00     0.184 C 
ATOM      2  C   UNL     1       9.870   6.146   3.259  1.00  0.00     0.178 C 
ATOM      3  O   UNL     1      11.136   6.681   3.593  1.00  0.00    -0.341 OA
ATOM      4  C   UNL     1      11.562   7.703   2.708  1.00  0.00     0.282 C 
ATOM      5  C   UNL     1      10.409   8.556   2.045  1.00  0.00     0.202 C 
ATOM      6  C   UNL     1       8.989   8.517   2.805  1.00  0.00     0.180 C 
ENDROOT
BRANCH   1   7
ATOM      7  O   UNL     1       7.492   6.623   3.388  1.00  0.00    -0.341 OA
BRANCH   7   8
ATOM      8  C   UNL     1       7.593   5.316   2.790  1.00  0.00     0.282 C 
ATOM      9  C   UNL     1       7.187   4.141   0.764  1.00  0.00     0.178 C 
ATOM     10  C   UNL     1       6.176   3.155   1.444  1.00  0.00     0.177 C 
ATOM     11  O   UNL     1       7.283   5.393   1.424  1.00  0.00    -0.341 OA
ATOM     12  C   UNL     1       6.572   2.977   2.920  1.00  0.00     0.179 C 
ATOM     13  C   UNL     1       6.698   4.360   3.613  1.00  0.00     0.202 C 
BRANCH   9  14
ATOM     14  C   UNL     1       8.523   3.460   0.440  1.00  0.00     0.191 C 
BRANCH  14  15
ATOM     15  O   UNL     1       8.923   3.745  -0.881  1.00  0.00    -0.394 OA
ATOM     16  H   UNL     1       9.193   2.834  -1.190  1.00  0.00     0.210 HD
ENDBRANCH  14  15
ENDBRANCH   9  14
BRANCH  10  17
ATOM     17  O   UNL     1       4.876   3.676   1.358  1.00  0.00    -0.387 OA
ATOM     18  H   UNL     1       4.947   4.595   0.963  1.00  0.00     0.211 HD
ENDBRANCH  10  17
BRANCH  12  19
ATOM     19  O   UNL     1       7.745   2.221   3.105  1.00  0.00    -0.387 OA
ATOM     20  H   UNL     1       7.511   1.272   2.943  1.00  0.00     0.211 HD
ENDBRANCH  12  19
BRANCH  13  21
ATOM     21  O   UNL     1       5.420   4.951   3.692  1.00  0.00    -0.385 OA
ATOM     22  H   UNL     1       5.394   5.724   3.075  1.00  0.00     0.211 HD
ENDBRANCH  13  21
ENDBRANCH   7   8
ENDBRANCH   1   7
BRANCH   2  23
ATOM     23  C   UNL     1       9.632   4.877   4.122  1.00  0.00     0.191 C 
BRANCH  23  24
ATOM     24  O   UNL     1      10.471   3.836   3.627  1.00  0.00    -0.394 OA
ATOM     25  H   UNL     1      10.564   3.952   2.629  1.00  0.00     0.210 HD
ENDBRANCH  23  24
ENDBRANCH   2  23
BRANCH   6  26
ATOM     26  O   UNL     1       7.991   8.636   1.807  1.00  0.00    -0.387 OA
ATOM     27  H   UNL     1       7.571   9.523   1.899  1.00  0.00     0.211 HD
ENDBRANCH   6  26
BRANCH   5  28
ATOM     28  O   UNL     1      10.853   9.929   1.996  1.00  0.00    -0.385 OA
ATOM     29  H   UNL     1      10.112  10.565   2.314  1.00  0.00     0.211 HD
ENDBRANCH   5  28
BRANCH   4  30
ATOM     30  O   UNL     1      12.750   7.271   1.952  1.00  0.00    -0.341 OA
BRANCH  30  31
ATOM     31  C   UNL     1      13.992   7.561   2.544  1.00  0.00     0.184 C 
ATOM     32  C   UNL     1      14.472   6.885   3.878  1.00  0.00     0.178 C 
ATOM     33  C   UNL     1      15.228   7.509   1.588  1.00  0.00     0.180 C 
ATOM     34  O   UNL     1      15.903   7.038   4.111  1.00  0.00    -0.342 OA
ATOM     35  C   UNL     1      16.036   8.693   2.181  1.00  0.00     0.201 C 
ATOM     36  C   UNL     1      16.552   8.281   3.612  1.00  0.00     0.279 C 
BRANCH  32  37
ATOM     37  C   UNL     1      14.028   5.403   3.916  1.00  0.00     0.191 C 
BRANCH  37  38
ATOM     38  O   UNL     1      13.357   5.038   2.721  1.00  0.00    -0.394 OA
ATOM     39  H   UNL     1      12.415   4.958   2.943  1.00  0.00     0.210 HD
ENDBRANCH  37  38
ENDBRANCH  32  37
BRANCH  33  40
ATOM     40  O   UNL     1      14.932   7.648   0.224  1.00  0.00    -0.387 OA
ATOM     41  H   UNL     1      14.514   8.587   0.104  1.00  0.00     0.211 HD
ENDBRANCH  33  40
BRANCH  35  42
ATOM     42  O   UNL     1      16.897   9.348   1.195  1.00  0.00    -0.385 OA
ATOM     43  H   UNL     1      16.841  10.346   1.201  1.00  0.00     0.211 HD
ENDBRANCH  35  42
BRANCH  36  44
ATOM     44  O   UNL     1      17.971   8.082   3.543  1.00  0.00    -0.366 OA
ATOM     45  H   UNL     1      18.393   8.894   3.943  1.00  0.00     0.213 HD
ENDBRANCH  36  44
ENDBRANCH  30  31
ENDBRANCH   4  30
TORSDOF 18
ENDMDL
