MODEL 1
REMARK VINA RESULT:    -3.757      0.000      0.000
REMARK INTER + INTRA:          -5.818
REMARK INTER:                  -5.184
REMARK INTRA:                  -0.634
REMARK UNBOUND:                -0.634
REMARK SMILES O=C([O-])[C@@H]1O[C@@H](Oc2cc3oc(-c4ccccc4)cc(=O)c3c(O)c2O)[C@H](O)[C@@H](O)[C@H]1O
REMARK SMILES IDX 7 1 6 2 4 3 31 4 5 5 29 6 27 7 2 8 1 9 3 10 32 11 30 13
REMARK SMILES IDX 28 15 8 17 25 18 9 19 23 20 10 21 22 22 11 23 20 24 12 25
REMARK SMILES IDX 19 26 21 27 26 28 24 30 13 32 14 33 18 34 15 35 17 36 16 37
REMARK H PARENT 32 12 30 14 28 16 26 29 24 31
REMARK Flexibility Score: inf
ROOT
ATOM      1  O   UNL     1      17.388  67.497  94.772  1.00  0.00    -0.458 OA
ENDROOT
BRANCH   1   2
ATOM      2  C   UNL     1      18.503  66.937  95.468  1.00  0.00     0.339 C 
ATOM      3  C   UNL     1      19.677  67.021  97.512  1.00  0.00     0.199 C 
ATOM      4  C   UNL     1      21.056  67.137  96.801  1.00  0.00     0.180 C 
ATOM      5  O   UNL     1      18.625  67.575  96.731  1.00  0.00    -0.328 OA
ATOM      6  C   UNL     1      21.000  66.604  95.352  1.00  0.00     0.181 C 
ATOM      7  C   UNL     1      19.768  67.161  94.620  1.00  0.00     0.214 C 
BRANCH   3   8
ATOM      8  C   UNL     1      19.340  65.628  97.993  1.00  0.00     0.073 C 
ATOM      9  O   UNL     1      18.809  65.474  99.124  1.00  0.00    -0.547 OA
ATOM     10  O   UNL     1      19.610  64.509  97.213  1.00  0.00    -0.547 OA
ENDBRANCH   3   8
BRANCH   4  11
ATOM     11  O   UNL     1      21.523  68.465  96.829  1.00  0.00    -0.387 OA
ATOM     12  H   UNL     1      22.326  68.498  97.411  1.00  0.00     0.211 HD
ENDBRANCH   4  11
BRANCH   6  13
ATOM     13  O   UNL     1      22.163  66.962  94.651  1.00  0.00    -0.387 OA
ATOM     14  H   UNL     1      22.619  67.656  95.194  1.00  0.00     0.211 HD
ENDBRANCH   6  13
BRANCH   7  15
ATOM     15  O   UNL     1      19.629  66.573  93.350  1.00  0.00    -0.384 OA
ATOM     16  H   UNL     1      18.843  65.967  93.377  1.00  0.00     0.211 HD
ENDBRANCH   7  15
ENDBRANCH   1   2
BRANCH   1  17
ATOM     17  C   UNL     1      16.078  66.994  94.798  1.00  0.00     0.172 A 
ATOM     18  C   UNL     1      15.029  67.820  94.367  1.00  0.00     0.201 A 
ATOM     19  C   UNL     1      15.791  65.693  95.231  1.00  0.00     0.098 A 
ATOM     20  C   UNL     1      13.702  67.360  94.365  1.00  0.00     0.176 A 
ATOM     21  C   UNL     1      14.481  65.220  95.252  1.00  0.00     0.146 A 
ATOM     22  C   UNL     1      13.405  66.042  94.827  1.00  0.00     0.111 A 
ATOM     23  O   UNL     1      14.268  63.981  95.685  1.00  0.00    -0.456 OA
ATOM     24  C   UNL     1      12.107  65.476  94.906  1.00  0.00     0.197 A 
ATOM     25  C   UNL     1      13.065  63.425  95.759  1.00  0.00     0.138 A 
ATOM     26  C   UNL     1      11.945  64.166  95.359  1.00  0.00     0.100 A 
ATOM     27  O   UNL     1      11.075  66.121  94.589  1.00  0.00    -0.289 OA
BRANCH  18  28
ATOM     28  O   UNL     1      15.290  69.118  93.921  1.00  0.00    -0.502 OA
ATOM     29  H   UNL     1      15.555  69.865  94.551  1.00  0.00     0.293 HD
ENDBRANCH  18  28
BRANCH  20  30
ATOM     30  O   UNL     1      12.742  68.256  93.881  1.00  0.00    -0.504 OA
ATOM     31  H   UNL     1      12.029  68.051  93.199  1.00  0.00     0.293 HD
ENDBRANCH  20  30
BRANCH  25  32
ATOM     32  C   UNL     1      12.957  62.027  96.259  1.00  0.00     0.017 A 
ATOM     33  C   UNL     1      12.627  61.734  97.600  1.00  0.00     0.012 A 
ATOM     34  C   UNL     1      13.226  60.958  95.382  1.00  0.00     0.012 A 
ATOM     35  C   UNL     1      12.546  60.409  98.036  1.00  0.00     0.001 A 
ATOM     36  C   UNL     1      13.149  59.635  95.827  1.00  0.00     0.001 A 
ATOM     37  C   UNL     1      12.804  59.361  97.150  1.00  0.00     0.000 A 
ENDBRANCH  25  32
ENDBRANCH   1  17
TORSDOF 9
ENDMDL
MODEL 2
REMARK VINA RESULT:    -3.721      0.833      2.500
REMARK INTER + INTRA:          -5.769
REMARK INTER:                  -6.018
REMARK INTRA:                   0.250
REMARK UNBOUND:                -0.634
REMARK SMILES O=C([O-])[C@@H]1O[C@@H](Oc2cc3oc(-c4ccccc4)cc(=O)c3c(O)c2O)[C@H](O)[C@@H](O)[C@H]1O
REMARK SMILES IDX 7 1 6 2 4 3 31 4 5 5 29 6 27 7 2 8 1 9 3 10 32 11 30 13
REMARK SMILES IDX 28 15 8 17 25 18 9 19 23 20 10 21 22 22 11 23 20 24 12 25
REMARK SMILES IDX 19 26 21 27 26 28 24 30 13 32 14 33 18 34 15 35 17 36 16 37
REMARK H PARENT 32 12 30 14 28 16 26 29 24 31
REMARK Flexibility Score: inf
ROOT
ATOM      1  O   UNL     1      17.005  67.597  94.072  1.00  0.00    -0.458 OA
ENDROOT
BRANCH   1   2
ATOM      2  C   UNL     1      18.146  67.386  94.903  1.00  0.00     0.339 C 
ATOM      3  C   UNL     1      20.163  66.172  95.054  1.00  0.00     0.199 C 
ATOM      4  C   UNL     1      19.873  65.726  96.516  1.00  0.00     0.180 C 
ATOM      5  O   UNL     1      18.968  66.389  94.314  1.00  0.00    -0.328 OA
ATOM      6  C   UNL     1      18.863  66.666  97.212  1.00  0.00     0.181 C 
ATOM      7  C   UNL     1      17.660  66.939  96.294  1.00  0.00     0.214 C 
BRANCH   3   8
ATOM      8  C   UNL     1      21.111  67.345  94.939  1.00  0.00     0.073 C 
ATOM      9  O   UNL     1      21.967  67.540  95.842  1.00  0.00    -0.547 OA
ATOM     10  O   UNL     1      21.056  68.215  93.856  1.00  0.00    -0.547 OA
ENDBRANCH   3   8
BRANCH   4  11
ATOM     11  O   UNL     1      19.423  64.392  96.552  1.00  0.00    -0.387 OA
ATOM     12  H   UNL     1      19.228  64.107  95.622  1.00  0.00     0.211 HD
ENDBRANCH   4  11
BRANCH   6  13
ATOM     13  O   UNL     1      18.414  66.101  98.417  1.00  0.00    -0.387 OA
ATOM     14  H   UNL     1      19.197  66.077  99.027  1.00  0.00     0.211 HD
ENDBRANCH   6  13
BRANCH   7  15
ATOM     15  O   UNL     1      16.805  67.903  96.859  1.00  0.00    -0.384 OA
ATOM     16  H   UNL     1      17.308  68.376  97.573  1.00  0.00     0.211 HD
ENDBRANCH   7  15
ENDBRANCH   1   2
BRANCH   1  17
ATOM     17  C   UNL     1      15.724  67.070  94.302  1.00  0.00     0.172 A 
ATOM     18  C   UNL     1      14.606  67.881  94.054  1.00  0.00     0.201 A 
ATOM     19  C   UNL     1      15.531  65.762  94.762  1.00  0.00     0.098 A 
ATOM     20  C   UNL     1      13.303  67.398  94.259  1.00  0.00     0.176 A 
ATOM     21  C   UNL     1      14.249  65.265  94.988  1.00  0.00     0.146 A 
ATOM     22  C   UNL     1      13.106  66.071  94.749  1.00  0.00     0.111 A 
ATOM     23  O   UNL     1      14.129  64.019  95.436  1.00  0.00    -0.456 OA
ATOM     24  C   UNL     1      11.847  65.482  95.029  1.00  0.00     0.197 A 
ATOM     25  C   UNL     1      12.962  63.441  95.696  1.00  0.00     0.138 A 
ATOM     26  C   UNL     1      11.781  64.166  95.489  1.00  0.00     0.100 A 
ATOM     27  O   UNL     1      10.767  66.111  94.888  1.00  0.00    -0.289 OA
BRANCH  18  28
ATOM     28  O   UNL     1      14.771  69.186  93.584  1.00  0.00    -0.502 OA
ATOM     29  H   UNL     1      14.268  69.972  93.978  1.00  0.00     0.293 HD
ENDBRANCH  18  28
BRANCH  20  30
ATOM     30  O   UNL     1      12.264  68.280  93.944  1.00  0.00    -0.504 OA
ATOM     31  H   UNL     1      12.196  69.243  94.230  1.00  0.00     0.293 HD
ENDBRANCH  20  30
BRANCH  25  32
ATOM     32  C   UNL     1      12.958  62.038  96.193  1.00  0.00     0.017 A 
ATOM     33  C   UNL     1      13.235  60.943  95.346  1.00  0.00     0.012 A 
ATOM     34  C   UNL     1      12.634  61.784  97.540  1.00  0.00     0.012 A 
ATOM     35  C   UNL     1      13.212  59.638  95.847  1.00  0.00     0.001 A 
ATOM     36  C   UNL     1      12.606  60.476  98.031  1.00  0.00     0.001 A 
ATOM     37  C   UNL     1      12.901  59.405  97.187  1.00  0.00     0.000 A 
ENDBRANCH  25  32
ENDBRANCH   1  17
TORSDOF 9
ENDMDL
MODEL 3
REMARK VINA RESULT:    -3.055      2.990      8.382
REMARK INTER + INTRA:          -4.850
REMARK INTER:                  -4.149
REMARK INTRA:                  -0.701
REMARK UNBOUND:                -0.634
REMARK SMILES O=C([O-])[C@@H]1O[C@@H](Oc2cc3oc(-c4ccccc4)cc(=O)c3c(O)c2O)[C@H](O)[C@@H](O)[C@H]1O
REMARK SMILES IDX 7 1 6 2 4 3 31 4 5 5 29 6 27 7 2 8 1 9 3 10 32 11 30 13
REMARK SMILES IDX 28 15 8 17 25 18 9 19 23 20 10 21 22 22 11 23 20 24 12 25
REMARK SMILES IDX 19 26 21 27 26 28 24 30 13 32 14 33 18 34 15 35 17 36 16 37
REMARK H PARENT 32 12 30 14 28 16 26 29 24 31
REMARK Flexibility Score: inf
ROOT
ATOM      1  O   UNL     1      14.839  66.249  96.237  1.00  0.00    -0.458 OA
ENDROOT
BRANCH   1   2
ATOM      2  C   UNL     1      13.830  67.075  95.655  1.00  0.00     0.339 C 
ATOM      3  C   UNL     1      12.697  69.127  95.923  1.00  0.00     0.199 C 
ATOM      4  C   UNL     1      11.302  68.468  95.724  1.00  0.00     0.180 C 
ATOM      5  O   UNL     1      13.643  68.220  96.475  1.00  0.00    -0.328 OA
ATOM      6  C   UNL     1      11.405  67.126  94.966  1.00  0.00     0.181 C 
ATOM      7  C   UNL     1      12.529  66.258  95.556  1.00  0.00     0.214 C 
BRANCH   3   8
ATOM      8  C   UNL     1      13.239  69.816  94.691  1.00  0.00     0.073 C 
ATOM      9  O   UNL     1      14.460  70.122  94.638  1.00  0.00    -0.547 OA
ATOM     10  O   UNL     1      12.416  70.124  93.614  1.00  0.00    -0.547 OA
ENDBRANCH   3   8
BRANCH   4  11
ATOM     11  O   UNL     1      10.650  68.297  96.961  1.00  0.00    -0.387 OA
ATOM     12  H   UNL     1      11.075  67.533  97.431  1.00  0.00     0.211 HD
ENDBRANCH   4  11
BRANCH   6  13
ATOM     13  O   UNL     1      10.188  66.427  95.036  1.00  0.00    -0.387 OA
ATOM     14  H   UNL     1      10.093  66.118  95.975  1.00  0.00     0.211 HD
ENDBRANCH   6  13
BRANCH   7  15
ATOM     15  O   UNL     1      12.725  65.098  94.786  1.00  0.00    -0.384 OA
ATOM     16  H   UNL     1      13.701  64.999  94.623  1.00  0.00     0.211 HD
ENDBRANCH   7  15
ENDBRANCH   1   2
BRANCH   1  17
ATOM     17  C   UNL     1      16.193  66.235  95.867  1.00  0.00     0.172 A 
ATOM     18  C   UNL     1      16.522  66.028  94.519  1.00  0.00     0.201 A 
ATOM     19  C   UNL     1      17.219  66.430  96.800  1.00  0.00     0.098 A 
ATOM     20  C   UNL     1      17.861  66.016  94.096  1.00  0.00     0.176 A 
ATOM     21  C   UNL     1      18.556  66.406  96.407  1.00  0.00     0.146 A 
ATOM     22  C   UNL     1      18.910  66.192  95.050  1.00  0.00     0.111 A 
ATOM     23  O   UNL     1      19.486  66.586  97.339  1.00  0.00    -0.456 OA
ATOM     24  C   UNL     1      20.296  66.165  94.755  1.00  0.00     0.197 A 
ATOM     25  C   UNL     1      20.790  66.575  97.088  1.00  0.00     0.138 A 
ATOM     26  C   UNL     1      21.229  66.369  95.773  1.00  0.00     0.100 A 
ATOM     27  O   UNL     1      20.730  65.949  93.595  1.00  0.00    -0.289 OA
BRANCH  18  28
ATOM     28  O   UNL     1      15.517  65.842  93.567  1.00  0.00    -0.502 OA
ATOM     29  H   UNL     1      14.741  65.207  93.715  1.00  0.00     0.293 HD
ENDBRANCH  18  28
BRANCH  20  30
ATOM     30  O   UNL     1      18.072  65.837  92.724  1.00  0.00    -0.504 OA
ATOM     31  H   UNL     1      18.553  65.065  92.293  1.00  0.00     0.293 HD
ENDBRANCH  20  30
BRANCH  25  32
ATOM     32  C   UNL     1      21.734  66.790  98.218  1.00  0.00     0.017 A 
ATOM     33  C   UNL     1      21.331  67.397  99.426  1.00  0.00     0.012 A 
ATOM     34  C   UNL     1      23.083  66.410  98.071  1.00  0.00     0.012 A 
ATOM     35  C   UNL     1      22.249  67.592 100.461  1.00  0.00     0.001 A 
ATOM     36  C   UNL     1      23.997  66.615  99.109  1.00  0.00     0.001 A 
ATOM     37  C   UNL     1      23.580  67.199 100.304  1.00  0.00     0.000 A 
ENDBRANCH  25  32
ENDBRANCH   1  17
TORSDOF 9
ENDMDL
MODEL 4
REMARK VINA RESULT:    -3.002      3.538      6.060
REMARK INTER + INTRA:          -4.777
REMARK INTER:                  -4.722
REMARK INTRA:                  -0.055
REMARK UNBOUND:                -0.634
REMARK SMILES O=C([O-])[C@@H]1O[C@@H](Oc2cc3oc(-c4ccccc4)cc(=O)c3c(O)c2O)[C@H](O)[C@@H](O)[C@H]1O
REMARK SMILES IDX 7 1 6 2 4 3 31 4 5 5 29 6 27 7 2 8 1 9 3 10 32 11 30 13
REMARK SMILES IDX 28 15 8 17 25 18 9 19 23 20 10 21 22 22 11 23 20 24 12 25
REMARK SMILES IDX 19 26 21 27 26 28 24 30 13 32 14 33 18 34 15 35 17 36 16 37
REMARK H PARENT 32 12 30 14 28 16 26 29 24 31
REMARK Flexibility Score: inf
ROOT
ATOM      1  O   UNL     1      17.293  65.902  94.892  1.00  0.00    -0.458 OA
ENDROOT
BRANCH   1   2
ATOM      2  C   UNL     1      18.598  66.477  94.954  1.00  0.00     0.339 C 
ATOM      3  C   UNL     1      20.713  66.450  93.911  1.00  0.00     0.199 C 
ATOM      4  C   UNL     1      21.463  66.304  95.266  1.00  0.00     0.180 C 
ATOM      5  O   UNL     1      19.412  65.878  93.956  1.00  0.00    -0.328 OA
ATOM      6  C   UNL     1      20.601  66.791  96.452  1.00  0.00     0.181 C 
ATOM      7  C   UNL     1      19.178  66.218  96.356  1.00  0.00     0.214 C 
BRANCH   3   8
ATOM      8  C   UNL     1      20.685  67.860  93.365  1.00  0.00     0.073 C 
ATOM      9  O   UNL     1      20.612  68.832  94.163  1.00  0.00    -0.547 OA
ATOM     10  O   UNL     1      20.735  68.108  91.998  1.00  0.00    -0.547 OA
ENDBRANCH   3   8
BRANCH   4  11
ATOM     11  O   UNL     1      21.883  64.974  95.464  1.00  0.00    -0.387 OA
ATOM     12  H   UNL     1      21.104  64.447  95.778  1.00  0.00     0.211 HD
ENDBRANCH   4  11
BRANCH   6  13
ATOM     13  O   UNL     1      21.181  66.404  97.672  1.00  0.00    -0.387 OA
ATOM     14  H   UNL     1      20.459  65.979  98.206  1.00  0.00     0.211 HD
ENDBRANCH   6  13
BRANCH   7  15
ATOM     15  O   UNL     1      18.347  66.767  97.350  1.00  0.00    -0.384 OA
ATOM     16  H   UNL     1      18.926  67.219  98.018  1.00  0.00     0.211 HD
ENDBRANCH   7  15
ENDBRANCH   1   2
BRANCH   1  17
ATOM     17  C   UNL     1      16.087  66.621  94.882  1.00  0.00     0.172 A 
ATOM     18  C   UNL     1      15.434  66.862  96.100  1.00  0.00     0.201 A 
ATOM     19  C   UNL     1      15.525  67.110  93.696  1.00  0.00     0.098 A 
ATOM     20  C   UNL     1      14.230  67.585  96.144  1.00  0.00     0.176 A 
ATOM     21  C   UNL     1      14.324  67.816  93.712  1.00  0.00     0.146 A 
ATOM     22  C   UNL     1      13.645  68.065  94.932  1.00  0.00     0.111 A 
ATOM     23  O   UNL     1      13.834  68.246  92.554  1.00  0.00    -0.456 OA
ATOM     24  C   UNL     1      12.420  68.774  94.842  1.00  0.00     0.197 A 
ATOM     25  C   UNL     1      12.695  68.920  92.443  1.00  0.00     0.138 A 
ATOM     26  C   UNL     1      11.958  69.209  93.599  1.00  0.00     0.100 A 
ATOM     27  O   UNL     1      11.713  69.022  95.852  1.00  0.00    -0.289 OA
BRANCH  18  28
ATOM     28  O   UNL     1      15.979  66.393  97.298  1.00  0.00    -0.502 OA
ATOM     29  H   UNL     1      16.353  67.016  98.003  1.00  0.00     0.293 HD
ENDBRANCH  18  28
BRANCH  20  30
ATOM     30  O   UNL     1      13.686  67.796  97.415  1.00  0.00    -0.504 OA
ATOM     31  H   UNL     1      13.284  67.092  98.013  1.00  0.00     0.293 HD
ENDBRANCH  20  30
BRANCH  25  32
ATOM     32  C   UNL     1      12.251  69.349  91.089  1.00  0.00     0.017 A 
ATOM     33  C   UNL     1      10.893  69.583  90.784  1.00  0.00     0.012 A 
ATOM     34  C   UNL     1      13.207  69.493  90.064  1.00  0.00     0.012 A 
ATOM     35  C   UNL     1      10.514  69.975  89.497  1.00  0.00     0.001 A 
ATOM     36  C   UNL     1      12.819  69.879  88.777  1.00  0.00     0.001 A 
ATOM     37  C   UNL     1      11.475  70.125  88.496  1.00  0.00     0.000 A 
ENDBRANCH  25  32
ENDBRANCH   1  17
TORSDOF 9
ENDMDL
MODEL 5
REMARK VINA RESULT:    -2.714      2.586      5.795
REMARK INTER + INTRA:          -4.379
REMARK INTER:                  -3.572
REMARK INTRA:                  -0.808
REMARK UNBOUND:                -0.634
REMARK SMILES O=C([O-])[C@@H]1O[C@@H](Oc2cc3oc(-c4ccccc4)cc(=O)c3c(O)c2O)[C@H](O)[C@@H](O)[C@H]1O
REMARK SMILES IDX 7 1 6 2 4 3 31 4 5 5 29 6 27 7 2 8 1 9 3 10 32 11 30 13
REMARK SMILES IDX 28 15 8 17 25 18 9 19 23 20 10 21 22 22 11 23 20 24 12 25
REMARK SMILES IDX 19 26 21 27 26 28 24 30 13 32 14 33 18 34 15 35 17 36 16 37
REMARK H PARENT 32 12 30 14 28 16 26 29 24 31
REMARK Flexibility Score: inf
ROOT
ATOM      1  O   UNL     1      17.443  67.228  96.635  1.00  0.00    -0.458 OA
ENDROOT
BRANCH   1   2
ATOM      2  C   UNL     1      18.821  67.100  96.282  1.00  0.00     0.339 C 
ATOM      3  C   UNL     1      20.271  66.139  94.689  1.00  0.00     0.199 C 
ATOM      4  C   UNL     1      21.207  65.552  95.784  1.00  0.00     0.180 C 
ATOM      5  O   UNL     1      18.928  66.260  95.142  1.00  0.00    -0.328 OA
ATOM      6  C   UNL     1      21.059  66.304  97.126  1.00  0.00     0.181 C 
ATOM      7  C   UNL     1      19.575  66.492  97.479  1.00  0.00     0.214 C 
BRANCH   3   8
ATOM      8  C   UNL     1      20.770  67.426  94.071  1.00  0.00     0.073 C 
ATOM      9  O   UNL     1      20.334  67.781  92.944  1.00  0.00    -0.547 OA
ATOM     10  O   UNL     1      21.704  68.225  94.720  1.00  0.00    -0.547 OA
ENDBRANCH   3   8
BRANCH   4  11
ATOM     11  O   UNL     1      20.974  64.173  95.954  1.00  0.00    -0.387 OA
ATOM     12  H   UNL     1      21.848  63.728  96.105  1.00  0.00     0.211 HD
ENDBRANCH   4  11
BRANCH   6  13
ATOM     13  O   UNL     1      21.700  65.597  98.158  1.00  0.00    -0.387 OA
ATOM     14  H   UNL     1      21.325  65.941  99.011  1.00  0.00     0.211 HD
ENDBRANCH   6  13
BRANCH   7  15
ATOM     15  O   UNL     1      19.428  67.297  98.623  1.00  0.00    -0.384 OA
ATOM     16  H   UNL     1      18.656  67.904  98.473  1.00  0.00     0.211 HD
ENDBRANCH   7  15
ENDBRANCH   1   2
BRANCH   1  17
ATOM     17  C   UNL     1      16.361  66.778  95.862  1.00  0.00     0.172 A 
ATOM     18  C   UNL     1      15.773  65.544  96.177  1.00  0.00     0.201 A 
ATOM     19  C   UNL     1      15.849  67.528  94.795  1.00  0.00     0.098 A 
ATOM     20  C   UNL     1      14.682  65.055  95.440  1.00  0.00     0.176 A 
ATOM     21  C   UNL     1      14.778  67.056  94.039  1.00  0.00     0.146 A 
ATOM     22  C   UNL     1      14.173  65.808  94.338  1.00  0.00     0.111 A 
ATOM     23  O   UNL     1      14.342  67.806  93.032  1.00  0.00    -0.456 OA
ATOM     24  C   UNL     1      13.103  65.407  93.499  1.00  0.00     0.197 A 
ATOM     25  C   UNL     1      13.337  67.458  92.238  1.00  0.00     0.138 A 
ATOM     26  C   UNL     1      12.682  66.239  92.461  1.00  0.00     0.100 A 
ATOM     27  O   UNL     1      12.513  64.306  93.645  1.00  0.00    -0.289 OA
BRANCH  18  28
ATOM     28  O   UNL     1      16.258  64.783  97.243  1.00  0.00    -0.502 OA
ATOM     29  H   UNL     1      17.011  64.114  97.133  1.00  0.00     0.293 HD
ENDBRANCH  18  28
BRANCH  20  30
ATOM     30  O   UNL     1      14.152  63.832  95.865  1.00  0.00    -0.504 OA
ATOM     31  H   UNL     1      14.559  62.923  95.713  1.00  0.00     0.293 HD
ENDBRANCH  20  30
BRANCH  25  32
ATOM     32  C   UNL     1      12.941  68.385  91.143  1.00  0.00     0.017 A 
ATOM     33  C   UNL     1      11.596  68.754  90.922  1.00  0.00     0.012 A 
ATOM     34  C   UNL     1      13.929  68.887  90.274  1.00  0.00     0.012 A 
ATOM     35  C   UNL     1      11.262  69.619  89.877  1.00  0.00     0.001 A 
ATOM     36  C   UNL     1      13.586  69.747  89.226  1.00  0.00     0.001 A 
ATOM     37  C   UNL     1      12.255  70.117  89.032  1.00  0.00     0.000 A 
ENDBRANCH  25  32
ENDBRANCH   1  17
TORSDOF 9
ENDMDL
MODEL 6
REMARK VINA RESULT:    -1.294      2.132      8.225
REMARK INTER + INTRA:          -2.420
REMARK INTER:                  -3.831
REMARK INTRA:                   1.411
REMARK UNBOUND:                -0.634
REMARK SMILES O=C([O-])[C@@H]1O[C@@H](Oc2cc3oc(-c4ccccc4)cc(=O)c3c(O)c2O)[C@H](O)[C@@H](O)[C@H]1O
REMARK SMILES IDX 7 1 6 2 4 3 31 4 5 5 29 6 27 7 2 8 1 9 3 10 32 11 30 13
REMARK SMILES IDX 28 15 8 17 25 18 9 19 23 20 10 21 22 22 11 23 20 24 12 25
REMARK SMILES IDX 19 26 21 27 26 28 24 30 13 32 14 33 18 34 15 35 17 36 16 37
REMARK H PARENT 32 12 30 14 28 16 26 29 24 31
REMARK Flexibility Score: inf
ROOT
ATOM      1  O   UNL     1      15.159  66.906  96.143  1.00  0.00    -0.458 OA
ENDROOT
BRANCH   1   2
ATOM      2  C   UNL     1      14.066  66.247  95.502  1.00  0.00     0.339 C 
ATOM      3  C   UNL     1      13.470  64.266  94.370  1.00  0.00     0.199 C 
ATOM      4  C   UNL     1      12.784  65.045  93.212  1.00  0.00     0.180 C 
ATOM      5  O   UNL     1      14.522  65.013  94.967  1.00  0.00    -0.328 OA
ATOM      6  C   UNL     1      12.377  66.472  93.643  1.00  0.00     0.181 C 
ATOM      7  C   UNL     1      13.534  67.162  94.383  1.00  0.00     0.214 C 
BRANCH   3   8
ATOM      8  C   UNL     1      12.511  63.724  95.407  1.00  0.00     0.073 C 
ATOM      9  O   UNL     1      11.319  64.128  95.419  1.00  0.00    -0.547 OA
ATOM     10  O   UNL     1      12.921  62.789  96.352  1.00  0.00    -0.547 OA
ENDBRANCH   3   8
BRANCH   4  11
ATOM     11  O   UNL     1      13.614  65.082  92.074  1.00  0.00    -0.387 OA
ATOM     12  H   UNL     1      13.523  64.218  91.596  1.00  0.00     0.211 HD
ENDBRANCH   4  11
BRANCH   6  13
ATOM     13  O   UNL     1      12.013  67.239  92.524  1.00  0.00    -0.387 OA
ATOM     14  H   UNL     1      12.683  67.044  91.818  1.00  0.00     0.211 HD
ENDBRANCH   6  13
BRANCH   7  15
ATOM     15  O   UNL     1      13.129  68.404  94.904  1.00  0.00    -0.384 OA
ATOM     16  H   UNL     1      13.221  69.082  94.184  1.00  0.00     0.211 HD
ENDBRANCH   7  15
ENDBRANCH   1   2
BRANCH   1  17
ATOM     17  C   UNL     1      16.515  66.725  95.828  1.00  0.00     0.172 A 
ATOM     18  C   UNL     1      16.868  66.443  94.500  1.00  0.00     0.201 A 
ATOM     19  C   UNL     1      17.521  66.825  96.797  1.00  0.00     0.098 A 
ATOM     20  C   UNL     1      18.212  66.263  94.133  1.00  0.00     0.176 A 
ATOM     21  C   UNL     1      18.859  66.635  96.460  1.00  0.00     0.146 A 
ATOM     22  C   UNL     1      19.237  66.343  95.124  1.00  0.00     0.111 A 
ATOM     23  O   UNL     1      19.769  66.731  97.425  1.00  0.00    -0.456 OA
ATOM     24  C   UNL     1      20.621  66.146  94.887  1.00  0.00     0.197 A 
ATOM     25  C   UNL     1      21.071  66.561  97.227  1.00  0.00     0.138 A 
ATOM     26  C   UNL     1      21.532  66.269  95.936  1.00  0.00     0.100 A 
ATOM     27  O   UNL     1      21.070  65.849  93.750  1.00  0.00    -0.289 OA
BRANCH  18  28
ATOM     28  O   UNL     1      15.884  66.348  93.513  1.00  0.00    -0.502 OA
ATOM     29  H   UNL     1      14.895  66.344  93.732  1.00  0.00     0.293 HD
ENDBRANCH  18  28
BRANCH  20  30
ATOM     30  O   UNL     1      18.451  66.022  92.775  1.00  0.00    -0.504 OA
ATOM     31  H   UNL     1      19.352  66.007  92.325  1.00  0.00     0.293 HD
ENDBRANCH  20  30
BRANCH  25  32
ATOM     32  C   UNL     1      21.990  66.697  98.389  1.00  0.00     0.017 A 
ATOM     33  C   UNL     1      23.311  66.200  98.361  1.00  0.00     0.012 A 
ATOM     34  C   UNL     1      21.524  67.306  99.570  1.00  0.00     0.012 A 
ATOM     35  C   UNL     1      24.142  66.336  99.477  1.00  0.00     0.001 A 
ATOM     36  C   UNL     1      22.359  67.433 100.684  1.00  0.00     0.001 A 
ATOM     37  C   UNL     1      23.668  66.954 100.635  1.00  0.00     0.000 A 
ENDBRANCH  25  32
ENDBRANCH   1  17
TORSDOF 9
ENDMDL
MODEL 7
REMARK VINA RESULT:    -1.258      3.529      5.362
REMARK INTER + INTRA:          -2.369
REMARK INTER:                  -3.608
REMARK INTRA:                   1.239
REMARK UNBOUND:                -0.634
REMARK SMILES O=C([O-])[C@@H]1O[C@@H](Oc2cc3oc(-c4ccccc4)cc(=O)c3c(O)c2O)[C@H](O)[C@@H](O)[C@H]1O
REMARK SMILES IDX 7 1 6 2 4 3 31 4 5 5 29 6 27 7 2 8 1 9 3 10 32 11 30 13
REMARK SMILES IDX 28 15 8 17 25 18 9 19 23 20 10 21 22 22 11 23 20 24 12 25
REMARK SMILES IDX 19 26 21 27 26 28 24 30 13 32 14 33 18 34 15 35 17 36 16 37
REMARK H PARENT 32 12 30 14 28 16 26 29 24 31
REMARK Flexibility Score: inf
ROOT
ATOM      1  O   UNL     1      18.534  66.590  97.438  1.00  0.00    -0.458 OA
ENDROOT
BRANCH   1   2
ATOM      2  C   UNL     1      19.918  66.913  97.302  1.00  0.00     0.339 C 
ATOM      3  C   UNL     1      21.873  66.340  96.113  1.00  0.00     0.199 C 
ATOM      4  C   UNL     1      22.728  66.254  97.409  1.00  0.00     0.180 C 
ATOM      5  O   UNL     1      20.505  66.035  96.352  1.00  0.00    -0.328 OA
ATOM      6  C   UNL     1      22.095  67.060  98.566  1.00  0.00     0.181 C 
ATOM      7  C   UNL     1      20.592  66.756  98.677  1.00  0.00     0.214 C 
BRANCH   3   8
ATOM      8  C   UNL     1      22.030  67.637  95.350  1.00  0.00     0.073 C 
ATOM      9  O   UNL     1      22.835  68.509  95.771  1.00  0.00    -0.547 OA
ATOM     10  O   UNL     1      21.301  67.889  94.194  1.00  0.00    -0.547 OA
ENDBRANCH   3   8
BRANCH   4  11
ATOM     11  O   UNL     1      22.931  64.912  97.786  1.00  0.00    -0.387 OA
ATOM     12  H   UNL     1      22.081  64.565  98.162  1.00  0.00     0.211 HD
ENDBRANCH   4  11
BRANCH   6  13
ATOM     13  O   UNL     1      22.727  66.752  99.783  1.00  0.00    -0.387 OA
ATOM     14  H   UNL     1      22.042  66.317 100.355  1.00  0.00     0.211 HD
ENDBRANCH   6  13
BRANCH   7  15
ATOM     15  O   UNL     1      19.980  67.588  99.632  1.00  0.00    -0.384 OA
ATOM     16  H   UNL     1      19.021  67.677  99.390  1.00  0.00     0.211 HD
ENDBRANCH   7  15
ENDBRANCH   1   2
BRANCH   1  17
ATOM     17  C   UNL     1      17.629  66.428  96.377  1.00  0.00     0.172 A 
ATOM     18  C   UNL     1      17.964  65.556  95.331  1.00  0.00     0.201 A 
ATOM     19  C   UNL     1      16.403  67.104  96.340  1.00  0.00     0.098 A 
ATOM     20  C   UNL     1      17.088  65.352  94.252  1.00  0.00     0.176 A 
ATOM     21  C   UNL     1      15.524  66.930  95.272  1.00  0.00     0.146 A 
ATOM     22  C   UNL     1      15.847  66.058  94.201  1.00  0.00     0.111 A 
ATOM     23  O   UNL     1      14.380  67.606  95.285  1.00  0.00    -0.456 OA
ATOM     24  C   UNL     1      14.897  65.965  93.152  1.00  0.00     0.197 A 
ATOM     25  C   UNL     1      13.470  67.529  94.321  1.00  0.00     0.138 A 
ATOM     26  C   UNL     1      13.707  66.691  93.224  1.00  0.00     0.100 A 
ATOM     27  O   UNL     1      15.089  65.250  92.135  1.00  0.00    -0.289 OA
BRANCH  18  28
ATOM     28  O   UNL     1      19.177  64.863  95.351  1.00  0.00    -0.502 OA
ATOM     29  H   UNL     1      20.042  65.292  95.656  1.00  0.00     0.293 HD
ENDBRANCH  18  28
BRANCH  20  30
ATOM     30  O   UNL     1      17.508  64.434  93.283  1.00  0.00    -0.504 OA
ATOM     31  H   UNL     1      17.516  64.584  92.287  1.00  0.00     0.293 HD
ENDBRANCH  20  30
BRANCH  25  32
ATOM     32  C   UNL     1      12.226  68.336  94.452  1.00  0.00     0.017 A 
ATOM     33  C   UNL     1      11.274  68.086  95.464  1.00  0.00     0.012 A 
ATOM     34  C   UNL     1      11.965  69.358  93.519  1.00  0.00     0.012 A 
ATOM     35  C   UNL     1      10.112  68.858  95.548  1.00  0.00     0.001 A 
ATOM     36  C   UNL     1      10.798  70.122  93.606  1.00  0.00     0.001 A 
ATOM     37  C   UNL     1       9.875  69.876  94.623  1.00  0.00     0.000 A 
ENDBRANCH  25  32
ENDBRANCH   1  17
TORSDOF 9
ENDMDL
MODEL 8
REMARK VINA RESULT:    -0.981      3.028      8.366
REMARK INTER + INTRA:          -1.988
REMARK INTER:                  -1.149
REMARK INTRA:                  -0.839
REMARK UNBOUND:                -0.634
REMARK SMILES O=C([O-])[C@@H]1O[C@@H](Oc2cc3oc(-c4ccccc4)cc(=O)c3c(O)c2O)[C@H](O)[C@@H](O)[C@H]1O
REMARK SMILES IDX 7 1 6 2 4 3 31 4 5 5 29 6 27 7 2 8 1 9 3 10 32 11 30 13
REMARK SMILES IDX 28 15 8 17 25 18 9 19 23 20 10 21 22 22 11 23 20 24 12 25
REMARK SMILES IDX 19 26 21 27 26 28 24 30 13 32 14 33 18 34 15 35 17 36 16 37
REMARK H PARENT 32 12 30 14 28 16 26 29 24 31
REMARK Flexibility Score: inf
ROOT
ATOM      1  O   UNL     1      15.064  68.308  95.953  1.00  0.00    -0.458 OA
ENDROOT
BRANCH   1   2
ATOM      2  C   UNL     1      13.795  67.658  95.886  1.00  0.00     0.339 C 
ATOM      3  C   UNL     1      11.970  67.244  94.451  1.00  0.00     0.199 C 
ATOM      4  C   UNL     1      10.930  67.658  95.531  1.00  0.00     0.180 C 
ATOM      5  O   UNL     1      13.211  67.918  94.618  1.00  0.00    -0.328 OA
ATOM      6  C   UNL     1      11.515  67.556  96.958  1.00  0.00     0.181 C 
ATOM      7  C   UNL     1      12.907  68.206  97.018  1.00  0.00     0.214 C 
BRANCH   3   8
ATOM      8  C   UNL     1      12.160  65.750  94.311  1.00  0.00     0.073 C 
ATOM      9  O   UNL     1      11.588  64.975  95.122  1.00  0.00    -0.547 OA
ATOM     10  O   UNL     1      12.957  65.214  93.306  1.00  0.00    -0.547 OA
ENDBRANCH   3   8
BRANCH   4  11
ATOM     11  O   UNL     1      10.439  68.954  95.282  1.00  0.00    -0.387 OA
ATOM     12  H   UNL     1      11.177  69.599  95.438  1.00  0.00     0.211 HD
ENDBRANCH   4  11
BRANCH   6  13
ATOM     13  O   UNL     1      10.665  68.183  97.884  1.00  0.00    -0.387 OA
ATOM     14  H   UNL     1      11.097  68.091  98.772  1.00  0.00     0.211 HD
ENDBRANCH   6  13
BRANCH   7  15
ATOM     15  O   UNL     1      13.507  67.995  98.272  1.00  0.00    -0.384 OA
ATOM     16  H   UNL     1      13.326  68.792  98.836  1.00  0.00     0.211 HD
ENDBRANCH   7  15
ENDBRANCH   1   2
BRANCH   1  17
ATOM     17  C   UNL     1      16.305  67.696  95.716  1.00  0.00     0.172 A 
ATOM     18  C   UNL     1      16.505  67.022  94.502  1.00  0.00     0.201 A 
ATOM     19  C   UNL     1      17.348  67.747  96.650  1.00  0.00     0.098 A 
ATOM     20  C   UNL     1      17.732  66.402  94.214  1.00  0.00     0.176 A 
ATOM     21  C   UNL     1      18.568  67.126  96.393  1.00  0.00     0.146 A 
ATOM     22  C   UNL     1      18.788  66.434  95.175  1.00  0.00     0.111 A 
ATOM     23  O   UNL     1      19.517  67.199  97.322  1.00  0.00    -0.456 OA
ATOM     24  C   UNL     1      20.056  65.819  95.016  1.00  0.00     0.197 A 
ATOM     25  C   UNL     1      20.715  66.640  97.194  1.00  0.00     0.138 A 
ATOM     26  C   UNL     1      21.017  65.936  96.021  1.00  0.00     0.100 A 
ATOM     27  O   UNL     1      20.353  65.149  93.994  1.00  0.00    -0.289 OA
BRANCH  18  28
ATOM     28  O   UNL     1      15.485  66.966  93.550  1.00  0.00    -0.502 OA
ATOM     29  H   UNL     1      14.635  66.435  93.696  1.00  0.00     0.293 HD
ENDBRANCH  18  28
BRANCH  20  30
ATOM     30  O   UNL     1      17.832  65.790  92.959  1.00  0.00    -0.504 OA
ATOM     31  H   UNL     1      17.062  65.500  92.378  1.00  0.00     0.293 HD
ENDBRANCH  20  30
BRANCH  25  32
ATOM     32  C   UNL     1      21.693  66.793  98.305  1.00  0.00     0.017 A 
ATOM     33  C   UNL     1      21.340  67.382  99.539  1.00  0.00     0.012 A 
ATOM     34  C   UNL     1      23.023  66.371  98.116  1.00  0.00     0.012 A 
ATOM     35  C   UNL     1      22.289  67.518 100.555  1.00  0.00     0.001 A 
ATOM     36  C   UNL     1      23.969  66.517  99.135  1.00  0.00     0.001 A 
ATOM     37  C   UNL     1      23.601  67.084 100.355  1.00  0.00     0.000 A 
ENDBRANCH  25  32
ENDBRANCH   1  17
TORSDOF 9
ENDMDL
