MODEL 1
REMARK VINA RESULT:    -4.747      0.000      0.000
REMARK INTER + INTRA:          -5.511
REMARK INTER:                  -5.302
REMARK INTRA:                  -0.209
REMARK UNBOUND:                -0.209
REMARK SMILES CC(C)c1ccc(C(=O)[O-])cc1
REMARK SMILES IDX 7 1 6 2 11 3 5 4 12 5 4 6 8 7 9 8 10 9 2 10 1 11 3 12
REMARK H PARENT
REMARK Flexibility Score: inf
ROOT
ATOM      1  C   UNL     1      16.812  30.778  -6.197  1.00  0.00    -0.003 A 
ATOM      2  C   UNL     1      16.422  31.339  -4.968  1.00  0.00     0.010 A 
ATOM      3  C   UNL     1      16.392  29.476  -6.514  1.00  0.00     0.010 A 
ATOM      4  C   UNL     1      15.629  30.611  -4.076  1.00  0.00     0.004 A 
ATOM      5  C   UNL     1      15.598  28.749  -5.622  1.00  0.00     0.004 A 
ATOM      6  C   UNL     1      15.208  29.309  -4.392  1.00  0.00    -0.045 A 
ENDROOT
BRANCH   1   7
ATOM      7  C   UNL     1      17.651  31.545  -7.144  1.00  0.00     0.071 C 
ATOM      8  O   UNL     1      18.446  30.953  -7.921  1.00  0.00    -0.545 OA
ATOM      9  O   UNL     1      17.572  32.932  -7.190  1.00  0.00    -0.545 OA
ENDBRANCH   1   7
BRANCH   6  10
ATOM     10  C   UNL     1      14.348  28.531  -3.413  1.00  0.00     0.013 C 
ATOM     11  C   UNL     1      15.213  27.772  -2.400  1.00  0.00     0.012 C 
ATOM     12  C   UNL     1      13.346  29.451  -2.704  1.00  0.00     0.012 C 
ENDBRANCH   6  10
TORSDOF 2
ENDMDL
MODEL 2
REMARK VINA RESULT:    -4.707      0.410      1.723
REMARK INTER + INTRA:          -5.466
REMARK INTER:                  -5.262
REMARK INTRA:                  -0.204
REMARK UNBOUND:                -0.209
REMARK SMILES CC(C)c1ccc(C(=O)[O-])cc1
REMARK SMILES IDX 7 1 6 2 11 3 5 4 12 5 4 6 8 7 9 8 10 9 2 10 1 11 3 12
REMARK H PARENT
REMARK Flexibility Score: inf
ROOT
ATOM      1  C   UNL     1      17.006  30.908  -6.323  1.00  0.00    -0.003 A 
ATOM      2  C   UNL     1      16.586  29.646  -6.779  1.00  0.00     0.010 A 
ATOM      3  C   UNL     1      16.581  31.350  -5.060  1.00  0.00     0.010 A 
ATOM      4  C   UNL     1      15.758  28.845  -5.988  1.00  0.00     0.004 A 
ATOM      5  C   UNL     1      15.754  30.548  -4.268  1.00  0.00     0.004 A 
ATOM      6  C   UNL     1      15.332  29.286  -4.725  1.00  0.00    -0.045 A 
ENDROOT
BRANCH   1   7
ATOM      7  C   UNL     1      17.883  31.758  -7.158  1.00  0.00     0.071 C 
ATOM      8  O   UNL     1      17.712  33.005  -7.203  1.00  0.00    -0.545 OA
ATOM      9  O   UNL     1      18.910  31.191  -7.904  1.00  0.00    -0.545 OA
ENDBRANCH   1   7
BRANCH   6  10
ATOM     10  C   UNL     1      14.433  28.405  -3.876  1.00  0.00     0.013 C 
ATOM     11  C   UNL     1      15.179  27.881  -2.642  1.00  0.00     0.012 C 
ATOM     12  C   UNL     1      13.153  29.149  -3.472  1.00  0.00     0.012 C 
ENDBRANCH   6  10
TORSDOF 2
ENDMDL
MODEL 3
REMARK VINA RESULT:    -4.683      1.401      2.555
REMARK INTER + INTRA:          -5.440
REMARK INTER:                  -5.219
REMARK INTRA:                  -0.221
REMARK UNBOUND:                -0.209
REMARK SMILES CC(C)c1ccc(C(=O)[O-])cc1
REMARK SMILES IDX 7 1 6 2 11 3 5 4 12 5 4 6 8 7 9 8 10 9 2 10 1 11 3 12
REMARK H PARENT
REMARK Flexibility Score: inf
ROOT
ATOM      1  C   UNL     1      15.863  29.758  -5.705  1.00  0.00    -0.003 A 
ATOM      2  C   UNL     1      15.028  28.655  -5.458  1.00  0.00     0.010 A 
ATOM      3  C   UNL     1      15.716  30.913  -4.919  1.00  0.00     0.010 A 
ATOM      4  C   UNL     1      14.065  28.707  -4.446  1.00  0.00     0.004 A 
ATOM      5  C   UNL     1      14.754  30.965  -3.906  1.00  0.00     0.004 A 
ATOM      6  C   UNL     1      13.917  29.861  -3.659  1.00  0.00    -0.045 A 
ENDROOT
BRANCH   1   7
ATOM      7  C   UNL     1      16.883  29.707  -6.775  1.00  0.00     0.071 C 
ATOM      8  O   UNL     1      16.983  28.695  -7.518  1.00  0.00    -0.545 OA
ATOM      9  O   UNL     1      17.747  30.778  -6.977  1.00  0.00    -0.545 OA
ENDBRANCH   1   7
BRANCH   6  10
ATOM     10  C   UNL     1      12.867  29.904  -2.563  1.00  0.00     0.013 C 
ATOM     11  C   UNL     1      12.482  31.349  -2.224  1.00  0.00     0.012 C 
ATOM     12  C   UNL     1      11.632  29.079  -2.948  1.00  0.00     0.012 C 
ENDBRANCH   6  10
TORSDOF 2
ENDMDL
MODEL 4
REMARK VINA RESULT:    -4.649      3.831      5.478
REMARK INTER + INTRA:          -5.402
REMARK INTER:                  -5.188
REMARK INTRA:                  -0.214
REMARK UNBOUND:                -0.209
REMARK SMILES CC(C)c1ccc(C(=O)[O-])cc1
REMARK SMILES IDX 7 1 6 2 11 3 5 4 12 5 4 6 8 7 9 8 10 9 2 10 1 11 3 12
REMARK H PARENT
REMARK Flexibility Score: inf
ROOT
ATOM      1  C   UNL     1      13.332  28.957  -3.201  1.00  0.00    -0.003 A 
ATOM      2  C   UNL     1      13.151  30.158  -2.493  1.00  0.00     0.010 A 
ATOM      3  C   UNL     1      12.252  28.424  -3.923  1.00  0.00     0.010 A 
ATOM      4  C   UNL     1      11.914  30.811  -2.508  1.00  0.00     0.004 A 
ATOM      5  C   UNL     1      11.016  29.076  -3.938  1.00  0.00     0.004 A 
ATOM      6  C   UNL     1      10.834  30.278  -3.229  1.00  0.00    -0.045 A 
ENDROOT
BRANCH   1   7
ATOM      7  C   UNL     1      14.639  28.264  -3.188  1.00  0.00     0.071 C 
ATOM      8  O   UNL     1      15.269  28.064  -4.259  1.00  0.00    -0.545 OA
ATOM      9  O   UNL     1      15.191  27.824  -1.990  1.00  0.00    -0.545 OA
ENDBRANCH   1   7
BRANCH   6  10
ATOM     10  C   UNL     1       9.497  30.998  -3.237  1.00  0.00     0.013 C 
ATOM     11  C   UNL     1       8.340  30.015  -3.017  1.00  0.00     0.012 C 
ATOM     12  C   UNL     1       9.470  32.124  -2.196  1.00  0.00     0.012 C 
ENDBRANCH   6  10
TORSDOF 2
ENDMDL
MODEL 5
REMARK VINA RESULT:    -4.643      2.232      3.191
REMARK INTER + INTRA:          -5.395
REMARK INTER:                  -5.190
REMARK INTRA:                  -0.205
REMARK UNBOUND:                -0.209
REMARK SMILES CC(C)c1ccc(C(=O)[O-])cc1
REMARK SMILES IDX 7 1 6 2 11 3 5 4 12 5 4 6 8 7 9 8 10 9 2 10 1 11 3 12
REMARK H PARENT
REMARK Flexibility Score: inf
ROOT
ATOM      1  C   UNL     1      15.199  29.241  -5.757  1.00  0.00    -0.003 A 
ATOM      2  C   UNL     1      14.034  29.143  -6.537  1.00  0.00     0.010 A 
ATOM      3  C   UNL     1      15.111  29.022  -4.372  1.00  0.00     0.010 A 
ATOM      4  C   UNL     1      12.807  28.833  -5.944  1.00  0.00     0.004 A 
ATOM      5  C   UNL     1      13.884  28.711  -3.779  1.00  0.00     0.004 A 
ATOM      6  C   UNL     1      12.717  28.614  -4.560  1.00  0.00    -0.045 A 
ENDROOT
BRANCH   1   7
ATOM      7  C   UNL     1      16.500  29.568  -6.381  1.00  0.00     0.071 C 
ATOM      8  O   UNL     1      17.009  28.803  -7.241  1.00  0.00    -0.545 OA
ATOM      9  O   UNL     1      17.178  30.729  -6.027  1.00  0.00    -0.545 OA
ENDBRANCH   1   7
BRANCH   6  10
ATOM     10  C   UNL     1      11.378  28.278  -3.929  1.00  0.00     0.013 C 
ATOM     11  C   UNL     1      10.687  29.539  -3.396  1.00  0.00     0.012 C 
ATOM     12  C   UNL     1      10.474  27.529  -4.916  1.00  0.00     0.012 C 
ENDBRANCH   6  10
TORSDOF 2
ENDMDL
MODEL 6
REMARK VINA RESULT:    -4.603      4.966      6.222
REMARK INTER + INTRA:          -5.350
REMARK INTER:                  -5.129
REMARK INTRA:                  -0.221
REMARK UNBOUND:                -0.209
REMARK SMILES CC(C)c1ccc(C(=O)[O-])cc1
REMARK SMILES IDX 7 1 6 2 11 3 5 4 12 5 4 6 8 7 9 8 10 9 2 10 1 11 3 12
REMARK H PARENT
REMARK Flexibility Score: inf
ROOT
ATOM      1  C   UNL     1      10.477  28.668  -4.990  1.00  0.00    -0.003 A 
ATOM      2  C   UNL     1      11.053  28.774  -3.712  1.00  0.00     0.010 A 
ATOM      3  C   UNL     1      11.319  28.578  -6.110  1.00  0.00     0.010 A 
ATOM      4  C   UNL     1      12.442  28.790  -3.559  1.00  0.00     0.004 A 
ATOM      5  C   UNL     1      12.708  28.593  -5.957  1.00  0.00     0.004 A 
ATOM      6  C   UNL     1      13.286  28.699  -4.678  1.00  0.00    -0.045 A 
ENDROOT
BRANCH   1   7
ATOM      7  C   UNL     1       9.007  28.651  -5.156  1.00  0.00     0.071 C 
ATOM      8  O   UNL     1       8.491  28.668  -6.304  1.00  0.00    -0.545 OA
ATOM      9  O   UNL     1       8.173  28.615  -4.043  1.00  0.00    -0.545 OA
ENDBRANCH   1   7
BRANCH   6  10
ATOM     10  C   UNL     1      14.793  28.718  -4.497  1.00  0.00     0.013 C 
ATOM     11  C   UNL     1      15.208  27.936  -3.245  1.00  0.00     0.012 C 
ATOM     12  C   UNL     1      15.505  28.181  -5.744  1.00  0.00     0.012 C 
ENDBRANCH   6  10
TORSDOF 2
ENDMDL
MODEL 7
REMARK VINA RESULT:    -4.571      3.437      5.055
REMARK INTER + INTRA:          -5.315
REMARK INTER:                  -5.106
REMARK INTRA:                  -0.209
REMARK UNBOUND:                -0.209
REMARK SMILES CC(C)c1ccc(C(=O)[O-])cc1
REMARK SMILES IDX 7 1 6 2 11 3 5 4 12 5 4 6 8 7 9 8 10 9 2 10 1 11 3 12
REMARK H PARENT
REMARK Flexibility Score: inf
ROOT
ATOM      1  C   UNL     1      14.578  29.421  -6.301  1.00  0.00    -0.003 A 
ATOM      2  C   UNL     1      14.626  30.824  -6.375  1.00  0.00     0.010 A 
ATOM      3  C   UNL     1      15.756  28.688  -6.516  1.00  0.00     0.010 A 
ATOM      4  C   UNL     1      15.828  31.479  -6.658  1.00  0.00     0.004 A 
ATOM      5  C   UNL     1      16.959  29.343  -6.799  1.00  0.00     0.004 A 
ATOM      6  C   UNL     1      17.007  30.747  -6.873  1.00  0.00    -0.045 A 
ENDROOT
BRANCH   1   7
ATOM      7  C   UNL     1      13.308  28.724  -6.002  1.00  0.00     0.071 C 
ATOM      8  O   UNL     1      12.878  28.654  -4.820  1.00  0.00    -0.545 OA
ATOM      9  O   UNL     1      12.569  28.137  -7.023  1.00  0.00    -0.545 OA
ENDBRANCH   1   7
BRANCH   6  10
ATOM     10  C   UNL     1      18.305  31.471  -7.180  1.00  0.00     0.013 C 
ATOM     11  C   UNL     1      18.087  32.987  -7.257  1.00  0.00     0.012 C 
ATOM     12  C   UNL     1      19.389  31.122  -6.153  1.00  0.00     0.012 C 
ENDBRANCH   6  10
TORSDOF 2
ENDMDL
MODEL 8
REMARK VINA RESULT:    -4.569      3.617      4.783
REMARK INTER + INTRA:          -5.313
REMARK INTER:                  -5.098
REMARK INTRA:                  -0.215
REMARK UNBOUND:                -0.209
REMARK SMILES CC(C)c1ccc(C(=O)[O-])cc1
REMARK SMILES IDX 7 1 6 2 11 3 5 4 12 5 4 6 8 7 9 8 10 9 2 10 1 11 3 12
REMARK H PARENT
REMARK Flexibility Score: inf
ROOT
ATOM      1  C   UNL     1      13.680  28.743  -5.315  1.00  0.00    -0.003 A 
ATOM      2  C   UNL     1      12.806  28.619  -6.410  1.00  0.00     0.010 A 
ATOM      3  C   UNL     1      13.144  28.757  -4.017  1.00  0.00     0.010 A 
ATOM      4  C   UNL     1      11.427  28.511  -6.209  1.00  0.00     0.004 A 
ATOM      5  C   UNL     1      11.765  28.648  -3.816  1.00  0.00     0.004 A 
ATOM      6  C   UNL     1      10.891  28.524  -4.911  1.00  0.00    -0.045 A 
ENDROOT
BRANCH   1   7
ATOM      7  C   UNL     1      15.139  28.858  -5.524  1.00  0.00     0.071 C 
ATOM      8  O   UNL     1      15.766  27.977  -6.171  1.00  0.00    -0.545 OA
ATOM      9  O   UNL     1      15.842  29.942  -5.009  1.00  0.00    -0.545 OA
ENDBRANCH   1   7
BRANCH   6  10
ATOM     10  C   UNL     1       9.391  28.406  -4.708  1.00  0.00     0.013 C 
ATOM     11  C   UNL     1       8.907  29.359  -3.608  1.00  0.00     0.012 C 
ATOM     12  C   UNL     1       8.635  28.647  -6.020  1.00  0.00     0.012 C 
ENDBRANCH   6  10
TORSDOF 2
ENDMDL
MODEL 9
REMARK VINA RESULT:    -4.518      3.031      5.089
REMARK INTER + INTRA:          -5.255
REMARK INTER:                  -5.051
REMARK INTRA:                  -0.204
REMARK UNBOUND:                -0.209
REMARK SMILES CC(C)c1ccc(C(=O)[O-])cc1
REMARK SMILES IDX 7 1 6 2 11 3 5 4 12 5 4 6 8 7 9 8 10 9 2 10 1 11 3 12
REMARK H PARENT
REMARK Flexibility Score: inf
ROOT
ATOM      1  C   UNL     1      15.215  29.221  -4.414  1.00  0.00    -0.003 A 
ATOM      2  C   UNL     1      15.580  30.545  -4.117  1.00  0.00     0.010 A 
ATOM      3  C   UNL     1      15.537  28.694  -5.676  1.00  0.00     0.010 A 
ATOM      4  C   UNL     1      16.253  31.326  -5.062  1.00  0.00     0.004 A 
ATOM      5  C   UNL     1      16.211  29.473  -6.620  1.00  0.00     0.004 A 
ATOM      6  C   UNL     1      16.576  30.800  -6.323  1.00  0.00    -0.045 A 
ENDROOT
BRANCH   1   7
ATOM      7  C   UNL     1      14.503  28.392  -3.417  1.00  0.00     0.071 C 
ATOM      8  O   UNL     1      13.244  28.364  -3.388  1.00  0.00    -0.545 OA
ATOM      9  O   UNL     1      15.215  27.632  -2.496  1.00  0.00    -0.545 OA
ENDBRANCH   1   7
BRANCH   6  10
ATOM     10  C   UNL     1      17.307  31.658  -7.340  1.00  0.00     0.013 C 
ATOM     11  C   UNL     1      17.118  33.150  -7.039  1.00  0.00     0.012 C 
ATOM     12  C   UNL     1      18.795  31.292  -7.404  1.00  0.00     0.012 C 
ENDBRANCH   6  10
TORSDOF 2
ENDMDL
