MODEL 1
REMARK VINA RESULT:    -2.403      0.000      0.000
REMARK INTER + INTRA:          -2.403
REMARK INTER:                  -2.403
REMARK INTRA:                   0.000
REMARK UNBOUND:                 0.000
REMARK SMILES CC(=O)[O-]
REMARK SMILES IDX 1 1 2 2 3 3 4 4
REMARK H PARENT
REMARK Flexibility Score: inf
ROOT
ATOM      1  C   UNL     1      47.827  40.477  59.217  1.00  0.00     0.063 C 
ATOM      2  C   UNL     1      49.029  41.357  59.150  1.00  0.00     0.038 C 
ATOM      3  O   UNL     1      48.905  42.573  58.848  1.00  0.00    -0.550 OA
ATOM      4  O   UNL     1      50.293  40.826  59.365  1.00  0.00    -0.550 OA
ENDROOT
TORSDOF 0
ENDMDL
MODEL 2
REMARK VINA RESULT:    -2.367      0.364      1.652
REMARK INTER + INTRA:          -2.367
REMARK INTER:                  -2.367
REMARK INTRA:                   0.000
REMARK UNBOUND:                 0.000
REMARK SMILES CC(=O)[O-]
REMARK SMILES IDX 1 1 2 2 3 3 4 4
REMARK H PARENT
REMARK Flexibility Score: inf
ROOT
ATOM      1  C   UNL     1      47.740  40.530  59.232  1.00  0.00     0.063 C 
ATOM      2  C   UNL     1      48.849  41.505  59.026  1.00  0.00     0.038 C 
ATOM      3  O   UNL     1      50.029  41.195  59.339  1.00  0.00    -0.550 OA
ATOM      4  O   UNL     1      48.576  42.776  58.541  1.00  0.00    -0.550 OA
ENDROOT
TORSDOF 0
ENDMDL
MODEL 3
REMARK VINA RESULT:    -2.248      1.251      1.941
REMARK INTER + INTRA:          -2.248
REMARK INTER:                  -2.248
REMARK INTRA:                   0.000
REMARK UNBOUND:                 0.000
REMARK SMILES CC(=O)[O-]
REMARK SMILES IDX 1 1 2 2 3 3 4 4
REMARK H PARENT
REMARK Flexibility Score: inf
ROOT
ATOM      1  C   UNL     1      47.705  40.810  59.131  1.00  0.00     0.063 C 
ATOM      2  C   UNL     1      49.050  40.215  59.376  1.00  0.00     0.038 C 
ATOM      3  O   UNL     1      49.152  39.016  59.748  1.00  0.00    -0.550 OA
ATOM      4  O   UNL     1      50.190  40.997  59.250  1.00  0.00    -0.550 OA
ENDROOT
TORSDOF 0
ENDMDL
MODEL 4
REMARK VINA RESULT:    -2.118      1.816      2.642
REMARK INTER + INTRA:          -2.118
REMARK INTER:                  -2.118
REMARK INTRA:                   0.000
REMARK UNBOUND:                 0.000
REMARK SMILES CC(=O)[O-]
REMARK SMILES IDX 1 1 2 2 3 3 4 4
REMARK H PARENT
REMARK Flexibility Score: inf
ROOT
ATOM      1  C   UNL     1      49.722  41.227  59.195  1.00  0.00     0.063 C 
ATOM      2  C   UNL     1      48.654  40.194  59.321  1.00  0.00     0.038 C 
ATOM      3  O   UNL     1      48.942  39.031  59.707  1.00  0.00    -0.550 OA
ATOM      4  O   UNL     1      47.348  40.496  58.960  1.00  0.00    -0.550 OA
ENDROOT
TORSDOF 0
ENDMDL
MODEL 5
REMARK VINA RESULT:    -2.094     11.676     11.822
REMARK INTER + INTRA:          -2.094
REMARK INTER:                  -2.094
REMARK INTRA:                   0.000
REMARK UNBOUND:                 0.000
REMARK SMILES CC(=O)[O-]
REMARK SMILES IDX 1 1 2 2 3 3 4 4
REMARK H PARENT
REMARK Flexibility Score: inf
ROOT
ATOM      1  C   UNL     1      52.106  41.995  47.699  1.00  0.00     0.063 C 
ATOM      2  C   UNL     1      52.252  40.538  47.976  1.00  0.00     0.038 C 
ATOM      3  O   UNL     1      51.784  40.046  49.037  1.00  0.00    -0.550 OA
ATOM      4  O   UNL     1      52.951  39.728  47.091  1.00  0.00    -0.550 OA
ENDROOT
TORSDOF 0
ENDMDL
MODEL 6
REMARK VINA RESULT:    -2.029     11.697     11.897
REMARK INTER + INTRA:          -2.029
REMARK INTER:                  -2.029
REMARK INTRA:                   0.000
REMARK UNBOUND:                 0.000
REMARK SMILES CC(=O)[O-]
REMARK SMILES IDX 1 1 2 2 3 3 4 4
REMARK H PARENT
REMARK Flexibility Score: inf
ROOT
ATOM      1  C   UNL     1      53.199  39.838  47.069  1.00  0.00     0.063 C 
ATOM      2  C   UNL     1      52.259  40.572  47.964  1.00  0.00     0.038 C 
ATOM      3  O   UNL     1      51.785  40.005  48.983  1.00  0.00    -0.550 OA
ATOM      4  O   UNL     1      51.860  41.863  47.645  1.00  0.00    -0.550 OA
ENDROOT
TORSDOF 0
ENDMDL
MODEL 7
REMARK VINA RESULT:    -2.024     12.168     12.307
REMARK INTER + INTRA:          -2.024
REMARK INTER:                  -2.024
REMARK INTRA:                   0.000
REMARK UNBOUND:                 0.000
REMARK SMILES CC(=O)[O-]
REMARK SMILES IDX 1 1 2 2 3 3 4 4
REMARK H PARENT
REMARK Flexibility Score: inf
ROOT
ATOM      1  C   UNL     1      51.891  40.469  48.166  1.00  0.00     0.063 C 
ATOM      2  C   UNL     1      53.198  39.958  47.664  1.00  0.00     0.038 C 
ATOM      3  O   UNL     1      53.315  39.593  46.464  1.00  0.00    -0.550 OA
ATOM      4  O   UNL     1      54.275  39.830  48.531  1.00  0.00    -0.550 OA
ENDROOT
TORSDOF 0
ENDMDL
MODEL 8
REMARK VINA RESULT:    -2.018     11.476     11.564
REMARK INTER + INTRA:          -2.018
REMARK INTER:                  -2.018
REMARK INTRA:                   0.000
REMARK UNBOUND:                 0.000
REMARK SMILES CC(=O)[O-]
REMARK SMILES IDX 1 1 2 2 3 3 4 4
REMARK H PARENT
REMARK Flexibility Score: inf
ROOT
ATOM      1  C   UNL     1      51.911  40.030  49.443  1.00  0.00     0.063 C 
ATOM      2  C   UNL     1      52.219  40.558  48.084  1.00  0.00     0.038 C 
ATOM      3  O   UNL     1      51.820  41.704  47.745  1.00  0.00    -0.550 OA
ATOM      4  O   UNL     1      52.899  39.767  47.167  1.00  0.00    -0.550 OA
ENDROOT
TORSDOF 0
ENDMDL
MODEL 9
REMARK VINA RESULT:    -1.988     11.379     11.586
REMARK INTER + INTRA:          -1.988
REMARK INTER:                  -1.988
REMARK INTRA:                   0.000
REMARK UNBOUND:                 0.000
REMARK SMILES CC(=O)[O-]
REMARK SMILES IDX 1 1 2 2 3 3 4 4
REMARK H PARENT
REMARK Flexibility Score: inf
ROOT
ATOM      1  C   UNL     1      52.095  40.405  48.119  1.00  0.00     0.063 C 
ATOM      2  C   UNL     1      52.204  41.892  48.150  1.00  0.00     0.038 C 
ATOM      3  O   UNL     1      52.620  42.474  49.186  1.00  0.00    -0.550 OA
ATOM      4  O   UNL     1      51.794  42.643  47.057  1.00  0.00    -0.550 OA
ENDROOT
TORSDOF 0
ENDMDL
