MODEL 1
REMARK VINA RESULT:    -4.838      0.000      0.000
REMARK INTER + INTRA:         -10.177
REMARK INTER:                  -8.798
REMARK INTRA:                  -1.379
REMARK UNBOUND:                -1.379
REMARK SMILES CCCCCCCCCCCCCC[C@H](C)C(=O)[O-]
REMARK SMILES IDX 9 1 10 2 11 3 12 4 13 5 14 6 15 7 16 8 17 9 18 10 19 11 8 12
REMARK SMILES IDX 7 13 6 14 5 15 4 16 3 17 2 18 1 19
REMARK H PARENT
REMARK Flexibility Score: inf
ROOT
ATOM      1  C   UNL     1      48.989  64.463  93.189  1.00  0.00     0.000 C 
ENDROOT
BRANCH   1   2
ATOM      2  C   UNL     1      48.610  62.988  92.976  1.00  0.00     0.000 C 
BRANCH   2   3
ATOM      3  C   UNL     1      49.706  62.021  93.454  1.00  0.00     0.000 C 
BRANCH   3   4
ATOM      4  C   UNL     1      49.238  61.121  94.610  1.00  0.00     0.000 C 
BRANCH   4   5
ATOM      5  C   UNL     1      49.897  59.733  94.587  1.00  0.00     0.001 C 
BRANCH   5   6
ATOM      6  C   UNL     1      50.950  59.647  93.467  1.00  0.00     0.009 C 
BRANCH   6   7
ATOM      7  C   UNL     1      51.395  58.209  93.120  1.00  0.00     0.032 C 
ATOM      8  C   UNL     1      50.209  57.257  92.907  1.00  0.00     0.014 C 
BRANCH   7   9
ATOM      9  C   UNL     1      52.366  57.665  94.136  1.00  0.00     0.044 C 
ATOM     10  O   UNL     1      53.600  57.868  93.993  1.00  0.00    -0.550 OA
ATOM     11  O   UNL     1      51.912  56.984  95.260  1.00  0.00    -0.550 OA
ENDBRANCH   7   9
ENDBRANCH   6   7
ENDBRANCH   5   6
ENDBRANCH   4   5
ENDBRANCH   3   4
ENDBRANCH   2   3
ENDBRANCH   1   2
BRANCH   1  12
ATOM     12  C   UNL     1      47.952  65.431  92.590  1.00  0.00     0.000 C 
BRANCH  12  13
ATOM     13  C   UNL     1      47.851  66.748  93.377  1.00  0.00    -0.000 C 
BRANCH  13  14
ATOM     14  C   UNL     1      48.836  66.810  94.558  1.00  0.00    -0.000 C 
BRANCH  14  15
ATOM     15  C   UNL     1      49.717  68.070  94.526  1.00  0.00    -0.000 C 
BRANCH  15  16
ATOM     16  C   UNL     1      51.204  67.746  94.301  1.00  0.00    -0.000 C 
BRANCH  16  17
ATOM     17  C   UNL     1      51.475  67.160  92.906  1.00  0.00    -0.000 C 
BRANCH  17  18
ATOM     18  C   UNL     1      51.091  68.124  91.772  1.00  0.00    -0.003 C 
ATOM     19  C   UNL     1      50.602  67.360  90.545  1.00  0.00     0.004 C 
ENDBRANCH  17  18
ENDBRANCH  16  17
ENDBRANCH  15  16
ENDBRANCH  14  15
ENDBRANCH  13  14
ENDBRANCH  12  13
ENDBRANCH   1  12
TORSDOF 14
ENDMDL
MODEL 2
REMARK VINA RESULT:    -4.805      1.311      2.256
REMARK INTER + INTRA:         -10.117
REMARK INTER:                  -8.972
REMARK INTRA:                  -1.145
REMARK UNBOUND:                -1.379
REMARK SMILES CCCCCCCCCCCCCC[C@H](C)C(=O)[O-]
REMARK SMILES IDX 9 1 10 2 11 3 12 4 13 5 14 6 15 7 16 8 17 9 18 10 19 11 8 12
REMARK SMILES IDX 7 13 6 14 5 15 4 16 3 17 2 18 1 19
REMARK H PARENT
REMARK Flexibility Score: inf
ROOT
ATOM      1  C   UNL     1      48.825  62.628  92.991  1.00  0.00     0.000 C 
ENDROOT
BRANCH   1   2
ATOM      2  C   UNL     1      49.533  61.876  94.130  1.00  0.00     0.000 C 
BRANCH   2   3
ATOM      3  C   UNL     1      50.051  60.495  93.694  1.00  0.00     0.000 C 
BRANCH   3   4
ATOM      4  C   UNL     1      49.806  59.408  94.755  1.00  0.00     0.000 C 
BRANCH   4   5
ATOM      5  C   UNL     1      50.132  57.996  94.246  1.00  0.00     0.001 C 
BRANCH   5   6
ATOM      6  C   UNL     1      50.333  57.999  92.719  1.00  0.00     0.009 C 
BRANCH   6   7
ATOM      7  C   UNL     1      51.653  57.349  92.249  1.00  0.00     0.032 C 
ATOM      8  C   UNL     1      51.916  55.991  92.918  1.00  0.00     0.014 C 
BRANCH   7   9
ATOM      9  C   UNL     1      52.824  58.283  92.412  1.00  0.00     0.044 C 
ATOM     10  O   UNL     1      53.164  59.033  91.460  1.00  0.00    -0.550 OA
ATOM     11  O   UNL     1      53.505  58.365  93.622  1.00  0.00    -0.550 OA
ENDBRANCH   7   9
ENDBRANCH   6   7
ENDBRANCH   5   6
ENDBRANCH   4   5
ENDBRANCH   3   4
ENDBRANCH   2   3
ENDBRANCH   1   2
BRANCH   1  12
ATOM     12  C   UNL     1      48.978  64.155  93.108  1.00  0.00     0.000 C 
BRANCH  12  13
ATOM     13  C   UNL     1      47.899  64.919  92.323  1.00  0.00    -0.000 C 
BRANCH  13  14
ATOM     14  C   UNL     1      47.551  66.276  92.962  1.00  0.00    -0.000 C 
BRANCH  14  15
ATOM     15  C   UNL     1      48.065  67.466  92.135  1.00  0.00    -0.000 C 
BRANCH  15  16
ATOM     16  C   UNL     1      48.699  67.029  90.802  1.00  0.00    -0.000 C 
BRANCH  16  17
ATOM     17  C   UNL     1      50.190  67.392  90.711  1.00  0.00    -0.000 C 
BRANCH  17  18
ATOM     18  C   UNL     1      50.734  67.998  92.013  1.00  0.00    -0.003 C 
ATOM     19  C   UNL     1      51.611  66.998  92.760  1.00  0.00     0.004 C 
ENDBRANCH  17  18
ENDBRANCH  16  17
ENDBRANCH  15  16
ENDBRANCH  14  15
ENDBRANCH  13  14
ENDBRANCH  12  13
ENDBRANCH   1  12
TORSDOF 14
ENDMDL
MODEL 3
REMARK VINA RESULT:    -4.756      1.517      2.565
REMARK INTER + INTRA:         -10.028
REMARK INTER:                  -8.911
REMARK INTRA:                  -1.118
REMARK UNBOUND:                -1.379
REMARK SMILES CCCCCCCCCCCCCC[C@H](C)C(=O)[O-]
REMARK SMILES IDX 9 1 10 2 11 3 12 4 13 5 14 6 15 7 16 8 17 9 18 10 19 11 8 12
REMARK SMILES IDX 7 13 6 14 5 15 4 16 3 17 2 18 1 19
REMARK H PARENT
REMARK Flexibility Score: inf
ROOT
ATOM      1  C   UNL     1      48.722  62.268  92.999  1.00  0.00     0.000 C 
ENDROOT
BRANCH   1   2
ATOM      2  C   UNL     1      49.922  61.431  93.470  1.00  0.00     0.000 C 
BRANCH   2   3
ATOM      3  C   UNL     1      49.765  60.934  94.918  1.00  0.00     0.000 C 
BRANCH   3   4
ATOM      4  C   UNL     1      49.470  59.426  94.997  1.00  0.00     0.000 C 
BRANCH   4   5
ATOM      5  C   UNL     1      50.390  58.592  94.093  1.00  0.00     0.001 C 
BRANCH   5   6
ATOM      6  C   UNL     1      51.285  57.664  94.935  1.00  0.00     0.009 C 
BRANCH   6   7
ATOM      7  C   UNL     1      52.597  57.239  94.236  1.00  0.00     0.032 C 
ATOM      8  C   UNL     1      53.151  58.327  93.305  1.00  0.00     0.014 C 
BRANCH   7   9
ATOM      9  C   UNL     1      52.446  55.921  93.521  1.00  0.00     0.044 C 
ATOM     10  O   UNL     1      52.924  54.874  94.031  1.00  0.00    -0.550 OA
ATOM     11  O   UNL     1      51.738  55.837  92.327  1.00  0.00    -0.550 OA
ENDBRANCH   7   9
ENDBRANCH   6   7
ENDBRANCH   5   6
ENDBRANCH   4   5
ENDBRANCH   3   4
ENDBRANCH   2   3
ENDBRANCH   1   2
BRANCH   1  12
ATOM     12  C   UNL     1      48.962  63.781  93.148  1.00  0.00     0.000 C 
BRANCH  12  13
ATOM     13  C   UNL     1      47.966  64.621  92.331  1.00  0.00    -0.000 C 
BRANCH  13  14
ATOM     14  C   UNL     1      47.695  65.998  92.962  1.00  0.00    -0.000 C 
BRANCH  14  15
ATOM     15  C   UNL     1      47.450  67.092  91.909  1.00  0.00    -0.000 C 
BRANCH  15  16
ATOM     16  C   UNL     1      48.304  66.895  90.643  1.00  0.00    -0.000 C 
BRANCH  16  17
ATOM     17  C   UNL     1      49.580  67.752  90.653  1.00  0.00    -0.000 C 
BRANCH  17  18
ATOM     18  C   UNL     1      50.819  66.967  91.109  1.00  0.00    -0.003 C 
ATOM     19  C   UNL     1      51.165  67.282  92.561  1.00  0.00     0.004 C 
ENDBRANCH  17  18
ENDBRANCH  16  17
ENDBRANCH  15  16
ENDBRANCH  14  15
ENDBRANCH  13  14
ENDBRANCH  12  13
ENDBRANCH   1  12
TORSDOF 14
ENDMDL
MODEL 4
REMARK VINA RESULT:    -4.739      1.497      2.802
REMARK INTER + INTRA:          -9.996
REMARK INTER:                  -8.755
REMARK INTRA:                  -1.241
REMARK UNBOUND:                -1.379
REMARK SMILES CCCCCCCCCCCCCC[C@H](C)C(=O)[O-]
REMARK SMILES IDX 9 1 10 2 11 3 12 4 13 5 14 6 15 7 16 8 17 9 18 10 19 11 8 12
REMARK SMILES IDX 7 13 6 14 5 15 4 16 3 17 2 18 1 19
REMARK H PARENT
REMARK Flexibility Score: inf
ROOT
ATOM      1  C   UNL     1      48.812  61.371  92.704  1.00  0.00     0.000 C 
ENDROOT
BRANCH   1   2
ATOM      2  C   UNL     1      49.973  61.580  93.689  1.00  0.00     0.000 C 
BRANCH   2   3
ATOM      3  C   UNL     1      49.766  60.828  95.015  1.00  0.00     0.000 C 
BRANCH   3   4
ATOM      4  C   UNL     1      49.133  59.441  94.817  1.00  0.00     0.000 C 
BRANCH   4   5
ATOM      5  C   UNL     1      50.178  58.336  94.594  1.00  0.00     0.001 C 
BRANCH   5   6
ATOM      6  C   UNL     1      50.199  57.895  93.119  1.00  0.00     0.009 C 
BRANCH   6   7
ATOM      7  C   UNL     1      51.598  57.506  92.591  1.00  0.00     0.032 C 
ATOM      8  C   UNL     1      52.007  56.080  92.989  1.00  0.00     0.014 C 
BRANCH   7   9
ATOM      9  C   UNL     1      52.645  58.515  92.990  1.00  0.00     0.044 C 
ATOM     10  O   UNL     1      52.620  59.671  92.495  1.00  0.00    -0.550 OA
ATOM     11  O   UNL     1      53.610  58.199  93.940  1.00  0.00    -0.550 OA
ENDBRANCH   7   9
ENDBRANCH   6   7
ENDBRANCH   5   6
ENDBRANCH   4   5
ENDBRANCH   3   4
ENDBRANCH   2   3
ENDBRANCH   1   2
BRANCH   1  12
ATOM     12  C   UNL     1      47.863  62.582  92.645  1.00  0.00     0.000 C 
BRANCH  12  13
ATOM     13  C   UNL     1      48.615  63.923  92.663  1.00  0.00    -0.000 C 
BRANCH  13  14
ATOM     14  C   UNL     1      47.683  65.128  92.437  1.00  0.00    -0.000 C 
BRANCH  14  15
ATOM     15  C   UNL     1      48.418  66.335  91.830  1.00  0.00    -0.000 C 
BRANCH  15  16
ATOM     16  C   UNL     1      48.373  67.574  92.742  1.00  0.00    -0.000 C 
BRANCH  16  17
ATOM     17  C   UNL     1      47.657  67.299  94.074  1.00  0.00    -0.000 C 
BRANCH  17  18
ATOM     18  C   UNL     1      48.601  67.378  95.284  1.00  0.00    -0.003 C 
ATOM     19  C   UNL     1      50.020  67.732  94.850  1.00  0.00     0.004 C 
ENDBRANCH  17  18
ENDBRANCH  16  17
ENDBRANCH  15  16
ENDBRANCH  14  15
ENDBRANCH  13  14
ENDBRANCH  12  13
ENDBRANCH   1  12
TORSDOF 14
ENDMDL
MODEL 5
REMARK VINA RESULT:    -4.728      1.950      3.450
REMARK INTER + INTRA:          -9.977
REMARK INTER:                  -8.747
REMARK INTRA:                  -1.230
REMARK UNBOUND:                -1.379
REMARK SMILES CCCCCCCCCCCCCC[C@H](C)C(=O)[O-]
REMARK SMILES IDX 9 1 10 2 11 3 12 4 13 5 14 6 15 7 16 8 17 9 18 10 19 11 8 12
REMARK SMILES IDX 7 13 6 14 5 15 4 16 3 17 2 18 1 19
REMARK H PARENT
REMARK Flexibility Score: inf
ROOT
ATOM      1  C   UNL     1      49.057  62.920  93.711  1.00  0.00     0.000 C 
ENDROOT
BRANCH   1   2
ATOM      2  C   UNL     1      48.996  61.561  92.996  1.00  0.00     0.000 C 
BRANCH   2   3
ATOM      3  C   UNL     1      50.080  60.585  93.486  1.00  0.00     0.000 C 
BRANCH   3   4
ATOM      4  C   UNL     1      49.752  59.976  94.859  1.00  0.00     0.000 C 
BRANCH   4   5
ATOM      5  C   UNL     1      49.840  58.442  94.866  1.00  0.00     0.001 C 
BRANCH   5   6
ATOM      6  C   UNL     1      50.539  57.931  93.593  1.00  0.00     0.009 C 
BRANCH   6   7
ATOM      7  C   UNL     1      51.847  57.151  93.854  1.00  0.00     0.032 C 
ATOM      8  C   UNL     1      53.087  58.057  93.854  1.00  0.00     0.014 C 
BRANCH   7   9
ATOM      9  C   UNL     1      52.006  55.994  92.902  1.00  0.00     0.044 C 
ATOM     10  O   UNL     1      51.776  56.157  91.675  1.00  0.00    -0.550 OA
ATOM     11  O   UNL     1      52.454  54.758  93.354  1.00  0.00    -0.550 OA
ENDBRANCH   7   9
ENDBRANCH   6   7
ENDBRANCH   5   6
ENDBRANCH   4   5
ENDBRANCH   3   4
ENDBRANCH   2   3
ENDBRANCH   1   2
BRANCH   1  12
ATOM     12  C   UNL     1      48.623  64.085  92.803  1.00  0.00     0.000 C 
BRANCH  12  13
ATOM     13  C   UNL     1      48.994  65.458  93.386  1.00  0.00    -0.000 C 
BRANCH  13  14
ATOM     14  C   UNL     1      49.143  66.541  92.302  1.00  0.00    -0.000 C 
BRANCH  14  15
ATOM     15  C   UNL     1      48.222  66.298  91.095  1.00  0.00    -0.000 C 
BRANCH  15  16
ATOM     16  C   UNL     1      46.867  67.016  91.231  1.00  0.00    -0.000 C 
BRANCH  16  17
ATOM     17  C   UNL     1      45.675  66.074  91.003  1.00  0.00    -0.000 C 
BRANCH  17  18
ATOM     18  C   UNL     1      45.270  65.310  92.273  1.00  0.00    -0.003 C 
ATOM     19  C   UNL     1      45.204  66.244  93.477  1.00  0.00     0.004 C 
ENDBRANCH  17  18
ENDBRANCH  16  17
ENDBRANCH  15  16
ENDBRANCH  14  15
ENDBRANCH  13  14
ENDBRANCH  12  13
ENDBRANCH   1  12
TORSDOF 14
ENDMDL
MODEL 6
REMARK VINA RESULT:    -4.650      1.133      2.354
REMARK INTER + INTRA:          -9.835
REMARK INTER:                  -8.841
REMARK INTRA:                  -0.995
REMARK UNBOUND:                -1.379
REMARK SMILES CCCCCCCCCCCCCC[C@H](C)C(=O)[O-]
REMARK SMILES IDX 9 1 10 2 11 3 12 4 13 5 14 6 15 7 16 8 17 9 18 10 19 11 8 12
REMARK SMILES IDX 7 13 6 14 5 15 4 16 3 17 2 18 1 19
REMARK H PARENT
REMARK Flexibility Score: inf
ROOT
ATOM      1  C   UNL     1      47.812  65.535  92.155  1.00  0.00     0.000 C 
ENDROOT
BRANCH   1   2
ATOM      2  C   UNL     1      48.784  64.748  93.049  1.00  0.00     0.000 C 
BRANCH   2   3
ATOM      3  C   UNL     1      48.607  63.226  92.919  1.00  0.00     0.000 C 
BRANCH   3   4
ATOM      4  C   UNL     1      49.640  62.436  93.741  1.00  0.00     0.000 C 
BRANCH   4   5
ATOM      5  C   UNL     1      49.449  60.916  93.633  1.00  0.00     0.001 C 
BRANCH   5   6
ATOM      6  C   UNL     1      50.804  60.208  93.445  1.00  0.00     0.009 C 
BRANCH   6   7
ATOM      7  C   UNL     1      50.768  58.685  93.702  1.00  0.00     0.032 C 
ATOM      8  C   UNL     1      49.867  58.305  94.886  1.00  0.00     0.014 C 
BRANCH   7   9
ATOM      9  C   UNL     1      52.153  58.112  93.852  1.00  0.00     0.044 C 
ATOM     10  O   UNL     1      52.410  57.340  94.813  1.00  0.00    -0.550 OA
ATOM     11  O   UNL     1      53.141  58.384  92.912  1.00  0.00    -0.550 OA
ENDBRANCH   7   9
ENDBRANCH   6   7
ENDBRANCH   5   6
ENDBRANCH   4   5
ENDBRANCH   3   4
ENDBRANCH   2   3
ENDBRANCH   1   2
BRANCH   1  12
ATOM     12  C   UNL     1      47.742  67.027  92.530  1.00  0.00     0.000 C 
BRANCH  12  13
ATOM     13  C   UNL     1      48.290  67.941  91.422  1.00  0.00    -0.000 C 
BRANCH  13  14
ATOM     14  C   UNL     1      49.541  67.359  90.739  1.00  0.00    -0.000 C 
BRANCH  14  15
ATOM     15  C   UNL     1      50.843  67.996  91.251  1.00  0.00    -0.000 C 
BRANCH  15  16
ATOM     16  C   UNL     1      51.460  67.216  92.426  1.00  0.00    -0.000 C 
BRANCH  16  17
ATOM     17  C   UNL     1      51.337  67.967  93.762  1.00  0.00    -0.000 C 
BRANCH  17  18
ATOM     18  C   UNL     1      52.573  67.793  94.657  1.00  0.00    -0.003 C 
ATOM     19  C   UNL     1      53.802  67.424  93.832  1.00  0.00     0.004 C 
ENDBRANCH  17  18
ENDBRANCH  16  17
ENDBRANCH  15  16
ENDBRANCH  14  15
ENDBRANCH  13  14
ENDBRANCH  12  13
ENDBRANCH   1  12
TORSDOF 14
ENDMDL
MODEL 7
REMARK VINA RESULT:    -4.555      4.031      8.347
REMARK INTER + INTRA:          -9.662
REMARK INTER:                  -8.321
REMARK INTRA:                  -1.341
REMARK UNBOUND:                -1.379
REMARK SMILES CCCCCCCCCCCCCC[C@H](C)C(=O)[O-]
REMARK SMILES IDX 9 1 10 2 11 3 12 4 13 5 14 6 15 7 16 8 17 9 18 10 19 11 8 12
REMARK SMILES IDX 7 13 6 14 5 15 4 16 3 17 2 18 1 19
REMARK H PARENT
REMARK Flexibility Score: inf
ROOT
ATOM      1  C   UNL     1      49.354  60.534  94.856  1.00  0.00     0.000 C 
ENDROOT
BRANCH   1   2
ATOM      2  C   UNL     1      49.212  61.137  93.448  1.00  0.00     0.000 C 
BRANCH   2   3
ATOM      3  C   UNL     1      49.578  62.631  93.405  1.00  0.00     0.000 C 
BRANCH   3   4
ATOM      4  C   UNL     1      48.439  63.503  92.850  1.00  0.00     0.000 C 
BRANCH   4   5
ATOM      5  C   UNL     1      48.718  65.007  92.993  1.00  0.00     0.001 C 
BRANCH   5   6
ATOM      6  C   UNL     1      48.069  65.795  91.841  1.00  0.00     0.009 C 
BRANCH   6   7
ATOM      7  C   UNL     1      46.783  66.555  92.235  1.00  0.00     0.032 C 
ATOM      8  C   UNL     1      46.771  66.975  93.712  1.00  0.00     0.014 C 
BRANCH   7   9
ATOM      9  C   UNL     1      45.543  65.780  91.870  1.00  0.00     0.044 C 
ATOM     10  O   UNL     1      44.897  66.085  90.833  1.00  0.00    -0.550 OA
ATOM     11  O   UNL     1      45.131  64.695  92.636  1.00  0.00    -0.550 OA
ENDBRANCH   7   9
ENDBRANCH   6   7
ENDBRANCH   5   6
ENDBRANCH   4   5
ENDBRANCH   3   4
ENDBRANCH   2   3
ENDBRANCH   1   2
BRANCH   1  12
ATOM     12  C   UNL     1      49.874  59.085  94.827  1.00  0.00     0.000 C 
BRANCH  12  13
ATOM     13  C   UNL     1      50.086  58.562  93.396  1.00  0.00    -0.000 C 
BRANCH  13  14
ATOM     14  C   UNL     1      50.963  57.298  93.352  1.00  0.00    -0.000 C 
BRANCH  14  15
ATOM     15  C   UNL     1      52.249  57.443  94.184  1.00  0.00    -0.000 C 
BRANCH  15  16
ATOM     16  C   UNL     1      53.178  58.546  93.649  1.00  0.00    -0.000 C 
BRANCH  16  17
ATOM     17  C   UNL     1      53.384  58.457  92.128  1.00  0.00    -0.000 C 
BRANCH  17  18
ATOM     18  C   UNL     1      53.081  59.781  91.409  1.00  0.00    -0.003 C 
ATOM     19  C   UNL     1      52.732  60.881  92.407  1.00  0.00     0.004 C 
ENDBRANCH  17  18
ENDBRANCH  16  17
ENDBRANCH  15  16
ENDBRANCH  14  15
ENDBRANCH  13  14
ENDBRANCH  12  13
ENDBRANCH   1  12
TORSDOF 14
ENDMDL
MODEL 8
REMARK VINA RESULT:    -4.528      3.420      8.453
REMARK INTER + INTRA:          -9.613
REMARK INTER:                  -8.588
REMARK INTRA:                  -1.025
REMARK UNBOUND:                -1.379
REMARK SMILES CCCCCCCCCCCCCC[C@H](C)C(=O)[O-]
REMARK SMILES IDX 9 1 10 2 11 3 12 4 13 5 14 6 15 7 16 8 17 9 18 10 19 11 8 12
REMARK SMILES IDX 7 13 6 14 5 15 4 16 3 17 2 18 1 19
REMARK H PARENT
REMARK Flexibility Score: inf
ROOT
ATOM      1  C   UNL     1      49.781  62.039  94.036  1.00  0.00     0.000 C 
ENDROOT
BRANCH   1   2
ATOM      2  C   UNL     1      48.989  62.769  92.939  1.00  0.00     0.000 C 
BRANCH   2   3
ATOM      3  C   UNL     1      48.869  64.280  93.201  1.00  0.00     0.000 C 
BRANCH   3   4
ATOM      4  C   UNL     1      47.798  64.949  92.323  1.00  0.00     0.000 C 
BRANCH   4   5
ATOM      5  C   UNL     1      48.282  66.265  91.694  1.00  0.00     0.001 C 
BRANCH   5   6
ATOM      6  C   UNL     1      48.953  67.161  92.751  1.00  0.00     0.009 C 
BRANCH   6   7
ATOM      7  C   UNL     1      50.293  67.784  92.301  1.00  0.00     0.032 C 
ATOM      8  C   UNL     1      50.829  67.162  91.003  1.00  0.00     0.014 C 
BRANCH   7   9
ATOM      9  C   UNL     1      51.323  67.745  93.400  1.00  0.00     0.044 C 
ATOM     10  O   UNL     1      51.003  68.082  94.570  1.00  0.00    -0.550 OA
ATOM     11  O   UNL     1      52.614  67.292  93.150  1.00  0.00    -0.550 OA
ENDBRANCH   7   9
ENDBRANCH   6   7
ENDBRANCH   5   6
ENDBRANCH   4   5
ENDBRANCH   3   4
ENDBRANCH   2   3
ENDBRANCH   1   2
BRANCH   1  12
ATOM     12  C   UNL     1      49.988  60.547  93.721  1.00  0.00     0.000 C 
BRANCH  12  13
ATOM     13  C   UNL     1      49.556  59.633  94.880  1.00  0.00    -0.000 C 
BRANCH  13  14
ATOM     14  C   UNL     1      50.161  58.221  94.779  1.00  0.00    -0.000 C 
BRANCH  14  15
ATOM     15  C   UNL     1      50.019  57.619  93.371  1.00  0.00    -0.000 C 
BRANCH  15  16
ATOM     16  C   UNL     1      51.281  56.860  92.922  1.00  0.00    -0.000 C 
BRANCH  16  17
ATOM     17  C   UNL     1      52.024  57.574  91.781  1.00  0.00    -0.000 C 
BRANCH  17  18
ATOM     18  C   UNL     1      53.127  58.516  92.288  1.00  0.00    -0.003 C 
ATOM     19  C   UNL     1      53.602  58.106  93.679  1.00  0.00     0.004 C 
ENDBRANCH  17  18
ENDBRANCH  16  17
ENDBRANCH  15  16
ENDBRANCH  14  15
ENDBRANCH  13  14
ENDBRANCH  12  13
ENDBRANCH   1  12
TORSDOF 14
ENDMDL
