MODEL 1
REMARK VINA RESULT:    -3.519      0.000      0.000
REMARK INTER + INTRA:          -4.521
REMARK INTER:                  -4.445
REMARK INTRA:                  -0.076
REMARK UNBOUND:                -0.076
REMARK SMILES CSCC[C@H]([NH3+])C(=O)[O-]
REMARK SMILES IDX 4 1 5 2 6 3 7 7 8 8 9 9 3 10 2 11 1 12
REMARK H PARENT 6 4 6 5 6 6
REMARK Flexibility Score: inf
ROOT
ATOM      1  C   UNL     1     -15.592  12.279  -5.056  1.00  0.00     0.082 C 
ENDROOT
BRANCH   1   2
ATOM      2  C   UNL     1     -14.176  12.040  -4.477  1.00  0.00     0.228 C 
BRANCH   2   3
ATOM      3  N   UNL     1     -14.167  10.955  -3.485  1.00  0.00    -0.350 N 
ATOM      4  H   UNL     1     -13.678  11.266  -2.616  1.00  0.00     0.345 HD
ATOM      5  H   UNL     1     -15.148  10.707  -3.219  1.00  0.00     0.345 HD
ATOM      6  H   UNL     1     -13.692  10.105  -3.867  1.00  0.00     0.345 HD
ENDBRANCH   2   3
BRANCH   2   7
ATOM      7  C   UNL     1     -13.667  13.315  -3.857  1.00  0.00     0.099 C 
ATOM      8  O   UNL     1     -13.250  14.256  -4.584  1.00  0.00    -0.544 OA
ATOM      9  O   UNL     1     -13.634  13.451  -2.475  1.00  0.00    -0.544 OA
ENDBRANCH   2   7
ENDBRANCH   1   2
BRANCH   1  10
ATOM     10  C   UNL     1     -15.711  11.993  -6.560  1.00  0.00     0.076 C 
BRANCH  10  11
ATOM     11  S   UNL     1     -17.267  12.665  -7.243  1.00  0.00    -0.165 SA
ATOM     12  C   UNL     1     -18.075  12.847  -5.623  1.00  0.00     0.085 C 
ENDBRANCH  10  11
ENDBRANCH   1  10
TORSDOF 5
ENDMDL
MODEL 2
REMARK VINA RESULT:    -3.495     12.061     12.798
REMARK INTER + INTRA:          -4.491
REMARK INTER:                  -4.424
REMARK INTRA:                  -0.067
REMARK UNBOUND:                -0.076
REMARK SMILES CSCC[C@H]([NH3+])C(=O)[O-]
REMARK SMILES IDX 4 1 5 2 6 3 7 7 8 8 9 9 3 10 2 11 1 12
REMARK H PARENT 6 4 6 5 6 6
REMARK Flexibility Score: inf
ROOT
ATOM      1  C   UNL     1     -13.794   3.388   2.831  1.00  0.00     0.082 C 
ENDROOT
BRANCH   1   2
ATOM      2  C   UNL     1     -13.511   2.484   4.055  1.00  0.00     0.228 C 
BRANCH   2   3
ATOM      3  N   UNL     1     -14.381   1.299   4.073  1.00  0.00    -0.350 N 
ATOM      4  H   UNL     1     -14.699   1.071   3.105  1.00  0.00     0.345 HD
ATOM      5  H   UNL     1     -13.849   0.472   4.430  1.00  0.00     0.345 HD
ATOM      6  H   UNL     1     -15.214   1.457   4.685  1.00  0.00     0.345 HD
ENDBRANCH   2   3
BRANCH   2   7
ATOM      7  C   UNL     1     -13.694   3.283   5.319  1.00  0.00     0.099 C 
ATOM      8  O   UNL     1     -14.507   4.244   5.355  1.00  0.00    -0.544 OA
ATOM      9  O   UNL     1     -12.947   2.976   6.449  1.00  0.00    -0.544 OA
ENDBRANCH   2   7
ENDBRANCH   1   2
BRANCH   1  10
ATOM     10  C   UNL     1     -14.434   2.655   1.644  1.00  0.00     0.076 C 
BRANCH  10  11
ATOM     11  S   UNL     1     -14.444   3.698   0.144  1.00  0.00    -0.165 SA
ATOM     12  C   UNL     1     -12.665   4.075   0.214  1.00  0.00     0.085 C 
ENDBRANCH  10  11
ENDBRANCH   1  10
TORSDOF 5
ENDMDL
MODEL 3
REMARK VINA RESULT:    -3.433      2.145      2.449
REMARK INTER + INTRA:          -4.412
REMARK INTER:                  -4.207
REMARK INTRA:                  -0.206
REMARK UNBOUND:                -0.076
REMARK SMILES CSCC[C@H]([NH3+])C(=O)[O-]
REMARK SMILES IDX 4 1 5 2 6 3 7 7 8 8 9 9 3 10 2 11 1 12
REMARK H PARENT 6 4 6 5 6 6
REMARK Flexibility Score: inf
ROOT
ATOM      1  C   UNL     1     -14.799  14.257  -4.420  1.00  0.00     0.082 C 
ENDROOT
BRANCH   1   2
ATOM      2  C   UNL     1     -14.302  13.097  -3.523  1.00  0.00     0.228 C 
BRANCH   2   3
ATOM      3  N   UNL     1     -12.995  13.392  -2.920  1.00  0.00    -0.350 N 
ATOM      4  H   UNL     1     -12.393  12.539  -2.930  1.00  0.00     0.345 HD
ATOM      5  H   UNL     1     -12.503  14.127  -3.479  1.00  0.00     0.345 HD
ATOM      6  H   UNL     1     -13.105  13.729  -1.936  1.00  0.00     0.345 HD
ENDBRANCH   2   3
BRANCH   2   7
ATOM      7  C   UNL     1     -14.226  11.832  -4.337  1.00  0.00     0.099 C 
ATOM      8  O   UNL     1     -14.151  11.885  -5.593  1.00  0.00    -0.544 OA
ATOM      9  O   UNL     1     -14.263  10.596  -3.705  1.00  0.00    -0.544 OA
ENDBRANCH   2   7
ENDBRANCH   1   2
BRANCH   1  10
ATOM     10  C   UNL     1     -16.254  14.671  -4.164  1.00  0.00     0.076 C 
BRANCH  10  11
ATOM     11  S   UNL     1     -17.322  14.268  -5.590  1.00  0.00    -0.165 SA
ATOM     12  C   UNL     1     -17.873  12.670  -4.915  1.00  0.00     0.085 C 
ENDBRANCH  10  11
ENDBRANCH   1  10
TORSDOF 5
ENDMDL
MODEL 4
REMARK VINA RESULT:    -3.219      8.268      9.129
REMARK INTER + INTRA:          -4.143
REMARK INTER:                  -4.098
REMARK INTRA:                  -0.045
REMARK UNBOUND:                -0.076
REMARK SMILES CSCC[C@H]([NH3+])C(=O)[O-]
REMARK SMILES IDX 4 1 5 2 6 3 7 7 8 8 9 9 3 10 2 11 1 12
REMARK H PARENT 6 4 6 5 6 6
REMARK Flexibility Score: inf
ROOT
ATOM      1  C   UNL     1     -12.506   5.063  -2.730  1.00  0.00     0.082 C 
ENDROOT
BRANCH   1   2
ATOM      2  C   UNL     1     -12.875   5.821  -4.029  1.00  0.00     0.228 C 
BRANCH   2   3
ATOM      3  N   UNL     1     -13.387   7.169  -3.748  1.00  0.00    -0.350 N 
ATOM      4  H   UNL     1     -13.644   7.255  -2.739  1.00  0.00     0.345 HD
ATOM      5  H   UNL     1     -12.644   7.880  -3.941  1.00  0.00     0.345 HD
ATOM      6  H   UNL     1     -14.224   7.381  -4.339  1.00  0.00     0.345 HD
ENDBRANCH   2   3
BRANCH   2   7
ATOM      7  C   UNL     1     -13.897   5.026  -4.798  1.00  0.00     0.099 C 
ATOM      8  O   UNL     1     -14.195   5.344  -5.980  1.00  0.00    -0.544 OA
ATOM      9  O   UNL     1     -14.535   3.949  -4.197  1.00  0.00    -0.544 OA
ENDBRANCH   2   7
ENDBRANCH   1   2
BRANCH   1  10
ATOM     10  C   UNL     1     -11.171   5.495  -2.108  1.00  0.00     0.076 C 
BRANCH  10  11
ATOM     11  S   UNL     1     -10.976   4.824  -0.419  1.00  0.00    -0.165 SA
ATOM     12  C   UNL     1      -9.614   5.945   0.029  1.00  0.00     0.085 C 
ENDBRANCH  10  11
ENDBRANCH   1  10
TORSDOF 5
ENDMDL
MODEL 5
REMARK VINA RESULT:    -3.204      8.234      8.874
REMARK INTER + INTRA:          -4.123
REMARK INTER:                  -3.891
REMARK INTRA:                  -0.231
REMARK UNBOUND:                -0.076
REMARK SMILES CSCC[C@H]([NH3+])C(=O)[O-]
REMARK SMILES IDX 4 1 5 2 6 3 7 7 8 8 9 9 3 10 2 11 1 12
REMARK H PARENT 6 4 6 5 6 6
REMARK Flexibility Score: inf
ROOT
ATOM      1  C   UNL     1     -11.825   4.851  -3.612  1.00  0.00     0.082 C 
ENDROOT
BRANCH   1   2
ATOM      2  C   UNL     1     -12.707   5.834  -4.421  1.00  0.00     0.228 C 
BRANCH   2   3
ATOM      3  N   UNL     1     -13.288   6.878  -3.567  1.00  0.00    -0.350 N 
ATOM      4  H   UNL     1     -13.474   7.740  -4.127  1.00  0.00     0.345 HD
ATOM      5  H   UNL     1     -14.205   6.554  -3.180  1.00  0.00     0.345 HD
ATOM      6  H   UNL     1     -12.647   7.111  -2.773  1.00  0.00     0.345 HD
ENDBRANCH   2   3
BRANCH   2   7
ATOM      7  C   UNL     1     -13.798   5.067  -5.120  1.00  0.00     0.099 C 
ATOM      8  O   UNL     1     -14.232   5.449  -6.239  1.00  0.00    -0.544 OA
ATOM      9  O   UNL     1     -14.350   3.942  -4.520  1.00  0.00    -0.544 OA
ENDBRANCH   2   7
ENDBRANCH   1   2
BRANCH   1  10
ATOM     10  C   UNL     1     -11.755   5.162  -2.110  1.00  0.00     0.076 C 
BRANCH  10  11
ATOM     11  S   UNL     1     -12.342   3.750  -1.110  1.00  0.00    -0.165 SA
ATOM     12  C   UNL     1     -14.058   4.347  -1.003  1.00  0.00     0.085 C 
ENDBRANCH  10  11
ENDBRANCH   1  10
TORSDOF 5
ENDMDL
MODEL 6
REMARK VINA RESULT:    -3.177     12.429     12.905
REMARK INTER + INTRA:          -4.089
REMARK INTER:                  -3.941
REMARK INTRA:                  -0.148
REMARK UNBOUND:                -0.076
REMARK SMILES CSCC[C@H]([NH3+])C(=O)[O-]
REMARK SMILES IDX 4 1 5 2 6 3 7 7 8 8 9 9 3 10 2 11 1 12
REMARK H PARENT 6 4 6 5 6 6
REMARK Flexibility Score: inf
ROOT
ATOM      1  C   UNL     1     -12.263   3.181   2.717  1.00  0.00     0.082 C 
ENDROOT
BRANCH   1   2
ATOM      2  C   UNL     1     -13.686   3.054   3.315  1.00  0.00     0.228 C 
BRANCH   2   3
ATOM      3  N   UNL     1     -14.629   3.986   2.683  1.00  0.00    -0.350 N 
ATOM      4  H   UNL     1     -14.126   4.609   2.013  1.00  0.00     0.345 HD
ATOM      5  H   UNL     1     -15.344   3.453   2.135  1.00  0.00     0.345 HD
ATOM      6  H   UNL     1     -15.116   4.569   3.402  1.00  0.00     0.345 HD
ENDBRANCH   2   3
BRANCH   2   7
ATOM      7  C   UNL     1     -13.628   3.299   4.799  1.00  0.00     0.099 C 
ATOM      8  O   UNL     1     -12.809   2.668   5.520  1.00  0.00    -0.544 OA
ATOM      9  O   UNL     1     -14.496   4.210   5.387  1.00  0.00    -0.544 OA
ENDBRANCH   2   7
ENDBRANCH   1   2
BRANCH   1  10
ATOM     10  C   UNL     1     -12.138   2.665   1.277  1.00  0.00     0.076 C 
BRANCH  10  11
ATOM     11  S   UNL     1     -12.939   1.034   1.082  1.00  0.00    -0.165 SA
ATOM     12  C   UNL     1     -14.146   1.608  -0.152  1.00  0.00     0.085 C 
ENDBRANCH  10  11
ENDBRANCH   1  10
TORSDOF 5
ENDMDL
MODEL 7
REMARK VINA RESULT:    -3.160      3.736      4.717
REMARK INTER + INTRA:          -4.067
REMARK INTER:                  -3.939
REMARK INTRA:                  -0.128
REMARK UNBOUND:                -0.076
REMARK SMILES CSCC[C@H]([NH3+])C(=O)[O-]
REMARK SMILES IDX 4 1 5 2 6 3 7 7 8 8 9 9 3 10 2 11 1 12
REMARK H PARENT 6 4 6 5 6 6
REMARK Flexibility Score: inf
ROOT
ATOM      1  C   UNL     1     -16.666  12.600  -4.976  1.00  0.00     0.082 C 
ENDROOT
BRANCH   1   2
ATOM      2  C   UNL     1     -17.917  13.006  -5.794  1.00  0.00     0.228 C 
BRANCH   2   3
ATOM      3  N   UNL     1     -19.139  12.382  -5.269  1.00  0.00    -0.350 N 
ATOM      4  H   UNL     1     -19.633  11.863  -6.029  1.00  0.00     0.345 HD
ATOM      5  H   UNL     1     -18.895  11.688  -4.526  1.00  0.00     0.345 HD
ATOM      6  H   UNL     1     -19.782  13.102  -4.865  1.00  0.00     0.345 HD
ENDBRANCH   2   3
BRANCH   2   7
ATOM      7  C   UNL     1     -17.716  12.625  -7.237  1.00  0.00     0.099 C 
ATOM      8  O   UNL     1     -18.593  12.899  -8.099  1.00  0.00    -0.544 OA
ATOM      9  O   UNL     1     -16.568  11.944  -7.622  1.00  0.00    -0.544 OA
ENDBRANCH   2   7
ENDBRANCH   1   2
BRANCH   1  10
ATOM     10  C   UNL     1     -15.737  13.770  -4.627  1.00  0.00     0.076 C 
BRANCH  10  11
ATOM     11  S   UNL     1     -14.106  13.178  -4.054  1.00  0.00    -0.165 SA
ATOM     12  C   UNL     1     -14.398  11.448  -4.540  1.00  0.00     0.085 C 
ENDBRANCH  10  11
ENDBRANCH   1  10
TORSDOF 5
ENDMDL
MODEL 8
REMARK VINA RESULT:    -3.157      3.002      4.059
REMARK INTER + INTRA:          -4.063
REMARK INTER:                  -3.977
REMARK INTRA:                  -0.086
REMARK UNBOUND:                -0.076
REMARK SMILES CSCC[C@H]([NH3+])C(=O)[O-]
REMARK SMILES IDX 4 1 5 2 6 3 7 7 8 8 9 9 3 10 2 11 1 12
REMARK H PARENT 6 4 6 5 6 6
REMARK Flexibility Score: inf
ROOT
ATOM      1  C   UNL     1     -13.753  12.957  -3.687  1.00  0.00     0.082 C 
ENDROOT
BRANCH   1   2
ATOM      2  C   UNL     1     -14.712  11.802  -4.065  1.00  0.00     0.228 C 
BRANCH   2   3
ATOM      3  N   UNL     1     -14.171  10.492  -3.676  1.00  0.00    -0.350 N 
ATOM      4  H   UNL     1     -13.197  10.598  -3.314  1.00  0.00     0.345 HD
ATOM      5  H   UNL     1     -14.747  10.083  -2.905  1.00  0.00     0.345 HD
ATOM      6  H   UNL     1     -14.171   9.833  -4.488  1.00  0.00     0.345 HD
ENDBRANCH   2   3
BRANCH   2   7
ATOM      7  C   UNL     1     -14.977  11.836  -5.547  1.00  0.00     0.099 C 
ATOM      8  O   UNL     1     -14.069  11.532  -6.366  1.00  0.00    -0.544 OA
ATOM      9  O   UNL     1     -16.222  12.229  -6.021  1.00  0.00    -0.544 OA
ENDBRANCH   2   7
ENDBRANCH   1   2
BRANCH   1  10
ATOM     10  C   UNL     1     -14.455  14.298  -3.431  1.00  0.00     0.076 C 
BRANCH  10  11
ATOM     11  S   UNL     1     -13.336  15.707  -3.754  1.00  0.00    -0.165 SA
ATOM     12  C   UNL     1     -12.910  15.962  -2.004  1.00  0.00     0.085 C 
ENDBRANCH  10  11
ENDBRANCH   1  10
TORSDOF 5
ENDMDL
MODEL 9
REMARK VINA RESULT:    -3.117      9.731     10.334
REMARK INTER + INTRA:          -4.013
REMARK INTER:                  -3.940
REMARK INTRA:                  -0.073
REMARK UNBOUND:                -0.076
REMARK SMILES CSCC[C@H]([NH3+])C(=O)[O-]
REMARK SMILES IDX 4 1 5 2 6 3 7 7 8 8 9 9 3 10 2 11 1 12
REMARK H PARENT 6 4 6 5 6 6
REMARK Flexibility Score: inf
ROOT
ATOM      1  C   UNL     1     -14.144   3.305  -1.423  1.00  0.00     0.082 C 
ENDROOT
BRANCH   1   2
ATOM      2  C   UNL     1     -13.586   4.090  -2.635  1.00  0.00     0.228 C 
BRANCH   2   3
ATOM      3  N   UNL     1     -13.738   5.542  -2.464  1.00  0.00    -0.350 N 
ATOM      4  H   UNL     1     -12.907   6.040  -2.855  1.00  0.00     0.345 HD
ATOM      5  H   UNL     1     -14.578   5.877  -2.989  1.00  0.00     0.345 HD
ATOM      6  H   UNL     1     -13.847   5.789  -1.453  1.00  0.00     0.345 HD
ENDBRANCH   2   3
BRANCH   2   7
ATOM      7  C   UNL     1     -14.287   3.639  -3.889  1.00  0.00     0.099 C 
ATOM      8  O   UNL     1     -14.191   4.309  -4.952  1.00  0.00    -0.544 OA
ATOM      9  O   UNL     1     -15.065   2.489  -3.874  1.00  0.00    -0.544 OA
ENDBRANCH   2   7
ENDBRANCH   1   2
BRANCH   1  10
ATOM     10  C   UNL     1     -14.522   4.186  -0.225  1.00  0.00     0.076 C 
BRANCH  10  11
ATOM     11  S   UNL     1     -14.466   3.242   1.339  1.00  0.00    -0.165 SA
ATOM     12  C   UNL     1     -14.500   1.612   0.530  1.00  0.00     0.085 C 
ENDBRANCH  10  11
ENDBRANCH   1  10
TORSDOF 5
ENDMDL
