MODEL 1
REMARK VINA RESULT:    36.813      0.000      0.000
REMARK INTER + INTRA:          42.983
REMARK INTER:                  43.269
REMARK INTRA:                  -0.286
REMARK UNBOUND:                -0.286
REMARK SMILES O=c1cc(-c2ccc(O)c(O)c2)oc2cc(O)cc(O)c12
REMARK SMILES IDX 4 1 3 2 2 3 1 4 21 5 19 6 18 7 16 8 15 9 14 10 13 11 5 12
REMARK SMILES IDX 6 13 7 14 8 15 12 16 10 17 9 18 11 20 20 22 17 24
REMARK H PARENT 9 19 11 21 20 23 17 25
REMARK Flexibility Score: inf
ROOT
ATOM      1  C   UNL     1      12.163  12.626   4.556  1.00  0.00     0.138 A 
ATOM      2  C   UNL     1      11.912  11.370   3.988  1.00  0.00     0.100 A 
ATOM      3  C   UNL     1      11.384  11.286   2.699  1.00  0.00     0.197 A 
ATOM      4  O   UNL     1      11.222  10.144   2.197  1.00  0.00    -0.289 OA
ATOM      5  C   UNL     1      11.072  12.470   1.988  1.00  0.00     0.107 A 
ATOM      6  C   UNL     1      10.498  12.509   0.682  1.00  0.00     0.134 A 
ATOM      7  C   UNL     1      10.326  13.742   0.041  1.00  0.00     0.093 A 
ATOM      8  C   UNL     1      10.652  14.939   0.677  1.00  0.00     0.123 A 
ATOM      9  C   UNL     1      11.166  14.916   1.974  1.00  0.00     0.094 A 
ATOM     10  C   UNL     1      11.382  13.700   2.628  1.00  0.00     0.146 A 
ATOM     11  O   UNL     1      11.890  13.722   3.856  1.00  0.00    -0.456 OA
ENDROOT
BRANCH   1  12
ATOM     12  C   UNL     1      12.720  12.773   5.924  1.00  0.00     0.021 A 
ATOM     13  C   UNL     1      12.345  13.877   6.708  1.00  0.00     0.016 A 
ATOM     14  C   UNL     1      12.860  14.043   7.995  1.00  0.00     0.051 A 
ATOM     15  C   UNL     1      13.768  13.115   8.519  1.00  0.00     0.157 A 
ATOM     16  C   UNL     1      13.644  11.849   6.451  1.00  0.00     0.062 A 
ATOM     17  C   UNL     1      14.164  12.016   7.741  1.00  0.00     0.158 A 
BRANCH  15  18
ATOM     18  O   UNL     1      14.279  13.282   9.805  1.00  0.00    -0.504 OA
ATOM     19  H   UNL     1      13.678  13.499  10.591  1.00  0.00     0.293 HD
ENDBRANCH  15  18
BRANCH  17  20
ATOM     20  O   UNL     1      15.076  11.079   8.228  1.00  0.00    -0.504 OA
ATOM     21  H   UNL     1      14.931  10.081   8.120  1.00  0.00     0.293 HD
ENDBRANCH  17  20
ENDBRANCH   1  12
BRANCH   6  22
ATOM     22  O   UNL     1      10.062  11.379  -0.016  1.00  0.00    -0.507 OA
ATOM     23  H   UNL     1       9.327  10.759   0.285  1.00  0.00     0.293 HD
ENDBRANCH   6  22
BRANCH   8  24
ATOM     24  O   UNL     1      10.452  16.147   0.014  1.00  0.00    -0.508 OA
ATOM     25  H   UNL     1      10.950  16.372  -0.839  1.00  0.00     0.293 HD
ENDBRANCH   8  24
TORSDOF 5
ENDMDL
MODEL 2
REMARK VINA RESULT:    37.851      1.362      7.408
REMARK INTER + INTRA:          44.204
REMARK INTER:                  44.484
REMARK INTRA:                  -0.279
REMARK UNBOUND:                -0.286
REMARK SMILES O=c1cc(-c2ccc(O)c(O)c2)oc2cc(O)cc(O)c12
REMARK SMILES IDX 4 1 3 2 2 3 1 4 21 5 19 6 18 7 16 8 15 9 14 10 13 11 5 12
REMARK SMILES IDX 6 13 7 14 8 15 12 16 10 17 9 18 11 20 20 22 17 24
REMARK H PARENT 9 19 11 21 20 23 17 25
REMARK Flexibility Score: inf
ROOT
ATOM      1  C   UNL     1      11.965  13.052   4.820  1.00  0.00     0.138 A 
ATOM      2  C   UNL     1      11.372  13.910   5.756  1.00  0.00     0.100 A 
ATOM      3  C   UNL     1      11.896  13.995   7.046  1.00  0.00     0.197 A 
ATOM      4  O   UNL     1      11.375  14.816   7.845  1.00  0.00    -0.289 OA
ATOM      5  C   UNL     1      13.000  13.188   7.412  1.00  0.00     0.107 A 
ATOM      6  C   UNL     1      13.598  13.164   8.708  1.00  0.00     0.134 A 
ATOM      7  C   UNL     1      14.748  12.395   8.922  1.00  0.00     0.093 A 
ATOM      8  C   UNL     1      15.290  11.607   7.908  1.00  0.00     0.123 A 
ATOM      9  C   UNL     1      14.684  11.583   6.651  1.00  0.00     0.094 A 
ATOM     10  C   UNL     1      13.555  12.366   6.395  1.00  0.00     0.146 A 
ATOM     11  O   UNL     1      13.020  12.328   5.179  1.00  0.00    -0.456 OA
ENDROOT
BRANCH   1  12
ATOM     12  C   UNL     1      11.447  12.920   3.435  1.00  0.00     0.021 A 
ATOM     13  C   UNL     1      11.357  11.646   2.849  1.00  0.00     0.016 A 
ATOM     14  C   UNL     1      10.880  11.494   1.546  1.00  0.00     0.051 A 
ATOM     15  C   UNL     1      10.494  12.615   0.800  1.00  0.00     0.157 A 
ATOM     16  C   UNL     1      11.069  14.044   2.675  1.00  0.00     0.062 A 
ATOM     17  C   UNL     1      10.593  13.895   1.366  1.00  0.00     0.158 A 
BRANCH  15  18
ATOM     18  O   UNL     1      10.016  12.459  -0.501  1.00  0.00    -0.504 OA
ATOM     19  H   UNL     1       9.379  13.129  -0.916  1.00  0.00     0.293 HD
ENDBRANCH  15  18
BRANCH  17  20
ATOM     20  O   UNL     1      10.228  15.032   0.646  1.00  0.00    -0.504 OA
ATOM     21  H   UNL     1      10.824  15.850   0.593  1.00  0.00     0.293 HD
ENDBRANCH  17  20
ENDBRANCH   1  12
BRANCH   6  22
ATOM     22  O   UNL     1      13.093  13.851   9.817  1.00  0.00    -0.507 OA
ATOM     23  H   UNL     1      12.423  14.603   9.777  1.00  0.00     0.293 HD
ENDBRANCH   6  22
BRANCH   8  24
ATOM     24  O   UNL     1      16.427  10.844   8.163  1.00  0.00    -0.508 OA
ATOM     25  H   UNL     1      17.222  11.227   8.661  1.00  0.00     0.293 HD
ENDBRANCH   8  24
TORSDOF 5
ENDMDL
MODEL 3
REMARK VINA RESULT:    38.165      1.216      2.598
REMARK INTER + INTRA:          44.573
REMARK INTER:                  44.889
REMARK INTRA:                  -0.316
REMARK UNBOUND:                -0.286
REMARK SMILES O=c1cc(-c2ccc(O)c(O)c2)oc2cc(O)cc(O)c12
REMARK SMILES IDX 4 1 3 2 2 3 1 4 21 5 19 6 18 7 16 8 15 9 14 10 13 11 5 12
REMARK SMILES IDX 6 13 7 14 8 15 12 16 10 17 9 18 11 20 20 22 17 24
REMARK H PARENT 9 19 11 21 20 23 17 25
REMARK Flexibility Score: inf
ROOT
ATOM      1  C   UNL     1      12.012  13.157   4.773  1.00  0.00     0.138 A 
ATOM      2  C   UNL     1      11.283  14.277   4.349  1.00  0.00     0.100 A 
ATOM      3  C   UNL     1      10.709  14.287   3.077  1.00  0.00     0.197 A 
ATOM      4  O   UNL     1      10.014  15.283   2.749  1.00  0.00    -0.289 OA
ATOM      5  C   UNL     1      10.898  13.184   2.211  1.00  0.00     0.107 A 
ATOM      6  C   UNL     1      10.390  13.096   0.880  1.00  0.00     0.134 A 
ATOM      7  C   UNL     1      10.559  11.911   0.154  1.00  0.00     0.093 A 
ATOM      8  C   UNL     1      11.264  10.833   0.685  1.00  0.00     0.123 A 
ATOM      9  C   UNL     1      11.810  10.926   1.966  1.00  0.00     0.094 A 
ATOM     10  C   UNL     1      11.629  12.081   2.730  1.00  0.00     0.146 A 
ATOM     11  O   UNL     1      12.149  12.121   3.952  1.00  0.00    -0.456 OA
ENDROOT
BRANCH   1  12
ATOM     12  C   UNL     1      12.646  13.095   6.114  1.00  0.00     0.021 A 
ATOM     13  C   UNL     1      12.350  14.087   7.065  1.00  0.00     0.016 A 
ATOM     14  C   UNL     1      12.938  14.056   8.331  1.00  0.00     0.051 A 
ATOM     15  C   UNL     1      13.842  13.040   8.667  1.00  0.00     0.157 A 
ATOM     16  C   UNL     1      13.566  12.083   6.453  1.00  0.00     0.062 A 
ATOM     17  C   UNL     1      14.159  12.053   7.721  1.00  0.00     0.158 A 
BRANCH  15  18
ATOM     18  O   UNL     1      14.426  13.012   9.932  1.00  0.00    -0.504 OA
ATOM     19  H   UNL     1      15.269  12.481  10.117  1.00  0.00     0.293 HD
ENDBRANCH  15  18
BRANCH  17  20
ATOM     20  O   UNL     1      15.065  11.034   8.019  1.00  0.00    -0.504 OA
ATOM     21  H   UNL     1      14.941  10.421   8.817  1.00  0.00     0.293 HD
ENDBRANCH  17  20
ENDBRANCH   1  12
BRANCH   6  22
ATOM     22  O   UNL     1       9.738  14.143   0.220  1.00  0.00    -0.507 OA
ATOM     23  H   UNL     1       9.417  14.992   0.656  1.00  0.00     0.293 HD
ENDBRANCH   6  22
BRANCH   8  24
ATOM     24  O   UNL     1      11.425   9.675  -0.073  1.00  0.00    -0.508 OA
ATOM     25  H   UNL     1      11.869   9.696  -0.984  1.00  0.00     0.293 HD
ENDBRANCH   8  24
TORSDOF 5
ENDMDL
MODEL 4
REMARK VINA RESULT:    39.466      2.993      4.295
REMARK INTER + INTRA:          46.103
REMARK INTER:                  46.366
REMARK INTRA:                  -0.263
REMARK UNBOUND:                -0.286
REMARK SMILES O=c1cc(-c2ccc(O)c(O)c2)oc2cc(O)cc(O)c12
REMARK SMILES IDX 4 1 3 2 2 3 1 4 21 5 19 6 18 7 16 8 15 9 14 10 13 11 5 12
REMARK SMILES IDX 6 13 7 14 8 15 12 16 10 17 9 18 11 20 20 22 17 24
REMARK H PARENT 9 19 11 21 20 23 17 25
REMARK Flexibility Score: inf
ROOT
ATOM      1  C   UNL     1      10.287  13.129   4.555  1.00  0.00     0.138 A 
ATOM      2  C   UNL     1      10.106  14.170   3.633  1.00  0.00     0.100 A 
ATOM      3  C   UNL     1      10.585  14.029   2.329  1.00  0.00     0.197 A 
ATOM      4  O   UNL     1      10.358  14.958   1.511  1.00  0.00    -0.289 OA
ATOM      5  C   UNL     1      11.282  12.855   1.959  1.00  0.00     0.107 A 
ATOM      6  C   UNL     1      11.846  12.615   0.669  1.00  0.00     0.134 A 
ATOM      7  C   UNL     1      12.427  11.371   0.391  1.00  0.00     0.093 A 
ATOM      8  C   UNL     1      12.518  10.382   1.369  1.00  0.00     0.123 A 
ATOM      9  C   UNL     1      12.016  10.624   2.648  1.00  0.00     0.094 A 
ATOM     10  C   UNL     1      11.398  11.841   2.947  1.00  0.00     0.146 A 
ATOM     11  O   UNL     1      10.918  12.024   4.172  1.00  0.00    -0.456 OA
ENDROOT
BRANCH   1  12
ATOM     12  C   UNL     1       9.801  13.227   5.954  1.00  0.00     0.021 A 
ATOM     13  C   UNL     1      10.650  13.749   6.946  1.00  0.00     0.016 A 
ATOM     14  C   UNL     1      10.221  13.845   8.271  1.00  0.00     0.051 A 
ATOM     15  C   UNL     1       8.939  13.411   8.632  1.00  0.00     0.157 A 
ATOM     16  C   UNL     1       8.518  12.780   6.326  1.00  0.00     0.062 A 
ATOM     17  C   UNL     1       8.087  12.873   7.655  1.00  0.00     0.158 A 
BRANCH  15  18
ATOM     18  O   UNL     1       8.513  13.510   9.956  1.00  0.00    -0.504 OA
ATOM     19  H   UNL     1       7.544  13.690  10.190  1.00  0.00     0.293 HD
ENDBRANCH  15  18
BRANCH  17  20
ATOM     20  O   UNL     1       6.809  12.421   7.984  1.00  0.00    -0.504 OA
ATOM     21  H   UNL     1       6.161  12.984   8.523  1.00  0.00     0.293 HD
ENDBRANCH  17  20
ENDBRANCH   1  12
BRANCH   6  22
ATOM     22  O   UNL     1      11.882  13.562  -0.359  1.00  0.00    -0.507 OA
ATOM     23  H   UNL     1      11.599  13.395  -1.312  1.00  0.00     0.293 HD
ENDBRANCH   6  22
BRANCH   8  24
ATOM     24  O   UNL     1      13.118   9.163   1.060  1.00  0.00    -0.508 OA
ATOM     25  H   UNL     1      13.706   8.678   1.728  1.00  0.00     0.293 HD
ENDBRANCH   8  24
TORSDOF 5
ENDMDL
