MODEL 1
REMARK VINA RESULT:    -4.107      0.000      0.000
REMARK INTER + INTRA:          -8.308
REMARK INTER:                  -7.229
REMARK INTRA:                  -1.079
REMARK UNBOUND:                -1.079
REMARK SMILES CCCCCCC=CCCCCCCCC(=O)[O-]
REMARK SMILES IDX 10 1 11 2 12 3 13 4 14 5 15 6 16 7 17 8 18 9 9 10 8 11 7 12
REMARK SMILES IDX 6 13 5 14 4 15 3 16 2 17 1 18
REMARK H PARENT
REMARK Flexibility Score: inf
ROOT
ATOM      1  C   UNL     1      32.571 167.672 158.136  1.00  0.00     0.004 C 
ENDROOT
BRANCH   1   2
ATOM      2  C   UNL     1      33.006 167.433 156.685  1.00  0.00     0.000 C 
BRANCH   2   3
ATOM      3  C   UNL     1      34.243 168.270 156.336  1.00  0.00     0.000 C 
BRANCH   3   4
ATOM      4  C   UNL     1      33.970 169.179 155.131  1.00  0.00     0.000 C 
BRANCH   4   5
ATOM      5  C   UNL     1      32.617 168.845 154.486  1.00  0.00     0.006 C 
BRANCH   5   6
ATOM      6  C   UNL     1      31.714 170.080 154.358  1.00  0.00     0.053 C 
BRANCH   6   7
ATOM      7  C   UNL     1      30.287 169.760 154.682  1.00  0.00     0.041 C 
ATOM      8  O   UNL     1      29.982 168.638 155.164  1.00  0.00    -0.550 OA
ATOM      9  O   UNL     1      29.290 170.692 154.420  1.00  0.00    -0.550 OA
ENDBRANCH   6   7
ENDBRANCH   5   6
ENDBRANCH   4   5
ENDBRANCH   3   4
ENDBRANCH   2   3
ENDBRANCH   1   2
BRANCH   1  10
ATOM     10  C   UNL     1      31.696 168.926 158.249  1.00  0.00     0.027 C 
BRANCH  10  11
ATOM     11  C   UNL     1      30.844 168.886 159.487  1.00  0.00    -0.031 C 
ATOM     12  C   UNL     1      29.775 169.683 159.630  1.00  0.00    -0.031 C 
BRANCH  12  13
ATOM     13  C   UNL     1      28.915 169.637 160.865  1.00  0.00     0.027 C 
BRANCH  13  14
ATOM     14  C   UNL     1      29.041 170.911 161.713  1.00  0.00     0.004 C 
BRANCH  14  15
ATOM     15  C   UNL     1      28.805 172.184 160.885  1.00  0.00     0.000 C 
BRANCH  15  16
ATOM     16  C   UNL     1      28.433 173.367 161.792  1.00  0.00    -0.000 C 
BRANCH  16  17
ATOM     17  C   UNL     1      26.964 173.790 161.638  1.00  0.00    -0.003 C 
ATOM     18  C   UNL     1      26.379 173.409 160.278  1.00  0.00     0.004 C 
ENDBRANCH  16  17
ENDBRANCH  15  16
ENDBRANCH  14  15
ENDBRANCH  13  14
ENDBRANCH  12  13
ENDBRANCH  10  11
ENDBRANCH   1  10
TORSDOF 13
ENDMDL
MODEL 2
REMARK VINA RESULT:    -4.087      3.139      6.964
REMARK INTER + INTRA:          -8.272
REMARK INTER:                  -6.613
REMARK INTRA:                  -1.658
REMARK UNBOUND:                -1.079
REMARK SMILES CCCCCCC=CCCCCCCCC(=O)[O-]
REMARK SMILES IDX 10 1 11 2 12 3 13 4 14 5 15 6 16 7 17 8 18 9 9 10 8 11 7 12
REMARK SMILES IDX 6 13 5 14 4 15 3 16 2 17 1 18
REMARK H PARENT
REMARK Flexibility Score: inf
ROOT
ATOM      1  C   UNL     1      31.645 168.798 158.891  1.00  0.00     0.004 C 
ENDROOT
BRANCH   1   2
ATOM      2  C   UNL     1      30.675 168.389 160.006  1.00  0.00     0.000 C 
BRANCH   2   3
ATOM      3  C   UNL     1      29.377 169.202 159.932  1.00  0.00     0.000 C 
BRANCH   3   4
ATOM      4  C   UNL     1      29.668 170.707 159.952  1.00  0.00     0.000 C 
BRANCH   4   5
ATOM      5  C   UNL     1      29.069 171.366 161.204  1.00  0.00     0.006 C 
BRANCH   5   6
ATOM      6  C   UNL     1      28.612 172.807 160.938  1.00  0.00     0.053 C 
BRANCH   6   7
ATOM      7  C   UNL     1      27.994 173.426 162.154  1.00  0.00     0.041 C 
ATOM      8  O   UNL     1      28.571 173.345 163.270  1.00  0.00    -0.550 OA
ATOM      9  O   UNL     1      26.764 174.065 162.060  1.00  0.00    -0.550 OA
ENDBRANCH   6   7
ENDBRANCH   5   6
ENDBRANCH   4   5
ENDBRANCH   3   4
ENDBRANCH   2   3
ENDBRANCH   1   2
BRANCH   1  10
ATOM     10  C   UNL     1      32.424 167.585 158.367  1.00  0.00     0.027 C 
BRANCH  10  11
ATOM     11  C   UNL     1      32.865 167.794 156.945  1.00  0.00    -0.031 C 
ATOM     12  C   UNL     1      33.184 169.012 156.481  1.00  0.00    -0.031 C 
BRANCH  12  13
ATOM     13  C   UNL     1      33.636 169.222 155.060  1.00  0.00     0.027 C 
BRANCH  13  14
ATOM     14  C   UNL     1      32.474 169.140 154.059  1.00  0.00     0.004 C 
BRANCH  14  15
ATOM     15  C   UNL     1      31.420 170.231 154.304  1.00  0.00     0.000 C 
BRANCH  15  16
ATOM     16  C   UNL     1      30.010 169.625 154.376  1.00  0.00    -0.000 C 
BRANCH  16  17
ATOM     17  C   UNL     1      29.535 169.404 155.820  1.00  0.00    -0.003 C 
ATOM     18  C   UNL     1      29.263 167.932 156.134  1.00  0.00     0.004 C 
ENDBRANCH  16  17
ENDBRANCH  15  16
ENDBRANCH  14  15
ENDBRANCH  13  14
ENDBRANCH  12  13
ENDBRANCH  10  11
ENDBRANCH   1  10
TORSDOF 13
ENDMDL
MODEL 3
REMARK VINA RESULT:    -4.085      3.452      7.832
REMARK INTER + INTRA:          -8.269
REMARK INTER:                  -7.063
REMARK INTRA:                  -1.206
REMARK UNBOUND:                -1.079
REMARK SMILES CCCCCCC=CCCCCCCCC(=O)[O-]
REMARK SMILES IDX 10 1 11 2 12 3 13 4 14 5 15 6 16 7 17 8 18 9 9 10 8 11 7 12
REMARK SMILES IDX 6 13 5 14 4 15 3 16 2 17 1 18
REMARK H PARENT
REMARK Flexibility Score: inf
ROOT
ATOM      1  C   UNL     1      29.141 169.758 159.098  1.00  0.00     0.004 C 
ENDROOT
BRANCH   1   2
ATOM      2  C   UNL     1      28.541 170.543 160.271  1.00  0.00     0.000 C 
BRANCH   2   3
ATOM      3  C   UNL     1      29.554 171.544 160.839  1.00  0.00     0.000 C 
BRANCH   3   4
ATOM      4  C   UNL     1      28.945 172.948 160.937  1.00  0.00     0.000 C 
BRANCH   4   5
ATOM      5  C   UNL     1      27.412 172.880 160.993  1.00  0.00     0.006 C 
BRANCH   5   6
ATOM      6  C   UNL     1      26.843 173.595 162.226  1.00  0.00     0.053 C 
BRANCH   6   7
ATOM      7  C   UNL     1      27.142 172.847 163.488  1.00  0.00     0.041 C 
ATOM      8  O   UNL     1      27.012 171.596 163.531  1.00  0.00    -0.550 OA
ATOM      9  O   UNL     1      27.534 173.538 164.629  1.00  0.00    -0.550 OA
ENDBRANCH   6   7
ENDBRANCH   5   6
ENDBRANCH   4   5
ENDBRANCH   3   4
ENDBRANCH   2   3
ENDBRANCH   1   2
BRANCH   1  10
ATOM     10  C   UNL     1      30.532 169.220 159.452  1.00  0.00     0.027 C 
BRANCH  10  11
ATOM     11  C   UNL     1      31.238 168.692 158.233  1.00  0.00    -0.031 C 
ATOM     12  C   UNL     1      32.381 167.996 158.330  1.00  0.00    -0.031 C 
BRANCH  12  13
ATOM     13  C   UNL     1      33.083 167.457 157.112  1.00  0.00     0.027 C 
BRANCH  13  14
ATOM     14  C   UNL     1      34.314 168.292 156.729  1.00  0.00     0.004 C 
BRANCH  14  15
ATOM     15  C   UNL     1      34.129 169.016 155.386  1.00  0.00     0.000 C 
BRANCH  15  16
ATOM     16  C   UNL     1      32.828 168.574 154.700  1.00  0.00    -0.000 C 
BRANCH  16  17
ATOM     17  C   UNL     1      32.064 169.750 154.072  1.00  0.00    -0.003 C 
ATOM     18  C   UNL     1      30.657 169.916 154.647  1.00  0.00     0.004 C 
ENDBRANCH  16  17
ENDBRANCH  15  16
ENDBRANCH  14  15
ENDBRANCH  13  14
ENDBRANCH  12  13
ENDBRANCH  10  11
ENDBRANCH   1  10
TORSDOF 13
ENDMDL
MODEL 4
REMARK VINA RESULT:    -4.025      1.467      3.440
REMARK INTER + INTRA:          -8.162
REMARK INTER:                  -6.412
REMARK INTRA:                  -1.750
REMARK UNBOUND:                -1.079
REMARK SMILES CCCCCCC=CCCCCCCCC(=O)[O-]
REMARK SMILES IDX 10 1 11 2 12 3 13 4 14 5 15 6 16 7 17 8 18 9 9 10 8 11 7 12
REMARK SMILES IDX 6 13 5 14 4 15 3 16 2 17 1 18
REMARK H PARENT
REMARK Flexibility Score: inf
ROOT
ATOM      1  C   UNL     1      33.354 169.354 155.593  1.00  0.00     0.004 C 
ENDROOT
BRANCH   1   2
ATOM      2  C   UNL     1      32.990 169.307 154.104  1.00  0.00     0.000 C 
BRANCH   2   3
ATOM      3  C   UNL     1      31.469 169.287 153.909  1.00  0.00     0.000 C 
BRANCH   3   4
ATOM      4  C   UNL     1      30.891 167.905 154.237  1.00  0.00     0.000 C 
BRANCH   4   5
ATOM      5  C   UNL     1      29.956 167.974 155.453  1.00  0.00     0.006 C 
BRANCH   5   6
ATOM      6  C   UNL     1      29.400 169.386 155.679  1.00  0.00     0.053 C 
BRANCH   6   7
ATOM      7  C   UNL     1      28.095 169.589 154.972  1.00  0.00     0.041 C 
ATOM      8  O   UNL     1      27.254 168.655 154.912  1.00  0.00    -0.550 OA
ATOM      9  O   UNL     1      27.823 170.802 154.350  1.00  0.00    -0.550 OA
ENDBRANCH   6   7
ENDBRANCH   5   6
ENDBRANCH   4   5
ENDBRANCH   3   4
ENDBRANCH   2   3
ENDBRANCH   1   2
BRANCH   1  10
ATOM     10  C   UNL     1      34.246 168.167 155.978  1.00  0.00     0.027 C 
BRANCH  10  11
ATOM     11  C   UNL     1      33.721 167.466 157.200  1.00  0.00    -0.031 C 
ATOM     12  C   UNL     1      32.722 167.983 157.932  1.00  0.00    -0.031 C 
BRANCH  12  13
ATOM     13  C   UNL     1      32.189 167.277 159.150  1.00  0.00     0.027 C 
BRANCH  13  14
ATOM     14  C   UNL     1      31.088 168.082 159.856  1.00  0.00     0.004 C 
BRANCH  14  15
ATOM     15  C   UNL     1      30.705 169.349 159.077  1.00  0.00     0.000 C 
BRANCH  15  16
ATOM     16  C   UNL     1      29.362 169.910 159.566  1.00  0.00    -0.000 C 
BRANCH  16  17
ATOM     17  C   UNL     1      29.483 170.645 160.910  1.00  0.00    -0.003 C 
ATOM     18  C   UNL     1      28.982 172.088 160.842  1.00  0.00     0.004 C 
ENDBRANCH  16  17
ENDBRANCH  15  16
ENDBRANCH  14  15
ENDBRANCH  13  14
ENDBRANCH  12  13
ENDBRANCH  10  11
ENDBRANCH   1  10
TORSDOF 13
ENDMDL
MODEL 5
REMARK VINA RESULT:    -3.999      0.840      1.486
REMARK INTER + INTRA:          -8.117
REMARK INTER:                  -6.757
REMARK INTRA:                  -1.360
REMARK UNBOUND:                -1.079
REMARK SMILES CCCCCCC=CCCCCCCCC(=O)[O-]
REMARK SMILES IDX 10 1 11 2 12 3 13 4 14 5 15 6 16 7 17 8 18 9 9 10 8 11 7 12
REMARK SMILES IDX 6 13 5 14 4 15 3 16 2 17 1 18
REMARK H PARENT
REMARK Flexibility Score: inf
ROOT
ATOM      1  C   UNL     1      32.363 167.717 157.844  1.00  0.00     0.004 C 
ENDROOT
BRANCH   1   2
ATOM      2  C   UNL     1      33.477 167.744 156.790  1.00  0.00     0.000 C 
BRANCH   2   3
ATOM      3  C   UNL     1      33.711 169.169 156.273  1.00  0.00     0.000 C 
BRANCH   3   4
ATOM      4  C   UNL     1      33.882 169.180 154.749  1.00  0.00     0.000 C 
BRANCH   4   5
ATOM      5  C   UNL     1      32.525 169.050 154.042  1.00  0.00     0.006 C 
BRANCH   5   6
ATOM      6  C   UNL     1      31.572 170.200 154.398  1.00  0.00     0.053 C 
BRANCH   6   7
ATOM      7  C   UNL     1      30.200 169.700 154.731  1.00  0.00     0.041 C 
ATOM      8  O   UNL     1      29.231 170.501 154.790  1.00  0.00    -0.550 OA
ATOM      9  O   UNL     1      29.999 168.353 155.008  1.00  0.00    -0.550 OA
ENDBRANCH   6   7
ENDBRANCH   5   6
ENDBRANCH   4   5
ENDBRANCH   3   4
ENDBRANCH   2   3
ENDBRANCH   1   2
BRANCH   1  10
ATOM     10  C   UNL     1      31.734 169.105 158.014  1.00  0.00     0.027 C 
BRANCH  10  11
ATOM     11  C   UNL     1      30.766 169.127 159.165  1.00  0.00    -0.031 C 
ATOM     12  C   UNL     1      31.028 168.487 160.314  1.00  0.00    -0.031 C 
BRANCH  12  13
ATOM     13  C   UNL     1      30.064 168.516 161.471  1.00  0.00     0.027 C 
BRANCH  13  14
ATOM     14  C   UNL     1      28.980 169.590 161.301  1.00  0.00     0.004 C 
BRANCH  14  15
ATOM     15  C   UNL     1      29.361 170.912 161.985  1.00  0.00     0.000 C 
BRANCH  15  16
ATOM     16  C   UNL     1      29.326 172.077 160.986  1.00  0.00    -0.000 C 
BRANCH  16  17
ATOM     17  C   UNL     1      28.393 173.213 161.435  1.00  0.00    -0.003 C 
ATOM     18  C   UNL     1      28.081 173.165 162.931  1.00  0.00     0.004 C 
ENDBRANCH  16  17
ENDBRANCH  15  16
ENDBRANCH  14  15
ENDBRANCH  13  14
ENDBRANCH  12  13
ENDBRANCH  10  11
ENDBRANCH   1  10
TORSDOF 13
ENDMDL
MODEL 6
REMARK VINA RESULT:    -3.959      2.907      7.301
REMARK INTER + INTRA:          -8.046
REMARK INTER:                  -6.523
REMARK INTRA:                  -1.523
REMARK UNBOUND:                -1.079
REMARK SMILES CCCCCCC=CCCCCCCCC(=O)[O-]
REMARK SMILES IDX 10 1 11 2 12 3 13 4 14 5 15 6 16 7 17 8 18 9 9 10 8 11 7 12
REMARK SMILES IDX 6 13 5 14 4 15 3 16 2 17 1 18
REMARK H PARENT
REMARK Flexibility Score: inf
ROOT
ATOM      1  C   UNL     1      28.656 169.464 157.319  1.00  0.00     0.004 C 
ENDROOT
BRANCH   1   2
ATOM      2  C   UNL     1      28.427 169.415 158.835  1.00  0.00     0.000 C 
BRANCH   2   3
ATOM      3  C   UNL     1      29.732 169.670 159.598  1.00  0.00     0.000 C 
BRANCH   3   4
ATOM      4  C   UNL     1      29.668 170.993 160.371  1.00  0.00     0.000 C 
BRANCH   4   5
ATOM      5  C   UNL     1      28.213 171.448 160.562  1.00  0.00     0.006 C 
BRANCH   5   6
ATOM      6  C   UNL     1      28.116 172.923 160.975  1.00  0.00     0.053 C 
BRANCH   6   7
ATOM      7  C   UNL     1      26.717 173.442 160.851  1.00  0.00     0.041 C 
ATOM      8  O   UNL     1      26.020 173.156 159.843  1.00  0.00    -0.550 OA
ATOM      9  O   UNL     1      26.194 174.271 161.837  1.00  0.00    -0.550 OA
ENDBRANCH   6   7
ENDBRANCH   5   6
ENDBRANCH   4   5
ENDBRANCH   3   4
ENDBRANCH   2   3
ENDBRANCH   1   2
BRANCH   1  10
ATOM     10  C   UNL     1      29.183 168.122 156.799  1.00  0.00     0.027 C 
BRANCH  10  11
ATOM     11  C   UNL     1      30.098 168.315 155.621  1.00  0.00    -0.031 C 
ATOM     12  C   UNL     1      30.878 169.402 155.509  1.00  0.00    -0.031 C 
BRANCH  12  13
ATOM     13  C   UNL     1      31.802 169.592 154.336  1.00  0.00     0.027 C 
BRANCH  13  14
ATOM     14  C   UNL     1      33.166 168.920 154.551  1.00  0.00     0.004 C 
BRANCH  14  15
ATOM     15  C   UNL     1      33.699 169.134 155.976  1.00  0.00     0.000 C 
BRANCH  15  16
ATOM     16  C   UNL     1      34.353 167.853 156.515  1.00  0.00    -0.000 C 
BRANCH  16  17
ATOM     17  C   UNL     1      33.343 166.916 157.195  1.00  0.00    -0.003 C 
ATOM     18  C   UNL     1      32.581 167.594 158.335  1.00  0.00     0.004 C 
ENDBRANCH  16  17
ENDBRANCH  15  16
ENDBRANCH  14  15
ENDBRANCH  13  14
ENDBRANCH  12  13
ENDBRANCH  10  11
ENDBRANCH   1  10
TORSDOF 13
ENDMDL
MODEL 7
REMARK VINA RESULT:    -3.943      2.004      3.054
REMARK INTER + INTRA:          -8.019
REMARK INTER:                  -6.670
REMARK INTRA:                  -1.348
REMARK UNBOUND:                -1.079
REMARK SMILES CCCCCCC=CCCCCCCCC(=O)[O-]
REMARK SMILES IDX 10 1 11 2 12 3 13 4 14 5 15 6 16 7 17 8 18 9 9 10 8 11 7 12
REMARK SMILES IDX 6 13 5 14 4 15 3 16 2 17 1 18
REMARK H PARENT
REMARK Flexibility Score: inf
ROOT
ATOM      1  C   UNL     1      28.700 169.498 156.049  1.00  0.00     0.004 C 
ENDROOT
BRANCH   1   2
ATOM      2  C   UNL     1      29.516 170.020 154.860  1.00  0.00     0.000 C 
BRANCH   2   3
ATOM      3  C   UNL     1      30.628 169.036 154.480  1.00  0.00     0.000 C 
BRANCH   3   4
ATOM      4  C   UNL     1      31.894 169.780 154.038  1.00  0.00     0.000 C 
BRANCH   4   5
ATOM      5  C   UNL     1      33.144 169.182 154.702  1.00  0.00     0.006 C 
BRANCH   5   6
ATOM      6  C   UNL     1      33.110 169.318 156.230  1.00  0.00     0.053 C 
BRANCH   6   7
ATOM      7  C   UNL     1      33.560 168.060 156.908  1.00  0.00     0.041 C 
ATOM      8  O   UNL     1      34.584 167.451 156.501  1.00  0.00    -0.550 OA
ATOM      9  O   UNL     1      32.828 167.544 157.970  1.00  0.00    -0.550 OA
ENDBRANCH   6   7
ENDBRANCH   5   6
ENDBRANCH   4   5
ENDBRANCH   3   4
ENDBRANCH   2   3
ENDBRANCH   1   2
BRANCH   1  10
ATOM     10  C   UNL     1      29.572 168.650 156.983  1.00  0.00     0.027 C 
BRANCH  10  11
ATOM     11  C   UNL     1      29.540 169.181 158.389  1.00  0.00    -0.031 C 
ATOM     12  C   UNL     1      28.443 169.766 158.894  1.00  0.00    -0.031 C 
BRANCH  12  13
ATOM     13  C   UNL     1      28.407 170.289 160.305  1.00  0.00     0.027 C 
BRANCH  13  14
ATOM     14  C   UNL     1      29.579 171.234 160.608  1.00  0.00     0.004 C 
BRANCH  14  15
ATOM     15  C   UNL     1      29.106 172.662 160.922  1.00  0.00     0.000 C 
BRANCH  15  16
ATOM     16  C   UNL     1      27.819 172.641 161.761  1.00  0.00    -0.000 C 
BRANCH  16  17
ATOM     17  C   UNL     1      26.829 173.742 161.351  1.00  0.00    -0.003 C 
ATOM     18  C   UNL     1      26.045 173.391 160.086  1.00  0.00     0.004 C 
ENDBRANCH  16  17
ENDBRANCH  15  16
ENDBRANCH  14  15
ENDBRANCH  13  14
ENDBRANCH  12  13
ENDBRANCH  10  11
ENDBRANCH   1  10
TORSDOF 13
ENDMDL
MODEL 8
REMARK VINA RESULT:    -3.927      3.416      7.530
REMARK INTER + INTRA:          -7.990
REMARK INTER:                  -6.653
REMARK INTRA:                  -1.337
REMARK UNBOUND:                -1.079
REMARK SMILES CCCCCCC=CCCCCCCCC(=O)[O-]
REMARK SMILES IDX 10 1 11 2 12 3 13 4 14 5 15 6 16 7 17 8 18 9 9 10 8 11 7 12
REMARK SMILES IDX 6 13 5 14 4 15 3 16 2 17 1 18
REMARK H PARENT
REMARK Flexibility Score: inf
ROOT
ATOM      1  C   UNL     1      30.678 169.159 159.881  1.00  0.00     0.004 C 
ENDROOT
BRANCH   1   2
ATOM      2  C   UNL     1      29.150 169.048 159.940  1.00  0.00     0.000 C 
BRANCH   2   3
ATOM      3  C   UNL     1      28.573 169.962 161.028  1.00  0.00     0.000 C 
BRANCH   3   4
ATOM      4  C   UNL     1      28.209 171.337 160.455  1.00  0.00     0.000 C 
BRANCH   4   5
ATOM      5  C   UNL     1      29.087 172.438 161.068  1.00  0.00     0.006 C 
BRANCH   5   6
ATOM      6  C   UNL     1      28.292 173.367 161.995  1.00  0.00     0.053 C 
BRANCH   6   7
ATOM      7  C   UNL     1      28.477 173.003 163.436  1.00  0.00     0.041 C 
ATOM      8  O   UNL     1      27.660 173.409 164.303  1.00  0.00    -0.550 OA
ATOM      9  O   UNL     1      29.573 172.242 163.825  1.00  0.00    -0.550 OA
ENDBRANCH   6   7
ENDBRANCH   5   6
ENDBRANCH   4   5
ENDBRANCH   3   4
ENDBRANCH   2   3
ENDBRANCH   1   2
BRANCH   1  10
ATOM     10  C   UNL     1      31.314 167.810 159.524  1.00  0.00     0.027 C 
BRANCH  10  11
ATOM     11  C   UNL     1      32.342 167.963 158.437  1.00  0.00    -0.031 C 
ATOM     12  C   UNL     1      32.875 166.899 157.819  1.00  0.00    -0.031 C 
BRANCH  12  13
ATOM     13  C   UNL     1      33.896 167.051 156.724  1.00  0.00     0.027 C 
BRANCH  13  14
ATOM     14  C   UNL     1      34.277 168.519 156.480  1.00  0.00     0.004 C 
BRANCH  14  15
ATOM     15  C   UNL     1      33.790 169.025 155.113  1.00  0.00     0.000 C 
BRANCH  15  16
ATOM     16  C   UNL     1      32.457 169.776 155.250  1.00  0.00    -0.000 C 
BRANCH  16  17
ATOM     17  C   UNL     1      31.250 168.915 154.845  1.00  0.00    -0.003 C 
ATOM     18  C   UNL     1      30.071 169.061 155.808  1.00  0.00     0.004 C 
ENDBRANCH  16  17
ENDBRANCH  15  16
ENDBRANCH  14  15
ENDBRANCH  13  14
ENDBRANCH  12  13
ENDBRANCH  10  11
ENDBRANCH   1  10
TORSDOF 13
ENDMDL
MODEL 9
REMARK VINA RESULT:    -3.909      3.396      7.708
REMARK INTER + INTRA:          -7.958
REMARK INTER:                  -6.817
REMARK INTRA:                  -1.141
REMARK UNBOUND:                -1.079
REMARK SMILES CCCCCCC=CCCCCCCCC(=O)[O-]
REMARK SMILES IDX 10 1 11 2 12 3 13 4 14 5 15 6 16 7 17 8 18 9 9 10 8 11 7 12
REMARK SMILES IDX 6 13 5 14 4 15 3 16 2 17 1 18
REMARK H PARENT
REMARK Flexibility Score: inf
ROOT
ATOM      1  C   UNL     1      30.168 168.436 158.504  1.00  0.00     0.004 C 
ENDROOT
BRANCH   1   2
ATOM      2  C   UNL     1      30.528 169.687 159.314  1.00  0.00     0.000 C 
BRANCH   2   3
ATOM      3  C   UNL     1      29.316 170.202 160.100  1.00  0.00     0.000 C 
BRANCH   3   4
ATOM      4  C   UNL     1      29.574 171.609 160.651  1.00  0.00     0.000 C 
BRANCH   4   5
ATOM      5  C   UNL     1      28.260 172.388 160.810  1.00  0.00     0.006 C 
BRANCH   5   6
ATOM      6  C   UNL     1      28.289 173.335 162.016  1.00  0.00     0.053 C 
BRANCH   6   7
ATOM      7  C   UNL     1      28.418 172.586 163.307  1.00  0.00     0.041 C 
ATOM      8  O   UNL     1      27.520 171.782 163.667  1.00  0.00    -0.550 OA
ATOM      9  O   UNL     1      29.518 172.803 164.128  1.00  0.00    -0.550 OA
ENDBRANCH   6   7
ENDBRANCH   5   6
ENDBRANCH   4   5
ENDBRANCH   3   4
ENDBRANCH   2   3
ENDBRANCH   1   2
BRANCH   1  10
ATOM     10  C   UNL     1      28.922 168.678 157.643  1.00  0.00     0.027 C 
BRANCH  10  11
ATOM     11  C   UNL     1      29.255 169.483 156.418  1.00  0.00    -0.031 C 
ATOM     12  C   UNL     1      29.621 168.896 155.269  1.00  0.00    -0.031 C 
BRANCH  12  13
ATOM     13  C   UNL     1      29.944 169.701 154.039  1.00  0.00     0.027 C 
BRANCH  13  14
ATOM     14  C   UNL     1      31.386 170.231 154.049  1.00  0.00     0.004 C 
BRANCH  14  15
ATOM     15  C   UNL     1      32.420 169.100 153.946  1.00  0.00     0.000 C 
BRANCH  15  16
ATOM     16  C   UNL     1      33.642 169.393 154.829  1.00  0.00    -0.000 C 
BRANCH  16  17
ATOM     17  C   UNL     1      33.481 168.852 156.258  1.00  0.00    -0.003 C 
ATOM     18  C   UNL     1      34.418 167.681 156.556  1.00  0.00     0.004 C 
ENDBRANCH  16  17
ENDBRANCH  15  16
ENDBRANCH  14  15
ENDBRANCH  13  14
ENDBRANCH  12  13
ENDBRANCH  10  11
ENDBRANCH   1  10
TORSDOF 13
ENDMDL
