MODEL 1
REMARK VINA RESULT:    -4.837      0.000      0.000
REMARK INTER + INTRA:          -5.460
REMARK INTER:                  -5.262
REMARK INTRA:                  -0.199
REMARK UNBOUND:                -0.199
REMARK SMILES Cc1ccc(C(C)C)c(O)c1
REMARK SMILES IDX 1 1 2 2 11 3 9 4 5 5 4 6 3 7 10 8 6 10 7 11 8 12
REMARK H PARENT 10 9
REMARK Flexibility Score: inf
ROOT
ATOM      1  C   UNL     1     -25.116 -50.088  56.227  1.00  0.00     0.044 C 
ATOM      2  C   UNL     1     -25.755 -51.260  55.544  1.00  0.00    -0.047 A 
ATOM      3  C   UNL     1     -26.219 -52.348  56.295  1.00  0.00     0.049 A 
ATOM      4  C   UNL     1     -26.853 -53.431  55.668  1.00  0.00     0.119 A 
ATOM      5  C   UNL     1     -27.039 -53.427  54.267  1.00  0.00    -0.004 A 
ATOM      6  C   UNL     1     -26.588 -52.318  53.526  1.00  0.00     0.008 A 
ATOM      7  C   UNL     1     -25.959 -51.244  54.159  1.00  0.00     0.004 A 
ENDROOT
BRANCH   4   8
ATOM      8  O   UNL     1     -27.297 -54.506  56.438  1.00  0.00    -0.508 OA
ATOM      9  H   UNL     1     -28.260 -54.581  56.745  1.00  0.00     0.293 HD
ENDBRANCH   4   8
BRANCH   5  10
ATOM     10  C   UNL     1     -27.724 -54.591  53.564  1.00  0.00     0.017 C 
ATOM     11  C   UNL     1     -29.233 -54.348  53.438  1.00  0.00     0.012 C 
ATOM     12  C   UNL     1     -27.092 -54.856  52.192  1.00  0.00     0.012 C 
ENDBRANCH   5  10
TORSDOF 2
ENDMDL
MODEL 2
REMARK VINA RESULT:    -4.745      1.529      2.367
REMARK INTER + INTRA:          -5.360
REMARK INTER:                  -5.164
REMARK INTRA:                  -0.196
REMARK UNBOUND:                -0.199
REMARK SMILES Cc1ccc(C(C)C)c(O)c1
REMARK SMILES IDX 1 1 2 2 11 3 9 4 5 5 4 6 3 7 10 8 6 10 7 11 8 12
REMARK H PARENT 10 9
REMARK Flexibility Score: inf
ROOT
ATOM      1  C   UNL     1     -25.090 -50.128  56.133  1.00  0.00     0.044 C 
ATOM      2  C   UNL     1     -25.810 -51.334  55.607  1.00  0.00    -0.047 A 
ATOM      3  C   UNL     1     -26.098 -51.445  54.240  1.00  0.00     0.049 A 
ATOM      4  C   UNL     1     -26.737 -52.587  53.734  1.00  0.00     0.119 A 
ATOM      5  C   UNL     1     -27.086 -53.644  54.603  1.00  0.00    -0.004 A 
ATOM      6  C   UNL     1     -26.773 -53.531  55.972  1.00  0.00     0.008 A 
ATOM      7  C   UNL     1     -26.136 -52.391  56.466  1.00  0.00     0.004 A 
ENDROOT
BRANCH   4   8
ATOM      8  O   UNL     1     -27.019 -52.668  52.371  1.00  0.00    -0.508 OA
ATOM      9  H   UNL     1     -27.966 -52.785  52.028  1.00  0.00     0.293 HD
ENDBRANCH   4   8
BRANCH   5  10
ATOM     10  C   UNL     1     -27.780 -54.894  54.079  1.00  0.00     0.017 C 
ATOM     11  C   UNL     1     -27.336 -56.139  54.855  1.00  0.00     0.012 C 
ATOM     12  C   UNL     1     -29.305 -54.736  54.116  1.00  0.00     0.012 C 
ENDBRANCH   5  10
TORSDOF 2
ENDMDL
MODEL 3
REMARK VINA RESULT:    -4.296      2.281      3.780
REMARK INTER + INTRA:          -4.871
REMARK INTER:                  -4.672
REMARK INTRA:                  -0.199
REMARK UNBOUND:                -0.199
REMARK SMILES Cc1ccc(C(C)C)c(O)c1
REMARK SMILES IDX 1 1 2 2 11 3 9 4 5 5 4 6 3 7 10 8 6 10 7 11 8 12
REMARK H PARENT 10 9
REMARK Flexibility Score: inf
ROOT
ATOM      1  C   UNL     1     -29.343 -50.666  50.876  1.00  0.00     0.044 C 
ATOM      2  C   UNL     1     -28.593 -51.583  51.796  1.00  0.00    -0.047 A 
ATOM      3  C   UNL     1     -27.347 -51.202  52.311  1.00  0.00     0.049 A 
ATOM      4  C   UNL     1     -26.656 -52.036  53.203  1.00  0.00     0.119 A 
ATOM      5  C   UNL     1     -27.221 -53.270  53.598  1.00  0.00    -0.004 A 
ATOM      6  C   UNL     1     -28.484 -53.632  53.090  1.00  0.00     0.008 A 
ATOM      7  C   UNL     1     -29.164 -52.794  52.204  1.00  0.00     0.004 A 
ENDROOT
BRANCH   4   8
ATOM      8  O   UNL     1     -25.413 -51.637  53.694  1.00  0.00    -0.508 OA
ATOM      9  H   UNL     1     -25.267 -50.716  54.089  1.00  0.00     0.293 HD
ENDBRANCH   4   8
BRANCH   5  10
ATOM     10  C   UNL     1     -26.491 -54.193  54.565  1.00  0.00     0.017 C 
ATOM     11  C   UNL     1     -26.901 -53.909  56.015  1.00  0.00     0.012 C 
ATOM     12  C   UNL     1     -26.724 -55.665  54.204  1.00  0.00     0.012 C 
ENDBRANCH   5  10
TORSDOF 2
ENDMDL
MODEL 4
REMARK VINA RESULT:    -4.155      1.973      3.615
REMARK INTER + INTRA:          -4.718
REMARK INTER:                  -4.537
REMARK INTRA:                  -0.181
REMARK UNBOUND:                -0.199
REMARK SMILES Cc1ccc(C(C)C)c(O)c1
REMARK SMILES IDX 1 1 2 2 11 3 9 4 5 5 4 6 3 7 10 8 6 10 7 11 8 12
REMARK H PARENT 10 9
REMARK Flexibility Score: inf
ROOT
ATOM      1  C   UNL     1     -28.393 -51.224  50.875  1.00  0.00     0.044 C 
ATOM      2  C   UNL     1     -28.075 -52.068  52.073  1.00  0.00    -0.047 A 
ATOM      3  C   UNL     1     -28.864 -53.186  52.377  1.00  0.00     0.049 A 
ATOM      4  C   UNL     1     -28.552 -54.004  53.474  1.00  0.00     0.119 A 
ATOM      5  C   UNL     1     -27.427 -53.711  54.277  1.00  0.00    -0.004 A 
ATOM      6  C   UNL     1     -26.630 -52.597  53.949  1.00  0.00     0.008 A 
ATOM      7  C   UNL     1     -26.948 -51.790  52.855  1.00  0.00     0.004 A 
ENDROOT
BRANCH   4   8
ATOM      8  O   UNL     1     -29.358 -55.105  53.760  1.00  0.00    -0.508 OA
ATOM      9  H   UNL     1     -29.953 -55.529  53.057  1.00  0.00     0.293 HD
ENDBRANCH   4   8
BRANCH   5  10
ATOM     10  C   UNL     1     -27.067 -54.583  55.472  1.00  0.00     0.017 C 
ATOM     11  C   UNL     1     -26.211 -55.781  55.043  1.00  0.00     0.012 C 
ATOM     12  C   UNL     1     -26.363 -53.765  56.561  1.00  0.00     0.012 C 
ENDBRANCH   5  10
TORSDOF 2
ENDMDL
MODEL 5
REMARK VINA RESULT:    -4.101      1.852      2.968
REMARK INTER + INTRA:          -4.659
REMARK INTER:                  -4.460
REMARK INTRA:                  -0.199
REMARK UNBOUND:                -0.199
REMARK SMILES Cc1ccc(C(C)C)c(O)c1
REMARK SMILES IDX 1 1 2 2 11 3 9 4 5 5 4 6 3 7 10 8 6 10 7 11 8 12
REMARK H PARENT 10 9
REMARK Flexibility Score: inf
ROOT
ATOM      1  C   UNL     1     -27.396 -51.118  51.729  1.00  0.00     0.044 C 
ATOM      2  C   UNL     1     -27.395 -52.193  52.775  1.00  0.00    -0.047 A 
ATOM      3  C   UNL     1     -26.642 -52.038  53.946  1.00  0.00     0.049 A 
ATOM      4  C   UNL     1     -26.665 -53.021  54.947  1.00  0.00     0.119 A 
ATOM      5  C   UNL     1     -27.462 -54.177  54.784  1.00  0.00    -0.004 A 
ATOM      6  C   UNL     1     -28.230 -54.312  53.612  1.00  0.00     0.008 A 
ATOM      7  C   UNL     1     -28.201 -53.327  52.622  1.00  0.00     0.004 A 
ENDROOT
BRANCH   4   8
ATOM      8  O   UNL     1     -25.900 -52.846  56.099  1.00  0.00    -0.508 OA
ATOM      9  H   UNL     1     -25.432 -53.622  56.553  1.00  0.00     0.293 HD
ENDBRANCH   4   8
BRANCH   5  10
ATOM     10  C   UNL     1     -27.504 -55.257  55.856  1.00  0.00     0.017 C 
ATOM     11  C   UNL     1     -28.950 -55.618  56.219  1.00  0.00     0.012 C 
ATOM     12  C   UNL     1     -26.720 -56.500  55.418  1.00  0.00     0.012 C 
ENDBRANCH   5  10
TORSDOF 2
ENDMDL
MODEL 6
REMARK VINA RESULT:    -4.064      2.463      3.347
REMARK INTER + INTRA:          -4.619
REMARK INTER:                  -4.630
REMARK INTRA:                   0.011
REMARK UNBOUND:                -0.199
REMARK SMILES Cc1ccc(C(C)C)c(O)c1
REMARK SMILES IDX 1 1 2 2 11 3 9 4 5 5 4 6 3 7 10 8 6 10 7 11 8 12
REMARK H PARENT 10 9
REMARK Flexibility Score: inf
ROOT
ATOM      1  C   UNL     1     -26.365 -53.711  56.500  1.00  0.00     0.044 C 
ATOM      2  C   UNL     1     -26.987 -53.404  55.170  1.00  0.00    -0.047 A 
ATOM      3  C   UNL     1     -26.451 -52.397  54.356  1.00  0.00     0.049 A 
ATOM      4  C   UNL     1     -27.003 -52.129  53.094  1.00  0.00     0.119 A 
ATOM      5  C   UNL     1     -28.102 -52.884  52.628  1.00  0.00    -0.004 A 
ATOM      6  C   UNL     1     -28.619 -53.907  53.447  1.00  0.00     0.008 A 
ATOM      7  C   UNL     1     -28.062 -54.167  54.700  1.00  0.00     0.004 A 
ENDROOT
BRANCH   4   8
ATOM      8  O   UNL     1     -26.456 -51.115  52.307  1.00  0.00    -0.508 OA
ATOM      9  H   UNL     1     -26.275 -50.190  52.678  1.00  0.00     0.293 HD
ENDBRANCH   4   8
BRANCH   5  10
ATOM     10  C   UNL     1     -28.718 -52.612  51.263  1.00  0.00     0.017 C 
ATOM     11  C   UNL     1     -29.710 -53.716  50.875  1.00  0.00     0.012 C 
ATOM     12  C   UNL     1     -29.386 -51.233  51.222  1.00  0.00     0.012 C 
ENDBRANCH   5  10
TORSDOF 2
ENDMDL
MODEL 7
REMARK VINA RESULT:    -3.895      2.203      3.855
REMARK INTER + INTRA:          -4.435
REMARK INTER:                  -4.266
REMARK INTRA:                  -0.169
REMARK UNBOUND:                -0.199
REMARK SMILES Cc1ccc(C(C)C)c(O)c1
REMARK SMILES IDX 1 1 2 2 11 3 9 4 5 5 4 6 3 7 10 8 6 10 7 11 8 12
REMARK H PARENT 10 9
REMARK Flexibility Score: inf
ROOT
ATOM      1  C   UNL     1     -29.718 -55.811  56.386  1.00  0.00     0.044 C 
ATOM      2  C   UNL     1     -29.094 -54.926  55.348  1.00  0.00    -0.047 A 
ATOM      3  C   UNL     1     -27.947 -54.181  55.652  1.00  0.00     0.049 A 
ATOM      4  C   UNL     1     -27.334 -53.380  54.676  1.00  0.00     0.119 A 
ATOM      5  C   UNL     1     -27.867 -53.328  53.369  1.00  0.00    -0.004 A 
ATOM      6  C   UNL     1     -29.007 -54.098  53.069  1.00  0.00     0.008 A 
ATOM      7  C   UNL     1     -29.609 -54.893  54.047  1.00  0.00     0.004 A 
ENDROOT
BRANCH   4   8
ATOM      8  O   UNL     1     -26.199 -52.642  55.008  1.00  0.00    -0.508 OA
ATOM      9  H   UNL     1     -25.965 -52.425  55.970  1.00  0.00     0.293 HD
ENDBRANCH   4   8
BRANCH   5  10
ATOM     10  C   UNL     1     -27.220 -52.468  52.292  1.00  0.00     0.017 C 
ATOM     11  C   UNL     1     -27.485 -53.040  50.894  1.00  0.00     0.012 C 
ATOM     12  C   UNL     1     -27.693 -51.012  52.391  1.00  0.00     0.012 C 
ENDBRANCH   5  10
TORSDOF 2
ENDMDL
MODEL 8
REMARK VINA RESULT:    -3.745     11.645     12.775
REMARK INTER + INTRA:          -4.272
REMARK INTER:                  -4.075
REMARK INTRA:                  -0.198
REMARK UNBOUND:                -0.199
REMARK SMILES Cc1ccc(C(C)C)c(O)c1
REMARK SMILES IDX 1 1 2 2 11 3 9 4 5 5 4 6 3 7 10 8 6 10 7 11 8 12
REMARK H PARENT 10 9
REMARK Flexibility Score: inf
ROOT
ATOM      1  C   UNL     1     -33.933 -59.487  65.127  1.00  0.00     0.044 C 
ATOM      2  C   UNL     1     -33.150 -60.176  64.049  1.00  0.00    -0.047 A 
ATOM      3  C   UNL     1     -31.917 -60.773  64.343  1.00  0.00     0.049 A 
ATOM      4  C   UNL     1     -31.196 -61.452  63.349  1.00  0.00     0.119 A 
ATOM      5  C   UNL     1     -31.717 -61.549  62.040  1.00  0.00    -0.004 A 
ATOM      6  C   UNL     1     -32.967 -60.963  61.761  1.00  0.00     0.008 A 
ATOM      7  C   UNL     1     -33.678 -60.290  62.757  1.00  0.00     0.004 A 
ENDROOT
BRANCH   4   8
ATOM      8  O   UNL     1     -29.967 -62.029  63.667  1.00  0.00    -0.508 OA
ATOM      9  H   UNL     1     -29.452 -61.765  64.499  1.00  0.00     0.293 HD
ENDBRANCH   4   8
BRANCH   5  10
ATOM     10  C   UNL     1     -30.955 -62.281  60.944  1.00  0.00     0.017 C 
ATOM     11  C   UNL     1     -31.839 -63.332  60.263  1.00  0.00     0.012 C 
ATOM     12  C   UNL     1     -30.380 -61.296  59.919  1.00  0.00     0.012 C 
ENDBRANCH   5  10
TORSDOF 2
ENDMDL
