MODEL 1
REMARK VINA RESULT:    -5.607      0.000      0.000
REMARK INTER + INTRA:          -8.444
REMARK INTER:                  -7.738
REMARK INTRA:                  -0.706
REMARK UNBOUND:                -0.706
REMARK SMILES CCCCc1cccc(O)c1CCCC
REMARK SMILES IDX 5 1 11 2 9 3 8 4 7 5 6 6 4 7 3 8 2 9 1 10 12 11 13 12 14 13
REMARK SMILES IDX 15 14 10 15
REMARK H PARENT 10 16
REMARK Flexibility Score: inf
ROOT
ATOM      1  C   UNL     1      32.221 -12.041  43.031  1.00  0.00    -0.041 A 
ATOM      2  C   UNL     1      31.042 -11.640  42.332  1.00  0.00    -0.003 A 
ATOM      3  C   UNL     1      30.188 -10.674  42.933  1.00  0.00     0.119 A 
ATOM      4  C   UNL     1      30.564 -10.051  44.126  1.00  0.00     0.046 A 
ATOM      5  C   UNL     1      31.749 -10.397  44.763  1.00  0.00     0.004 A 
ATOM      6  C   UNL     1      32.563 -11.392  44.231  1.00  0.00     0.004 A 
ENDROOT
BRANCH   1   7
ATOM      7  C   UNL     1      33.114 -13.188  42.592  1.00  0.00     0.036 C 
BRANCH   7   8
ATOM      8  C   UNL     1      33.051 -14.346  43.600  1.00  0.00     0.004 C 
BRANCH   8   9
ATOM      9  C   UNL     1      33.245 -15.697  42.902  1.00  0.00    -0.003 C 
ATOM     10  C   UNL     1      34.710 -16.124  42.928  1.00  0.00     0.004 C 
ENDBRANCH   8   9
ENDBRANCH   7   8
ENDBRANCH   1   7
BRANCH   2  11
ATOM     11  C   UNL     1      30.697 -12.204  40.965  1.00  0.00     0.040 C 
BRANCH  11  12
ATOM     12  C   UNL     1      30.333 -13.693  41.054  1.00  0.00     0.005 C 
BRANCH  12  13
ATOM     13  C   UNL     1      30.722 -14.472  39.789  1.00  0.00    -0.003 C 
ATOM     14  C   UNL     1      30.960 -15.956  40.062  1.00  0.00     0.004 C 
ENDBRANCH  12  13
ENDBRANCH  11  12
ENDBRANCH   2  11
BRANCH   3  15
ATOM     15  O   UNL     1      28.952 -10.314  42.388  1.00  0.00    -0.508 OA
ATOM     16  H   UNL     1      28.841  -9.699  41.593  1.00  0.00     0.293 HD
ENDBRANCH   3  15
TORSDOF 7
ENDMDL
MODEL 2
REMARK VINA RESULT:    -5.516      1.415      3.344
REMARK INTER + INTRA:          -8.318
REMARK INTER:                  -7.391
REMARK INTRA:                  -0.928
REMARK UNBOUND:                -0.706
REMARK SMILES CCCCc1cccc(O)c1CCCC
REMARK SMILES IDX 5 1 11 2 9 3 8 4 7 5 6 6 4 7 3 8 2 9 1 10 12 11 13 12 14 13
REMARK SMILES IDX 15 14 10 15
REMARK H PARENT 10 16
REMARK Flexibility Score: inf
ROOT
ATOM      1  C   UNL     1      30.452 -11.569  42.480  1.00  0.00    -0.041 A 
ATOM      2  C   UNL     1      31.530 -11.329  43.386  1.00  0.00    -0.003 A 
ATOM      3  C   UNL     1      31.290 -10.524  44.534  1.00  0.00     0.119 A 
ATOM      4  C   UNL     1      29.995 -10.082  44.822  1.00  0.00     0.046 A 
ATOM      5  C   UNL     1      28.939 -10.381  43.971  1.00  0.00     0.004 A 
ATOM      6  C   UNL     1      29.165 -11.104  42.805  1.00  0.00     0.004 A 
ENDROOT
BRANCH   1   7
ATOM      7  C   UNL     1      30.616 -12.250  41.133  1.00  0.00     0.036 C 
BRANCH   7   8
ATOM      8  C   UNL     1      30.266 -13.743  41.229  1.00  0.00     0.004 C 
BRANCH   8   9
ATOM      9  C   UNL     1      30.571 -14.468  39.913  1.00  0.00    -0.003 C 
ATOM     10  C   UNL     1      30.996 -15.912  40.166  1.00  0.00     0.004 C 
ENDBRANCH   8   9
ENDBRANCH   7   8
ENDBRANCH   1   7
BRANCH   2  11
ATOM     11  C   UNL     1      32.908 -11.926  43.159  1.00  0.00     0.040 C 
BRANCH  11  12
ATOM     12  C   UNL     1      32.957 -13.395  43.605  1.00  0.00     0.005 C 
BRANCH  12  13
ATOM     13  C   UNL     1      33.427 -14.335  42.486  1.00  0.00    -0.003 C 
ATOM     14  C   UNL     1      33.606 -15.775  42.965  1.00  0.00     0.004 C 
ENDBRANCH  12  13
ENDBRANCH  11  12
ENDBRANCH   2  11
BRANCH   3  15
ATOM     15  O   UNL     1      32.308 -10.129  45.407  1.00  0.00    -0.508 OA
ATOM     16  H   UNL     1      32.553 -10.625  46.253  1.00  0.00     0.293 HD
ENDBRANCH   3  15
TORSDOF 7
ENDMDL
MODEL 3
REMARK VINA RESULT:    -5.115      6.209      9.406
REMARK INTER + INTRA:          -7.765
REMARK INTER:                  -7.045
REMARK INTRA:                  -0.720
REMARK UNBOUND:                -0.706
REMARK SMILES CCCCc1cccc(O)c1CCCC
REMARK SMILES IDX 5 1 11 2 9 3 8 4 7 5 6 6 4 7 3 8 2 9 1 10 12 11 13 12 14 13
REMARK SMILES IDX 15 14 10 15
REMARK H PARENT 10 16
REMARK Flexibility Score: inf
ROOT
ATOM      1  C   UNL     1      25.338  -6.193  41.635  1.00  0.00    -0.041 A 
ATOM      2  C   UNL     1      26.459  -6.780  40.971  1.00  0.00    -0.003 A 
ATOM      3  C   UNL     1      26.233  -7.534  39.787  1.00  0.00     0.119 A 
ATOM      4  C   UNL     1      24.953  -7.596  39.228  1.00  0.00     0.046 A 
ATOM      5  C   UNL     1      23.880  -6.963  39.844  1.00  0.00     0.004 A 
ATOM      6  C   UNL     1      24.066  -6.281  41.042  1.00  0.00     0.004 A 
ENDROOT
BRANCH   1   7
ATOM      7  C   UNL     1      25.417  -5.525  42.997  1.00  0.00     0.036 C 
BRANCH   7   8
ATOM      8  C   UNL     1      25.360  -3.997  42.859  1.00  0.00     0.004 C 
BRANCH   8   9
ATOM      9  C   UNL     1      26.216  -3.313  43.931  1.00  0.00    -0.003 C 
ATOM     10  C   UNL     1      27.559  -4.019  44.097  1.00  0.00     0.004 C 
ENDBRANCH   8   9
ENDBRANCH   7   8
ENDBRANCH   1   7
BRANCH   2  11
ATOM     11  C   UNL     1      27.875  -6.597  41.489  1.00  0.00     0.040 C 
BRANCH  11  12
ATOM     12  C   UNL     1      28.089  -7.365  42.803  1.00  0.00     0.005 C 
BRANCH  12  13
ATOM     13  C   UNL     1      27.981  -8.886  42.620  1.00  0.00    -0.003 C 
ATOM     14  C   UNL     1      29.123  -9.641  43.299  1.00  0.00     0.004 C 
ENDBRANCH  12  13
ENDBRANCH  11  12
ENDBRANCH   2  11
BRANCH   3  15
ATOM     15  O   UNL     1      27.245  -8.249  39.141  1.00  0.00    -0.508 OA
ATOM     16  H   UNL     1      27.334  -9.255  39.168  1.00  0.00     0.293 HD
ENDBRANCH   3  15
TORSDOF 7
ENDMDL
MODEL 4
REMARK VINA RESULT:    -5.099      2.667      5.711
REMARK INTER + INTRA:          -7.743
REMARK INTER:                  -6.501
REMARK INTRA:                  -1.242
REMARK UNBOUND:                -0.706
REMARK SMILES CCCCc1cccc(O)c1CCCC
REMARK SMILES IDX 5 1 11 2 9 3 8 4 7 5 6 6 4 7 3 8 2 9 1 10 12 11 13 12 14 13
REMARK SMILES IDX 15 14 10 15
REMARK H PARENT 10 16
REMARK Flexibility Score: inf
ROOT
ATOM      1  C   UNL     1      30.107 -12.030  42.966  1.00  0.00    -0.041 A 
ATOM      2  C   UNL     1      31.168 -11.275  43.553  1.00  0.00    -0.003 A 
ATOM      3  C   UNL     1      32.509 -11.686  43.316  1.00  0.00     0.119 A 
ATOM      4  C   UNL     1      32.776 -12.735  42.432  1.00  0.00     0.046 A 
ATOM      5  C   UNL     1      31.739 -13.419  41.811  1.00  0.00     0.004 A 
ATOM      6  C   UNL     1      30.417 -13.082  42.085  1.00  0.00     0.004 A 
ENDROOT
BRANCH   1   7
ATOM      7  C   UNL     1      28.638 -11.813  43.286  1.00  0.00     0.036 C 
BRANCH   7   8
ATOM      8  C   UNL     1      28.184 -12.742  44.421  1.00  0.00     0.004 C 
BRANCH   8   9
ATOM      9  C   UNL     1      26.774 -12.378  44.902  1.00  0.00    -0.003 C 
ATOM     10  C   UNL     1      26.352 -11.007  44.382  1.00  0.00     0.004 C 
ENDBRANCH   8   9
ENDBRANCH   7   8
ENDBRANCH   1   7
BRANCH   2  11
ATOM     11  C   UNL     1      30.895 -10.043  44.398  1.00  0.00     0.040 C 
BRANCH  11  12
ATOM     12  C   UNL     1      30.862 -10.392  45.894  1.00  0.00     0.005 C 
BRANCH  12  13
ATOM     13  C   UNL     1      29.519 -10.042  46.551  1.00  0.00    -0.003 C 
ATOM     14  C   UNL     1      29.110 -11.049  47.625  1.00  0.00     0.004 C 
ENDBRANCH  12  13
ENDBRANCH  11  12
ENDBRANCH   2  11
BRANCH   3  15
ATOM     15  O   UNL     1      33.605 -11.090  43.948  1.00  0.00    -0.508 OA
ATOM     16  H   UNL     1      33.626 -10.839  44.927  1.00  0.00     0.293 HD
ENDBRANCH   3  15
TORSDOF 7
ENDMDL
MODEL 5
REMARK VINA RESULT:    -5.072      2.077      4.719
REMARK INTER + INTRA:          -7.706
REMARK INTER:                  -6.626
REMARK INTRA:                  -1.080
REMARK UNBOUND:                -0.706
REMARK SMILES CCCCc1cccc(O)c1CCCC
REMARK SMILES IDX 5 1 11 2 9 3 8 4 7 5 6 6 4 7 3 8 2 9 1 10 12 11 13 12 14 13
REMARK SMILES IDX 15 14 10 15
REMARK H PARENT 10 16
REMARK Flexibility Score: inf
ROOT
ATOM      1  C   UNL     1      29.646 -11.132  44.018  1.00  0.00    -0.041 A 
ATOM      2  C   UNL     1      30.768 -11.278  43.145  1.00  0.00    -0.003 A 
ATOM      3  C   UNL     1      32.049 -10.866  43.606  1.00  0.00     0.119 A 
ATOM      4  C   UNL     1      32.215 -10.438  44.926  1.00  0.00     0.046 A 
ATOM      5  C   UNL     1      31.129 -10.366  45.790  1.00  0.00     0.004 A 
ATOM      6  C   UNL     1      29.856 -10.695  45.338  1.00  0.00     0.004 A 
ENDROOT
BRANCH   1   7
ATOM      7  C   UNL     1      28.207 -11.359  43.589  1.00  0.00     0.036 C 
BRANCH   7   8
ATOM      8  C   UNL     1      27.389 -10.065  43.716  1.00  0.00     0.004 C 
BRANCH   8   9
ATOM      9  C   UNL     1      27.947  -8.968  42.802  1.00  0.00    -0.003 C 
ATOM     10  C   UNL     1      28.058  -7.638  43.543  1.00  0.00     0.004 C 
ENDBRANCH   8   9
ENDBRANCH   7   8
ENDBRANCH   1   7
BRANCH   2  11
ATOM     11  C   UNL     1      30.623 -11.878  41.757  1.00  0.00     0.040 C 
BRANCH  11  12
ATOM     12  C   UNL     1      30.650 -13.413  41.809  1.00  0.00     0.005 C 
BRANCH  12  13
ATOM     13  C   UNL     1      32.049 -13.987  41.541  1.00  0.00    -0.003 C 
ATOM     14  C   UNL     1      32.750 -14.448  42.818  1.00  0.00     0.004 C 
ENDBRANCH  12  13
ENDBRANCH  11  12
ENDBRANCH   2  11
BRANCH   3  15
ATOM     15  O   UNL     1      33.179 -10.850  42.783  1.00  0.00    -0.508 OA
ATOM     16  H   UNL     1      33.751 -11.661  42.591  1.00  0.00     0.293 HD
ENDBRANCH   3  15
TORSDOF 7
ENDMDL
MODEL 6
REMARK VINA RESULT:    -5.005      2.121      5.742
REMARK INTER + INTRA:          -7.613
REMARK INTER:                  -6.374
REMARK INTRA:                  -1.239
REMARK UNBOUND:                -0.706
REMARK SMILES CCCCc1cccc(O)c1CCCC
REMARK SMILES IDX 5 1 11 2 9 3 8 4 7 5 6 6 4 7 3 8 2 9 1 10 12 11 13 12 14 13
REMARK SMILES IDX 15 14 10 15
REMARK H PARENT 10 16
REMARK Flexibility Score: inf
ROOT
ATOM      1  C   UNL     1      30.855 -12.129  42.147  1.00  0.00    -0.041 A 
ATOM      2  C   UNL     1      32.017 -12.355  42.948  1.00  0.00    -0.003 A 
ATOM      3  C   UNL     1      32.708 -13.591  42.814  1.00  0.00     0.119 A 
ATOM      4  C   UNL     1      32.320 -14.509  41.834  1.00  0.00     0.046 A 
ATOM      5  C   UNL     1      31.230 -14.249  41.012  1.00  0.00     0.004 A 
ATOM      6  C   UNL     1      30.496 -13.079  41.175  1.00  0.00     0.004 A 
ENDROOT
BRANCH   1   7
ATOM      7  C   UNL     1      29.927 -10.940  42.323  1.00  0.00     0.036 C 
BRANCH   7   8
ATOM      8  C   UNL     1      28.725 -11.312  43.203  1.00  0.00     0.004 C 
BRANCH   8   9
ATOM      9  C   UNL     1      27.932 -10.065  43.611  1.00  0.00    -0.003 C 
ATOM     10  C   UNL     1      28.710  -8.790  43.296  1.00  0.00     0.004 C 
ENDBRANCH   8   9
ENDBRANCH   7   8
ENDBRANCH   1   7
BRANCH   2  11
ATOM     11  C   UNL     1      32.534 -11.303  43.914  1.00  0.00     0.040 C 
BRANCH  11  12
ATOM     12  C   UNL     1      31.828 -11.403  45.275  1.00  0.00     0.005 C 
BRANCH  12  13
ATOM     13  C   UNL     1      31.201 -10.071  45.712  1.00  0.00    -0.003 C 
ATOM     14  C   UNL     1      30.007 -10.263  46.646  1.00  0.00     0.004 C 
ENDBRANCH  12  13
ENDBRANCH  11  12
ENDBRANCH   2  11
BRANCH   3  15
ATOM     15  O   UNL     1      33.774 -13.955  43.642  1.00  0.00    -0.508 OA
ATOM     16  H   UNL     1      34.747 -13.811  43.408  1.00  0.00     0.293 HD
ENDBRANCH   3  15
TORSDOF 7
ENDMDL
MODEL 7
REMARK VINA RESULT:    -4.995      1.768      4.643
REMARK INTER + INTRA:          -7.599
REMARK INTER:                  -6.430
REMARK INTRA:                  -1.168
REMARK UNBOUND:                -0.706
REMARK SMILES CCCCc1cccc(O)c1CCCC
REMARK SMILES IDX 5 1 11 2 9 3 8 4 7 5 6 6 4 7 3 8 2 9 1 10 12 11 13 12 14 13
REMARK SMILES IDX 15 14 10 15
REMARK H PARENT 10 16
REMARK Flexibility Score: inf
ROOT
ATOM      1  C   UNL     1      32.485 -12.635  42.843  1.00  0.00    -0.041 A 
ATOM      2  C   UNL     1      31.376 -12.815  41.960  1.00  0.00    -0.003 A 
ATOM      3  C   UNL     1      31.180 -14.091  41.362  1.00  0.00     0.119 A 
ATOM      4  C   UNL     1      31.991 -15.169  41.728  1.00  0.00     0.046 A 
ATOM      5  C   UNL     1      33.024 -15.001  42.641  1.00  0.00     0.004 A 
ATOM      6  C   UNL     1      33.279 -13.745  43.183  1.00  0.00     0.004 A 
ENDROOT
BRANCH   1   7
ATOM      7  C   UNL     1      32.912 -11.288  43.398  1.00  0.00     0.036 C 
BRANCH   7   8
ATOM      8  C   UNL     1      32.634 -11.207  44.907  1.00  0.00     0.004 C 
BRANCH   8   9
ATOM      9  C   UNL     1      31.613 -10.109  45.222  1.00  0.00    -0.003 C 
ATOM     10  C   UNL     1      30.577 -10.593  46.233  1.00  0.00     0.004 C 
ENDBRANCH   8   9
ENDBRANCH   7   8
ENDBRANCH   1   7
BRANCH   2  11
ATOM     11  C   UNL     1      30.401 -11.688  41.668  1.00  0.00     0.040 C 
BRANCH  11  12
ATOM     12  C   UNL     1      29.337 -11.574  42.770  1.00  0.00     0.005 C 
BRANCH  12  13
ATOM     13  C   UNL     1      28.811 -10.141  42.936  1.00  0.00    -0.003 C 
ATOM     14  C   UNL     1      27.607 -10.062  43.874  1.00  0.00     0.004 C 
ENDBRANCH  12  13
ENDBRANCH  11  12
ENDBRANCH   2  11
BRANCH   3  15
ATOM     15  O   UNL     1      30.203 -14.328  40.391  1.00  0.00    -0.508 OA
ATOM     16  H   UNL     1      29.674 -13.601  39.931  1.00  0.00     0.293 HD
ENDBRANCH   3  15
TORSDOF 7
ENDMDL
MODEL 8
REMARK VINA RESULT:    -4.973      2.503      4.077
REMARK INTER + INTRA:          -7.568
REMARK INTER:                  -6.584
REMARK INTRA:                  -0.985
REMARK UNBOUND:                -0.706
REMARK SMILES CCCCc1cccc(O)c1CCCC
REMARK SMILES IDX 5 1 11 2 9 3 8 4 7 5 6 6 4 7 3 8 2 9 1 10 12 11 13 12 14 13
REMARK SMILES IDX 15 14 10 15
REMARK H PARENT 10 16
REMARK Flexibility Score: inf
ROOT
ATOM      1  C   UNL     1      29.693 -11.267  43.965  1.00  0.00    -0.041 A 
ATOM      2  C   UNL     1      30.824 -11.385  43.101  1.00  0.00    -0.003 A 
ATOM      3  C   UNL     1      32.082 -10.896  43.552  1.00  0.00     0.119 A 
ATOM      4  C   UNL     1      32.222 -10.420  44.858  1.00  0.00     0.046 A 
ATOM      5  C   UNL     1      31.130 -10.374  45.716  1.00  0.00     0.004 A 
ATOM      6  C   UNL     1      29.876 -10.778  45.272  1.00  0.00     0.004 A 
ENDROOT
BRANCH   1   7
ATOM      7  C   UNL     1      28.269 -11.577  43.540  1.00  0.00     0.036 C 
BRANCH   7   8
ATOM      8  C   UNL     1      27.353 -11.724  44.765  1.00  0.00     0.004 C 
BRANCH   8   9
ATOM      9  C   UNL     1      27.061 -13.199  45.061  1.00  0.00    -0.003 C 
ATOM     10  C   UNL     1      27.751 -13.650  46.346  1.00  0.00     0.004 C 
ENDBRANCH   8   9
ENDBRANCH   7   8
ENDBRANCH   1   7
BRANCH   2  11
ATOM     11  C   UNL     1      30.715 -12.035  41.732  1.00  0.00     0.040 C 
BRANCH  11  12
ATOM     12  C   UNL     1      30.797 -13.565  41.836  1.00  0.00     0.005 C 
BRANCH  12  13
ATOM     13  C   UNL     1      32.226 -14.093  41.644  1.00  0.00    -0.003 C 
ATOM     14  C   UNL     1      32.894 -14.474  42.965  1.00  0.00     0.004 C 
ENDBRANCH  12  13
ENDBRANCH  11  12
ENDBRANCH   2  11
BRANCH   3  15
ATOM     15  O   UNL     1      33.214 -10.852  42.732  1.00  0.00    -0.508 OA
ATOM     16  H   UNL     1      33.531 -11.625  42.163  1.00  0.00     0.293 HD
ENDBRANCH   3  15
TORSDOF 7
ENDMDL
MODEL 9
REMARK VINA RESULT:    -3.184      1.583      4.332
REMARK INTER + INTRA:          -5.101
REMARK INTER:                  -4.401
REMARK INTRA:                  -0.699
REMARK UNBOUND:                -0.706
REMARK SMILES CCCCc1cccc(O)c1CCCC
REMARK SMILES IDX 5 1 11 2 9 3 8 4 7 5 6 6 4 7 3 8 2 9 1 10 12 11 13 12 14 13
REMARK SMILES IDX 15 14 10 15
REMARK H PARENT 10 16
REMARK Flexibility Score: inf
ROOT
ATOM      1  C   UNL     1      31.870 -14.674  41.638  1.00  0.00    -0.041 A 
ATOM      2  C   UNL     1      31.184 -13.563  41.057  1.00  0.00    -0.003 A 
ATOM      3  C   UNL     1      30.486 -13.758  39.832  1.00  0.00     0.119 A 
ATOM      4  C   UNL     1      30.382 -15.038  39.280  1.00  0.00     0.046 A 
ATOM      5  C   UNL     1      30.994 -16.125  39.891  1.00  0.00     0.004 A 
ATOM      6  C   UNL     1      31.743 -15.945  41.049  1.00  0.00     0.004 A 
ENDROOT
BRANCH   1   7
ATOM      7  C   UNL     1      32.799 -14.561  42.835  1.00  0.00     0.036 C 
BRANCH   7   8
ATOM      8  C   UNL     1      33.278 -15.948  43.286  1.00  0.00     0.004 C 
BRANCH   8   9
ATOM      9  C   UNL     1      34.793 -15.958  43.525  1.00  0.00    -0.003 C 
ATOM     10  C   UNL     1      35.556 -16.120  42.214  1.00  0.00     0.004 C 
ENDBRANCH   8   9
ENDBRANCH   7   8
ENDBRANCH   1   7
BRANCH   2  11
ATOM     11  C   UNL     1      31.169 -12.200  41.725  1.00  0.00     0.040 C 
BRANCH  11  12
ATOM     12  C   UNL     1      29.946 -12.043  42.640  1.00  0.00     0.005 C 
BRANCH  12  13
ATOM     13  C   UNL     1      29.549 -10.574  42.848  1.00  0.00    -0.003 C 
ATOM     14  C   UNL     1      30.201  -9.959  44.086  1.00  0.00     0.004 C 
ENDBRANCH  12  13
ENDBRANCH  11  12
ENDBRANCH   2  11
BRANCH   3  15
ATOM     15  O   UNL     1      29.895 -12.707  39.124  1.00  0.00    -0.508 OA
ATOM     16  H   UNL     1      30.129 -11.733  39.257  1.00  0.00     0.293 HD
ENDBRANCH   3  15
TORSDOF 7
ENDMDL
